REMARK SMILES CCc1cc2c(C)cc(=O)oc2cc1O[C@H](C)C(=O)NCCCNC(=O)c1ccc(-c2c3nc(c(-c4c(F)cc(S(=O)(=O)[O-])cc4F)c4ccc([nH]4)c(-c4c(F)cc(S(=O)(=O)[O-])cc4F)c4nc(c(-c5c(F)cc(S(=O)(=O)[O-])cc5F)c5ccc2[nH]5)C=C4)C=C3)cc1
REMARK SMILES IDX 22 1 21 2 20 3 18 4 19 5 16 7 17 8 15 9 14 10 3 11 4 12 5 13
REMARK SMILES IDX 13 14 6 15 12 16 7 17 8 18 11 19 9 20 10 21 2 22 1 23 23 24
REMARK SMILES IDX 24 25 25 26 26 28 27 29 28 30 92 31 29 32 91 33 30 34 31 35
REMARK SMILES IDX 32 36 85 37 33 38 90 39 84 40 86 41 34 42 89 43 83 44 82 45
REMARK SMILES IDX 35 47 69 48 48 49 68 50 49 51 52 52 67 53 87 54 50 55 51 56
REMARK SMILES IDX 66 58 88 59 53 60 36 61 37 62 46 63 38 64 39 65 45 66 47 67
REMARK SMILES IDX 40 68 41 69 42 70 43 71 44 72 70 73 71 74 80 75 72 76 73 77
REMARK SMILES IDX 79 78 81 79 74 80 75 81 76 82 77 83 78 84 54 85 55 86 64 87
REMARK SMILES IDX 56 88 57 89 63 90 65 91 58 92 59 93 60 94 61 95 62 96
REMARK H PARENT 20 6 24 27 86 46 52 57
REMARK Flexibility Score: inf
ROOT
ATOM      1  C   UNL     1       0.412  -3.704   2.540  1.00  0.00     0.042 C 
ENDROOT
BRANCH   1   2
ATOM      2  C   UNL     1       0.387  -4.698   1.389  1.00  0.00     0.118 C 
BRANCH   2   3
ATOM      3  N   UNL     1      -0.955  -4.955   0.903  1.00  0.00    -0.353 N 
ATOM      4  C   UNL     1      -1.358  -5.492  -0.281  1.00  0.00     0.260 C 
ATOM      5  O   UNL     1      -2.562  -5.742  -0.408  1.00  0.00    -0.271 OA
ATOM      6  H   UNL     1      -1.681  -4.706   1.520  1.00  0.00     0.163 HD
BRANCH   4   7
ATOM      7  C   UNL     1      -0.369  -5.786  -1.444  1.00  0.00     0.258 C 
ATOM      8  C   UNL     1       0.242  -4.464  -1.932  1.00  0.00     0.064 C 
BRANCH   7   9
ATOM      9  O   UNL     1       0.653  -6.774  -1.490  1.00  0.00    -0.480 OA
BRANCH   9  10
ATOM     10  C   UNL     1       0.968  -7.533  -0.402  1.00  0.00     0.127 A 
ATOM     11  C   UNL     1       2.329  -7.873  -0.245  1.00  0.00    -0.005 A 
ATOM     12  C   UNL     1       2.740  -8.508   0.947  1.00  0.00     0.019 A 
ATOM     13  C   UNL     1       1.826  -8.831   1.957  1.00  0.00     0.021 A 
ATOM     14  C   UNL     1       0.037  -7.986   0.527  1.00  0.00     0.094 A 
ATOM     15  C   UNL     1       2.208  -9.397   3.258  1.00  0.00    -0.033 A 
ATOM     16  C   UNL     1       0.482  -8.569   1.713  1.00  0.00     0.142 A 
ATOM     17  C   UNL     1       3.628  -9.803   3.520  1.00  0.00     0.045 C 
ATOM     18  C   UNL     1       1.261  -9.521   4.200  1.00  0.00     0.098 A 
ATOM     19  O   UNL     1      -0.502  -8.798   2.694  1.00  0.00    -0.423 OA
ATOM     20  C   UNL     1      -0.155  -9.188   3.978  1.00  0.00     0.336 A 
ATOM     21  O   UNL     1      -0.986  -9.301   4.870  1.00  0.00    -0.246 OA
BRANCH  11  22
ATOM     22  C   UNL     1       3.332  -7.489  -1.320  1.00  0.00     0.036 C 
ATOM     23  C   UNL     1       4.585  -8.357  -1.409  1.00  0.00     0.009 C 
ENDBRANCH  11  22
ENDBRANCH   9  10
ENDBRANCH   7   9
ENDBRANCH   4   7
ENDBRANCH   2   3
ENDBRANCH   1   2
BRANCH   1  24
ATOM     24  C   UNL     1      -0.254  -4.199   3.818  1.00  0.00     0.118 C 
BRANCH  24  25
ATOM     25  N   UNL     1       0.395  -5.359   4.414  1.00  0.00    -0.352 N 
ATOM     26  C   UNL     1       0.707  -5.600   5.734  1.00  0.00     0.251 C 
ATOM     27  H   UNL     1       0.645  -6.073   3.784  1.00  0.00     0.163 HD
ATOM     28  O   UNL     1       1.357  -6.601   6.030  1.00  0.00    -0.269 OA
BRANCH  26  29
ATOM     29  C   UNL     1       0.319  -4.619   6.775  1.00  0.00     0.039 A 
ATOM     30  C   UNL     1       1.262  -4.251   7.737  1.00  0.00     0.014 A 
ATOM     31  C   UNL     1      -0.940  -4.014   6.768  1.00  0.00     0.014 A 
ATOM     32  C   UNL     1       0.978  -3.206   8.620  1.00  0.00     0.010 A 
ATOM     33  C   UNL     1      -1.184  -2.909   7.580  1.00  0.00     0.010 A 
ATOM     34  C   UNL     1      -0.224  -2.486   8.510  1.00  0.00    -0.014 A 
BRANCH  34  35
ATOM     35  C   UNL     1      -0.463  -1.272   9.336  1.00  0.00     0.031 A 
ATOM     36  C   UNL     1      -1.616  -1.212  10.302  1.00  0.00     0.074 A 
ATOM     37  C   UNL     1       0.331  -0.194   9.168  1.00  0.00     0.049 A 
ATOM     38  N   UNL     1      -1.965  -0.242  11.109  1.00  0.00    -0.248 NA
ATOM     39  C   UNL     1      -2.515  -2.375  10.342  1.00  0.00     0.031 C 
ATOM     40  C   UNL     1       1.419  -0.087   8.190  1.00  0.00     0.029 A 
ATOM     41  N   UNL     1       0.350   1.018   9.812  1.00  0.00    -0.354 N 
ATOM     42  C   UNL     1      -3.129  -0.671  11.736  1.00  0.00     0.074 A 
ATOM     43  C   UNL     1      -3.460  -1.961  11.174  1.00  0.00     0.031 C 
ATOM     44  C   UNL     1       2.025   1.103   8.330  1.00  0.00     0.029 A 
ATOM     45  C   UNL     1       1.359   1.854   9.389  1.00  0.00     0.049 A 
ATOM     46  H   UNL     1      -0.297   1.267  10.511  1.00  0.00     0.167 HD
ATOM     47  C   UNL     1      -3.841  -0.059  12.714  1.00  0.00     0.037 A 
ATOM     48  C   UNL     1       1.720   3.079   9.818  1.00  0.00     0.037 A 
ATOM     49  C   UNL     1      -3.483   1.206  13.298  1.00  0.00     0.049 A 
ATOM     50  C   UNL     1       0.969   3.700  10.963  1.00  0.00     0.074 A 
ATOM     51  C   UNL     1      -4.092   1.878  14.343  1.00  0.00     0.029 A 
ATOM     52  N   UNL     1      -2.413   1.990  12.890  1.00  0.00    -0.354 N 
ATOM     53  N   UNL     1      -0.076   3.239  11.608  1.00  0.00    -0.248 NA
ATOM     54  C   UNL     1       1.457   4.995  11.454  1.00  0.00     0.031 C 
ATOM     55  C   UNL     1      -3.406   3.081  14.549  1.00  0.00     0.029 A 
ATOM     56  C   UNL     1      -2.347   3.140  13.658  1.00  0.00     0.049 A 
ATOM     57  H   UNL     1      -1.792   1.762  12.161  1.00  0.00     0.167 HD
ATOM     58  C   UNL     1      -0.355   4.175  12.597  1.00  0.00     0.074 A 
ATOM     59  C   UNL     1       0.639   5.221  12.473  1.00  0.00     0.031 C 
ATOM     60  C   UNL     1      -1.344   4.167  13.525  1.00  0.00     0.037 A 
BRANCH  47  61
ATOM     61  C   UNL     1      -5.067  -0.766  13.222  1.00  0.00     0.058 A 
ATOM     62  C   UNL     1      -4.975  -1.940  13.989  1.00  0.00     0.135 A 
ATOM     63  C   UNL     1      -6.350  -0.261  12.953  1.00  0.00     0.135 A 
ATOM     64  F   UNL     1      -3.775  -2.475  14.263  1.00  0.00    -0.206 F 
ATOM     65  C   UNL     1      -6.109  -2.609  14.437  1.00  0.00     0.059 A 
ATOM     66  C   UNL     1      -7.498  -0.899  13.416  1.00  0.00     0.059 A 
ATOM     67  F   UNL     1      -6.497   0.858  12.227  1.00  0.00    -0.206 F 
ATOM     68  C   UNL     1      -7.367  -2.083  14.141  1.00  0.00     0.060 A 
BRANCH  68  69
ATOM     69  S   UNL     1      -8.831  -2.964  14.724  1.00  0.00     0.124 S 
ATOM     70  O   UNL     1      -8.894  -4.077  13.781  1.00  0.00    -0.237 OA
ATOM     71  O   UNL     1      -8.464  -3.314  16.092  1.00  0.00    -0.237 OA
ATOM     72  O   UNL     1      -9.896  -1.973  14.598  1.00  0.00    -0.744 OA
ENDBRANCH  68  69
ENDBRANCH  47  61
BRANCH  48  73
ATOM     73  C   UNL     1       2.888   3.763   9.204  1.00  0.00     0.058 A 
ATOM     74  C   UNL     1       4.105   3.869   9.895  1.00  0.00     0.135 A 
ATOM     75  C   UNL     1       2.826   4.292   7.907  1.00  0.00     0.135 A 
ATOM     76  F   UNL     1       4.213   3.380  11.140  1.00  0.00    -0.206 F 
ATOM     77  C   UNL     1       5.215   4.485   9.328  1.00  0.00     0.059 A 
ATOM     78  C   UNL     1       3.929   4.894   7.309  1.00  0.00     0.059 A 
ATOM     79  F   UNL     1       1.691   4.197   7.196  1.00  0.00    -0.206 F 
ATOM     80  C   UNL     1       5.118   4.993   8.031  1.00  0.00     0.060 A 
BRANCH  80  81
ATOM     81  S   UNL     1       6.584   5.732   7.276  1.00  0.00     0.124 S 
ATOM     82  O   UNL     1       6.637   7.027   7.944  1.00  0.00    -0.237 OA
ATOM     83  O   UNL     1       7.631   4.782   7.639  1.00  0.00    -0.237 OA
ATOM     84  O   UNL     1       6.246   5.765   5.856  1.00  0.00    -0.744 OA
ENDBRANCH  80  81
ENDBRANCH  48  73
BRANCH  60  85
ATOM     85  C   UNL     1      -1.377   5.308  14.501  1.00  0.00     0.058 A 
ATOM     86  C   UNL     1      -1.804   6.590  14.123  1.00  0.00     0.135 A 
ATOM     87  C   UNL     1      -1.009   5.105  15.841  1.00  0.00     0.135 A 
ATOM     88  F   UNL     1      -2.161   6.835  12.852  1.00  0.00    -0.206 F 
ATOM     89  C   UNL     1      -1.837   7.641  15.033  1.00  0.00     0.059 A 
ATOM     90  C   UNL     1      -1.057   6.135  16.774  1.00  0.00     0.059 A 
ATOM     91  F   UNL     1      -0.605   3.894  16.255  1.00  0.00    -0.206 F 
ATOM     92  C   UNL     1      -1.458   7.404  16.356  1.00  0.00     0.060 A 
BRANCH  92  93
ATOM     93  S   UNL     1      -1.519   8.770  17.535  1.00  0.00     0.124 S 
ATOM     94  O   UNL     1      -0.310   9.510  17.187  1.00  0.00    -0.237 OA
ATOM     95  O   UNL     1      -2.780   9.422  17.198  1.00  0.00    -0.237 OA
ATOM     96  O   UNL     1      -1.494   8.099  18.831  1.00  0.00    -0.744 OA
ENDBRANCH  92  93
ENDBRANCH  60  85
ENDBRANCH  34  35
ENDBRANCH  26  29
ENDBRANCH  24  25
ENDBRANCH   1  24
TORSDOF 16
