REMARK SMILES C#CCN(CC(=O)NCCCNC(=O)c1ccc(-c2c3nc(c(-c4c(F)cc(S(=O)(=O)[O-])cc4F)c4ccc([nH]4)c(-c4c(F)cc(S(=O)(=O)[O-])cc4F)c4nc(c(-c5c(F)cc(S(=O)(=O)[O-])cc5F)c5ccc2[nH]5)C=C4)C=C3)cc1)c1nnc(C)c2ccccc12
REMARK SMILES IDX 10 1 9 2 8 3 6 4 7 5 5 7 4 8 3 9 2 10 1 11 81 12 82 13 91 14
REMARK SMILES IDX 83 15 86 16 90 17 84 18 87 19 89 20 85 21 88 22 11 23 12 24
REMARK SMILES IDX 13 25 14 27 15 28 16 29 80 30 17 31 79 32 18 33 19 34 20 35
REMARK SMILES IDX 73 36 21 37 78 38 72 39 74 40 22 41 77 42 71 43 70 44 23 46
REMARK SMILES IDX 57 47 36 48 56 49 37 50 40 51 55 52 75 53 38 54 39 55 54 57
REMARK SMILES IDX 76 58 41 59 24 60 25 61 34 62 26 63 27 64 33 65 35 66 28 67
REMARK SMILES IDX 29 68 30 69 31 70 32 71 58 72 59 73 68 74 60 75 61 76 67 77
REMARK SMILES IDX 69 78 62 79 63 80 64 81 65 82 66 83 42 84 43 85 52 86 44 87
REMARK SMILES IDX 45 88 51 89 53 90 46 91 47 92 48 93 49 94 50 95
REMARK H PARENT 8 6 12 26 74 45 40 56
REMARK Flexibility Score: inf
ROOT
ATOM      1  C   UNL     1      -5.080   1.007   1.223  1.00  0.00     0.042 C 
ENDROOT
BRANCH   1   2
ATOM      2  C   UNL     1      -5.393  -0.039   0.162  1.00  0.00     0.117 C 
BRANCH   2   3
ATOM      3  N   UNL     1      -5.660   0.581  -1.117  1.00  0.00    -0.354 N 
ATOM      4  C   UNL     1      -4.749   0.834  -2.105  1.00  0.00     0.239 C 
ATOM      5  O   UNL     1      -5.090   1.515  -3.072  1.00  0.00    -0.273 OA
ATOM      6  H   UNL     1      -6.591   0.847  -1.295  1.00  0.00     0.163 HD
BRANCH   4   7
ATOM      7  C   UNL     1      -3.370   0.189  -1.989  1.00  0.00     0.219 C 
BRANCH   7   8
ATOM      8  N   UNL     1      -2.489   0.872  -0.988  1.00  0.00    -0.334 N 
BRANCH   8   9
ATOM      9  C   UNL     1      -1.861  -0.086   0.034  1.00  0.00     0.208 C 
BRANCH   9  10
ATOM     10  C   UNL     1      -0.342  -0.086   0.034  1.00  0.00    -0.085 C 
ATOM     11  C   UNL     1       0.962  -0.086   0.034  1.00  0.00     0.006 C 
ENDBRANCH   9  10
ENDBRANCH   8   9
BRANCH   8  12
ATOM     12  C   UNL     1      -1.701   1.775  -1.756  1.00  0.00     0.160 A 
ATOM     13  N   UNL     1      -0.864   1.191  -2.659  1.00  0.00    -0.132 NA
ATOM     14  C   UNL     1      -1.964   3.201  -1.871  1.00  0.00     0.028 A 
ATOM     15  N   UNL     1      -0.598   1.803  -3.837  1.00  0.00    -0.153 NA
ATOM     16  C   UNL     1      -1.246   3.866  -2.874  1.00  0.00     0.009 A 
ATOM     17  C   UNL     1      -2.909   4.067  -1.232  1.00  0.00     0.013 A 
ATOM     18  C   UNL     1      -0.918   3.102  -3.972  1.00  0.00     0.068 A 
ATOM     19  C   UNL     1      -1.122   5.266  -2.972  1.00  0.00     0.011 A 
ATOM     20  C   UNL     1      -2.936   5.469  -1.465  1.00  0.00     0.001 A 
ATOM     21  C   UNL     1      -1.729   3.441  -5.224  1.00  0.00     0.069 C 
ATOM     22  C   UNL     1      -1.973   6.080  -2.259  1.00  0.00     0.001 A 
ENDBRANCH   8  12
ENDBRANCH   7   8
ENDBRANCH   4   7
ENDBRANCH   2   3
ENDBRANCH   1   2
BRANCH   1  23
ATOM     23  C   UNL     1      -6.267   1.903   1.535  1.00  0.00     0.118 C 
BRANCH  23  24
ATOM     24  N   UNL     1      -7.414   1.135   1.997  1.00  0.00    -0.352 N 
ATOM     25  C   UNL     1      -8.113   1.228   3.162  1.00  0.00     0.251 C 
ATOM     26  H   UNL     1      -7.731   0.443   1.373  1.00  0.00     0.163 HD
ATOM     27  O   UNL     1      -8.880   0.303   3.475  1.00  0.00    -0.269 OA
BRANCH  25  28
ATOM     28  C   UNL     1      -7.971   2.402   4.040  1.00  0.00     0.039 A 
ATOM     29  C   UNL     1      -8.046   2.221   5.422  1.00  0.00     0.014 A 
ATOM     30  C   UNL     1      -7.814   3.687   3.508  1.00  0.00     0.014 A 
ATOM     31  C   UNL     1      -7.938   3.323   6.268  1.00  0.00     0.010 A 
ATOM     32  C   UNL     1      -7.612   4.771   4.355  1.00  0.00     0.010 A 
ATOM     33  C   UNL     1      -7.699   4.604   5.743  1.00  0.00    -0.014 A 
BRANCH  33  34
ATOM     34  C   UNL     1      -7.571   5.779   6.638  1.00  0.00     0.031 A 
ATOM     35  C   UNL     1      -8.572   6.901   6.561  1.00  0.00     0.074 A 
ATOM     36  C   UNL     1      -6.540   5.842   7.502  1.00  0.00     0.049 A 
ATOM     37  N   UNL     1      -8.622   8.010   7.253  1.00  0.00    -0.248 NA
ATOM     38  C   UNL     1      -9.643   6.775   5.558  1.00  0.00     0.031 C 
ATOM     39  C   UNL     1      -5.482   4.837   7.630  1.00  0.00     0.029 A 
ATOM     40  N   UNL     1      -6.211   6.789   8.438  1.00  0.00    -0.354 N 
ATOM     41  C   UNL     1      -9.720   8.711   6.769  1.00  0.00     0.074 A 
ATOM     42  C   UNL     1     -10.270   7.936   5.679  1.00  0.00     0.031 C 
ATOM     43  C   UNL     1      -4.644   5.202   8.613  1.00  0.00     0.029 A 
ATOM     44  C   UNL     1      -5.079   6.485   9.157  1.00  0.00     0.049 A 
ATOM     45  H   UNL     1      -6.736   7.610   8.581  1.00  0.00     0.167 HD
ATOM     46  C   UNL     1     -10.242   9.879   7.212  1.00  0.00     0.037 A 
ATOM     47  C   UNL     1      -4.462   7.165  10.141  1.00  0.00     0.037 A 
ATOM     48  C   UNL     1      -9.698  10.633   8.312  1.00  0.00     0.049 A 
ATOM     49  C   UNL     1      -5.053   8.468  10.606  1.00  0.00     0.074 A 
ATOM     50  C   UNL     1     -10.179  11.802   8.874  1.00  0.00     0.029 A 
ATOM     51  N   UNL     1      -8.552  10.293   9.016  1.00  0.00    -0.354 N 
ATOM     52  N   UNL     1      -6.133   9.082  10.183  1.00  0.00    -0.248 NA
ATOM     53  C   UNL     1      -4.348   9.168  11.688  1.00  0.00     0.031 C 
ATOM     54  C   UNL     1      -9.295  12.197   9.883  1.00  0.00     0.029 A 
ATOM     55  C   UNL     1      -8.295  11.243   9.990  1.00  0.00     0.049 A 
ATOM     56  H   UNL     1      -8.002   9.493   8.848  1.00  0.00     0.167 HD
ATOM     57  C   UNL     1      -6.251  10.226  10.964  1.00  0.00     0.074 A 
ATOM     58  C   UNL     1      -5.143  10.208  11.898  1.00  0.00     0.031 C 
ATOM     59  C   UNL     1      -7.188  11.206  10.914  1.00  0.00     0.037 A 
BRANCH  46  60
ATOM     60  C   UNL     1     -11.466  10.410   6.515  1.00  0.00     0.058 A 
ATOM     61  C   UNL     1     -12.713   9.773   6.626  1.00  0.00     0.135 A 
ATOM     62  C   UNL     1     -11.403  11.593   5.761  1.00  0.00     0.135 A 
ATOM     63  F   UNL     1     -12.829   8.629   7.320  1.00  0.00    -0.206 F 
ATOM     64  C   UNL     1     -13.846  10.273   5.993  1.00  0.00     0.059 A 
ATOM     65  C   UNL     1     -12.531  12.129   5.145  1.00  0.00     0.059 A 
ATOM     66  F   UNL     1     -10.238  12.244   5.619  1.00  0.00    -0.206 F 
ATOM     67  C   UNL     1     -13.746  11.454   5.257  1.00  0.00     0.060 A 
BRANCH  67  68
ATOM     68  S   UNL     1     -15.230  12.095   4.454  1.00  0.00     0.124 S 
ATOM     69  O   UNL     1     -15.423  11.126   3.380  1.00  0.00    -0.237 OA
ATOM     70  O   UNL     1     -16.212  12.048   5.534  1.00  0.00    -0.237 OA
ATOM     71  O   UNL     1     -14.835  13.434   4.027  1.00  0.00    -0.744 OA
ENDBRANCH  67  68
ENDBRANCH  46  60
BRANCH  47  72
ATOM     72  C   UNL     1      -3.228   6.617  10.767  1.00  0.00     0.058 A 
ATOM     73  C   UNL     1      -3.229   6.171  12.097  1.00  0.00     0.135 A 
ATOM     74  C   UNL     1      -2.025   6.528  10.049  1.00  0.00     0.135 A 
ATOM     75  F   UNL     1      -4.353   6.238  12.826  1.00  0.00    -0.206 F 
ATOM     76  C   UNL     1      -2.076   5.680  12.701  1.00  0.00     0.059 A 
ATOM     77  C   UNL     1      -0.867   6.013  10.622  1.00  0.00     0.059 A 
ATOM     78  F   UNL     1      -1.975   6.923   8.767  1.00  0.00    -0.206 F 
ATOM     79  C   UNL     1      -0.900   5.604  11.955  1.00  0.00     0.060 A 
BRANCH  79  80
ATOM     80  S   UNL     1       0.582   4.936  12.740  1.00  0.00     0.124 S 
ATOM     81  O   UNL     1       0.942   6.014  13.654  1.00  0.00    -0.237 OA
ATOM     82  O   UNL     1       0.075   3.715  13.360  1.00  0.00    -0.237 OA
ATOM     83  O   UNL     1       1.492   4.729  11.618  1.00  0.00    -0.744 OA
ENDBRANCH  79  80
ENDBRANCH  47  72
BRANCH  59  84
ATOM     84  C   UNL     1      -7.074  12.322  11.916  1.00  0.00     0.058 A 
ATOM     85  C   UNL     1      -6.058  13.287  11.835  1.00  0.00     0.135 A 
ATOM     86  C   UNL     1      -8.022  12.453  12.945  1.00  0.00     0.135 A 
ATOM     87  F   UNL     1      -5.123  13.206  10.874  1.00  0.00    -0.206 F 
ATOM     88  C   UNL     1      -5.967  14.325  12.756  1.00  0.00     0.059 A 
ATOM     89  C   UNL     1      -7.969  13.502  13.857  1.00  0.00     0.059 A 
ATOM     90  F   UNL     1      -9.022  11.565  13.061  1.00  0.00    -0.206 F 
ATOM     91  C   UNL     1      -6.929  14.425  13.763  1.00  0.00     0.060 A 
BRANCH  91  92
ATOM     92  S   UNL     1      -6.813  15.793  14.935  1.00  0.00     0.124 S 
ATOM     93  O   UNL     1      -5.669  15.390  15.745  1.00  0.00    -0.237 OA
ATOM     94  O   UNL     1      -6.596  16.938  14.056  1.00  0.00    -0.237 OA
ATOM     95  O   UNL     1      -8.104  15.768  15.615  1.00  0.00    -0.744 OA
ENDBRANCH  91  92
ENDBRANCH  59  84
ENDBRANCH  33  34
ENDBRANCH  25  28
ENDBRANCH  23  24
ENDBRANCH   1  23
TORSDOF 17
