REMARK SMILES Cc1cccc(-c2noc(C[N@@H+](C)Cc3ncccc3C(=O)NCCCNC(=O)c3ccc(-c4c5nc(c(-c6c(F)cc(S(=O)(=O)[O-])cc6F)c6ccc([nH]6)c(-c6c(F)cc(S(=O)(=O)[O-])cc6F)c6nc(c(-c7c(F)cc(S(=O)(=O)[O-])cc7F)c7ccc4[nH]7)C=C6)C=C5)cc3)n2)c1
REMARK SMILES IDX 24 1 23 2 21 3 22 4 20 6 15 7 16 8 17 9 19 10 18 11 14 12
REMARK SMILES IDX 12 13 13 14 11 16 10 17 7 18 8 19 96 20 9 21 6 22 1 23 2 24
REMARK SMILES IDX 3 25 97 26 4 27 5 28 25 29 26 30 27 31 28 32 29 34 30 35
REMARK SMILES IDX 31 36 95 37 32 38 94 39 33 40 34 41 35 42 88 43 36 44 93 45
REMARK SMILES IDX 87 46 89 47 37 48 92 49 86 50 85 51 38 53 72 54 51 55 71 56
REMARK SMILES IDX 52 57 55 58 70 59 90 60 53 61 54 62 69 64 91 65 56 66 39 67
REMARK SMILES IDX 40 68 49 69 41 70 42 71 48 72 50 73 43 74 44 75 45 76 46 77
REMARK SMILES IDX 47 78 73 79 74 80 83 81 75 82 76 83 82 84 84 85 77 86 78 87
REMARK SMILES IDX 79 88 80 89 81 90 57 91 58 92 67 93 59 94 60 95 66 96 68 97
REMARK SMILES IDX 61 98 62 99 63 100 64 101 65 102
REMARK H PARENT 23 5 12 15 27 33 89 52 55 63
REMARK Flexibility Score: inf
ROOT
ATOM      1  C   UNL     1      -3.188   0.696  -6.080  1.00  0.00     0.118 C 
ENDROOT
BRANCH   1   2
ATOM      2  N   UNL     1      -3.593   1.060  -4.726  1.00  0.00    -0.352 N 
ATOM      3  C   UNL     1      -3.696   2.238  -4.023  1.00  0.00     0.253 C 
ATOM      4  O   UNL     1      -4.188   2.122  -2.902  1.00  0.00    -0.269 OA
ATOM      5  H   UNL     1      -3.853   0.278  -4.189  1.00  0.00     0.163 HD
BRANCH   3   6
ATOM      6  C   UNL     1      -3.281   3.592  -4.531  1.00  0.00     0.067 A 
ATOM      7  C   UNL     1      -3.704   4.806  -3.944  1.00  0.00     0.107 A 
ATOM      8  N   UNL     1      -3.371   6.027  -4.489  1.00  0.00    -0.254 NA
ATOM      9  C   UNL     1      -2.554   6.077  -5.553  1.00  0.00     0.111 A 
ATOM     10  C   UNL     1      -2.395   3.717  -5.612  1.00  0.00     0.017 A 
ATOM     11  C   UNL     1      -2.027   4.955  -6.135  1.00  0.00     0.021 A 
BRANCH   7  12
ATOM     12  C   UNL     1      -4.581   4.930  -2.698  1.00  0.00     0.320 C 
BRANCH  12  13
ATOM     13  N   UNL     1      -4.183   5.934  -1.666  1.00  0.00    -0.325 N 
ATOM     14  C   UNL     1      -4.457   7.311  -2.056  1.00  0.00     0.333 C 
ATOM     15  H   UNL     1      -4.785   5.733  -0.868  1.00  0.00     0.348 HD
BRANCH  13  16
ATOM     16  C   UNL     1      -2.787   5.774  -1.207  1.00  0.00     0.364 C 
BRANCH  16  17
ATOM     17  C   UNL     1      -2.494   4.448  -0.585  1.00  0.00     0.282 A 
ATOM     18  C   UNL     1      -1.887   2.521  -0.031  1.00  0.00     0.202 A 
ATOM     19  N   UNL     1      -2.896   2.791   0.814  1.00  0.00    -0.057 NA
ATOM     20  N   UNL     1      -1.569   3.560  -0.882  1.00  0.00    -0.186 NA
ATOM     21  O   UNL     1      -3.300   4.069   0.447  1.00  0.00    -0.333 OA
BRANCH  18  22
ATOM     22  C   UNL     1      -1.168   1.257  -0.027  1.00  0.00     0.023 A 
ATOM     23  C   UNL     1       2.431  -0.013  -0.112  1.00  0.00     0.044 C 
ATOM     24  C   UNL     1       0.932   0.021  -0.059  1.00  0.00    -0.050 A 
ATOM     25  C   UNL     1       0.216  -1.175   0.080  1.00  0.00     0.003 A 
ATOM     26  C   UNL     1       0.231   1.234  -0.129  1.00  0.00     0.015 A 
ATOM     27  C   UNL     1      -1.176  -1.162   0.157  1.00  0.00     0.001 A 
ATOM     28  C   UNL     1      -1.865   0.050   0.109  1.00  0.00     0.012 A 
ENDBRANCH  18  22
ENDBRANCH  16  17
ENDBRANCH  13  16
ENDBRANCH  12  13
ENDBRANCH   7  12
ENDBRANCH   3   6
ENDBRANCH   1   2
BRANCH   1  29
ATOM     29  C   UNL     1      -1.694   0.376  -6.168  1.00  0.00     0.042 C 
BRANCH  29  30
ATOM     30  C   UNL     1      -1.363  -1.068  -5.810  1.00  0.00     0.118 C 
BRANCH  30  31
ATOM     31  N   UNL     1      -0.689  -1.780  -6.894  1.00  0.00    -0.352 N 
ATOM     32  C   UNL     1      -0.109  -3.037  -6.840  1.00  0.00     0.251 C 
ATOM     33  H   UNL     1      -0.642  -1.314  -7.760  1.00  0.00     0.163 HD
ATOM     34  O   UNL     1       0.503  -3.520  -7.773  1.00  0.00    -0.269 OA
BRANCH  32  35
ATOM     35  C   UNL     1      -0.332  -3.798  -5.595  1.00  0.00     0.039 A 
ATOM     36  C   UNL     1      -1.312  -4.795  -5.618  1.00  0.00     0.014 A 
ATOM     37  C   UNL     1       0.160  -3.285  -4.399  1.00  0.00     0.014 A 
ATOM     38  C   UNL     1      -1.942  -5.152  -4.430  1.00  0.00     0.010 A 
ATOM     39  C   UNL     1      -0.520  -3.585  -3.234  1.00  0.00     0.010 A 
ATOM     40  C   UNL     1      -1.609  -4.473  -3.258  1.00  0.00    -0.014 A 
BRANCH  40  41
ATOM     41  C   UNL     1      -2.406  -4.545  -2.035  1.00  0.00     0.031 A 
ATOM     42  C   UNL     1      -1.873  -5.239  -0.840  1.00  0.00     0.074 A 
ATOM     43  C   UNL     1      -3.617  -3.949  -1.967  1.00  0.00     0.049 A 
ATOM     44  N   UNL     1      -2.583  -5.611   0.172  1.00  0.00    -0.248 NA
ATOM     45  C   UNL     1      -0.482  -5.662  -0.743  1.00  0.00     0.031 C 
ATOM     46  C   UNL     1      -4.372  -3.635  -0.758  1.00  0.00     0.029 A 
ATOM     47  N   UNL     1      -4.511  -3.699  -3.007  1.00  0.00    -0.354 N 
ATOM     48  C   UNL     1      -1.732  -6.070   1.152  1.00  0.00     0.074 A 
ATOM     49  C   UNL     1      -0.460  -6.188   0.485  1.00  0.00     0.031 C 
ATOM     50  C   UNL     1      -5.661  -3.455  -1.079  1.00  0.00     0.029 A 
ATOM     51  C   UNL     1      -5.812  -3.795  -2.482  1.00  0.00     0.049 A 
ATOM     52  H   UNL     1      -4.274  -3.491  -3.940  1.00  0.00     0.167 HD
ATOM     53  C   UNL     1      -2.194  -6.170   2.434  1.00  0.00     0.037 A 
ATOM     54  C   UNL     1      -6.713  -4.703  -2.960  1.00  0.00     0.037 A 
ATOM     55  C   UNL     1      -3.658  -6.061   2.464  1.00  0.00     0.049 A 
ATOM     56  C   UNL     1      -7.178  -5.715  -1.940  1.00  0.00     0.074 A 
ATOM     57  C   UNL     1      -4.530  -5.040   2.806  1.00  0.00     0.029 A 
ATOM     58  N   UNL     1      -4.431  -7.041   1.841  1.00  0.00    -0.354 N 
ATOM     59  N   UNL     1      -6.588  -5.927  -0.796  1.00  0.00    -0.248 NA
ATOM     60  C   UNL     1      -8.331  -6.590  -2.141  1.00  0.00     0.031 C 
ATOM     61  C   UNL     1      -5.820  -5.381   2.320  1.00  0.00     0.029 A 
ATOM     62  C   UNL     1      -5.740  -6.620   1.704  1.00  0.00     0.049 A 
ATOM     63  H   UNL     1      -4.090  -7.914   1.540  1.00  0.00     0.167 HD
ATOM     64  C   UNL     1      -7.206  -6.963  -0.144  1.00  0.00     0.074 A 
ATOM     65  C   UNL     1      -8.318  -7.316  -1.009  1.00  0.00     0.031 C 
ATOM     66  C   UNL     1      -6.735  -7.457   1.041  1.00  0.00     0.037 A 
BRANCH  53  67
ATOM     67  C   UNL     1      -1.323  -6.101   3.691  1.00  0.00     0.058 A 
ATOM     68  C   UNL     1      -1.902  -5.808   4.951  1.00  0.00     0.135 A 
ATOM     69  C   UNL     1       0.085  -6.191   3.730  1.00  0.00     0.135 A 
ATOM     70  F   UNL     1      -3.232  -5.753   5.113  1.00  0.00    -0.206 F 
ATOM     71  C   UNL     1      -1.152  -5.538   6.105  1.00  0.00     0.059 A 
ATOM     72  C   UNL     1       0.856  -5.916   4.863  1.00  0.00     0.059 A 
ATOM     73  F   UNL     1       0.813  -6.569   2.680  1.00  0.00    -0.206 F 
ATOM     74  C   UNL     1       0.233  -5.568   6.045  1.00  0.00     0.060 A 
BRANCH  74  75
ATOM     75  S   UNL     1       1.209  -5.158   7.503  1.00  0.00     0.124 S 
ATOM     76  O   UNL     1       0.820  -3.774   7.751  1.00  0.00    -0.237 OA
ATOM     77  O   UNL     1       0.738  -6.139   8.474  1.00  0.00    -0.237 OA
ATOM     78  O   UNL     1       2.587  -5.343   7.053  1.00  0.00    -0.744 OA
ENDBRANCH  74  75
ENDBRANCH  53  67
BRANCH  54  79
ATOM     79  C   UNL     1      -6.594  -4.939  -4.422  1.00  0.00     0.058 A 
ATOM     80  C   UNL     1      -6.972  -3.888  -5.277  1.00  0.00     0.135 A 
ATOM     81  C   UNL     1      -5.732  -5.919  -4.934  1.00  0.00     0.135 A 
ATOM     82  F   UNL     1      -7.814  -2.937  -4.839  1.00  0.00    -0.206 F 
ATOM     83  C   UNL     1      -6.381  -3.713  -6.521  1.00  0.00     0.059 A 
ATOM     84  C   UNL     1      -5.131  -5.767  -6.185  1.00  0.00     0.059 A 
ATOM     85  F   UNL     1      -5.345  -6.948  -4.166  1.00  0.00    -0.206 F 
ATOM     86  C   UNL     1      -5.406  -4.619  -6.932  1.00  0.00     0.060 A 
BRANCH  86  87
ATOM     87  S   UNL     1      -4.368  -4.148  -8.336  1.00  0.00     0.124 S 
ATOM     88  O   UNL     1      -5.346  -4.024  -9.410  1.00  0.00    -0.237 OA
ATOM     89  O   UNL     1      -3.790  -2.890  -7.861  1.00  0.00    -0.237 OA
ATOM     90  O   UNL     1      -3.435  -5.262  -8.453  1.00  0.00    -0.744 OA
ENDBRANCH  86  87
ENDBRANCH  54  79
BRANCH  66  91
ATOM     91  C   UNL     1      -7.222  -8.717   1.725  1.00  0.00     0.058 A 
ATOM     92  C   UNL     1      -7.750  -9.831   1.048  1.00  0.00     0.135 A 
ATOM     93  C   UNL     1      -7.046  -8.886   3.120  1.00  0.00     0.135 A 
ATOM     94  F   UNL     1      -7.851  -9.852  -0.289  1.00  0.00    -0.206 F 
ATOM     95  C   UNL     1      -8.152 -10.995   1.710  1.00  0.00     0.059 A 
ATOM     96  C   UNL     1      -7.389 -10.058   3.793  1.00  0.00     0.059 A 
ATOM     97  F   UNL     1      -6.521  -7.914   3.880  1.00  0.00    -0.206 F 
ATOM     98  C   UNL     1      -7.970 -11.100   3.085  1.00  0.00     0.060 A 
BRANCH  98  99
ATOM     99  S   UNL     1      -8.426 -12.617   3.945  1.00  0.00     0.124 S 
ATOM    100  O   UNL     1      -9.774 -12.299   4.406  1.00  0.00    -0.237 OA
ATOM    101  O   UNL     1      -8.345 -13.628   2.894  1.00  0.00    -0.237 OA
ATOM    102  O   UNL     1      -7.409 -12.726   4.985  1.00  0.00    -0.744 OA
ENDBRANCH  98  99
ENDBRANCH  66  91
ENDBRANCH  40  41
ENDBRANCH  32  35
ENDBRANCH  30  31
ENDBRANCH  29  30
ENDBRANCH   1  29
TORSDOF 18
