REMARK SMILES O=C(C[C@H]1C[C@H]2CC[C@@H](C1)[N@H+]2[C@@H]1CCCSC1)NCCCNC(=O)c1ccc(-c2c3nc(c(-c4c(F)cc(S(=O)(=O)[O-])cc4F)c4ccc([nH]4)c(-c4c(F)cc(S(=O)(=O)[O-])cc4F)c4nc(c(-c5c(F)cc(S(=O)(=O)[O-])cc5F)c5ccc2[nH]5)C=C4)C=C3)cc1
REMARK SMILES IDX 20 1 19 2 18 3 1 4 2 5 3 7 4 8 5 9 10 10 6 11 9 12 7 13
REMARK SMILES IDX 11 14 8 15 12 17 13 18 17 19 14 20 16 21 15 22 21 23 22 24
REMARK SMILES IDX 23 25 24 27 25 28 26 29 90 30 27 31 89 32 28 33 29 34 30 35
REMARK SMILES IDX 83 36 31 37 88 38 82 39 84 40 32 41 87 42 81 43 80 44 33 46
REMARK SMILES IDX 67 47 46 48 66 49 47 50 50 51 65 52 85 53 48 54 49 55 64 57
REMARK SMILES IDX 86 58 51 59 34 60 35 61 44 62 36 63 37 64 43 65 45 66 38 67
REMARK SMILES IDX 39 68 40 69 41 70 42 71 68 72 69 73 78 74 70 75 71 76 77 77
REMARK SMILES IDX 79 78 72 79 73 80 74 81 75 82 76 83 52 84 53 85 62 86 54 87
REMARK SMILES IDX 55 88 61 89 63 90 56 91 57 92 58 93 59 94 60 95
REMARK H PARENT 18 6 11 16 22 26 84 45 50 56
REMARK Flexibility Score: inf
ROOT
ATOM      1  C   UNL     1       2.073  -0.770   3.811  1.00  0.00     0.042 C 
ENDROOT
BRANCH   1   2
ATOM      2  C   UNL     1       1.499   0.267   2.848  1.00  0.00     0.117 C 
BRANCH   2   3
ATOM      3  N   UNL     1       1.705  -0.095   1.461  1.00  0.00    -0.356 N 
ATOM      4  O   UNL     1       1.034   1.925   0.593  1.00  0.00    -0.275 OA
ATOM      5  C   UNL     1       1.514   0.814   0.439  1.00  0.00     0.220 C 
ATOM      6  H   UNL     1       1.989  -1.012   1.241  1.00  0.00     0.163 HD
BRANCH   5   7
ATOM      7  C   UNL     1       2.061   0.337  -0.895  1.00  0.00     0.104 C 
BRANCH   7   8
ATOM      8  C   UNL     1       3.490   0.873  -1.148  1.00  0.00     0.010 C 
ATOM      9  C   UNL     1       4.505   0.568  -0.017  1.00  0.00     0.069 C 
ATOM     10  C   UNL     1       4.005   0.442  -2.545  1.00  0.00     0.069 C 
ATOM     11  C   UNL     1       5.412  -0.641  -0.264  1.00  0.00     0.185 C 
ATOM     12  C   UNL     1       5.031  -0.708  -2.543  1.00  0.00     0.185 C 
ATOM     13  C   UNL     1       4.613  -1.930  -0.483  1.00  0.00     0.071 C 
ATOM     14  N   UNL     1       6.080  -0.549  -1.552  1.00  0.00    -0.327 N 
ATOM     15  C   UNL     1       4.397  -1.999  -2.001  1.00  0.00     0.071 C 
ATOM     16  H   UNL     1       6.756  -1.295  -1.720  1.00  0.00     0.348 HD
BRANCH  14  17
ATOM     17  C   UNL     1       7.217   0.358  -1.703  1.00  0.00     0.194 C 
ATOM     18  C   UNL     1       6.915   1.823  -2.060  1.00  0.00     0.067 C 
ATOM     19  C   UNL     1       8.191  -0.246  -2.741  1.00  0.00     0.134 C 
ATOM     20  C   UNL     1       8.165   2.700  -1.989  1.00  0.00     0.017 C 
ATOM     21  S   UNL     1       9.793   0.626  -2.829  1.00  0.00    -0.156 SA
ATOM     22  C   UNL     1       9.196   2.324  -3.041  1.00  0.00     0.070 C 
ENDBRANCH  14  17
ENDBRANCH   7   8
ENDBRANCH   5   7
ENDBRANCH   2   3
ENDBRANCH   1   2
BRANCH   1  23
ATOM     23  C   UNL     1       3.599  -0.888   3.808  1.00  0.00     0.118 C 
BRANCH  23  24
ATOM     24  N   UNL     1       4.267   0.258   4.402  1.00  0.00    -0.352 N 
ATOM     25  C   UNL     1       5.088   0.347   5.502  1.00  0.00     0.251 C 
ATOM     26  H   UNL     1       4.104   1.112   3.941  1.00  0.00     0.163 HD
ATOM     27  O   UNL     1       5.417   1.461   5.908  1.00  0.00    -0.269 OA
BRANCH  25  28
ATOM     28  C   UNL     1       5.563  -0.860   6.225  1.00  0.00     0.039 A 
ATOM     29  C   UNL     1       5.587  -0.828   7.624  1.00  0.00     0.014 A 
ATOM     30  C   UNL     1       6.033  -1.995   5.558  1.00  0.00     0.014 A 
ATOM     31  C   UNL     1       6.010  -1.950   8.347  1.00  0.00     0.010 A 
ATOM     32  C   UNL     1       6.398  -3.137   6.282  1.00  0.00     0.010 A 
ATOM     33  C   UNL     1       6.383  -3.131   7.685  1.00  0.00    -0.014 A 
BRANCH  33  34
ATOM     34  C   UNL     1       6.705  -4.363   8.460  1.00  0.00     0.031 A 
ATOM     35  C   UNL     1       8.087  -4.964   8.441  1.00  0.00     0.074 A 
ATOM     36  C   UNL     1       5.729  -4.971   9.166  1.00  0.00     0.049 A 
ATOM     37  N   UNL     1       8.533  -6.024   9.070  1.00  0.00    -0.248 NA
ATOM     38  C   UNL     1       9.090  -4.305   7.594  1.00  0.00     0.031 C 
ATOM     39  C   UNL     1       4.332  -4.533   9.224  1.00  0.00     0.029 A 
ATOM     40  N   UNL     1       5.759  -6.084   9.970  1.00  0.00    -0.354 N 
ATOM     41  C   UNL     1       9.864  -6.163   8.691  1.00  0.00     0.074 A 
ATOM     42  C   UNL     1      10.138  -5.104   7.741  1.00  0.00     0.031 C 
ATOM     43  C   UNL     1       3.648  -5.348  10.041  1.00  0.00     0.029 A 
ATOM     44  C   UNL     1       4.546  -6.383  10.546  1.00  0.00     0.049 A 
ATOM     45  H   UNL     1       6.572  -6.619  10.119  1.00  0.00     0.167 HD
ATOM     46  C   UNL     1      10.779  -7.073   9.108  1.00  0.00     0.037 A 
ATOM     47  C   UNL     1       4.192  -7.372  11.390  1.00  0.00     0.037 A 
ATOM     48  C   UNL     1      10.514  -8.117  10.068  1.00  0.00     0.049 A 
ATOM     49  C   UNL     1       5.232  -8.349  11.863  1.00  0.00     0.074 A 
ATOM     50  C   UNL     1      11.394  -9.051  10.591  1.00  0.00     0.029 A 
ATOM     51  N   UNL     1       9.280  -8.369  10.650  1.00  0.00    -0.354 N 
ATOM     52  N   UNL     1       6.501  -8.423  11.542  1.00  0.00    -0.248 NA
ATOM     53  C   UNL     1       4.793  -9.369  12.825  1.00  0.00     0.031 C 
ATOM     54  C   UNL     1      10.685  -9.888  11.461  1.00  0.00     0.029 A 
ATOM     55  C   UNL     1       9.373  -9.449  11.514  1.00  0.00     0.049 A 
ATOM     56  H   UNL     1       8.459  -7.855  10.474  1.00  0.00     0.167 HD
ATOM     57  C   UNL     1       7.019  -9.480  12.283  1.00  0.00     0.074 A 
ATOM     58  C   UNL     1       5.928 -10.006  13.078  1.00  0.00     0.031 C 
ATOM     59  C   UNL     1       8.283  -9.970  12.301  1.00  0.00     0.037 A 
BRANCH  46  60
ATOM     60  C   UNL     1      12.167  -6.978   8.534  1.00  0.00     0.058 A 
ATOM     61  C   UNL     1      13.041  -5.939   8.891  1.00  0.00     0.135 A 
ATOM     62  C   UNL     1      12.646  -7.960   7.651  1.00  0.00     0.135 A 
ATOM     63  F   UNL     1      12.632  -4.968   9.723  1.00  0.00    -0.206 F 
ATOM     64  C   UNL     1      14.329  -5.859   8.371  1.00  0.00     0.059 A 
ATOM     65  C   UNL     1      13.941  -7.915   7.139  1.00  0.00     0.059 A 
ATOM     66  F   UNL     1      11.856  -8.979   7.279  1.00  0.00    -0.206 F 
ATOM     67  C   UNL     1      14.770  -6.851   7.493  1.00  0.00     0.060 A 
BRANCH  67  68
ATOM     68  S   UNL     1      16.445  -6.736   6.829  1.00  0.00     0.124 S 
ATOM     69  O   UNL     1      16.295  -5.664   5.849  1.00  0.00    -0.237 OA
ATOM     70  O   UNL     1      17.230  -6.405   8.014  1.00  0.00    -0.237 OA
ATOM     71  O   UNL     1      16.682  -8.065   6.275  1.00  0.00    -0.744 OA
ENDBRANCH  67  68
ENDBRANCH  46  60
BRANCH  47  72
ATOM     72  C   UNL     1       2.790  -7.462  11.875  1.00  0.00     0.058 A 
ATOM     73  C   UNL     1       2.463  -7.133  13.199  1.00  0.00     0.135 A 
ATOM     74  C   UNL     1       1.750  -7.864  11.023  1.00  0.00     0.135 A 
ATOM     75  F   UNL     1       3.425  -6.749  14.051  1.00  0.00    -0.206 F 
ATOM     76  C   UNL     1       1.156  -7.213  13.668  1.00  0.00     0.059 A 
ATOM     77  C   UNL     1       0.432  -7.930  11.462  1.00  0.00     0.059 A 
ATOM     78  F   UNL     1       2.010  -8.173   9.743  1.00  0.00    -0.206 F 
ATOM     79  C   UNL     1       0.146  -7.611  12.790  1.00  0.00     0.060 A 
BRANCH  79  80
ATOM     80  S   UNL     1      -1.556  -7.659  13.390  1.00  0.00     0.124 S 
ATOM     81  O   UNL     1      -1.552  -8.881  14.186  1.00  0.00    -0.237 OA
ATOM     82  O   UNL     1      -1.655  -6.409  14.137  1.00  0.00    -0.237 OA
ATOM     83  O   UNL     1      -2.341  -7.707  12.160  1.00  0.00    -0.744 OA
ENDBRANCH  79  80
ENDBRANCH  47  72
BRANCH  59  84
ATOM     84  C   UNL     1       8.560 -11.114  13.238  1.00  0.00     0.058 A 
ATOM     85  C   UNL     1       8.071 -12.407  12.991  1.00  0.00     0.135 A 
ATOM     86  C   UNL     1       9.324 -10.915  14.399  1.00  0.00     0.135 A 
ATOM     87  F   UNL     1       7.332 -12.652  11.897  1.00  0.00    -0.206 F 
ATOM     88  C   UNL     1       8.291 -13.451  13.884  1.00  0.00     0.059 A 
ATOM     89  C   UNL     1       9.579 -11.950  15.293  1.00  0.00     0.059 A 
ATOM     90  F   UNL     1       9.827  -9.701  14.678  1.00  0.00    -0.206 F 
ATOM     91  C   UNL     1       9.039 -13.210  15.038  1.00  0.00     0.060 A 
BRANCH  91  92
ATOM     92  S   UNL     1       9.310 -14.567  16.199  1.00  0.00     0.124 S 
ATOM     93  O   UNL     1       8.025 -14.623  16.887  1.00  0.00    -0.237 OA
ATOM     94  O   UNL     1       9.603 -15.689  15.312  1.00  0.00    -0.237 OA
ATOM     95  O   UNL     1      10.436 -14.103  17.004  1.00  0.00    -0.744 OA
ENDBRANCH  91  92
ENDBRANCH  59  84
ENDBRANCH  33  34
ENDBRANCH  25  28
ENDBRANCH  23  24
ENDBRANCH   1  23
TORSDOF 15
