REMARK SMILES COc1ccccc1-n1nnc(C(=O)NCCCNC(=O)c2ccc(-c3c4nc(c(-c5c(F)cc(S(=O)(=O)[O-])cc5F)c5ccc([nH]5)c(-c5c(F)cc(S(=O)(=O)[O-])cc5F)c5nc(c(-c6c(F)cc(S(=O)(=O)[O-])cc6F)c6ccc3[nH]6)C=C5)C=C4)cc2)c1-c1ccc(Cl)cc1
REMARK SMILES IDX 17 1 16 2 15 3 13 4 14 5 12 7 9 8 10 9 88 10 11 11 8 12 3 13
REMARK SMILES IDX 4 14 5 15 7 16 6 17 2 18 1 19 89 20 90 21 95 22 91 23 94 24
REMARK SMILES IDX 92 25 93 26 18 27 19 28 20 29 21 31 22 32 23 33 87 34 24 35
REMARK SMILES IDX 86 36 25 37 26 38 27 39 80 40 28 41 85 42 79 43 81 44 29 45
REMARK SMILES IDX 84 46 78 47 77 48 30 50 64 51 43 52 63 53 44 54 47 55 62 56
REMARK SMILES IDX 82 57 45 58 46 59 61 61 83 62 48 63 31 64 32 65 41 66 33 67
REMARK SMILES IDX 34 68 40 69 42 70 35 71 36 72 37 73 38 74 39 75 65 76 66 77
REMARK SMILES IDX 75 78 67 79 68 80 74 81 76 82 69 83 70 84 71 85 72 86 73 87
REMARK SMILES IDX 49 88 50 89 59 90 51 91 52 92 58 93 60 94 53 95 54 96 55 97
REMARK SMILES IDX 56 98 57 99
REMARK H PARENT 15 6 19 30 81 49 47 60
REMARK Flexibility Score: inf
ROOT
ATOM      1  C   UNL     1       4.822  -4.563  -1.696  1.00  0.00     0.042 C 
ENDROOT
BRANCH   1   2
ATOM      2  C   UNL     1       4.253  -4.154  -0.342  1.00  0.00     0.118 C 
BRANCH   2   3
ATOM      3  N   UNL     1       5.060  -3.219   0.389  1.00  0.00    -0.351 N 
ATOM      4  C   UNL     1       5.046  -1.861   0.538  1.00  0.00     0.274 C 
ATOM      5  O   UNL     1       5.762  -1.453   1.460  1.00  0.00    -0.267 OA
ATOM      6  H   UNL     1       5.785  -3.652   0.895  1.00  0.00     0.163 HD
BRANCH   4   7
ATOM      7  C   UNL     1       4.311  -0.901  -0.293  1.00  0.00     0.178 A 
ATOM      8  N   UNL     1       3.103   0.418  -1.556  1.00  0.00    -0.208 N 
ATOM      9  N   UNL     1       4.098   1.165  -1.060  1.00  0.00    -0.061 NA
ATOM     10  C   UNL     1       3.259  -0.927  -1.213  1.00  0.00     0.108 A 
ATOM     11  N   UNL     1       4.767   0.411  -0.213  1.00  0.00    -0.124 NA
BRANCH   8  12
ATOM     12  C   UNL     1       2.140   0.979  -2.414  1.00  0.00     0.109 A 
ATOM     13  C   UNL     1       0.781   0.669  -2.286  1.00  0.00     0.144 A 
ATOM     14  C   UNL     1      -0.059   0.903  -3.376  1.00  0.00     0.049 A 
ATOM     15  C   UNL     1       0.436   1.490  -4.544  1.00  0.00     0.004 A 
ATOM     16  C   UNL     1       2.627   1.650  -3.549  1.00  0.00     0.032 A 
ATOM     17  C   UNL     1       1.770   1.886  -4.621  1.00  0.00     0.003 A 
BRANCH  13  18
ATOM     18  O   UNL     1       0.181   0.059  -1.217  1.00  0.00    -0.494 OA
ATOM     19  C   UNL     1       0.457   0.618   0.067  1.00  0.00     0.278 C 
ENDBRANCH  13  18
ENDBRANCH   8  12
BRANCH  10  20
ATOM     20  C   UNL     1       2.467  -1.957  -1.891  1.00  0.00     0.003 A 
ATOM     21  C   UNL     1       1.447  -2.663  -1.238  1.00  0.00     0.012 A 
ATOM     22  C   UNL     1       2.713  -2.224  -3.249  1.00  0.00     0.012 A 
ATOM     23  C   UNL     1       0.789  -3.714  -1.885  1.00  0.00     0.021 A 
ATOM     24  C   UNL     1       2.035  -3.254  -3.905  1.00  0.00     0.021 A 
ATOM     25  C   UNL     1       1.101  -4.016  -3.209  1.00  0.00     0.041 A 
ATOM     26  Cl  UNL     1       0.376  -5.374  -3.971  1.00  0.00    -0.084 Cl
ENDBRANCH  10  20
ENDBRANCH   4   7
ENDBRANCH   2   3
ENDBRANCH   1   2
BRANCH   1  27
ATOM     27  C   UNL     1       4.787  -6.073  -1.847  1.00  0.00     0.118 C 
BRANCH  27  28
ATOM     28  N   UNL     1       3.438  -6.652  -1.771  1.00  0.00    -0.352 N 
ATOM     29  C   UNL     1       3.106  -7.995  -1.699  1.00  0.00     0.251 C 
ATOM     30  H   UNL     1       2.687  -6.014  -1.771  1.00  0.00     0.163 HD
ATOM     31  O   UNL     1       1.960  -8.386  -1.909  1.00  0.00    -0.269 OA
BRANCH  29  32
ATOM     32  C   UNL     1       4.182  -8.942  -1.368  1.00  0.00     0.039 A 
ATOM     33  C   UNL     1       4.498 -10.008  -2.210  1.00  0.00     0.014 A 
ATOM     34  C   UNL     1       5.010  -8.588  -0.307  1.00  0.00     0.014 A 
ATOM     35  C   UNL     1       5.743 -10.614  -2.064  1.00  0.00     0.010 A 
ATOM     36  C   UNL     1       6.304  -9.044  -0.306  1.00  0.00     0.010 A 
ATOM     37  C   UNL     1       6.678 -10.078  -1.156  1.00  0.00    -0.014 A 
BRANCH  37  38
ATOM     38  C   UNL     1       8.097 -10.443  -1.238  1.00  0.00     0.031 A 
ATOM     39  C   UNL     1       8.622 -10.415  -2.633  1.00  0.00     0.074 A 
ATOM     40  C   UNL     1       8.912 -10.590  -0.165  1.00  0.00     0.049 A 
ATOM     41  N   UNL     1       8.798 -11.429  -3.414  1.00  0.00    -0.248 NA
ATOM     42  C   UNL     1       8.742  -9.120  -3.331  1.00  0.00     0.031 C 
ATOM     43  C   UNL     1       8.592 -10.335   1.246  1.00  0.00     0.029 A 
ATOM     44  N   UNL     1      10.237 -10.917  -0.104  1.00  0.00    -0.354 N 
ATOM     45  C   UNL     1       9.368 -10.912  -4.575  1.00  0.00     0.074 A 
ATOM     46  C   UNL     1       9.051  -9.512  -4.572  1.00  0.00     0.031 C 
ATOM     47  C   UNL     1       9.727 -10.280   1.978  1.00  0.00     0.029 A 
ATOM     48  C   UNL     1      10.835 -10.694   1.140  1.00  0.00     0.049 A 
ATOM     49  H   UNL     1      10.731 -11.281  -0.874  1.00  0.00     0.167 HD
ATOM     50  C   UNL     1      10.341 -11.616  -5.224  1.00  0.00     0.037 A 
ATOM     51  C   UNL     1      12.140 -10.868   1.477  1.00  0.00     0.037 A 
ATOM     52  C   UNL     1      10.401 -12.959  -4.694  1.00  0.00     0.049 A 
ATOM     53  C   UNL     1      12.707 -11.813   0.489  1.00  0.00     0.074 A 
ATOM     54  C   UNL     1       9.591 -14.074  -4.690  1.00  0.00     0.029 A 
ATOM     55  N   UNL     1      11.290 -13.094  -3.658  1.00  0.00    -0.354 N 
ATOM     56  N   UNL     1      12.354 -13.066   0.416  1.00  0.00    -0.248 NA
ATOM     57  C   UNL     1      13.398 -11.287  -0.680  1.00  0.00     0.031 C 
ATOM     58  C   UNL     1       9.886 -14.767  -3.478  1.00  0.00     0.029 A 
ATOM     59  C   UNL     1      10.918 -14.102  -2.816  1.00  0.00     0.049 A 
ATOM     60  H   UNL     1      12.092 -12.536  -3.538  1.00  0.00     0.167 HD
ATOM     61  C   UNL     1      12.362 -13.342  -0.937  1.00  0.00     0.074 A 
ATOM     62  C   UNL     1      13.175 -12.290  -1.535  1.00  0.00     0.031 C 
ATOM     63  C   UNL     1      11.437 -14.193  -1.468  1.00  0.00     0.037 A 
BRANCH  50  64
ATOM     64  C   UNL     1      11.567 -11.017  -5.907  1.00  0.00     0.058 A 
ATOM     65  C   UNL     1      12.499 -11.896  -6.511  1.00  0.00     0.135 A 
ATOM     66  C   UNL     1      12.024  -9.693  -5.736  1.00  0.00     0.135 A 
ATOM     67  F   UNL     1      12.182 -13.182  -6.735  1.00  0.00    -0.206 F 
ATOM     68  C   UNL     1      13.803 -11.512  -6.832  1.00  0.00     0.059 A 
ATOM     69  C   UNL     1      13.305  -9.278  -6.091  1.00  0.00     0.059 A 
ATOM     70  F   UNL     1      11.295  -8.746  -5.140  1.00  0.00    -0.206 F 
ATOM     71  C   UNL     1      14.200 -10.200  -6.606  1.00  0.00     0.060 A 
BRANCH  71  72
ATOM     72  S   UNL     1      15.893  -9.707  -6.969  1.00  0.00     0.124 S 
ATOM     73  O   UNL     1      16.636 -10.443  -5.953  1.00  0.00    -0.237 OA
ATOM     74  O   UNL     1      16.051 -10.170  -8.344  1.00  0.00    -0.237 OA
ATOM     75  O   UNL     1      15.861  -8.257  -6.803  1.00  0.00    -0.744 OA
ENDBRANCH  71  72
ENDBRANCH  50  64
BRANCH  51  76
ATOM     76  C   UNL     1      13.005 -10.171   2.467  1.00  0.00     0.058 A 
ATOM     77  C   UNL     1      14.255 -10.703   2.843  1.00  0.00     0.135 A 
ATOM     78  C   UNL     1      12.777  -8.825   2.806  1.00  0.00     0.135 A 
ATOM     79  F   UNL     1      14.558 -11.979   2.564  1.00  0.00    -0.206 F 
ATOM     80  C   UNL     1      15.253  -9.923   3.437  1.00  0.00     0.059 A 
ATOM     81  C   UNL     1      13.757  -8.028   3.404  1.00  0.00     0.059 A 
ATOM     82  F   UNL     1      11.628  -8.219   2.471  1.00  0.00    -0.206 F 
ATOM     83  C   UNL     1      15.006  -8.574   3.683  1.00  0.00     0.060 A 
BRANCH  83  84
ATOM     84  S   UNL     1      16.365  -7.512   4.237  1.00  0.00     0.124 S 
ATOM     85  O   UNL     1      16.569  -7.969   5.607  1.00  0.00    -0.237 OA
ATOM     86  O   UNL     1      17.424  -7.844   3.289  1.00  0.00    -0.237 OA
ATOM     87  O   UNL     1      15.815  -6.165   4.103  1.00  0.00    -0.744 OA
ENDBRANCH  83  84
ENDBRANCH  51  76
BRANCH  63  88
ATOM     88  C   UNL     1      10.846 -15.229  -0.556  1.00  0.00     0.058 A 
ATOM     89  C   UNL     1      10.027 -14.976   0.557  1.00  0.00     0.135 A 
ATOM     90  C   UNL     1      11.091 -16.571  -0.885  1.00  0.00     0.135 A 
ATOM     91  F   UNL     1       9.671 -13.726   0.886  1.00  0.00    -0.206 F 
ATOM     92  C   UNL     1       9.521 -16.017   1.340  1.00  0.00     0.059 A 
ATOM     93  C   UNL     1      10.568 -17.621  -0.144  1.00  0.00     0.059 A 
ATOM     94  F   UNL     1      11.827 -16.876  -1.967  1.00  0.00    -0.206 F 
ATOM     95  C   UNL     1       9.803 -17.337   0.982  1.00  0.00     0.060 A 
BRANCH  95  96
ATOM     96  S   UNL     1       9.135 -18.689   1.974  1.00  0.00     0.124 S 
ATOM     97  O   UNL     1       9.912 -18.579   3.204  1.00  0.00    -0.237 OA
ATOM     98  O   UNL     1       7.722 -18.335   2.081  1.00  0.00    -0.237 OA
ATOM     99  O   UNL     1       9.411 -19.874   1.166  1.00  0.00    -0.744 OA
ENDBRANCH  95  96
ENDBRANCH  63  88
ENDBRANCH  37  38
ENDBRANCH  29  32
ENDBRANCH  27  28
ENDBRANCH   1  27
TORSDOF 16
