REMARK SMILES CCCCCn1c(SCC(=O)NCCCNC(=O)c2ccc(-c3c4nc(c(-c5c(F)cc(S(=O)(=O)[O-])cc5F)c5ccc([nH]5)c(-c5c(F)cc(S(=O)(=O)[O-])cc5F)c5nc(c(-c6c(F)cc(S(=O)(=O)[O-])cc6F)c6ccc3[nH]6)C=C5)C=C4)cc2)nc2ccccc2c1=O
REMARK SMILES IDX 10 1 11 2 12 3 9 5 8 6 7 7 6 8 92 9 85 10 91 11 93 12 86 13
REMARK SMILES IDX 90 14 87 15 89 16 88 17 5 18 4 19 3 20 2 21 1 22 13 23 14 24
REMARK SMILES IDX 15 25 16 26 17 27 18 29 19 30 20 31 84 32 21 33 83 34 22 35
REMARK SMILES IDX 23 36 24 37 77 38 25 39 82 40 76 41 78 42 26 43 81 44 75 45
REMARK SMILES IDX 74 46 27 48 61 49 40 50 60 51 41 52 44 53 59 54 79 55 42 56
REMARK SMILES IDX 43 57 58 59 80 60 45 61 28 62 29 63 38 64 30 65 31 66 37 67
REMARK SMILES IDX 39 68 32 69 33 70 34 71 35 72 36 73 62 74 63 75 72 76 64 77
REMARK SMILES IDX 65 78 71 79 73 80 66 81 67 82 68 83 69 84 70 85 46 86 47 87
REMARK SMILES IDX 56 88 48 89 49 90 55 91 57 92 50 93 51 94 52 95 53 96 54 97
REMARK H PARENT 12 4 16 28 78 47 44 58
REMARK Flexibility Score: inf
ROOT
ATOM      1  C   UNL     1      -1.735   1.997   4.389  1.00  0.00     0.230 C 
ATOM      2  O   UNL     1      -0.865   2.281   3.561  1.00  0.00    -0.274 OA
ATOM      3  N   UNL     1      -1.506   2.359   5.681  1.00  0.00    -0.355 N 
ATOM      4  H   UNL     1      -0.620   2.756   5.846  1.00  0.00     0.163 HD
ENDROOT
BRANCH   1   5
ATOM      5  C   UNL     1      -3.040   1.355   3.958  1.00  0.00     0.178 C 
BRANCH   5   6
ATOM      6  S   UNL     1      -3.356  -0.231   4.678  1.00  0.00    -0.078 SA
BRANCH   6   7
ATOM      7  C   UNL     1      -2.533  -1.631   4.045  1.00  0.00     0.171 A 
ATOM      8  N   UNL     1      -1.645  -1.728   2.981  1.00  0.00    -0.287 N 
ATOM      9  C   UNL     1      -1.300  -3.002   2.499  1.00  0.00     0.262 A 
ATOM     10  N   UNL     1      -2.916  -2.667   4.725  1.00  0.00    -0.224 NA
ATOM     11  C   UNL     1      -1.598  -4.156   3.348  1.00  0.00     0.066 A 
ATOM     12  O   UNL     1      -0.795  -3.216   1.399  1.00  0.00    -0.269 OA
ATOM     13  C   UNL     1      -2.423  -3.934   4.434  1.00  0.00     0.079 A 
ATOM     14  C   UNL     1      -1.076  -5.427   3.077  1.00  0.00     0.016 A 
ATOM     15  C   UNL     1      -2.768  -5.012   5.250  1.00  0.00     0.029 A 
ATOM     16  C   UNL     1      -1.406  -6.495   3.909  1.00  0.00     0.001 A 
ATOM     17  C   UNL     1      -2.263  -6.290   4.990  1.00  0.00     0.002 A 
BRANCH   8  18
ATOM     18  C   UNL     1      -1.052  -0.641   2.206  1.00  0.00     0.128 C 
BRANCH  18  19
ATOM     19  C   UNL     1       0.446  -0.417   2.496  1.00  0.00     0.022 C 
BRANCH  19  20
ATOM     20  C   UNL     1       1.447  -1.211   1.641  1.00  0.00     0.002 C 
BRANCH  20  21
ATOM     21  C   UNL     1       1.267  -1.106   0.122  1.00  0.00    -0.003 C 
ATOM     22  C   UNL     1       1.372   0.314  -0.412  1.00  0.00     0.004 C 
ENDBRANCH  20  21
ENDBRANCH  19  20
ENDBRANCH  18  19
ENDBRANCH   8  18
ENDBRANCH   6   7
ENDBRANCH   5   6
ENDBRANCH   1   5
BRANCH   3  23
ATOM     23  C   UNL     1      -2.354   2.256   6.858  1.00  0.00     0.117 C 
BRANCH  23  24
ATOM     24  C   UNL     1      -1.976   1.094   7.774  1.00  0.00     0.042 C 
BRANCH  24  25
ATOM     25  C   UNL     1      -0.510   1.059   8.192  1.00  0.00     0.118 C 
BRANCH  25  26
ATOM     26  N   UNL     1      -0.119   2.201   9.007  1.00  0.00    -0.352 N 
ATOM     27  C   UNL     1       0.178   2.295  10.346  1.00  0.00     0.251 C 
ATOM     28  H   UNL     1      -0.057   3.051   8.514  1.00  0.00     0.163 HD
ATOM     29  O   UNL     1       0.320   3.409  10.844  1.00  0.00    -0.269 OA
BRANCH  27  30
ATOM     30  C   UNL     1       0.297   1.087  11.196  1.00  0.00     0.039 A 
ATOM     31  C   UNL     1       0.954  -0.060  10.750  1.00  0.00     0.014 A 
ATOM     32  C   UNL     1      -0.234   1.119  12.490  1.00  0.00     0.014 A 
ATOM     33  C   UNL     1       0.925  -1.221  11.519  1.00  0.00     0.010 A 
ATOM     34  C   UNL     1      -0.185  -0.023  13.298  1.00  0.00     0.010 A 
ATOM     35  C   UNL     1       0.349  -1.221  12.800  1.00  0.00    -0.014 A 
BRANCH  35  36
ATOM     36  C   UNL     1       0.305  -2.484  13.586  1.00  0.00     0.031 A 
ATOM     37  C   UNL     1      -1.013  -3.133  13.923  1.00  0.00     0.074 A 
ATOM     38  C   UNL     1       1.458  -3.084  13.943  1.00  0.00     0.049 A 
ATOM     39  N   UNL     1      -1.240  -4.254  14.560  1.00  0.00    -0.248 NA
ATOM     40  C   UNL     1      -2.235  -2.434  13.494  1.00  0.00     0.031 C 
ATOM     41  C   UNL     1       2.799  -2.559  13.676  1.00  0.00     0.029 A 
ATOM     42  N   UNL     1       1.691  -4.279  14.577  1.00  0.00    -0.354 N 
ATOM     43  C   UNL     1      -2.622  -4.388  14.620  1.00  0.00     0.074 A 
ATOM     44  C   UNL     1      -3.186  -3.217  13.984  1.00  0.00     0.031 C 
ATOM     45  C   UNL     1       3.712  -3.453  14.086  1.00  0.00     0.029 A 
ATOM     46  C   UNL     1       3.026  -4.590  14.693  1.00  0.00     0.049 A 
ATOM     47  H   UNL     1       0.971  -4.858  14.918  1.00  0.00     0.167 HD
ATOM     48  C   UNL     1      -3.356  -5.401  15.141  1.00  0.00     0.037 A 
ATOM     49  C   UNL     1       3.633  -5.668  15.227  1.00  0.00     0.037 A 
ATOM     50  C   UNL     1      -2.797  -6.580  15.746  1.00  0.00     0.049 A 
ATOM     51  C   UNL     1       2.798  -6.765  15.822  1.00  0.00     0.074 A 
ATOM     52  C   UNL     1      -3.462  -7.671  16.280  1.00  0.00     0.029 A 
ATOM     53  N   UNL     1      -1.440  -6.829  15.894  1.00  0.00    -0.354 N 
ATOM     54  N   UNL     1       1.492  -6.871  15.867  1.00  0.00    -0.248 NA
ATOM     55  C   UNL     1       3.516  -7.880  16.454  1.00  0.00     0.031 C 
ATOM     56  C   UNL     1      -2.508  -8.565  16.779  1.00  0.00     0.029 A 
ATOM     57  C   UNL     1      -1.248  -8.047  16.525  1.00  0.00     0.049 A 
ATOM     58  H   UNL     1      -0.720  -6.228  15.594  1.00  0.00     0.167 HD
ATOM     59  C   UNL     1       1.231  -8.066  16.527  1.00  0.00     0.074 A 
ATOM     60  C   UNL     1       2.515  -8.657  16.847  1.00  0.00     0.031 C 
ATOM     61  C   UNL     1       0.035  -8.619  16.843  1.00  0.00     0.037 A 
BRANCH  48  62
ATOM     62  C   UNL     1      -4.853  -5.282  15.078  1.00  0.00     0.058 A 
ATOM     63  C   UNL     1      -5.554  -5.474  13.878  1.00  0.00     0.135 A 
ATOM     64  C   UNL     1      -5.599  -5.024  16.240  1.00  0.00     0.135 A 
ATOM     65  F   UNL     1      -4.888  -5.708  12.736  1.00  0.00    -0.206 F 
ATOM     66  C   UNL     1      -6.942  -5.395  13.826  1.00  0.00     0.059 A 
ATOM     67  C   UNL     1      -6.990  -4.961  16.216  1.00  0.00     0.059 A 
ATOM     68  F   UNL     1      -4.977  -4.833  17.413  1.00  0.00    -0.206 F 
ATOM     69  C   UNL     1      -7.652  -5.137  15.001  1.00  0.00     0.060 A 
BRANCH  69  70
ATOM     70  S   UNL     1      -9.453  -5.044  14.918  1.00  0.00     0.124 S 
ATOM     71  O   UNL     1      -9.647  -3.759  14.253  1.00  0.00    -0.237 OA
ATOM     72  O   UNL     1      -9.790  -6.223  14.127  1.00  0.00    -0.237 OA
ATOM     73  O   UNL     1      -9.861  -5.094  16.318  1.00  0.00    -0.744 OA
ENDBRANCH  69  70
ENDBRANCH  48  62
BRANCH  49  74
ATOM     74  C   UNL     1       5.115  -5.759  15.208  1.00  0.00     0.058 A 
ATOM     75  C   UNL     1       5.770  -6.652  14.349  1.00  0.00     0.135 A 
ATOM     76  C   UNL     1       5.905  -4.926  16.016  1.00  0.00     0.135 A 
ATOM     77  F   UNL     1       5.056  -7.473  13.564  1.00  0.00    -0.206 F 
ATOM     78  C   UNL     1       7.158  -6.717  14.288  1.00  0.00     0.059 A 
ATOM     79  C   UNL     1       7.295  -4.958  15.958  1.00  0.00     0.059 A 
ATOM     80  F   UNL     1       5.324  -4.046  16.846  1.00  0.00    -0.206 F 
ATOM     81  C   UNL     1       7.912  -5.860  15.093  1.00  0.00     0.060 A 
BRANCH  81  82
ATOM     82  S   UNL     1       9.712  -5.898  14.951  1.00  0.00     0.124 S 
ATOM     83  O   UNL     1      10.036  -7.135  15.653  1.00  0.00    -0.237 OA
ATOM     84  O   UNL     1       9.907  -5.915  13.505  1.00  0.00    -0.237 OA
ATOM     85  O   UNL     1      10.126  -4.666  15.616  1.00  0.00    -0.744 OA
ENDBRANCH  81  82
ENDBRANCH  49  74
BRANCH  61  86
ATOM     86  C   UNL     1       0.050  -9.928  17.577  1.00  0.00     0.058 A 
ATOM     87  C   UNL     1       0.331  -9.989  18.950  1.00  0.00     0.135 A 
ATOM     88  C   UNL     1      -0.296 -11.120  16.921  1.00  0.00     0.135 A 
ATOM     89  F   UNL     1       0.675  -8.877  19.619  1.00  0.00    -0.206 F 
ATOM     90  C   UNL     1       0.273 -11.190  19.649  1.00  0.00     0.059 A 
ATOM     91  C   UNL     1      -0.379 -12.329  17.605  1.00  0.00     0.059 A 
ATOM     92  F   UNL     1      -0.581 -11.112  15.609  1.00  0.00    -0.206 F 
ATOM     93  C   UNL     1      -0.088 -12.354  18.969  1.00  0.00     0.060 A 
BRANCH  93  94
ATOM     94  S   UNL     1      -0.215 -13.895  19.901  1.00  0.00     0.124 S 
ATOM     95  O   UNL     1       1.190 -14.224  20.119  1.00  0.00    -0.237 OA
ATOM     96  O   UNL     1      -0.962 -13.483  21.086  1.00  0.00    -0.237 OA
ATOM     97  O   UNL     1      -0.934 -14.784  18.993  1.00  0.00    -0.744 OA
ENDBRANCH  93  94
ENDBRANCH  61  86
ENDBRANCH  35  36
ENDBRANCH  27  30
ENDBRANCH  25  26
ENDBRANCH  24  25
ENDBRANCH  23  24
ENDBRANCH   3  23
TORSDOF 19
