REMARK SMILES COc1ccc(-c2sc(C(=O)NCCCNC(=O)c3ccc(-c4c5nc(c(-c6c(F)cc(S(=O)(=O)[O-])cc6F)c6ccc([nH]6)c(-c6c(F)cc(S(=O)(=O)[O-])cc6F)c6nc(c(-c7c(F)cc(S(=O)(=O)[O-])cc7F)c7ccc4[nH]7)C=C6)C=C5)cc3)cc2C)c(OC)c1
REMARK SMILES IDX 14 1 13 2 12 3 10 4 11 5 9 7 7 8 8 9 86 10 85 11 87 12 6 13
REMARK SMILES IDX 3 14 4 15 91 16 5 17 88 18 2 19 1 20 89 21 90 22 15 23 16 24
REMARK SMILES IDX 17 25 18 27 19 28 20 29 84 30 21 31 83 32 22 33 23 34 24 35
REMARK SMILES IDX 77 36 25 37 82 38 76 39 78 40 26 41 81 42 75 43 74 44 27 46
REMARK SMILES IDX 61 47 40 48 60 49 41 50 44 51 59 52 79 53 42 54 43 55 58 57
REMARK SMILES IDX 80 58 45 59 28 60 29 61 38 62 30 63 31 64 37 65 39 66 32 67
REMARK SMILES IDX 33 68 34 69 35 70 36 71 62 72 63 73 72 74 64 75 65 76 71 77
REMARK SMILES IDX 73 78 66 79 67 80 68 81 69 82 70 83 46 84 47 85 56 86 48 87
REMARK SMILES IDX 49 88 55 89 57 90 50 91 51 92 52 93 53 94 54 95
REMARK H PARENT 12 6 16 26 78 45 44 56
REMARK Flexibility Score: inf
ROOT
ATOM      1  C   UNL     1       0.188   9.740  -0.411  1.00  0.00     0.042 C 
ENDROOT
BRANCH   1   2
ATOM      2  C   UNL     1       0.024   9.589  -1.922  1.00  0.00     0.118 C 
BRANCH   2   3
ATOM      3  N   UNL     1       1.203  10.040  -2.640  1.00  0.00    -0.351 N 
ATOM      4  C   UNL     1       2.244   9.387  -3.252  1.00  0.00     0.261 C 
ATOM      5  O   UNL     1       3.031  10.131  -3.851  1.00  0.00    -0.268 OA
ATOM      6  H   UNL     1       1.270  11.021  -2.701  1.00  0.00     0.163 HD
BRANCH   4   7
ATOM      7  C   UNL     1       2.417   7.940  -3.271  1.00  0.00     0.093 A 
ATOM      8  C   UNL     1       2.327   5.470  -3.005  1.00  0.00     0.042 A 
ATOM      9  S   UNL     1       1.711   6.840  -2.183  1.00  0.00    -0.130 S 
ATOM     10  C   UNL     1       3.220   5.834  -3.999  1.00  0.00    -0.031 A 
ATOM     11  C   UNL     1       3.261   7.262  -4.137  1.00  0.00     0.029 A 
ATOM     12  C   UNL     1       4.032   4.910  -4.845  1.00  0.00     0.046 C 
BRANCH   8  13
ATOM     13  C   UNL     1       1.881   4.140  -2.563  1.00  0.00     0.034 A 
ATOM     14  C   UNL     1       0.907   1.655  -1.696  1.00  0.00     0.122 A 
ATOM     15  C   UNL     1       0.061   2.539  -2.357  1.00  0.00     0.047 A 
ATOM     16  C   UNL     1       2.252   1.986  -1.504  1.00  0.00     0.093 A 
ATOM     17  C   UNL     1       0.540   3.777  -2.780  1.00  0.00     0.017 A 
ATOM     18  C   UNL     1       2.750   3.225  -1.937  1.00  0.00     0.131 A 
BRANCH  14  19
ATOM     19  O   UNL     1       0.342   0.466  -1.320  1.00  0.00    -0.497 OA
ATOM     20  C   UNL     1       0.804  -0.042  -0.071  1.00  0.00     0.278 C 
ENDBRANCH  14  19
BRANCH  18  21
ATOM     21  O   UNL     1       4.054   3.627  -1.791  1.00  0.00    -0.496 OA
ATOM     22  C   UNL     1       4.978   2.698  -1.245  1.00  0.00     0.278 C 
ENDBRANCH  18  21
ENDBRANCH   8  13
ENDBRANCH   4   7
ENDBRANCH   2   3
ENDBRANCH   1   2
BRANCH   1  23
ATOM     23  C   UNL     1       0.135  11.193   0.063  1.00  0.00     0.118 C 
BRANCH  23  24
ATOM     24  N   UNL     1      -1.172  11.798  -0.167  1.00  0.00    -0.352 N 
ATOM     25  C   UNL     1      -2.065  12.352   0.712  1.00  0.00     0.251 C 
ATOM     26  H   UNL     1      -1.459  11.811  -1.109  1.00  0.00     0.163 HD
ATOM     27  O   UNL     1      -3.210  12.591   0.324  1.00  0.00    -0.269 OA
BRANCH  25  28
ATOM     28  C   UNL     1      -1.681  12.664   2.105  1.00  0.00     0.039 A 
ATOM     29  C   UNL     1      -2.620  12.464   3.122  1.00  0.00     0.014 A 
ATOM     30  C   UNL     1      -0.434  13.219   2.410  1.00  0.00     0.014 A 
ATOM     31  C   UNL     1      -2.296  12.778   4.444  1.00  0.00     0.010 A 
ATOM     32  C   UNL     1      -0.088  13.469   3.737  1.00  0.00     0.010 A 
ATOM     33  C   UNL     1      -1.018  13.263   4.766  1.00  0.00    -0.014 A 
BRANCH  33  34
ATOM     34  C   UNL     1      -0.647  13.570   6.172  1.00  0.00     0.031 A 
ATOM     35  C   UNL     1      -0.334  14.984   6.583  1.00  0.00     0.074 A 
ATOM     36  C   UNL     1      -0.540  12.566   7.065  1.00  0.00     0.049 A 
ATOM     37  N   UNL     1       0.060  15.439   7.745  1.00  0.00    -0.248 NA
ATOM     38  C   UNL     1      -0.452  16.021   5.545  1.00  0.00     0.031 C 
ATOM     39  C   UNL     1      -0.768  11.148   6.775  1.00  0.00     0.029 A 
ATOM     40  N   UNL     1      -0.203  12.581   8.395  1.00  0.00    -0.354 N 
ATOM     41  C   UNL     1       0.259  16.804   7.574  1.00  0.00     0.074 A 
ATOM     42  C   UNL     1      -0.018  17.098   6.184  1.00  0.00     0.031 C 
ATOM     43  C   UNL     1      -0.587  10.434   7.898  1.00  0.00     0.029 A 
ATOM     44  C   UNL     1      -0.200  11.336   8.978  1.00  0.00     0.049 A 
ATOM     45  H   UNL     1       0.016  13.406   8.885  1.00  0.00     0.167 HD
ATOM     46  C   UNL     1       0.621  17.731   8.493  1.00  0.00     0.037 A 
ATOM     47  C   UNL     1       0.085  10.963  10.241  1.00  0.00     0.037 A 
ATOM     48  C   UNL     1       0.855  17.438   9.884  1.00  0.00     0.049 A 
ATOM     49  C   UNL     1       0.453  12.016  11.250  1.00  0.00     0.074 A 
ATOM     50  C   UNL     1       1.153  18.317  10.911  1.00  0.00     0.029 A 
ATOM     51  N   UNL     1       0.812  16.170  10.445  1.00  0.00    -0.354 N 
ATOM     52  N   UNL     1       0.571  13.312  11.084  1.00  0.00    -0.248 NA
ATOM     53  C   UNL     1       0.715  11.558  12.621  1.00  0.00     0.031 C 
ATOM     54  C   UNL     1       1.325  17.576  12.086  1.00  0.00     0.029 A 
ATOM     55  C   UNL     1       1.093  16.241  11.799  1.00  0.00     0.049 A 
ATOM     56  H   UNL     1       0.612  15.341   9.952  1.00  0.00     0.167 HD
ATOM     57  C   UNL     1       0.891  13.827  12.335  1.00  0.00     0.074 A 
ATOM     58  C   UNL     1       0.937  12.704  13.249  1.00  0.00     0.031 C 
ATOM     59  C   UNL     1       1.124  15.114  12.696  1.00  0.00     0.037 A 
BRANCH  46  60
ATOM     60  C   UNL     1       0.781  19.152   8.029  1.00  0.00     0.058 A 
ATOM     61  C   UNL     1      -0.324  19.943   7.676  1.00  0.00     0.135 A 
ATOM     62  C   UNL     1       2.053  19.746   7.974  1.00  0.00     0.135 A 
ATOM     63  F   UNL     1      -1.561  19.423   7.696  1.00  0.00    -0.206 F 
ATOM     64  C   UNL     1      -0.172  21.262   7.259  1.00  0.00     0.059 A 
ATOM     65  C   UNL     1       2.226  21.071   7.585  1.00  0.00     0.059 A 
ATOM     66  F   UNL     1       3.145  19.036   8.301  1.00  0.00    -0.206 F 
ATOM     67  C   UNL     1       1.107  21.817   7.215  1.00  0.00     0.060 A 
BRANCH  67  68
ATOM     68  S   UNL     1       1.288  23.532   6.681  1.00  0.00     0.124 S 
ATOM     69  O   UNL     1       1.082  23.411   5.241  1.00  0.00    -0.237 OA
ATOM     70  O   UNL     1       0.222  24.204   7.418  1.00  0.00    -0.237 OA
ATOM     71  O   UNL     1       2.644  23.876   7.095  1.00  0.00    -0.744 OA
ENDBRANCH  67  68
ENDBRANCH  46  60
BRANCH  47  72
ATOM     72  C   UNL     1       0.002   9.531  10.633  1.00  0.00     0.058 A 
ATOM     73  C   UNL     1      -1.026   9.073  11.470  1.00  0.00     0.135 A 
ATOM     74  C   UNL     1       0.945   8.595  10.181  1.00  0.00     0.135 A 
ATOM     75  F   UNL     1      -1.948   9.933  11.930  1.00  0.00    -0.206 F 
ATOM     76  C   UNL     1      -1.105   7.743  11.867  1.00  0.00     0.059 A 
ATOM     77  C   UNL     1       0.873   7.253  10.545  1.00  0.00     0.059 A 
ATOM     78  F   UNL     1       1.937   8.979   9.363  1.00  0.00    -0.206 F 
ATOM     79  C   UNL     1      -0.149   6.840  11.400  1.00  0.00     0.060 A 
BRANCH  79  80
ATOM     80  S   UNL     1      -0.278   5.107  11.892  1.00  0.00     0.124 S 
ATOM     81  O   UNL     1       0.202   5.157  13.268  1.00  0.00    -0.237 OA
ATOM     82  O   UNL     1      -1.703   4.843  11.722  1.00  0.00    -0.237 OA
ATOM     83  O   UNL     1       0.595   4.424  10.942  1.00  0.00    -0.744 OA
ENDBRANCH  79  80
ENDBRANCH  47  72
BRANCH  59  84
ATOM     84  C   UNL     1       1.407  15.378  14.149  1.00  0.00     0.058 A 
ATOM     85  C   UNL     1       2.631  15.026  14.739  1.00  0.00     0.135 A 
ATOM     86  C   UNL     1       0.449  16.017  14.952  1.00  0.00     0.135 A 
ATOM     87  F   UNL     1       3.577  14.407  14.015  1.00  0.00    -0.206 F 
ATOM     88  C   UNL     1       2.883  15.268  16.085  1.00  0.00     0.059 A 
ATOM     89  C   UNL     1       0.691  16.293  16.294  1.00  0.00     0.059 A 
ATOM     90  F   UNL     1      -0.733  16.386  14.433  1.00  0.00    -0.206 F 
ATOM     91  C   UNL     1       1.905  15.900  16.856  1.00  0.00     0.060 A 
BRANCH  91  92
ATOM     92  S   UNL     1       2.246  16.222  18.599  1.00  0.00     0.124 S 
ATOM     93  O   UNL     1       2.054  14.900  19.184  1.00  0.00    -0.237 OA
ATOM     94  O   UNL     1       3.622  16.707  18.566  1.00  0.00    -0.237 OA
ATOM     95  O   UNL     1       1.245  17.222  18.960  1.00  0.00    -0.744 OA
ENDBRANCH  91  92
ENDBRANCH  59  84
ENDBRANCH  33  34
ENDBRANCH  25  28
ENDBRANCH  23  24
ENDBRANCH   1  23
TORSDOF 16
