REMARK SMILES C[C@@H]1CC(C)(C)C[C@@](CC(=O)Nc2cccc(C(F)(F)F)c2)(C(=O)NCCCNC(=O)c2ccc(-c3c4nc(c(-c5c(F)cc(S(=O)(=O)[O-])cc5F)c5ccc([nH]5)c(-c5c(F)cc(S(=O)(=O)[O-])cc5F)c5nc(c(-c6c(F)cc(S(=O)(=O)[O-])cc6F)c6ccc3[nH]6)C=C5)C=C4)cc2)C1
REMARK SMILES IDX 26 1 25 2 23 3 24 4 8 6 1 7 2 8 3 9 98 10 4 11 5 12 6 13
REMARK SMILES IDX 7 14 9 15 10 16 11 17 12 18 13 20 14 21 22 22 15 23 17 24
REMARK SMILES IDX 16 25 18 26 19 27 20 28 21 29 27 30 28 31 29 32 30 33 31 35
REMARK SMILES IDX 32 36 33 37 97 38 34 39 96 40 35 41 36 42 37 43 90 44 38 45
REMARK SMILES IDX 95 46 89 47 91 48 39 49 94 50 88 51 87 52 40 54 74 55 53 56
REMARK SMILES IDX 73 57 54 58 57 59 72 60 92 61 55 62 56 63 71 65 93 66 58 67
REMARK SMILES IDX 41 68 42 69 51 70 43 71 44 72 50 73 52 74 45 75 46 76 47 77
REMARK SMILES IDX 48 78 49 79 75 80 76 81 85 82 77 83 78 84 84 85 86 86 79 87
REMARK SMILES IDX 80 88 81 89 82 90 83 91 59 92 60 93 69 94 61 95 62 96 68 97
REMARK SMILES IDX 70 98 63 99 64 100 65 101 66 102 67 103
REMARK H PARENT 25 5 12 19 29 34 91 53 57 64
REMARK Flexibility Score: inf
ROOT
ATOM      1  C   UNL     1       0.243  -3.590   2.726  1.00  0.00     0.117 C 
ENDROOT
BRANCH   1   2
ATOM      2  N   UNL     1       0.646  -3.617   1.318  1.00  0.00    -0.356 N 
ATOM      3  C   UNL     1       0.772  -2.639   0.359  1.00  0.00     0.226 C 
ATOM      4  O   UNL     1       1.210  -3.018  -0.730  1.00  0.00    -0.274 OA
ATOM      5  H   UNL     1       0.874  -4.518   0.992  1.00  0.00     0.163 HD
BRANCH   3   6
ATOM      6  C   UNL     1       0.386  -1.128   0.609  1.00  0.00     0.059 C 
ATOM      7  C   UNL     1       0.572   2.223   0.044  1.00  0.00     0.008 C 
ATOM      8  C   UNL     1       0.103   1.081  -0.846  1.00  0.00    -0.013 C 
ATOM      9  C   UNL     1      -1.406   0.926  -0.855  1.00  0.00     0.009 C 
ATOM     10  C   UNL     1       0.758  -0.287  -0.640  1.00  0.00     0.020 C 
ATOM     11  C   UNL     1      -2.001   0.121   0.318  1.00  0.00    -0.034 C 
ATOM     12  C   UNL     1      -2.197   0.989   1.572  1.00  0.00     0.011 C 
ATOM     13  C   UNL     1      -3.416  -0.307  -0.156  1.00  0.00     0.011 C 
ATOM     14  C   UNL     1      -1.181  -1.151   0.694  1.00  0.00     0.024 C 
BRANCH   6  15
ATOM     15  C   UNL     1       1.183  -0.786   1.897  1.00  0.00     0.117 C 
BRANCH  15  16
ATOM     16  C   UNL     1       1.883   0.495   2.265  1.00  0.00     0.225 C 
ATOM     17  O   UNL     1       1.365   1.209   3.139  1.00  0.00    -0.275 OA
ATOM     18  N   UNL     1       3.088   0.923   1.821  1.00  0.00    -0.326 N 
ATOM     19  H   UNL     1       3.424   1.659   2.383  1.00  0.00     0.169 HD
BRANCH  18  20
ATOM     20  C   UNL     1       4.002   0.626   0.795  1.00  0.00     0.041 A 
ATOM     21  C   UNL     1       4.931   1.649   0.537  1.00  0.00     0.026 A 
ATOM     22  C   UNL     1       3.987  -0.480  -0.051  1.00  0.00     0.039 A 
ATOM     23  C   UNL     1       5.723   1.644  -0.609  1.00  0.00     0.003 A 
ATOM     24  C   UNL     1       4.710  -0.451  -1.268  1.00  0.00     0.058 A 
ATOM     25  C   UNL     1       5.587   0.613  -1.527  1.00  0.00     0.013 A 
BRANCH  24  26
ATOM     26  C   UNL     1       4.502  -1.506  -2.334  1.00  0.00     0.416 C 
ATOM     27  F   UNL     1       4.782  -1.041  -3.588  1.00  0.00    -0.166 F 
ATOM     28  F   UNL     1       5.293  -2.597  -2.160  1.00  0.00    -0.166 F 
ATOM     29  F   UNL     1       3.224  -1.956  -2.400  1.00  0.00    -0.166 F 
ENDBRANCH  24  26
ENDBRANCH  18  20
ENDBRANCH  15  16
ENDBRANCH   6  15
ENDBRANCH   3   6
ENDBRANCH   1   2
BRANCH   1  30
ATOM     30  C   UNL     1       0.305  -4.950   3.425  1.00  0.00     0.042 C 
BRANCH  30  31
ATOM     31  C   UNL     1       1.717  -5.493   3.665  1.00  0.00     0.118 C 
BRANCH  31  32
ATOM     32  N   UNL     1       2.470  -4.764   4.680  1.00  0.00    -0.352 N 
ATOM     33  C   UNL     1       3.005  -5.166   5.888  1.00  0.00     0.251 C 
ATOM     34  H   UNL     1       2.626  -3.817   4.465  1.00  0.00     0.163 HD
ATOM     35  O   UNL     1       3.531  -4.328   6.609  1.00  0.00    -0.269 OA
BRANCH  33  36
ATOM     36  C   UNL     1       2.925  -6.577   6.346  1.00  0.00     0.039 A 
ATOM     37  C   UNL     1       2.636  -6.830   7.693  1.00  0.00     0.014 A 
ATOM     38  C   UNL     1       3.163  -7.650   5.486  1.00  0.00     0.014 A 
ATOM     39  C   UNL     1       2.487  -8.147   8.147  1.00  0.00     0.010 A 
ATOM     40  C   UNL     1       2.938  -8.958   5.920  1.00  0.00     0.010 A 
ATOM     41  C   UNL     1       2.583  -9.223   7.252  1.00  0.00    -0.014 A 
BRANCH  41  42
ATOM     42  C   UNL     1       2.289 -10.623   7.672  1.00  0.00     0.031 A 
ATOM     43  C   UNL     1       3.348 -11.691   7.577  1.00  0.00     0.074 A 
ATOM     44  C   UNL     1       1.039 -10.959   8.049  1.00  0.00     0.049 A 
ATOM     45  N   UNL     1       3.244 -12.981   7.774  1.00  0.00    -0.248 NA
ATOM     46  C   UNL     1       4.694 -11.253   7.176  1.00  0.00     0.031 C 
ATOM     47  C   UNL     1      -0.094 -10.036   8.145  1.00  0.00     0.029 A 
ATOM     48  N   UNL     1       0.504 -12.173   8.407  1.00  0.00    -0.354 N 
ATOM     49  C   UNL     1       4.497 -13.513   7.491  1.00  0.00     0.074 A 
ATOM     50  C   UNL     1       5.334 -12.409   7.071  1.00  0.00     0.031 C 
ATOM     51  C   UNL     1      -1.180 -10.710   8.556  1.00  0.00     0.029 A 
ATOM     52  C   UNL     1      -0.837 -12.120   8.712  1.00  0.00     0.049 A 
ATOM     53  H   UNL     1       1.031 -13.004   8.443  1.00  0.00     0.167 HD
ATOM     54  C   UNL     1       4.918 -14.798   7.587  1.00  0.00     0.037 A 
ATOM     55  C   UNL     1      -1.698 -13.094   9.066  1.00  0.00     0.037 A 
ATOM     56  C   UNL     1       4.095 -15.889   8.043  1.00  0.00     0.049 A 
ATOM     57  C   UNL     1      -1.207 -14.511   9.181  1.00  0.00     0.074 A 
ATOM     58  C   UNL     1       4.452 -17.211   8.244  1.00  0.00     0.029 A 
ATOM     59  N   UNL     1       2.750 -15.786   8.368  1.00  0.00    -0.354 N 
ATOM     60  N   UNL     1      -0.004 -14.985   8.961  1.00  0.00    -0.248 NA
ATOM     61  C   UNL     1      -2.189 -15.524   9.592  1.00  0.00     0.031 C 
ATOM     62  C   UNL     1       3.314 -17.916   8.656  1.00  0.00     0.029 A 
ATOM     63  C   UNL     1       2.258 -17.024   8.752  1.00  0.00     0.049 A 
ATOM     64  H   UNL     1       2.222 -14.956   8.331  1.00  0.00     0.167 HD
ATOM     65  C   UNL     1      -0.077 -16.346   9.236  1.00  0.00     0.074 A 
ATOM     66  C   UNL     1      -1.441 -16.619   9.641  1.00  0.00     0.031 C 
ATOM     67  C   UNL     1       0.900 -17.283   9.161  1.00  0.00     0.037 A 
BRANCH  54  68
ATOM     68  C   UNL     1       6.338 -15.093   7.185  1.00  0.00     0.058 A 
ATOM     69  C   UNL     1       7.429 -14.658   7.953  1.00  0.00     0.135 A 
ATOM     70  C   UNL     1       6.611 -15.828   6.019  1.00  0.00     0.135 A 
ATOM     71  F   UNL     1       7.227 -13.943   9.071  1.00  0.00    -0.206 F 
ATOM     72  C   UNL     1       8.741 -14.899   7.556  1.00  0.00     0.059 A 
ATOM     73  C   UNL     1       7.915 -16.106   5.618  1.00  0.00     0.059 A 
ATOM     74  F   UNL     1       5.606 -16.275   5.250  1.00  0.00    -0.206 F 
ATOM     75  C   UNL     1       8.973 -15.617   6.382  1.00  0.00     0.060 A 
BRANCH  75  76
ATOM     76  S   UNL     1      10.680 -15.896   5.863  1.00  0.00     0.124 S 
ATOM     77  O   UNL     1      11.041 -14.583   5.338  1.00  0.00    -0.237 OA
ATOM     78  O   UNL     1      11.331 -16.279   7.112  1.00  0.00    -0.237 OA
ATOM     79  O   UNL     1      10.563 -16.959   4.870  1.00  0.00    -0.744 OA
ENDBRANCH  75  76
ENDBRANCH  54  68
BRANCH  55  80
ATOM     80  C   UNL     1      -3.112 -12.751   9.377  1.00  0.00     0.058 A 
ATOM     81  C   UNL     1      -3.574 -12.760  10.700  1.00  0.00     0.135 A 
ATOM     82  C   UNL     1      -4.015 -12.376   8.370  1.00  0.00     0.135 A 
ATOM     83  F   UNL     1      -2.750 -13.121  11.696  1.00  0.00    -0.206 F 
ATOM     84  C   UNL     1      -4.883 -12.413  11.018  1.00  0.00     0.059 A 
ATOM     85  C   UNL     1      -5.323 -12.004   8.665  1.00  0.00     0.059 A 
ATOM     86  F   UNL     1      -3.616 -12.338   7.089  1.00  0.00    -0.206 F 
ATOM     87  C   UNL     1      -5.749 -12.030   9.992  1.00  0.00     0.060 A 
BRANCH  87  88
ATOM     88  S   UNL     1      -7.424 -11.510  10.424  1.00  0.00     0.124 S 
ATOM     89  O   UNL     1      -8.053 -12.785  10.748  1.00  0.00    -0.237 OA
ATOM     90  O   UNL     1      -7.186 -10.611  11.549  1.00  0.00    -0.237 OA
ATOM     91  O   UNL     1      -7.899 -10.863   9.204  1.00  0.00    -0.744 OA
ENDBRANCH  87  88
ENDBRANCH  55  80
BRANCH  67  92
ATOM     92  C   UNL     1       0.545 -18.689   9.562  1.00  0.00     0.058 A 
ATOM     93  C   UNL     1      -0.230 -19.518   8.737  1.00  0.00     0.135 A 
ATOM     94  C   UNL     1       1.035 -19.229  10.762  1.00  0.00     0.135 A 
ATOM     95  F   UNL     1      -0.729 -19.047   7.583  1.00  0.00    -0.206 F 
ATOM     96  C   UNL     1      -0.522 -20.830   9.096  1.00  0.00     0.059 A 
ATOM     97  C   UNL     1       0.775 -20.546  11.130  1.00  0.00     0.059 A 
ATOM     98  F   UNL     1       1.789 -18.480  11.583  1.00  0.00    -0.206 F 
ATOM     99  C   UNL     1      -0.013 -21.336  10.294  1.00  0.00     0.060 A 
BRANCH  99 100
ATOM    100  S   UNL     1      -0.364 -23.053  10.730  1.00  0.00     0.124 S 
ATOM    101  O   UNL     1      -1.754 -22.967  11.164  1.00  0.00    -0.237 OA
ATOM    102  O   UNL     1      -0.136 -23.750   9.469  1.00  0.00    -0.237 OA
ATOM    103  O   UNL     1       0.606 -23.340  11.783  1.00  0.00    -0.744 OA
ENDBRANCH  99 100
ENDBRANCH  67  92
ENDBRANCH  41  42
ENDBRANCH  33  36
ENDBRANCH  31  32
ENDBRANCH  30  31
ENDBRANCH   1  30
TORSDOF 17
