REMARK SMILES COc1ccc(C[NH2+]Cc2cccn2-c2sc(C)c(C)c2C(=O)NCCCNC(=O)c2ccc(-c3c4nc(c(-c5c(F)cc(S(=O)(=O)[O-])cc5F)c5ccc([nH]5)c(-c5c(F)cc(S(=O)(=O)[O-])cc5F)c5nc(c(-c6c(F)cc(S(=O)(=O)[O-])cc6F)c6ccc3[nH]6)C=C5)C=C4)cc2)cc1
REMARK SMILES IDX 22 1 23 2 24 3 21 5 15 6 16 7 17 8 19 9 18 10 20 11 14 12
REMARK SMILES IDX 10 13 11 14 12 15 13 16 9 17 8 18 7 21 6 22 3 23 4 24 98 25
REMARK SMILES IDX 5 26 97 27 2 28 1 29 25 30 26 31 27 32 28 33 29 34 30 36
REMARK SMILES IDX 31 37 32 38 96 39 33 40 95 41 34 42 35 43 36 44 89 45 37 46
REMARK SMILES IDX 94 47 88 48 90 49 38 50 93 51 87 52 86 53 39 55 73 56 52 57
REMARK SMILES IDX 72 58 53 59 56 60 71 61 91 62 54 63 55 64 70 66 92 67 57 68
REMARK SMILES IDX 40 69 41 70 50 71 42 72 43 73 49 74 51 75 44 76 45 77 46 78
REMARK SMILES IDX 47 79 48 80 74 81 75 82 84 83 76 84 77 85 83 86 85 87 78 88
REMARK SMILES IDX 79 89 80 90 81 91 82 92 58 93 59 94 68 95 60 96 61 97 67 98
REMARK SMILES IDX 69 99 62 100 63 101 64 102 65 103 66 104
REMARK H PARENT 24 4 8 19 8 20 28 35 90 54 56 65
REMARK Flexibility Score: inf
ROOT
ATOM      1  C   UNL     1       4.227   1.941   9.341  1.00  0.00     0.254 C 
ATOM      2  O   UNL     1       4.373   1.003  10.128  1.00  0.00    -0.269 OA
ATOM      3  N   UNL     1       4.381   3.196   9.878  1.00  0.00    -0.352 N 
ATOM      4  H   UNL     1       4.557   3.232  10.846  1.00  0.00     0.163 HD
ENDROOT
BRANCH   1   5
ATOM      5  C   UNL     1       3.869   1.666   7.927  1.00  0.00     0.078 A 
ATOM      6  C   UNL     1       4.210   2.307   6.739  1.00  0.00     0.113 A 
ATOM      7  S   UNL     1       4.098   1.245   5.401  1.00  0.00    -0.122 S 
ATOM      8  C   UNL     1       2.889   0.346   6.201  1.00  0.00     0.007 A 
ATOM      9  C   UNL     1       3.017   0.504   7.574  1.00  0.00    -0.022 A 
ATOM     10  C   UNL     1       1.964  -0.514   5.409  1.00  0.00     0.057 C 
ATOM     11  C   UNL     1       2.339  -0.382   8.581  1.00  0.00     0.046 C 
BRANCH   6  12
ATOM     12  N   UNL     1       4.835   3.518   6.432  1.00  0.00    -0.306 N 
ATOM     13  C   UNL     1       4.239   4.755   6.111  1.00  0.00     0.078 A 
ATOM     14  C   UNL     1       5.265   5.659   5.866  1.00  0.00     0.029 A 
ATOM     15  C   UNL     1       6.493   4.980   5.984  1.00  0.00     0.020 A 
ATOM     16  C   UNL     1       6.204   3.673   6.296  1.00  0.00     0.092 A 
BRANCH  13  17
ATOM     17  C   UNL     1       2.768   5.091   6.182  1.00  0.00     0.316 C 
BRANCH  17  18
ATOM     18  N   UNL     1       2.096   5.009   4.884  1.00  0.00    -0.338 N 
ATOM     19  H   UNL     1       1.355   5.708   4.836  1.00  0.00     0.346 HD
ATOM     20  H   UNL     1       2.763   5.185   4.133  1.00  0.00     0.346 HD
BRANCH  18  21
ATOM     21  C   UNL     1       1.527   3.680   4.745  1.00  0.00     0.297 C 
BRANCH  21  22
ATOM     22  C   UNL     1       1.200   3.240   3.348  1.00  0.00     0.006 A 
ATOM     23  C   UNL     1       0.533   1.877   0.999  1.00  0.00     0.118 A 
ATOM     24  C   UNL     1      -0.464   2.482   1.766  1.00  0.00     0.047 A 
ATOM     25  C   UNL     1       1.873   2.045   1.345  1.00  0.00     0.047 A 
ATOM     26  C   UNL     1      -0.134   3.159   2.939  1.00  0.00     0.013 A 
ATOM     27  C   UNL     1       2.206   2.734   2.511  1.00  0.00     0.013 A 
BRANCH  23  28
ATOM     28  O   UNL     1       0.105   1.157  -0.084  1.00  0.00    -0.497 OA
ATOM     29  C   UNL     1       0.836  -0.049  -0.297  1.00  0.00     0.278 C 
ENDBRANCH  23  28
ENDBRANCH  21  22
ENDBRANCH  18  21
ENDBRANCH  17  18
ENDBRANCH  13  17
ENDBRANCH   6  12
ENDBRANCH   1   5
BRANCH   3  30
ATOM     30  C   UNL     1       4.317   4.455   9.207  1.00  0.00     0.118 C 
BRANCH  30  31
ATOM     31  C   UNL     1       3.928   5.690   9.996  1.00  0.00     0.042 C 
BRANCH  31  32
ATOM     32  C   UNL     1       5.025   6.190  10.912  1.00  0.00     0.118 C 
BRANCH  32  33
ATOM     33  N   UNL     1       6.239   6.599  10.212  1.00  0.00    -0.352 N 
ATOM     34  C   UNL     1       7.352   7.207  10.762  1.00  0.00     0.251 C 
ATOM     35  H   UNL     1       6.268   6.423   9.244  1.00  0.00     0.163 HD
ATOM     36  O   UNL     1       8.233   7.665  10.058  1.00  0.00    -0.269 OA
BRANCH  34  37
ATOM     37  C   UNL     1       7.398   7.355  12.233  1.00  0.00     0.039 A 
ATOM     38  C   UNL     1       7.562   8.635  12.768  1.00  0.00     0.014 A 
ATOM     39  C   UNL     1       7.150   6.254  13.058  1.00  0.00     0.014 A 
ATOM     40  C   UNL     1       7.348   8.828  14.128  1.00  0.00     0.010 A 
ATOM     41  C   UNL     1       6.866   6.457  14.398  1.00  0.00     0.010 A 
ATOM     42  C   UNL     1       6.942   7.750  14.929  1.00  0.00    -0.014 A 
BRANCH  42  43
ATOM     43  C   UNL     1       6.484   8.009  16.313  1.00  0.00     0.031 A 
ATOM     44  C   UNL     1       5.142   8.751  16.366  1.00  0.00     0.074 A 
ATOM     45  C   UNL     1       7.299   7.574  17.317  1.00  0.00     0.049 A 
ATOM     46  N   UNL     1       4.713   9.637  17.212  1.00  0.00    -0.248 NA
ATOM     47  C   UNL     1       4.176   8.561  15.250  1.00  0.00     0.031 C 
ATOM     48  C   UNL     1       8.565   6.850  17.090  1.00  0.00     0.029 A 
ATOM     49  N   UNL     1       7.254   7.625  18.696  1.00  0.00    -0.354 N 
ATOM     50  C   UNL     1       3.384   9.962  16.854  1.00  0.00     0.074 A 
ATOM     51  C   UNL     1       3.164   9.376  15.565  1.00  0.00     0.031 C 
ATOM     52  C   UNL     1       9.180   6.581  18.256  1.00  0.00     0.029 A 
ATOM     53  C   UNL     1       8.396   7.100  19.356  1.00  0.00     0.049 A 
ATOM     54  H   UNL     1       6.485   7.997  19.185  1.00  0.00     0.167 HD
ATOM     55  C   UNL     1       2.503  10.572  17.706  1.00  0.00     0.037 A 
ATOM     56  C   UNL     1       8.724   7.127  20.685  1.00  0.00     0.037 A 
ATOM     57  C   UNL     1       3.117  10.757  18.980  1.00  0.00     0.049 A 
ATOM     58  C   UNL     1       7.574   7.742  21.370  1.00  0.00     0.074 A 
ATOM     59  C   UNL     1       4.084  11.607  19.445  1.00  0.00     0.029 A 
ATOM     60  N   UNL     1       2.925   9.752  19.899  1.00  0.00    -0.354 N 
ATOM     61  N   UNL     1       6.423   7.171  21.567  1.00  0.00    -0.248 NA
ATOM     62  C   UNL     1       7.680   9.147  21.790  1.00  0.00     0.031 C 
ATOM     63  C   UNL     1       4.756  10.850  20.429  1.00  0.00     0.029 A 
ATOM     64  C   UNL     1       4.085   9.636  20.623  1.00  0.00     0.049 A 
ATOM     65  H   UNL     1       2.108   9.216  20.015  1.00  0.00     0.167 HD
ATOM     66  C   UNL     1       5.598   8.240  21.828  1.00  0.00     0.074 A 
ATOM     67  C   UNL     1       6.446   9.332  22.248  1.00  0.00     0.031 C 
ATOM     68  C   UNL     1       4.409   8.340  21.182  1.00  0.00     0.037 A 
BRANCH  55  69
ATOM     69  C   UNL     1       1.013  10.815  17.651  1.00  0.00     0.058 A 
ATOM     70  C   UNL     1       0.472  11.792  18.529  1.00  0.00     0.135 A 
ATOM     71  C   UNL     1       0.089   9.935  17.072  1.00  0.00     0.135 A 
ATOM     72  F   UNL     1       1.260  12.732  19.079  1.00  0.00    -0.206 F 
ATOM     73  C   UNL     1      -0.859  11.790  18.932  1.00  0.00     0.059 A 
ATOM     74  C   UNL     1      -1.266   9.946  17.427  1.00  0.00     0.059 A 
ATOM     75  F   UNL     1       0.482   8.988  16.211  1.00  0.00    -0.206 F 
ATOM     76  C   UNL     1      -1.714  10.832  18.406  1.00  0.00     0.060 A 
BRANCH  76  77
ATOM     77  S   UNL     1      -3.396  10.732  19.056  1.00  0.00     0.124 S 
ATOM     78  O   UNL     1      -3.176  10.084  20.344  1.00  0.00    -0.237 OA
ATOM     79  O   UNL     1      -3.793  12.137  19.115  1.00  0.00    -0.237 OA
ATOM     80  O   UNL     1      -4.095   9.936  18.053  1.00  0.00    -0.744 OA
ENDBRANCH  76  77
ENDBRANCH  55  69
BRANCH  56  81
ATOM     81  C   UNL     1       9.961   6.861  21.524  1.00  0.00     0.058 A 
ATOM     82  C   UNL     1      11.166   6.298  21.079  1.00  0.00     0.135 A 
ATOM     83  C   UNL     1      10.006   7.315  22.873  1.00  0.00     0.135 A 
ATOM     84  F   UNL     1      11.252   5.656  19.911  1.00  0.00    -0.206 F 
ATOM     85  C   UNL     1      12.355   6.361  21.826  1.00  0.00     0.059 A 
ATOM     86  C   UNL     1      11.176   7.424  23.621  1.00  0.00     0.059 A 
ATOM     87  F   UNL     1       8.902   7.710  23.523  1.00  0.00    -0.206 F 
ATOM     88  C   UNL     1      12.361   6.979  23.072  1.00  0.00     0.060 A 
BRANCH  88  89
ATOM     89  S   UNL     1      13.912   7.314  23.929  1.00  0.00     0.124 S 
ATOM     90  O   UNL     1      14.096   6.097  24.710  1.00  0.00    -0.237 OA
ATOM     91  O   UNL     1      14.849   7.512  22.827  1.00  0.00    -0.237 OA
ATOM     92  O   UNL     1      13.607   8.520  24.696  1.00  0.00    -0.744 OA
ENDBRANCH  88  89
ENDBRANCH  56  81
BRANCH  68  93
ATOM     93  C   UNL     1       3.810   7.009  20.767  1.00  0.00     0.058 A 
ATOM     94  C   UNL     1       3.416   6.079  21.741  1.00  0.00     0.135 A 
ATOM     95  C   UNL     1       3.704   6.583  19.432  1.00  0.00     0.135 A 
ATOM     96  F   UNL     1       3.488   6.403  23.043  1.00  0.00    -0.206 F 
ATOM     97  C   UNL     1       2.946   4.804  21.410  1.00  0.00     0.059 A 
ATOM     98  C   UNL     1       3.223   5.323  19.069  1.00  0.00     0.059 A 
ATOM     99  F   UNL     1       4.085   7.383  18.437  1.00  0.00    -0.206 F 
ATOM    100  C   UNL     1       2.850   4.433  20.069  1.00  0.00     0.060 A 
BRANCH 100 101
ATOM    101  S   UNL     1       2.230   2.788  19.652  1.00  0.00     0.124 S 
ATOM    102  O   UNL     1       3.215   1.914  20.281  1.00  0.00    -0.237 OA
ATOM    103  O   UNL     1       0.907   2.794  20.268  1.00  0.00    -0.237 OA
ATOM    104  O   UNL     1       2.235   2.776  18.191  1.00  0.00    -0.744 OA
ENDBRANCH 100 101
ENDBRANCH  68  93
ENDBRANCH  42  43
ENDBRANCH  34  37
ENDBRANCH  32  33
ENDBRANCH  31  32
ENDBRANCH  30  31
ENDBRANCH   3  30
TORSDOF 19
