REMARK SMILES CC[C@@H](NC(=O)c1ccc(CNC(=O)[C@H]2CCCO2)cc1)C(=O)NCCCNC(=O)c1ccc(-c2c3nc(c(-c4c(F)cc(S(=O)(=O)[O-])cc4F)c4ccc([nH]4)c(-c4c(F)cc(S(=O)(=O)[O-])cc4F)c4nc(c(-c5c(F)cc(S(=O)(=O)[O-])cc5F)c5ccc2[nH]5)C=C4)C=C3)cc1
REMARK SMILES IDX 25 1 24 2 22 3 23 4 3 6 2 7 1 8 4 9 5 10 6 12 7 13 8 14
REMARK SMILES IDX 21 15 9 16 20 17 10 18 11 19 12 20 13 21 14 23 15 24 16 25
REMARK SMILES IDX 19 26 17 27 18 28 26 29 27 30 28 31 29 32 30 34 31 35 32 36
REMARK SMILES IDX 96 37 33 38 95 39 34 40 35 41 36 42 89 43 37 44 94 45 88 46
REMARK SMILES IDX 90 47 38 48 93 49 87 50 86 51 39 53 73 54 52 55 72 56 53 57
REMARK SMILES IDX 56 58 71 59 91 60 54 61 55 62 70 64 92 65 57 66 40 67 41 68
REMARK SMILES IDX 50 69 42 70 43 71 49 72 51 73 44 74 45 75 46 76 47 77 48 78
REMARK SMILES IDX 74 79 75 80 84 81 76 82 77 83 83 84 85 85 78 86 79 87 80 88
REMARK SMILES IDX 81 89 82 90 58 91 59 92 68 93 60 94 61 95 67 96 69 97 62 98
REMARK SMILES IDX 63 99 64 100 65 101 66 102
REMARK H PARENT 24 5 4 11 12 22 28 33 90 52 56 63
REMARK Flexibility Score: inf
ROOT
ATOM      1  C   UNL     1      -6.772   2.290  -2.345  1.00  0.00     0.117 C 
ENDROOT
BRANCH   1   2
ATOM      2  N   UNL     1      -7.425   3.031  -1.280  1.00  0.00    -0.354 N 
ATOM      3  C   UNL     1      -7.711   2.645  -0.007  1.00  0.00     0.242 C 
ATOM      4  O   UNL     1      -8.391   3.404   0.691  1.00  0.00    -0.273 OA
ATOM      5  H   UNL     1      -7.702   3.947  -1.514  1.00  0.00     0.163 HD
BRANCH   3   6
ATOM      6  C   UNL     1      -7.323   1.245   0.502  1.00  0.00     0.171 C 
BRANCH   6   7
ATOM      7  C   UNL     1      -8.402   0.294  -0.072  1.00  0.00     0.032 C 
ATOM      8  C   UNL     1      -8.282  -1.164   0.332  1.00  0.00     0.006 C 
ENDBRANCH   6   7
BRANCH   6   9
ATOM      9  N   UNL     1      -5.949   0.806   0.194  1.00  0.00    -0.340 N 
ATOM     10  C   UNL     1      -4.739   1.437   0.390  1.00  0.00     0.251 C 
ATOM     11  H   UNL     1      -5.886  -0.084  -0.221  1.00  0.00     0.164 HD
ATOM     12  O   UNL     1      -3.704   0.777   0.365  1.00  0.00    -0.269 OA
BRANCH  10  13
ATOM     13  C   UNL     1      -4.649   2.914   0.433  1.00  0.00     0.039 A 
ATOM     14  C   UNL     1      -3.979   3.544  -0.624  1.00  0.00     0.014 A 
ATOM     15  C   UNL     1      -5.274   3.683   1.412  1.00  0.00     0.014 A 
ATOM     16  C   UNL     1      -4.059   4.930  -0.780  1.00  0.00     0.006 A 
ATOM     17  C   UNL     1      -5.350   5.075   1.254  1.00  0.00     0.006 A 
ATOM     18  C   UNL     1      -4.772   5.713   0.143  1.00  0.00    -0.029 A 
BRANCH  18  19
ATOM     19  C   UNL     1      -4.998   7.195  -0.091  1.00  0.00     0.151 C 
BRANCH  19  20
ATOM     20  N   UNL     1      -3.819   7.835  -0.625  1.00  0.00    -0.350 N 
ATOM     21  C   UNL     1      -3.602   8.562  -1.751  1.00  0.00     0.249 C 
ATOM     22  H   UNL     1      -3.017   7.722  -0.065  1.00  0.00     0.163 HD
ATOM     23  O   UNL     1      -2.438   8.940  -1.934  1.00  0.00    -0.272 OA
BRANCH  21  24
ATOM     24  C   UNL     1      -4.708   8.961  -2.747  1.00  0.00     0.207 C 
ATOM     25  C   UNL     1      -5.624   7.877  -3.308  1.00  0.00     0.044 C 
ATOM     26  O   UNL     1      -5.562   9.991  -2.223  1.00  0.00    -0.368 OA
ATOM     27  C   UNL     1      -7.026   8.400  -3.045  1.00  0.00     0.032 C 
ATOM     28  C   UNL     1      -6.803   9.888  -2.928  1.00  0.00     0.161 C 
ENDBRANCH  21  24
ENDBRANCH  19  20
ENDBRANCH  18  19
ENDBRANCH  10  13
ENDBRANCH   6   9
ENDBRANCH   3   6
ENDBRANCH   1   2
BRANCH   1  29
ATOM     29  C   UNL     1      -7.515   2.441  -3.658  1.00  0.00     0.042 C 
BRANCH  29  30
ATOM     30  C   UNL     1      -7.510   3.866  -4.185  1.00  0.00     0.118 C 
BRANCH  30  31
ATOM     31  N   UNL     1      -6.173   4.347  -4.516  1.00  0.00    -0.352 N 
ATOM     32  C   UNL     1      -5.729   4.893  -5.697  1.00  0.00     0.251 C 
ATOM     33  H   UNL     1      -5.502   4.270  -3.801  1.00  0.00     0.163 HD
ATOM     34  O   UNL     1      -4.537   5.128  -5.862  1.00  0.00    -0.269 OA
BRANCH  32  35
ATOM     35  C   UNL     1      -6.712   5.172  -6.761  1.00  0.00     0.039 A 
ATOM     36  C   UNL     1      -6.481   4.691  -8.050  1.00  0.00     0.014 A 
ATOM     37  C   UNL     1      -7.897   5.844  -6.452  1.00  0.00     0.014 A 
ATOM     38  C   UNL     1      -7.480   4.821  -9.016  1.00  0.00     0.010 A 
ATOM     39  C   UNL     1      -8.923   5.888  -7.386  1.00  0.00     0.010 A 
ATOM     40  C   UNL     1      -8.723   5.383  -8.679  1.00  0.00    -0.014 A 
BRANCH  40  41
ATOM     41  C   UNL     1      -9.833   5.465  -9.661  1.00  0.00     0.031 A 
ATOM     42  C   UNL     1     -10.376   6.810 -10.060  1.00  0.00     0.074 A 
ATOM     43  C   UNL     1     -10.404   4.335 -10.123  1.00  0.00     0.049 A 
ATOM     44  N   UNL     1     -11.400   7.094 -10.821  1.00  0.00    -0.248 NA
ATOM     45  C   UNL     1      -9.702   7.992  -9.496  1.00  0.00     0.031 C 
ATOM     46  C   UNL     1     -10.007   2.972  -9.759  1.00  0.00     0.029 A 
ATOM     47  N   UNL     1     -11.451   4.152 -10.991  1.00  0.00    -0.354 N 
ATOM     48  C   UNL     1     -11.508   8.479 -10.807  1.00  0.00     0.074 A 
ATOM     49  C   UNL     1     -10.481   8.976  -9.918  1.00  0.00     0.031 C 
ATOM     50  C   UNL     1     -10.783   2.096 -10.418  1.00  0.00     0.029 A 
ATOM     51  C   UNL     1     -11.755   2.831 -11.221  1.00  0.00     0.049 A 
ATOM     52  H   UNL     1     -11.939   4.898 -11.410  1.00  0.00     0.167 HD
ATOM     53  C   UNL     1     -12.366   9.268 -11.495  1.00  0.00     0.037 A 
ATOM     54  C   UNL     1     -12.712   2.276 -11.990  1.00  0.00     0.037 A 
ATOM     55  C   UNL     1     -13.354   8.767 -12.414  1.00  0.00     0.049 A 
ATOM     56  C   UNL     1     -13.633   3.172 -12.772  1.00  0.00     0.074 A 
ATOM     57  C   UNL     1     -14.220   9.484 -13.220  1.00  0.00     0.029 A 
ATOM     58  N   UNL     1     -13.602   7.424 -12.653  1.00  0.00    -0.354 N 
ATOM     59  N   UNL     1     -13.677   4.483 -12.800  1.00  0.00    -0.248 NA
ATOM     60  C   UNL     1     -14.627   2.518 -13.632  1.00  0.00     0.031 C 
ATOM     61  C   UNL     1     -15.019   8.574 -13.919  1.00  0.00     0.029 A 
ATOM     62  C   UNL     1     -14.620   7.290 -13.582  1.00  0.00     0.049 A 
ATOM     63  H   UNL     1     -13.126   6.676 -12.226  1.00  0.00     0.167 HD
ATOM     64  C   UNL     1     -14.686   4.811 -13.698  1.00  0.00     0.074 A 
ATOM     65  C   UNL     1     -15.219   3.560 -14.199  1.00  0.00     0.031 C 
ATOM     66  C   UNL     1     -15.132   6.035 -14.074  1.00  0.00     0.037 A 
BRANCH  53  67
ATOM     67  C   UNL     1     -12.266  10.754 -11.288  1.00  0.00     0.058 A 
ATOM     68  C   UNL     1     -11.173  11.493 -11.768  1.00  0.00     0.135 A 
ATOM     69  C   UNL     1     -13.288  11.452 -10.625  1.00  0.00     0.135 A 
ATOM     70  F   UNL     1     -10.159  10.873 -12.392  1.00  0.00    -0.206 F 
ATOM     71  C   UNL     1     -11.081  12.866 -11.571  1.00  0.00     0.059 A 
ATOM     72  C   UNL     1     -13.230  12.830 -10.442  1.00  0.00     0.059 A 
ATOM     73  F   UNL     1     -14.354  10.794 -10.142  1.00  0.00    -0.206 F 
ATOM     74  C   UNL     1     -12.115  13.526 -10.906  1.00  0.00     0.060 A 
BRANCH  74  75
ATOM     75  S   UNL     1     -11.983  15.310 -10.662  1.00  0.00     0.124 S 
ATOM     76  O   UNL     1     -10.979  15.384  -9.605  1.00  0.00    -0.237 OA
ATOM     77  O   UNL     1     -11.554  15.774 -11.978  1.00  0.00    -0.237 OA
ATOM     78  O   UNL     1     -13.335  15.700 -10.273  1.00  0.00    -0.744 OA
ENDBRANCH  74  75
ENDBRANCH  53  67
BRANCH  54  79
ATOM     79  C   UNL     1     -12.822   0.796 -12.083  1.00  0.00     0.058 A 
ATOM     80  C   UNL     1     -12.441   0.118 -13.250  1.00  0.00     0.135 A 
ATOM     81  C   UNL     1     -13.284   0.029 -11.003  1.00  0.00     0.135 A 
ATOM     82  F   UNL     1     -11.997   0.809 -14.312  1.00  0.00    -0.206 F 
ATOM     83  C   UNL     1     -12.524  -1.267 -13.350  1.00  0.00     0.059 A 
ATOM     84  C   UNL     1     -13.355  -1.360 -11.070  1.00  0.00     0.059 A 
ATOM     85  F   UNL     1     -13.644   0.628  -9.857  1.00  0.00    -0.206 F 
ATOM     86  C   UNL     1     -12.979  -1.998 -12.251  1.00  0.00     0.060 A 
BRANCH  86  87
ATOM     87  S   UNL     1     -13.026  -3.800 -12.369  1.00  0.00     0.124 S 
ATOM     88  O   UNL     1     -14.180  -4.008 -13.235  1.00  0.00    -0.237 OA
ATOM     89  O   UNL     1     -11.723  -4.103 -12.954  1.00  0.00    -0.237 OA
ATOM     90  O   UNL     1     -13.192  -4.221 -10.981  1.00  0.00    -0.744 OA
ENDBRANCH  86  87
ENDBRANCH  54  79
BRANCH  66  91
ATOM     91  C   UNL     1     -16.228   6.087 -15.099  1.00  0.00     0.058 A 
ATOM     92  C   UNL     1     -17.553   5.757 -14.777  1.00  0.00     0.135 A 
ATOM     93  C   UNL     1     -15.959   6.530 -16.404  1.00  0.00     0.135 A 
ATOM     94  F   UNL     1     -17.861   5.322 -13.545  1.00  0.00    -0.206 F 
ATOM     95  C   UNL     1     -18.572   5.844 -15.720  1.00  0.00     0.059 A 
ATOM     96  C   UNL     1     -16.966   6.650 -17.356  1.00  0.00     0.059 A 
ATOM     97  F   UNL     1     -14.709   6.869 -16.759  1.00  0.00    -0.206 F 
ATOM     98  C   UNL     1     -18.268   6.294 -17.007  1.00  0.00     0.060 A 
BRANCH  98  99
ATOM     99  S   UNL     1     -19.605   6.438 -18.212  1.00  0.00     0.124 S 
ATOM    100  O   UNL     1     -19.838   5.040 -18.560  1.00  0.00    -0.237 OA
ATOM    101  O   UNL     1     -20.659   7.082 -17.434  1.00  0.00    -0.237 OA
ATOM    102  O   UNL     1     -19.022   7.260 -19.268  1.00  0.00    -0.744 OA
ENDBRANCH  98  99
ENDBRANCH  66  91
ENDBRANCH  40  41
ENDBRANCH  32  35
ENDBRANCH  30  31
ENDBRANCH  29  30
ENDBRANCH   1  29
TORSDOF 19
