REMARK SMILES Nc1ccc(C(=O)NC[C@@H]2CC[C@@H](C(=O)NCCCNC(=O)c3ccc(-c4c5nc(c(-c6c(F)cc(S(=O)(=O)[O-])cc6F)c6ccc([nH]6)c(-c6c(F)cc(S(=O)(=O)[O-])cc6F)c6nc(c(-c7c(F)cc(S(=O)(=O)[O-])cc7F)c7ccc4[nH]7)C=C6)C=C5)cc3)O2)cc1Cl
REMARK SMILES IDX 17 1 16 2 14 3 15 4 13 6 10 7 11 8 89 9 12 10 9 11 8 12 6 13
REMARK SMILES IDX 7 14 5 16 2 17 3 18 91 19 4 20 90 21 92 22 1 23 18 26 19 27
REMARK SMILES IDX 20 28 21 29 22 31 23 32 24 33 88 34 25 35 87 36 26 37 27 38
REMARK SMILES IDX 28 39 81 40 29 41 86 42 80 43 82 44 30 45 85 46 79 47 78 48
REMARK SMILES IDX 31 50 65 51 44 52 64 53 45 54 48 55 63 56 83 57 46 58 47 59
REMARK SMILES IDX 62 61 84 62 49 63 32 64 33 65 42 66 34 67 35 68 41 69 43 70
REMARK SMILES IDX 36 71 37 72 38 73 39 74 40 75 66 76 67 77 76 78 68 79 69 80
REMARK SMILES IDX 75 81 77 82 70 83 71 84 72 85 73 86 74 87 50 88 51 89 60 90
REMARK SMILES IDX 52 91 53 92 59 93 61 94 54 95 55 96 56 97 57 98 58 99
REMARK H PARENT 16 5 8 15 1 24 1 25 20 30 82 49 48 60
REMARK Flexibility Score: inf
ROOT
ATOM      1  C   UNL     1       5.630  -2.917  -2.177  1.00  0.00     0.117 C 
ENDROOT
BRANCH   1   2
ATOM      2  N   UNL     1       6.292  -2.330  -3.328  1.00  0.00    -0.354 N 
ATOM      3  C   UNL     1       6.257  -1.048  -3.795  1.00  0.00     0.249 C 
ATOM      4  O   UNL     1       6.937  -0.786  -4.790  1.00  0.00    -0.272 OA
ATOM      5  H   UNL     1       6.851  -2.950  -3.850  1.00  0.00     0.163 HD
BRANCH   3   6
ATOM      6  C   UNL     1       5.337  -0.006  -3.128  1.00  0.00     0.207 C 
ATOM      7  C   UNL     1       5.772   1.354  -1.273  1.00  0.00     0.138 C 
ATOM      8  C   UNL     1       5.322   2.257  -2.408  1.00  0.00     0.037 C 
ATOM      9  O   UNL     1       5.426   0.028  -1.694  1.00  0.00    -0.363 OA
ATOM     10  C   UNL     1       5.654   1.409  -3.610  1.00  0.00     0.045 C 
BRANCH   7  11
ATOM     11  C   UNL     1       5.207   1.647   0.129  1.00  0.00     0.148 C 
BRANCH  11  12
ATOM     12  N   UNL     1       4.084   2.568   0.152  1.00  0.00    -0.349 N 
ATOM     13  C   UNL     1       2.724   2.473   0.077  1.00  0.00     0.251 C 
ATOM     14  O   UNL     1       2.129   3.556   0.080  1.00  0.00    -0.269 OA
ATOM     15  H   UNL     1       4.380   3.503   0.245  1.00  0.00     0.163 HD
BRANCH  13  16
ATOM     16  C   UNL     1       1.919   1.217   0.007  1.00  0.00     0.041 A 
ATOM     17  C   UNL     1       0.153  -1.021  -0.042  1.00  0.00     0.050 A 
ATOM     18  C   UNL     1       1.538  -1.185  -0.126  1.00  0.00     0.028 A 
ATOM     19  C   UNL     1      -0.343   0.288   0.007  1.00  0.00     0.064 A 
ATOM     20  C   UNL     1       2.413  -0.083  -0.099  1.00  0.00     0.016 A 
ATOM     21  C   UNL     1       0.523   1.384   0.046  1.00  0.00     0.036 A 
ATOM     22  Cl  UNL     1      -2.046   0.592   0.044  1.00  0.00    -0.082 Cl
BRANCH  17  23
ATOM     23  N   UNL     1      -0.680  -2.127  -0.145  1.00  0.00    -0.398 N 
ATOM     24  H   UNL     1      -0.295  -3.032  -0.177  1.00  0.00     0.156 HD
ATOM     25  H   UNL     1      -1.657  -2.005  -0.185  1.00  0.00     0.156 HD
ENDBRANCH  17  23
ENDBRANCH  13  16
ENDBRANCH  11  12
ENDBRANCH   7  11
ENDBRANCH   3   6
ENDBRANCH   1   2
BRANCH   1  26
ATOM     26  C   UNL     1       4.694  -4.056  -2.555  1.00  0.00     0.042 C 
BRANCH  26  27
ATOM     27  C   UNL     1       5.370  -5.230  -3.255  1.00  0.00     0.118 C 
BRANCH  27  28
ATOM     28  N   UNL     1       6.368  -5.893  -2.426  1.00  0.00    -0.352 N 
ATOM     29  C   UNL     1       6.397  -7.169  -1.911  1.00  0.00     0.251 C 
ATOM     30  H   UNL     1       7.149  -5.339  -2.199  1.00  0.00     0.163 HD
ATOM     31  O   UNL     1       7.266  -7.472  -1.103  1.00  0.00    -0.269 OA
BRANCH  29  32
ATOM     32  C   UNL     1       5.365  -8.159  -2.296  1.00  0.00     0.039 A 
ATOM     33  C   UNL     1       4.782  -8.944  -1.297  1.00  0.00     0.014 A 
ATOM     34  C   UNL     1       4.969  -8.316  -3.626  1.00  0.00     0.014 A 
ATOM     35  C   UNL     1       3.731  -9.808  -1.617  1.00  0.00     0.010 A 
ATOM     36  C   UNL     1       3.872  -9.119  -3.932  1.00  0.00     0.010 A 
ATOM     37  C   UNL     1       3.229  -9.858  -2.928  1.00  0.00    -0.014 A 
BRANCH  37  38
ATOM     38  C   UNL     1       1.999 -10.625  -3.258  1.00  0.00     0.031 A 
ATOM     39  C   UNL     1       2.049 -11.772  -4.229  1.00  0.00     0.074 A 
ATOM     40  C   UNL     1       0.816 -10.223  -2.749  1.00  0.00     0.049 A 
ATOM     41  N   UNL     1       1.064 -12.479  -4.721  1.00  0.00    -0.248 NA
ATOM     42  C   UNL     1       3.377 -12.160  -4.731  1.00  0.00     0.031 C 
ATOM     43  C   UNL     1       0.630  -9.097  -1.831  1.00  0.00     0.029 A 
ATOM     44  N   UNL     1      -0.456 -10.700  -2.947  1.00  0.00    -0.354 N 
ATOM     45  C   UNL     1       1.648 -13.387  -5.597  1.00  0.00     0.074 A 
ATOM     46  C   UNL     1       3.069 -13.111  -5.601  1.00  0.00     0.031 C 
ATOM     47  C   UNL     1      -0.674  -8.978  -1.538  1.00  0.00     0.029 A 
ATOM     48  C   UNL     1      -1.424  -9.984  -2.282  1.00  0.00     0.049 A 
ATOM     49  H   UNL     1      -0.657 -11.481  -3.512  1.00  0.00     0.167 HD
ATOM     50  C   UNL     1       1.055 -14.369  -6.317  1.00  0.00     0.037 A 
ATOM     51  C   UNL     1      -2.766 -10.106  -2.287  1.00  0.00     0.037 A 
ATOM     52  C   UNL     1      -0.358 -14.647  -6.295  1.00  0.00     0.049 A 
ATOM     53  C   UNL     1      -3.403 -11.185  -3.117  1.00  0.00     0.074 A 
ATOM     54  C   UNL     1      -1.044 -15.664  -6.938  1.00  0.00     0.029 A 
ATOM     55  N   UNL     1      -1.305 -13.904  -5.605  1.00  0.00    -0.354 N 
ATOM     56  N   UNL     1      -2.828 -12.079  -3.886  1.00  0.00    -0.248 NA
ATOM     57  C   UNL     1      -4.869 -11.273  -3.085  1.00  0.00     0.031 C 
ATOM     58  C   UNL     1      -2.409 -15.504  -6.679  1.00  0.00     0.029 A 
ATOM     59  C   UNL     1      -2.571 -14.418  -5.833  1.00  0.00     0.049 A 
ATOM     60  H   UNL     1      -1.106 -13.125  -5.037  1.00  0.00     0.167 HD
ATOM     61  C   UNL     1      -3.861 -12.844  -4.416  1.00  0.00     0.074 A 
ATOM     62  C   UNL     1      -5.094 -12.321  -3.865  1.00  0.00     0.031 C 
ATOM     63  C   UNL     1      -3.793 -13.884  -5.284  1.00  0.00     0.037 A 
BRANCH  50  64
ATOM     64  C   UNL     1       1.932 -15.220  -7.194  1.00  0.00     0.058 A 
ATOM     65  C   UNL     1       2.830 -16.154  -6.654  1.00  0.00     0.135 A 
ATOM     66  C   UNL     1       1.839 -15.136  -8.593  1.00  0.00     0.135 A 
ATOM     67  F   UNL     1       2.969 -16.268  -5.323  1.00  0.00    -0.206 F 
ATOM     68  C   UNL     1       3.624 -16.955  -7.468  1.00  0.00     0.059 A 
ATOM     69  C   UNL     1       2.604 -15.947  -9.427  1.00  0.00     0.059 A 
ATOM     70  F   UNL     1       0.997 -14.261  -9.163  1.00  0.00    -0.206 F 
ATOM     71  C   UNL     1       3.504 -16.844  -8.854  1.00  0.00     0.060 A 
BRANCH  71  72
ATOM     72  S   UNL     1       4.537 -17.897  -9.895  1.00  0.00     0.124 S 
ATOM     73  O   UNL     1       5.850 -17.284  -9.715  1.00  0.00    -0.237 OA
ATOM     74  O   UNL     1       4.362 -19.210  -9.282  1.00  0.00    -0.237 OA
ATOM     75  O   UNL     1       3.951 -17.745 -11.222  1.00  0.00    -0.744 OA
ENDBRANCH  71  72
ENDBRANCH  50  64
BRANCH  51  76
ATOM     76  C   UNL     1      -3.598  -9.174  -1.480  1.00  0.00     0.058 A 
ATOM     77  C   UNL     1      -4.279  -9.620  -0.338  1.00  0.00     0.135 A 
ATOM     78  C   UNL     1      -3.714  -7.818  -1.824  1.00  0.00     0.135 A 
ATOM     79  F   UNL     1      -4.205 -10.909   0.026  1.00  0.00    -0.206 F 
ATOM     80  C   UNL     1      -5.055  -8.758   0.430  1.00  0.00     0.059 A 
ATOM     81  C   UNL     1      -4.463  -6.931  -1.057  1.00  0.00     0.059 A 
ATOM     82  F   UNL     1      -3.068  -7.338  -2.898  1.00  0.00    -0.206 F 
ATOM     83  C   UNL     1      -5.137  -7.413   0.064  1.00  0.00     0.060 A 
BRANCH  83  84
ATOM     84  S   UNL     1      -6.091  -6.287   1.105  1.00  0.00     0.124 S 
ATOM     85  O   UNL     1      -7.458  -6.658   0.760  1.00  0.00    -0.237 OA
ATOM     86  O   UNL     1      -5.645  -6.657   2.444  1.00  0.00    -0.237 OA
ATOM     87  O   UNL     1      -5.658  -4.969   0.652  1.00  0.00    -0.744 OA
ENDBRANCH  83  84
ENDBRANCH  51  76
BRANCH  63  88
ATOM     88  C   UNL     1      -5.087 -14.535  -5.686  1.00  0.00     0.058 A 
ATOM     89  C   UNL     1      -5.987 -13.903  -6.558  1.00  0.00     0.135 A 
ATOM     90  C   UNL     1      -5.407 -15.827  -5.237  1.00  0.00     0.135 A 
ATOM     91  F   UNL     1      -5.734 -12.664  -7.008  1.00  0.00    -0.206 F 
ATOM     92  C   UNL     1      -7.167 -14.521  -6.958  1.00  0.00     0.059 A 
ATOM     93  C   UNL     1      -6.568 -16.476  -5.646  1.00  0.00     0.059 A 
ATOM     94  F   UNL     1      -4.578 -16.479  -4.407  1.00  0.00    -0.206 F 
ATOM     95  C   UNL     1      -7.447 -15.810  -6.500  1.00  0.00     0.060 A 
BRANCH  95  96
ATOM     96  S   UNL     1      -8.961 -16.617  -7.062  1.00  0.00     0.124 S 
ATOM     97  O   UNL     1      -9.978 -15.892  -6.309  1.00  0.00    -0.237 OA
ATOM     98  O   UNL     1      -8.935 -16.363  -8.499  1.00  0.00    -0.237 OA
ATOM     99  O   UNL     1      -8.767 -18.012  -6.675  1.00  0.00    -0.744 OA
ENDBRANCH  95  96
ENDBRANCH  63  88
ENDBRANCH  37  38
ENDBRANCH  29  32
ENDBRANCH  27  28
ENDBRANCH  26  27
ENDBRANCH   1  26
TORSDOF 17
