REMARK SMILES Cc1ccc(-c2cc(Cl)cc3c2O[C@H](C(F)(F)F)C(C(=O)NCCCNC(=O)c2ccc(-c4c5nc(c(-c6c(F)cc(S(=O)(=O)[O-])cc6F)c6ccc([nH]6)c(-c6c(F)cc(S(=O)(=O)[O-])cc6F)c6nc(c(-c7c(F)cc(S(=O)(=O)[O-])cc7F)c7ccc4[nH]7)C=C6)C=C5)cc2)=C3)cc1F
REMARK SMILES IDX 25 1 24 2 23 3 22 4 20 5 21 6 19 8 6 9 7 10 12 11 8 12 11 13
REMARK SMILES IDX 13 14 9 15 10 16 95 17 14 18 5 19 1 20 2 21 3 22 97 23 4 24
REMARK SMILES IDX 96 25 98 26 15 27 16 28 17 29 18 30 26 31 27 32 28 34 29 35
REMARK SMILES IDX 30 36 94 37 31 38 93 39 32 40 33 41 34 42 87 43 35 44 92 45
REMARK SMILES IDX 86 46 88 47 36 48 91 49 85 50 84 51 37 53 71 54 50 55 70 56
REMARK SMILES IDX 51 57 54 58 69 59 89 60 52 61 53 62 68 64 90 65 55 66 38 67
REMARK SMILES IDX 39 68 48 69 40 70 41 71 47 72 49 73 42 74 43 75 44 76 45 77
REMARK SMILES IDX 46 78 72 79 73 80 82 81 74 82 75 83 81 84 83 85 76 86 77 87
REMARK SMILES IDX 78 88 79 89 80 90 56 91 57 92 66 93 58 94 59 95 65 96 67 97
REMARK SMILES IDX 60 98 61 99 62 100 63 101 64 102
REMARK H PARENT 22 7 26 33 88 52 54 63
REMARK Flexibility Score: inf
ROOT
ATOM      1  C   UNL     1      -2.632  -5.304   8.713  1.00  0.00     0.118 C 
ENDROOT
BRANCH   1   2
ATOM      2  C   UNL     1      -2.527  -4.242   7.621  1.00  0.00     0.042 C 
BRANCH   2   3
ATOM      3  C   UNL     1      -2.206  -4.708   6.197  1.00  0.00     0.118 C 
BRANCH   3   4
ATOM      4  N   UNL     1      -3.300  -5.415   5.543  1.00  0.00    -0.352 N 
ATOM      5  C   UNL     1      -3.893  -5.402   4.326  1.00  0.00     0.251 C 
ATOM      6  O   UNL     1      -4.778  -6.253   4.165  1.00  0.00    -0.270 OA
ATOM      7  H   UNL     1      -3.718  -6.073   6.144  1.00  0.00     0.163 HD
BRANCH   5   8
ATOM      8  C   UNL     1      -3.594  -4.460   3.202  1.00  0.00     0.067 C 
ATOM      9  C   UNL     1      -3.048  -1.804  -0.050  1.00  0.00     0.026 A 
ATOM     10  C   UNL     1      -3.997  -1.801  -1.086  1.00  0.00     0.033 A 
ATOM     11  C   UNL     1      -3.244  -2.685   1.036  1.00  0.00     0.135 A 
ATOM     12  C   UNL     1      -5.103  -2.650  -1.033  1.00  0.00     0.042 A 
ATOM     13  C   UNL     1      -4.366  -3.517   1.099  1.00  0.00     0.019 A 
ATOM     14  O   UNL     1      -2.337  -2.641   2.062  1.00  0.00    -0.475 OA
ATOM     15  Cl  UNL     1      -6.255  -2.626  -2.314  1.00  0.00    -0.084 Cl
ATOM     16  C   UNL     1      -5.293  -3.504   0.053  1.00  0.00     0.032 A 
ATOM     17  C   UNL     1      -4.576  -4.342   2.285  1.00  0.00     0.025 C 
ATOM     18  C   UNL     1      -2.267  -3.788   2.962  1.00  0.00     0.314 C 
BRANCH   9  19
ATOM     19  C   UNL     1      -1.890  -0.895  -0.104  1.00  0.00    -0.012 A 
ATOM     20  C   UNL     1       1.534   1.747   0.014  1.00  0.00     0.047 C 
ATOM     21  C   UNL     1       0.337   0.851  -0.060  1.00  0.00    -0.015 A 
ATOM     22  C   UNL     1      -0.963   1.365  -0.059  1.00  0.00     0.007 A 
ATOM     23  C   UNL     1       0.507  -0.533  -0.105  1.00  0.00     0.126 A 
ATOM     24  C   UNL     1      -2.064   0.500  -0.085  1.00  0.00     0.009 A 
ATOM     25  C   UNL     1      -0.582  -1.399  -0.129  1.00  0.00     0.048 A 
ATOM     26  F   UNL     1       1.744  -1.051  -0.122  1.00  0.00    -0.207 F 
ENDBRANCH   9  19
BRANCH  18  27
ATOM     27  C   UNL     1      -1.192  -4.771   2.474  1.00  0.00     0.429 C 
ATOM     28  F   UNL     1       0.024  -4.180   2.433  1.00  0.00    -0.167 F 
ATOM     29  F   UNL     1      -1.112  -5.862   3.259  1.00  0.00    -0.167 F 
ATOM     30  F   UNL     1      -1.456  -5.207   1.214  1.00  0.00    -0.167 F 
ENDBRANCH  18  27
ENDBRANCH   5   8
ENDBRANCH   3   4
ENDBRANCH   2   3
ENDBRANCH   1   2
BRANCH   1  31
ATOM     31  N   UNL     1      -1.461  -6.102   8.996  1.00  0.00    -0.352 N 
ATOM     32  C   UNL     1      -0.573  -6.058  10.047  1.00  0.00     0.251 C 
ATOM     33  H   UNL     1      -1.264  -6.794   8.323  1.00  0.00     0.163 HD
ATOM     34  O   UNL     1      -0.177  -7.117  10.540  1.00  0.00    -0.269 OA
BRANCH  32  35
ATOM     35  C   UNL     1       0.110  -4.790  10.414  1.00  0.00     0.039 A 
ATOM     36  C   UNL     1      -0.489  -3.527  10.425  1.00  0.00     0.014 A 
ATOM     37  C   UNL     1       1.505  -4.900  10.538  1.00  0.00     0.014 A 
ATOM     38  C   UNL     1       0.308  -2.381  10.371  1.00  0.00     0.010 A 
ATOM     39  C   UNL     1       2.296  -3.768  10.472  1.00  0.00     0.010 A 
ATOM     40  C   UNL     1       1.698  -2.517  10.320  1.00  0.00    -0.014 A 
BRANCH  40  41
ATOM     41  C   UNL     1       2.607  -1.386  10.218  1.00  0.00     0.031 A 
ATOM     42  C   UNL     1       2.834  -0.569  11.432  1.00  0.00     0.074 A 
ATOM     43  C   UNL     1       3.258  -1.103   9.065  1.00  0.00     0.049 A 
ATOM     44  N   UNL     1       3.183   0.671  11.410  1.00  0.00    -0.248 NA
ATOM     45  C   UNL     1       2.600  -1.065  12.787  1.00  0.00     0.031 C 
ATOM     46  C   UNL     1       4.417  -0.232   8.916  1.00  0.00     0.029 A 
ATOM     47  N   UNL     1       2.929  -1.446   7.749  1.00  0.00    -0.354 N 
ATOM     48  C   UNL     1       3.520   1.036  12.696  1.00  0.00     0.074 A 
ATOM     49  C   UNL     1       3.009  -0.026  13.528  1.00  0.00     0.031 C 
ATOM     50  C   UNL     1       4.571   0.084   7.621  1.00  0.00     0.029 A 
ATOM     51  C   UNL     1       3.430  -0.438   6.891  1.00  0.00     0.049 A 
ATOM     52  H   UNL     1       2.433  -2.249   7.469  1.00  0.00     0.167 HD
ATOM     53  C   UNL     1       4.327   2.122  12.875  1.00  0.00     0.037 A 
ATOM     54  C   UNL     1       2.621   0.321   6.078  1.00  0.00     0.037 A 
ATOM     55  C   UNL     1       4.665   2.715  11.584  1.00  0.00     0.049 A 
ATOM     56  C   UNL     1       2.544   1.777   6.449  1.00  0.00     0.074 A 
ATOM     57  C   UNL     1       5.733   2.562  10.716  1.00  0.00     0.029 A 
ATOM     58  N   UNL     1       3.686   3.374  10.878  1.00  0.00    -0.354 N 
ATOM     59  N   UNL     1       3.176   2.306   7.454  1.00  0.00    -0.248 NA
ATOM     60  C   UNL     1       1.662   2.734   5.781  1.00  0.00     0.031 C 
ATOM     61  C   UNL     1       5.376   3.157   9.477  1.00  0.00     0.029 A 
ATOM     62  C   UNL     1       4.102   3.683   9.601  1.00  0.00     0.049 A 
ATOM     63  H   UNL     1       2.798   3.597  11.240  1.00  0.00     0.167 HD
ATOM     64  C   UNL     1       2.744   3.589   7.643  1.00  0.00     0.074 A 
ATOM     65  C   UNL     1       1.799   3.817   6.565  1.00  0.00     0.031 C 
ATOM     66  C   UNL     1       3.168   4.338   8.701  1.00  0.00     0.037 A 
BRANCH  53  67
ATOM     67  C   UNL     1       5.030   2.550  14.146  1.00  0.00     0.058 A 
ATOM     68  C   UNL     1       6.185   3.366  14.059  1.00  0.00     0.135 A 
ATOM     69  C   UNL     1       4.654   2.210  15.460  1.00  0.00     0.135 A 
ATOM     70  F   UNL     1       6.632   3.839  12.888  1.00  0.00    -0.206 F 
ATOM     71  C   UNL     1       6.946   3.741  15.162  1.00  0.00     0.059 A 
ATOM     72  C   UNL     1       5.418   2.555  16.585  1.00  0.00     0.059 A 
ATOM     73  F   UNL     1       3.508   1.569  15.718  1.00  0.00    -0.206 F 
ATOM     74  C   UNL     1       6.570   3.314  16.423  1.00  0.00     0.060 A 
BRANCH  74  75
ATOM     75  S   UNL     1       7.599   3.794  17.820  1.00  0.00     0.124 S 
ATOM     76  O   UNL     1       8.888   3.207  17.464  1.00  0.00    -0.237 OA
ATOM     77  O   UNL     1       7.530   5.250  17.766  1.00  0.00    -0.237 OA
ATOM     78  O   UNL     1       6.932   3.178  18.963  1.00  0.00    -0.744 OA
ENDBRANCH  74  75
ENDBRANCH  53  67
BRANCH  54  79
ATOM     79  C   UNL     1       1.484  -0.412   5.434  1.00  0.00     0.058 A 
ATOM     80  C   UNL     1       1.873  -1.283   4.403  1.00  0.00     0.135 A 
ATOM     81  C   UNL     1       0.480  -0.829   6.311  1.00  0.00     0.135 A 
ATOM     82  F   UNL     1       2.714  -0.861   3.446  1.00  0.00    -0.206 F 
ATOM     83  C   UNL     1       1.636  -2.639   4.516  1.00  0.00     0.059 A 
ATOM     84  C   UNL     1       0.303  -2.189   6.499  1.00  0.00     0.059 A 
ATOM     85  F   UNL     1      -0.020   0.018   7.223  1.00  0.00    -0.206 F 
ATOM     86  C   UNL     1       0.989  -3.078   5.666  1.00  0.00     0.060 A 
BRANCH  86  87
ATOM     87  S   UNL     1       1.502  -4.692   6.293  1.00  0.00     0.124 S 
ATOM     88  O   UNL     1       1.048  -5.585   5.241  1.00  0.00    -0.237 OA
ATOM     89  O   UNL     1       2.940  -4.500   6.434  1.00  0.00    -0.237 OA
ATOM     90  O   UNL     1       0.762  -4.791   7.544  1.00  0.00    -0.744 OA
ENDBRANCH  86  87
ENDBRANCH  54  79
BRANCH  66  91
ATOM     91  C   UNL     1       2.724   5.749   8.973  1.00  0.00     0.058 A 
ATOM     92  C   UNL     1       2.605   6.705   7.953  1.00  0.00     0.135 A 
ATOM     93  C   UNL     1       2.511   6.225  10.288  1.00  0.00     0.135 A 
ATOM     94  F   UNL     1       2.879   6.390   6.677  1.00  0.00    -0.206 F 
ATOM     95  C   UNL     1       2.219   8.019   8.210  1.00  0.00     0.059 A 
ATOM     96  C   UNL     1       2.196   7.546  10.575  1.00  0.00     0.059 A 
ATOM     97  F   UNL     1       2.559   5.415  11.355  1.00  0.00    -0.206 F 
ATOM     98  C   UNL     1       2.013   8.429   9.525  1.00  0.00     0.060 A 
BRANCH  98  99
ATOM     99  S   UNL     1       1.501  10.121   9.855  1.00  0.00     0.124 S 
ATOM    100  O   UNL     1       2.358  10.889   8.956  1.00  0.00    -0.237 OA
ATOM    101  O   UNL     1       0.089  10.069   9.491  1.00  0.00    -0.237 OA
ATOM    102  O   UNL     1       1.778  10.292  11.277  1.00  0.00    -0.744 OA
ENDBRANCH  98  99
ENDBRANCH  66  91
ENDBRANCH  40  41
ENDBRANCH  32  35
ENDBRANCH   1  31
TORSDOF 15
