REMARK SMILES CCC[NH2+][C@]1(C(=O)NCCCNC(=O)c2ccc(-c3c4nc(c(-c5c(F)cc(S(=O)(=O)[O-])cc5F)c5ccc([nH]5)c(-c5c(F)cc(S(=O)(=O)[O-])cc5F)c5nc(c(-c6c(F)cc(S(=O)(=O)[O-])cc6F)c6ccc3[nH]6)C=C5)C=C4)cc2)CC[C@H]([N@@H+]2CCC[C@@H]3CCC[C@@H]32)C1
REMARK SMILES IDX 10 1 9 2 8 3 6 4 7 5 5 7 81 8 93 9 82 10 83 11 4 12 3 15
REMARK SMILES IDX 2 16 1 17 84 18 85 19 92 20 86 22 88 23 91 24 87 25 89 26
REMARK SMILES IDX 90 27 11 28 12 29 13 30 14 32 15 33 16 34 80 35 17 36 79 37
REMARK SMILES IDX 18 38 19 39 20 40 73 41 21 42 78 43 72 44 74 45 22 46 77 47
REMARK SMILES IDX 71 48 70 49 23 51 57 52 36 53 56 54 37 55 40 56 55 57 75 58
REMARK SMILES IDX 38 59 39 60 54 62 76 63 41 64 24 65 25 66 34 67 26 68 27 69
REMARK SMILES IDX 33 70 35 71 28 72 29 73 30 74 31 75 32 76 58 77 59 78 68 79
REMARK SMILES IDX 60 80 61 81 67 82 69 83 62 84 63 85 64 86 65 87 66 88 42 89
REMARK SMILES IDX 43 90 52 91 44 92 45 93 51 94 53 95 46 96 47 97 48 98 49 99
REMARK SMILES IDX 50 100
REMARK H PARENT 8 6 4 13 4 14 84 21 12 31 74 50 40 61
REMARK Flexibility Score: inf
ROOT
ATOM      1  C   UNL     1      -1.904  -4.495  -0.915  1.00  0.00     0.042 C 
ENDROOT
BRANCH   1   2
ATOM      2  C   UNL     1      -0.534  -3.846  -1.119  1.00  0.00     0.118 C 
BRANCH   2   3
ATOM      3  N   UNL     1      -0.209  -2.885  -0.079  1.00  0.00    -0.351 N 
ATOM      4  C   UNL     1       0.289  -2.991   1.180  1.00  0.00     0.281 C 
ATOM      5  O   UNL     1       0.515  -1.900   1.732  1.00  0.00    -0.268 OA
ATOM      6  H   UNL     1      -0.388  -1.954  -0.346  1.00  0.00     0.163 HD
BRANCH   4   7
ATOM      7  C   UNL     1       0.641  -4.326   1.944  1.00  0.00     0.181 C 
ATOM      8  C   UNL     1       0.005  -5.650   1.482  1.00  0.00     0.085 C 
ATOM      9  C   UNL     1       2.144  -4.613   1.760  1.00  0.00     0.144 C 
ATOM     10  C   UNL     1       1.053  -6.758   1.486  1.00  0.00     0.072 C 
ATOM     11  C   UNL     1       2.352  -6.128   1.951  1.00  0.00     0.191 C 
BRANCH   7  12
ATOM     12  N   UNL     1       0.495  -4.049   3.402  1.00  0.00    -0.333 N 
ATOM     13  H   UNL     1       0.930  -4.820   3.909  1.00  0.00     0.347 HD
ATOM     14  H   UNL     1       0.937  -3.141   3.547  1.00  0.00     0.347 HD
BRANCH  12  15
ATOM     15  C   UNL     1      -0.866  -3.898   3.910  1.00  0.00     0.261 C 
BRANCH  15  16
ATOM     16  C   UNL     1      -0.808  -3.633   5.422  1.00  0.00     0.058 C 
ATOM     17  C   UNL     1      -0.475  -2.191   5.774  1.00  0.00     0.010 C 
ENDBRANCH  15  16
ENDBRANCH  12  15
ENDBRANCH   7  12
BRANCH  11  18
ATOM     18  N   UNL     1       2.920  -6.620   3.214  1.00  0.00    -0.330 N 
ATOM     19  C   UNL     1       3.974  -7.604   2.974  1.00  0.00     0.262 C 
ATOM     20  C   UNL     1       2.170  -6.708   4.484  1.00  0.00     0.187 C 
ATOM     21  H   UNL     1       3.300  -5.744   3.573  1.00  0.00     0.348 HD
ATOM     22  C   UNL     1       4.856  -7.978   4.162  1.00  0.00     0.062 C 
ATOM     23  C   UNL     1       2.669  -7.834   5.427  1.00  0.00     0.048 C 
ATOM     24  C   UNL     1       0.667  -7.062   4.567  1.00  0.00     0.065 C 
ATOM     25  C   UNL     1       4.172  -7.950   5.513  1.00  0.00     0.015 C 
ATOM     26  C   UNL     1       1.938  -9.090   4.937  1.00  0.00     0.010 C 
ATOM     27  C   UNL     1       0.538  -8.585   4.621  1.00  0.00     0.007 C 
ENDBRANCH  11  18
ENDBRANCH   4   7
ENDBRANCH   2   3
ENDBRANCH   1   2
BRANCH   1  28
ATOM     28  C   UNL     1      -3.075  -3.623  -1.328  1.00  0.00     0.118 C 
BRANCH  28  29
ATOM     29  N   UNL     1      -3.273  -3.625  -2.767  1.00  0.00    -0.352 N 
ATOM     30  C   UNL     1      -4.199  -4.287  -3.538  1.00  0.00     0.251 C 
ATOM     31  H   UNL     1      -2.643  -3.061  -3.272  1.00  0.00     0.163 HD
ATOM     32  O   UNL     1      -4.015  -4.348  -4.753  1.00  0.00    -0.269 OA
BRANCH  30  33
ATOM     33  C   UNL     1      -5.394  -4.932  -2.940  1.00  0.00     0.039 A 
ATOM     34  C   UNL     1      -5.889  -6.105  -3.521  1.00  0.00     0.014 A 
ATOM     35  C   UNL     1      -6.078  -4.364  -1.862  1.00  0.00     0.014 A 
ATOM     36  C   UNL     1      -7.033  -6.720  -2.999  1.00  0.00     0.010 A 
ATOM     37  C   UNL     1      -7.153  -5.032  -1.278  1.00  0.00     0.010 A 
ATOM     38  C   UNL     1      -7.662  -6.202  -1.857  1.00  0.00    -0.014 A 
BRANCH  38  39
ATOM     39  C   UNL     1      -8.879  -6.835  -1.282  1.00  0.00     0.031 A 
ATOM     40  C   UNL     1     -10.176  -6.069  -1.231  1.00  0.00     0.074 A 
ATOM     41  C   UNL     1      -8.808  -8.074  -0.756  1.00  0.00     0.049 A 
ATOM     42  N   UNL     1     -11.327  -6.420  -0.716  1.00  0.00    -0.248 NA
ATOM     43  C   UNL     1     -10.170  -4.714  -1.807  1.00  0.00     0.031 C 
ATOM     44  C   UNL     1      -7.601  -8.901  -0.703  1.00  0.00     0.029 A 
ATOM     45  N   UNL     1      -9.769  -8.851  -0.161  1.00  0.00    -0.354 N 
ATOM     46  C   UNL     1     -12.169  -5.326  -0.884  1.00  0.00     0.074 A 
ATOM     47  C   UNL     1     -11.381  -4.279  -1.496  1.00  0.00     0.031 C 
ATOM     48  C   UNL     1      -7.902 -10.082  -0.138  1.00  0.00     0.029 A 
ATOM     49  C   UNL     1      -9.310 -10.081   0.247  1.00  0.00     0.049 A 
ATOM     50  H   UNL     1     -10.700  -8.556  -0.038  1.00  0.00     0.167 HD
ATOM     51  C   UNL     1     -13.485  -5.211  -0.582  1.00  0.00     0.037 A 
ATOM     52  C   UNL     1      -9.951 -11.095   0.862  1.00  0.00     0.037 A 
ATOM     53  C   UNL     1     -14.271  -6.269  -0.004  1.00  0.00     0.049 A 
ATOM     54  C   UNL     1     -11.413 -10.951   1.183  1.00  0.00     0.074 A 
ATOM     55  C   UNL     1     -15.626  -6.281   0.278  1.00  0.00     0.029 A 
ATOM     56  N   UNL     1     -13.772  -7.505   0.382  1.00  0.00    -0.354 N 
ATOM     57  N   UNL     1     -12.209  -9.932   0.959  1.00  0.00    -0.248 NA
ATOM     58  C   UNL     1     -12.066 -12.095   1.833  1.00  0.00     0.031 C 
ATOM     59  C   UNL     1     -15.937  -7.508   0.875  1.00  0.00     0.029 A 
ATOM     60  C   UNL     1     -14.786  -8.279   0.920  1.00  0.00     0.049 A 
ATOM     61  H   UNL     1     -12.834  -7.790   0.286  1.00  0.00     0.167 HD
ATOM     62  C   UNL     1     -13.462 -10.321   1.419  1.00  0.00     0.074 A 
ATOM     63  C   UNL     1     -13.320 -11.671   1.925  1.00  0.00     0.031 C 
ATOM     64  C   UNL     1     -14.626  -9.624   1.419  1.00  0.00     0.037 A 
BRANCH  51  65
ATOM     65  C   UNL     1     -14.149  -3.890  -0.869  1.00  0.00     0.058 A 
ATOM     66  C   UNL     1     -14.366  -3.440  -2.182  1.00  0.00     0.135 A 
ATOM     67  C   UNL     1     -14.572  -3.060   0.182  1.00  0.00     0.135 A 
ATOM     68  F   UNL     1     -13.971  -4.185  -3.226  1.00  0.00    -0.206 F 
ATOM     69  C   UNL     1     -14.931  -2.195  -2.442  1.00  0.00     0.059 A 
ATOM     70  C   UNL     1     -15.169  -1.824  -0.055  1.00  0.00     0.059 A 
ATOM     71  F   UNL     1     -14.395  -3.439   1.457  1.00  0.00    -0.206 F 
ATOM     72  C   UNL     1     -15.322  -1.391  -1.372  1.00  0.00     0.060 A 
BRANCH  72  73
ATOM     73  S   UNL     1     -16.026   0.235  -1.722  1.00  0.00     0.124 S 
ATOM     74  O   UNL     1     -14.835   0.986  -2.114  1.00  0.00    -0.237 OA
ATOM     75  O   UNL     1     -16.970  -0.058  -2.799  1.00  0.00    -0.237 OA
ATOM     76  O   UNL     1     -16.627   0.626  -0.455  1.00  0.00    -0.744 OA
ENDBRANCH  72  73
ENDBRANCH  51  65
BRANCH  52  77
ATOM     77  C   UNL     1      -9.215 -12.349   1.171  1.00  0.00     0.058 A 
ATOM     78  C   UNL     1      -9.453 -13.519   0.435  1.00  0.00     0.135 A 
ATOM     79  C   UNL     1      -8.228 -12.393   2.168  1.00  0.00     0.135 A 
ATOM     80  F   UNL     1     -10.392 -13.529  -0.523  1.00  0.00    -0.206 F 
ATOM     81  C   UNL     1      -8.741 -14.689   0.676  1.00  0.00     0.059 A 
ATOM     82  C   UNL     1      -7.486 -13.544   2.412  1.00  0.00     0.059 A 
ATOM     83  F   UNL     1      -7.952 -11.295   2.889  1.00  0.00    -0.206 F 
ATOM     84  C   UNL     1      -7.752 -14.690   1.662  1.00  0.00     0.060 A 
BRANCH  84  85
ATOM     85  S   UNL     1      -6.778 -16.190   1.909  1.00  0.00     0.124 S 
ATOM     86  O   UNL     1      -7.745 -17.064   2.564  1.00  0.00    -0.237 OA
ATOM     87  O   UNL     1      -6.417 -16.549   0.541  1.00  0.00    -0.237 OA
ATOM     88  O   UNL     1      -5.670 -15.737   2.743  1.00  0.00    -0.744 OA
ENDBRANCH  84  85
ENDBRANCH  52  77
BRANCH  64  89
ATOM     89  C   UNL     1     -15.847 -10.317   1.959  1.00  0.00     0.058 A 
ATOM     90  C   UNL     1     -16.022 -10.538   3.333  1.00  0.00     0.135 A 
ATOM     91  C   UNL     1     -16.877 -10.716   1.092  1.00  0.00     0.135 A 
ATOM     92  F   UNL     1     -15.064 -10.182   4.203  1.00  0.00    -0.206 F 
ATOM     93  C   UNL     1     -17.169 -11.151   3.829  1.00  0.00     0.059 A 
ATOM     94  C   UNL     1     -18.043 -11.306   1.568  1.00  0.00     0.059 A 
ATOM     95  F   UNL     1     -16.763 -10.517  -0.231  1.00  0.00    -0.206 F 
ATOM     96  C   UNL     1     -18.175 -11.530   2.938  1.00  0.00     0.060 A 
BRANCH  96  97
ATOM     97  S   UNL     1     -19.673 -12.292   3.597  1.00  0.00     0.124 S 
ATOM     98  O   UNL     1     -19.199 -13.631   3.930  1.00  0.00    -0.237 OA
ATOM     99  O   UNL     1     -19.989 -11.431   4.732  1.00  0.00    -0.237 OA
ATOM    100  O   UNL     1     -20.611 -12.217   2.481  1.00  0.00    -0.744 OA
ENDBRANCH  96  97
ENDBRANCH  64  89
ENDBRANCH  38  39
ENDBRANCH  30  33
ENDBRANCH  28  29
ENDBRANCH   1  28
TORSDOF 17
