REMARK SMILES Cc1ccc(NC(=O)C[C@@H]2C[NH2+]CCO2)c(C(=O)NCCCNC(=O)c2ccc(-c3c4nc(c(-c5c(F)cc(S(=O)(=O)[O-])cc5F)c5ccc([nH]5)c(-c5c(F)cc(S(=O)(=O)[O-])cc5F)c5nc(c(-c6c(F)cc(S(=O)(=O)[O-])cc6F)c6ccc3[nH]6)C=C5)C=C4)cc2)c1
REMARK SMILES IDX 21 1 20 2 19 3 17 4 18 5 16 7 1 8 2 9 3 10 92 11 4 12 5 13
REMARK SMILES IDX 6 14 7 15 8 17 9 18 10 19 11 20 15 21 12 22 14 23 13 24
REMARK SMILES IDX 22 27 23 28 24 29 25 31 26 32 27 33 91 34 28 35 90 36 29 37
REMARK SMILES IDX 30 38 31 39 84 40 32 41 89 42 83 43 85 44 33 45 88 46 82 47
REMARK SMILES IDX 81 48 34 50 68 51 47 52 67 53 48 54 51 55 66 56 86 57 49 58
REMARK SMILES IDX 50 59 65 61 87 62 52 63 35 64 36 65 45 66 37 67 38 68 44 69
REMARK SMILES IDX 46 70 39 71 40 72 41 73 42 74 43 75 69 76 70 77 79 78 71 79
REMARK SMILES IDX 72 80 78 81 80 82 73 83 74 84 75 85 76 86 77 87 53 88 54 89
REMARK SMILES IDX 63 90 55 91 56 92 62 93 64 94 57 95 58 96 59 97 60 98 61 99
REMARK H PARENT 19 6 6 16 12 25 12 26 23 30 85 49 51 60
REMARK Flexibility Score: inf
ROOT
ATOM      1  C   UNL     1       1.276   4.179  -0.464  1.00  0.00     0.042 C 
ENDROOT
BRANCH   1   2
ATOM      2  C   UNL     1       0.250   3.966   0.650  1.00  0.00     0.118 C 
BRANCH   2   3
ATOM      3  N   UNL     1      -1.044   3.535   0.131  1.00  0.00    -0.352 N 
ATOM      4  C   UNL     1      -1.620   2.291  -0.007  1.00  0.00     0.253 C 
ATOM      5  O   UNL     1      -2.811   2.259  -0.325  1.00  0.00    -0.269 OA
ATOM      6  H   UNL     1      -1.613   4.274  -0.181  1.00  0.00     0.163 HD
BRANCH   4   7
ATOM      7  C   UNL     1      -0.898   1.004   0.272  1.00  0.00     0.063 A 
ATOM      8  C   UNL     1       2.675  -0.335   0.140  1.00  0.00     0.044 C 
ATOM      9  C   UNL     1       1.205  -0.257   0.419  1.00  0.00    -0.050 A 
ATOM     10  C   UNL     1       0.511  -1.341   0.940  1.00  0.00     0.005 A 
ATOM     11  C   UNL     1       0.489   0.901   0.098  1.00  0.00     0.019 A 
ATOM     12  C   UNL     1      -0.880  -1.292   1.042  1.00  0.00     0.027 A 
ATOM     13  C   UNL     1      -1.607  -0.173   0.611  1.00  0.00     0.054 A 
BRANCH  13  14
ATOM     14  N   UNL     1      -3.013  -0.221   0.435  1.00  0.00    -0.325 N 
ATOM     15  C   UNL     1      -3.851  -1.227   0.038  1.00  0.00     0.227 C 
ATOM     16  H   UNL     1      -3.471   0.627   0.635  1.00  0.00     0.169 HD
ATOM     17  O   UNL     1      -5.061  -0.983  -0.063  1.00  0.00    -0.275 OA
BRANCH  15  18
ATOM     18  C   UNL     1      -3.372  -2.627  -0.293  1.00  0.00     0.138 C 
BRANCH  18  19
ATOM     19  C   UNL     1      -2.567  -2.793  -1.593  1.00  0.00     0.182 C 
ATOM     20  C   UNL     1      -1.730  -4.098  -1.497  1.00  0.00     0.293 C 
ATOM     21  O   UNL     1      -1.715  -1.671  -1.834  1.00  0.00    -0.366 OA
ATOM     22  N   UNL     1      -0.817  -4.310  -2.637  1.00  0.00    -0.342 N 
ATOM     23  C   UNL     1      -0.860  -1.849  -2.962  1.00  0.00     0.222 C 
ATOM     24  C   UNL     1       0.011  -3.097  -2.789  1.00  0.00     0.289 C 
ATOM     25  H   UNL     1      -1.356  -4.470  -3.488  1.00  0.00     0.346 HD
ATOM     26  H   UNL     1      -0.225  -5.124  -2.470  1.00  0.00     0.346 HD
ENDBRANCH  18  19
ENDBRANCH  15  18
ENDBRANCH  13  14
ENDBRANCH   4   7
ENDBRANCH   2   3
ENDBRANCH   1   2
BRANCH   1  27
ATOM     27  C   UNL     1       1.264   5.587  -1.037  1.00  0.00     0.118 C 
BRANCH  27  28
ATOM     28  N   UNL     1       2.599   6.173  -1.072  1.00  0.00    -0.352 N 
ATOM     29  C   UNL     1       3.009   7.302  -1.765  1.00  0.00     0.251 C 
ATOM     30  H   UNL     1       3.290   5.714  -0.541  1.00  0.00     0.163 HD
ATOM     31  O   UNL     1       4.170   7.605  -1.912  1.00  0.00    -0.269 OA
BRANCH  29  32
ATOM     32  C   UNL     1       1.921   8.202  -2.196  1.00  0.00     0.039 A 
ATOM     33  C   UNL     1       1.689   9.326  -1.394  1.00  0.00     0.014 A 
ATOM     34  C   UNL     1       0.979   7.745  -3.111  1.00  0.00     0.014 A 
ATOM     35  C   UNL     1       0.425   9.905  -1.387  1.00  0.00     0.010 A 
ATOM     36  C   UNL     1      -0.297   8.266  -3.036  1.00  0.00     0.010 A 
ATOM     37  C   UNL     1      -0.583   9.315  -2.145  1.00  0.00    -0.014 A 
BRANCH  37  38
ATOM     38  C   UNL     1      -1.986   9.698  -2.057  1.00  0.00     0.031 A 
ATOM     39  C   UNL     1      -2.590  10.475  -3.162  1.00  0.00     0.074 A 
ATOM     40  C   UNL     1      -2.747   9.242  -1.039  1.00  0.00     0.049 A 
ATOM     41  N   UNL     1      -3.728  11.077  -3.108  1.00  0.00    -0.248 NA
ATOM     42  C   UNL     1      -1.900  10.671  -4.432  1.00  0.00     0.031 C 
ATOM     43  C   UNL     1      -4.205   9.192  -0.985  1.00  0.00     0.029 A 
ATOM     44  N   UNL     1      -2.337   8.917   0.258  1.00  0.00    -0.354 N 
ATOM     45  C   UNL     1      -4.046  11.500  -4.381  1.00  0.00     0.074 A 
ATOM     46  C   UNL     1      -2.851  11.266  -5.157  1.00  0.00     0.031 C 
ATOM     47  C   UNL     1      -4.590   9.110   0.298  1.00  0.00     0.029 A 
ATOM     48  C   UNL     1      -3.400   9.275   1.114  1.00  0.00     0.049 A 
ATOM     49  H   UNL     1      -1.477   8.518   0.522  1.00  0.00     0.167 HD
ATOM     50  C   UNL     1      -5.327  11.880  -4.658  1.00  0.00     0.037 A 
ATOM     51  C   UNL     1      -3.248  10.245   2.064  1.00  0.00     0.037 A 
ATOM     52  C   UNL     1      -6.130  11.924  -3.436  1.00  0.00     0.049 A 
ATOM     53  C   UNL     1      -4.172  11.429   1.884  1.00  0.00     0.074 A 
ATOM     54  C   UNL     1      -6.989  11.012  -2.844  1.00  0.00     0.029 A 
ATOM     55  N   UNL     1      -5.854  12.887  -2.471  1.00  0.00    -0.354 N 
ATOM     56  N   UNL     1      -4.785  11.713   0.767  1.00  0.00    -0.248 NA
ATOM     57  C   UNL     1      -4.482  12.384   2.944  1.00  0.00     0.031 C 
ATOM     58  C   UNL     1      -7.162  11.387  -1.488  1.00  0.00     0.029 A 
ATOM     59  C   UNL     1      -6.434  12.544  -1.264  1.00  0.00     0.049 A 
ATOM     60  H   UNL     1      -5.321  13.700  -2.627  1.00  0.00     0.167 HD
ATOM     61  C   UNL     1      -5.537  12.848   0.928  1.00  0.00     0.074 A 
ATOM     62  C   UNL     1      -5.329  13.219   2.316  1.00  0.00     0.031 C 
ATOM     63  C   UNL     1      -6.269  13.390  -0.091  1.00  0.00     0.037 A 
BRANCH  50  64
ATOM     64  C   UNL     1      -5.910  11.903  -6.061  1.00  0.00     0.058 A 
ATOM     65  C   UNL     1      -7.269  11.588  -6.282  1.00  0.00     0.135 A 
ATOM     66  C   UNL     1      -5.172  12.146  -7.236  1.00  0.00     0.135 A 
ATOM     67  F   UNL     1      -8.129  11.436  -5.266  1.00  0.00    -0.206 F 
ATOM     68  C   UNL     1      -7.812  11.399  -7.556  1.00  0.00     0.059 A 
ATOM     69  C   UNL     1      -5.673  11.905  -8.520  1.00  0.00     0.059 A 
ATOM     70  F   UNL     1      -3.946  12.684  -7.190  1.00  0.00    -0.206 F 
ATOM     71  C   UNL     1      -6.995  11.518  -8.671  1.00  0.00     0.060 A 
BRANCH  71  72
ATOM     72  S   UNL     1      -7.684  11.175 -10.302  1.00  0.00     0.124 S 
ATOM     73  O   UNL     1      -8.250   9.841 -10.125  1.00  0.00    -0.237 OA
ATOM     74  O   UNL     1      -8.648  12.258 -10.459  1.00  0.00    -0.237 OA
ATOM     75  O   UNL     1      -6.521  11.240 -11.183  1.00  0.00    -0.744 OA
ENDBRANCH  71  72
ENDBRANCH  50  64
BRANCH  51  76
ATOM     76  C   UNL     1      -1.877  10.279   2.646  1.00  0.00     0.058 A 
ATOM     77  C   UNL     1      -1.473   9.166   3.410  1.00  0.00     0.135 A 
ATOM     78  C   UNL     1      -0.871  11.088   2.101  1.00  0.00     0.135 A 
ATOM     79  F   UNL     1      -2.397   8.369   3.974  1.00  0.00    -0.206 F 
ATOM     80  C   UNL     1      -0.143   8.766   3.475  1.00  0.00     0.059 A 
ATOM     81  C   UNL     1       0.474  10.711   2.165  1.00  0.00     0.059 A 
ATOM     82  F   UNL     1      -1.192  12.168   1.373  1.00  0.00    -0.206 F 
ATOM     83  C   UNL     1       0.813   9.507   2.786  1.00  0.00     0.060 A 
BRANCH  83  84
ATOM     84  S   UNL     1       2.449   8.765   2.562  1.00  0.00     0.124 S 
ATOM     85  O   UNL     1       2.899   8.597   3.939  1.00  0.00    -0.237 OA
ATOM     86  O   UNL     1       2.123   7.527   1.853  1.00  0.00    -0.237 OA
ATOM     87  O   UNL     1       3.168   9.763   1.780  1.00  0.00    -0.744 OA
ENDBRANCH  83  84
ENDBRANCH  51  76
BRANCH  63  88
ATOM     88  C   UNL     1      -6.971  14.726  -0.062  1.00  0.00     0.058 A 
ATOM     89  C   UNL     1      -6.501  15.842   0.650  1.00  0.00     0.135 A 
ATOM     90  C   UNL     1      -8.087  14.963  -0.902  1.00  0.00     0.135 A 
ATOM     91  F   UNL     1      -5.392  15.773   1.400  1.00  0.00    -0.206 F 
ATOM     92  C   UNL     1      -7.125  17.090   0.582  1.00  0.00     0.059 A 
ATOM     93  C   UNL     1      -8.691  16.212  -1.027  1.00  0.00     0.059 A 
ATOM     94  F   UNL     1      -8.624  13.983  -1.644  1.00  0.00    -0.206 F 
ATOM     95  C   UNL     1      -8.217  17.268  -0.263  1.00  0.00     0.060 A 
BRANCH  95  96
ATOM     96  S   UNL     1      -8.982  18.892  -0.423  1.00  0.00     0.124 S 
ATOM     97  O   UNL     1     -10.063  18.802   0.552  1.00  0.00    -0.237 OA
ATOM     98  O   UNL     1      -7.894  19.802  -0.074  1.00  0.00    -0.237 OA
ATOM     99  O   UNL     1      -9.391  18.927  -1.824  1.00  0.00    -0.744 OA
ENDBRANCH  95  96
ENDBRANCH  63  88
ENDBRANCH  37  38
ENDBRANCH  29  32
ENDBRANCH  27  28
ENDBRANCH   1  27
TORSDOF 16
