REMARK SMILES CCCc1cc(OC(F)(F)F)cc2c1O[C@@H](C(F)(F)F)C(C(=O)NCCCNC(=O)c1ccc(-c3c4nc(c(-c5c(F)cc(S(=O)(=O)[O-])cc5F)c5ccc([nH]5)c(-c5c(F)cc(S(=O)(=O)[O-])cc5F)c5nc(c(-c6c(F)cc(S(=O)(=O)[O-])cc6F)c6ccc3[nH]6)C=C5)C=C4)cc1)=C2
REMARK SMILES IDX 26 1 25 2 24 3 22 4 23 5 21 7 4 8 5 9 14 10 6 11 13 12 15 13
REMARK SMILES IDX 12 14 97 15 16 16 3 17 2 18 1 19 7 20 8 21 9 22 10 23 11 24
REMARK SMILES IDX 17 25 18 26 19 27 20 28 27 29 28 30 29 31 30 33 31 34 32 35
REMARK SMILES IDX 96 36 33 37 95 38 34 39 35 40 36 41 89 42 37 43 94 44 88 45
REMARK SMILES IDX 90 46 38 47 93 48 87 49 86 50 39 52 73 53 52 54 72 55 53 56
REMARK SMILES IDX 56 57 71 58 91 59 54 60 55 61 70 63 92 64 57 65 40 66 41 67
REMARK SMILES IDX 50 68 42 69 43 70 49 71 51 72 44 73 45 74 46 75 47 76 48 77
REMARK SMILES IDX 74 78 75 79 84 80 76 81 77 82 83 83 85 84 78 85 79 86 80 87
REMARK SMILES IDX 81 88 82 89 58 90 59 91 68 92 60 93 61 94 67 95 69 96 62 97
REMARK SMILES IDX 63 98 64 99 65 100 66 101
REMARK H PARENT 24 6 28 32 90 51 56 62
REMARK Flexibility Score: inf
ROOT
ATOM      1  C   UNL     1       0.525  -9.010   3.518  1.00  0.00     0.042 C 
ENDROOT
BRANCH   1   2
ATOM      2  C   UNL     1       1.764  -8.588   2.722  1.00  0.00     0.118 C 
BRANCH   2   3
ATOM      3  N   UNL     1       1.651  -8.993   1.328  1.00  0.00    -0.352 N 
ATOM      4  C   UNL     1       1.215  -8.353   0.212  1.00  0.00     0.251 C 
ATOM      5  O   UNL     1       1.145  -8.998  -0.831  1.00  0.00    -0.270 OA
ATOM      6  H   UNL     1       1.950  -9.915   1.161  1.00  0.00     0.163 HD
BRANCH   4   7
ATOM      7  C   UNL     1       0.885  -6.905   0.186  1.00  0.00     0.067 C 
ATOM      8  C   UNL     1       0.250  -2.744  -0.047  1.00  0.00    -0.002 A 
ATOM      9  C   UNL     1      -0.456  -2.122   0.999  1.00  0.00     0.054 A 
ATOM     10  C   UNL     1       0.463  -4.133   0.030  1.00  0.00     0.131 A 
ATOM     11  C   UNL     1      -0.883  -2.841   2.118  1.00  0.00     0.130 A 
ATOM     12  C   UNL     1      -0.004  -4.867   1.120  1.00  0.00     0.021 A 
ATOM     13  O   UNL     1       1.204  -4.718  -0.961  1.00  0.00    -0.475 OA
ATOM     14  C   UNL     1      -0.670  -4.218   2.162  1.00  0.00     0.058 A 
ATOM     15  C   UNL     1       0.278  -6.290   1.210  1.00  0.00     0.025 C 
ATOM     16  C   UNL     1       1.095  -6.164  -1.130  1.00  0.00     0.314 C 
BRANCH   8  17
ATOM     17  C   UNL     1       0.785  -1.980  -1.245  1.00  0.00     0.039 C 
BRANCH  17  18
ATOM     18  C   UNL     1       0.509  -0.473  -1.342  1.00  0.00     0.001 C 
ATOM     19  C   UNL     1       1.371   0.369  -0.409  1.00  0.00     0.004 C 
ENDBRANCH  17  18
ENDBRANCH   8  17
BRANCH  11  20
ATOM     20  O   UNL     1      -1.503  -2.329   3.221  1.00  0.00    -0.406 OA
BRANCH  20  21
ATOM     21  C   UNL     1      -1.521  -0.919   3.370  1.00  0.00     0.573 C 
ATOM     22  F   UNL     1      -0.279  -0.395   3.267  1.00  0.00    -0.132 F 
ATOM     23  F   UNL     1      -2.324  -0.349   2.446  1.00  0.00    -0.132 F 
ATOM     24  F   UNL     1      -2.001  -0.613   4.595  1.00  0.00    -0.132 F 
ENDBRANCH  20  21
ENDBRANCH  11  20
BRANCH  16  25
ATOM     25  C   UNL     1       2.298  -6.604  -1.996  1.00  0.00     0.429 C 
ATOM     26  F   UNL     1       2.026  -7.675  -2.774  1.00  0.00    -0.167 F 
ATOM     27  F   UNL     1       2.654  -5.615  -2.863  1.00  0.00    -0.167 F 
ATOM     28  F   UNL     1       3.396  -6.881  -1.256  1.00  0.00    -0.167 F 
ENDBRANCH  16  25
ENDBRANCH   4   7
ENDBRANCH   2   3
ENDBRANCH   1   2
BRANCH   1  29
ATOM     29  C   UNL     1       0.472 -10.506   3.815  1.00  0.00     0.118 C 
BRANCH  29  30
ATOM     30  N   UNL     1       1.473 -10.897   4.796  1.00  0.00    -0.352 N 
ATOM     31  C   UNL     1       1.317 -11.511   6.013  1.00  0.00     0.251 C 
ATOM     32  H   UNL     1       2.403 -10.689   4.548  1.00  0.00     0.163 HD
ATOM     33  O   UNL     1       2.264 -11.532   6.796  1.00  0.00    -0.269 OA
BRANCH  31  34
ATOM     34  C   UNL     1       0.029 -12.137   6.391  1.00  0.00     0.039 A 
ATOM     35  C   UNL     1      -0.413 -12.018   7.712  1.00  0.00     0.014 A 
ATOM     36  C   UNL     1      -0.711 -12.888   5.474  1.00  0.00     0.014 A 
ATOM     37  C   UNL     1      -1.615 -12.616   8.102  1.00  0.00     0.010 A 
ATOM     38  C   UNL     1      -1.941 -13.428   5.846  1.00  0.00     0.010 A 
ATOM     39  C   UNL     1      -2.400 -13.308   7.166  1.00  0.00    -0.014 A 
BRANCH  39  40
ATOM     40  C   UNL     1      -3.695 -13.926   7.554  1.00  0.00     0.031 A 
ATOM     41  C   UNL     1      -3.865 -15.421   7.502  1.00  0.00     0.074 A 
ATOM     42  C   UNL     1      -4.733 -13.138   7.897  1.00  0.00     0.049 A 
ATOM     43  N   UNL     1      -4.935 -16.140   7.724  1.00  0.00    -0.248 NA
ATOM     44  C   UNL     1      -2.681 -16.210   7.125  1.00  0.00     0.031 C 
ATOM     45  C   UNL     1      -4.703 -11.674   7.948  1.00  0.00     0.029 A 
ATOM     46  N   UNL     1      -6.018 -13.455   8.258  1.00  0.00    -0.354 N 
ATOM     47  C   UNL     1      -4.560 -17.460   7.500  1.00  0.00     0.074 A 
ATOM     48  C   UNL     1      -3.176 -17.438   7.077  1.00  0.00     0.031 C 
ATOM     49  C   UNL     1      -5.907 -11.222   8.335  1.00  0.00     0.029 A 
ATOM     50  C   UNL     1      -6.804 -12.358   8.524  1.00  0.00     0.049 A 
ATOM     51  H   UNL     1      -6.347 -14.380   8.319  1.00  0.00     0.167 HD
ATOM     52  C   UNL     1      -5.294 -18.588   7.655  1.00  0.00     0.037 A 
ATOM     53  C   UNL     1      -8.103 -12.276   8.873  1.00  0.00     0.037 A 
ATOM     54  C   UNL     1      -6.663 -18.603   8.102  1.00  0.00     0.049 A 
ATOM     55  C   UNL     1      -8.897 -13.543   9.039  1.00  0.00     0.074 A 
ATOM     56  C   UNL     1      -7.481 -19.695   8.337  1.00  0.00     0.029 A 
ATOM     57  N   UNL     1      -7.416 -17.472   8.385  1.00  0.00    -0.354 N 
ATOM     58  N   UNL     1      -8.512 -14.786   8.871  1.00  0.00    -0.248 NA
ATOM     59  C   UNL     1     -10.301 -13.398   9.449  1.00  0.00     0.031 C 
ATOM     60  C   UNL     1      -8.739 -19.223   8.727  1.00  0.00     0.029 A 
ATOM     61  C   UNL     1      -8.692 -17.839   8.779  1.00  0.00     0.049 A 
ATOM     62  H   UNL     1      -7.091 -16.546   8.316  1.00  0.00     0.167 HD
ATOM     63  C   UNL     1      -9.616 -15.571   9.183  1.00  0.00     0.074 A 
ATOM     64  C   UNL     1     -10.681 -14.664   9.558  1.00  0.00     0.031 C 
ATOM     65  C   UNL     1      -9.736 -16.922   9.162  1.00  0.00     0.037 A 
BRANCH  52  66
ATOM     66  C   UNL     1      -4.628 -19.901   7.344  1.00  0.00     0.058 A 
ATOM     67  C   UNL     1      -3.620 -20.428   8.168  1.00  0.00     0.135 A 
ATOM     68  C   UNL     1      -5.021 -20.658   6.229  1.00  0.00     0.135 A 
ATOM     69  F   UNL     1      -3.195 -19.740   9.240  1.00  0.00    -0.206 F 
ATOM     70  C   UNL     1      -3.003 -21.641   7.879  1.00  0.00     0.059 A 
ATOM     71  C   UNL     1      -4.437 -21.887   5.936  1.00  0.00     0.059 A 
ATOM     72  F   UNL     1      -5.981 -20.204   5.407  1.00  0.00    -0.206 F 
ATOM     73  C   UNL     1      -3.417 -22.363   6.759  1.00  0.00     0.060 A 
BRANCH  73  74
ATOM     74  S   UNL     1      -2.605 -23.934   6.397  1.00  0.00     0.124 S 
ATOM     75  O   UNL     1      -1.312 -23.483   5.891  1.00  0.00    -0.237 OA
ATOM     76  O   UNL     1      -2.581 -24.582   7.704  1.00  0.00    -0.237 OA
ATOM     77  O   UNL     1      -3.484 -24.552   5.410  1.00  0.00    -0.744 OA
ENDBRANCH  73  74
ENDBRANCH  52  66
BRANCH  53  78
ATOM     78  C   UNL     1      -8.726 -10.947   9.112  1.00  0.00     0.058 A 
ATOM     79  C   UNL     1      -9.077 -10.540  10.408  1.00  0.00     0.135 A 
ATOM     80  C   UNL     1      -8.972 -10.055   8.057  1.00  0.00     0.135 A 
ATOM     81  F   UNL     1      -8.865 -11.361  11.448  1.00  0.00    -0.206 F 
ATOM     82  C   UNL     1      -9.667  -9.304  10.649  1.00  0.00     0.059 A 
ATOM     83  C   UNL     1      -9.539  -8.803   8.276  1.00  0.00     0.059 A 
ATOM     84  F   UNL     1      -8.637 -10.389   6.801  1.00  0.00    -0.206 F 
ATOM     85  C   UNL     1      -9.893  -8.441   9.575  1.00  0.00     0.060 A 
BRANCH  85  86
ATOM     86  S   UNL     1     -10.618  -6.820   9.904  1.00  0.00     0.124 S 
ATOM     87  O   UNL     1     -12.009  -7.168  10.164  1.00  0.00    -0.237 OA
ATOM     88  O   UNL     1      -9.846  -6.366  11.057  1.00  0.00    -0.237 OA
ATOM     89  O   UNL     1     -10.370  -6.086   8.666  1.00  0.00    -0.744 OA
ENDBRANCH  85  86
ENDBRANCH  53  78
BRANCH  65  90
ATOM     90  C   UNL     1     -11.053 -17.504   9.595  1.00  0.00     0.058 A 
ATOM     91  C   UNL     1     -12.194 -17.434   8.782  1.00  0.00     0.135 A 
ATOM     92  C   UNL     1     -11.158 -18.185  10.818  1.00  0.00     0.135 A 
ATOM     93  F   UNL     1     -12.148 -16.788   7.606  1.00  0.00    -0.206 F 
ATOM     94  C   UNL     1     -13.402 -17.999   9.177  1.00  0.00     0.059 A 
ATOM     95  C   UNL     1     -12.349 -18.781  11.222  1.00  0.00     0.059 A 
ATOM     96  F   UNL     1     -10.092 -18.290  11.628  1.00  0.00    -0.206 F 
ATOM     97  C   UNL     1     -13.469 -18.672  10.399  1.00  0.00     0.060 A 
BRANCH  97  98
ATOM     98  S   UNL     1     -15.033 -19.432  10.885  1.00  0.00     0.124 S 
ATOM     99  O   UNL     1     -15.815 -18.266  11.282  1.00  0.00    -0.237 OA
ATOM    100  O   UNL     1     -15.457 -20.092   9.654  1.00  0.00    -0.237 OA
ATOM    101  O   UNL     1     -14.650 -20.331  11.970  1.00  0.00    -0.744 OA
ENDBRANCH  97  98
ENDBRANCH  65  90
ENDBRANCH  39  40
ENDBRANCH  31  34
ENDBRANCH  29  30
ENDBRANCH   1  29
TORSDOF 18
