REMARK SMILES O=C(NCCCNC(=O)c1cnc2c(ccn2C2CCCCC2)c1)c1ccc(-c2c3nc(c(-c4c(F)cc(S(=O)(=O)[O-])cc4F)c4ccc([nH]4)c(-c4c(F)cc(S(=O)(=O)[O-])cc4F)c4nc(c(-c5c(F)cc(S(=O)(=O)[O-])cc5F)c5ccc2[nH]5)C=C4)C=C3)cc1
REMARK SMILES IDX 4 1 3 2 1 3 2 4 25 6 26 7 90 8 27 9 89 10 28 11 29 12 30 13
REMARK SMILES IDX 83 14 31 15 88 16 82 17 84 18 32 19 87 20 81 21 80 22 33 24
REMARK SMILES IDX 67 25 46 26 66 27 47 28 50 29 65 30 85 31 48 32 49 33 64 35
REMARK SMILES IDX 86 36 51 37 34 38 35 39 44 40 36 41 37 42 43 43 45 44 38 45
REMARK SMILES IDX 39 46 40 47 41 48 42 49 68 50 69 51 78 52 70 53 71 54 77 55
REMARK SMILES IDX 79 56 72 57 73 58 74 59 75 60 76 61 52 62 53 63 62 64 54 65
REMARK SMILES IDX 55 66 61 67 63 68 56 69 57 70 58 71 59 72 60 73 5 74 6 75
REMARK SMILES IDX 7 76 8 77 9 79 10 80 11 81 24 82 12 83 14 84 13 85 15 86
REMARK SMILES IDX 17 87 16 88 18 89 19 90 23 91 20 92 22 93 21 94
REMARK H PARENT 3 5 84 23 50 34 7 78
REMARK Flexibility Score: inf
ROOT
ATOM      1  C   UNL     1       4.621  -0.740  -1.206  1.00  0.00     0.118 C 
ENDROOT
BRANCH   1   2
ATOM      2  N   UNL     1       3.231  -0.323  -1.264  1.00  0.00    -0.352 N 
ATOM      3  O   UNL     1       1.211   0.427  -0.711  1.00  0.00    -0.269 OA
ATOM      4  C   UNL     1       2.296  -0.002  -0.314  1.00  0.00     0.251 C 
ATOM      5  H   UNL     1       2.885  -0.257  -2.183  1.00  0.00     0.163 HD
BRANCH   4   6
ATOM      6  C   UNL     1       2.494  -0.221   1.140  1.00  0.00     0.039 A 
ATOM      7  C   UNL     1       3.730  -0.157   1.782  1.00  0.00     0.014 A 
ATOM      8  C   UNL     1       1.343  -0.499   1.897  1.00  0.00     0.014 A 
ATOM      9  C   UNL     1       3.833  -0.487   3.128  1.00  0.00     0.010 A 
ATOM     10  C   UNL     1       1.437  -0.793   3.255  1.00  0.00     0.010 A 
ATOM     11  C   UNL     1       2.691  -0.824   3.861  1.00  0.00    -0.014 A 
BRANCH  11  12
ATOM     12  C   UNL     1       2.862  -1.077   5.289  1.00  0.00     0.031 A 
ATOM     13  C   UNL     1       3.317   0.090   6.101  1.00  0.00     0.074 A 
ATOM     14  C   UNL     1       2.528  -2.230   5.898  1.00  0.00     0.049 A 
ATOM     15  N   UNL     1       4.399   0.220   6.801  1.00  0.00    -0.248 NA
ATOM     16  C   UNL     1       2.480   1.299   6.064  1.00  0.00     0.031 C 
ATOM     17  C   UNL     1       1.778  -3.361   5.348  1.00  0.00     0.029 A 
ATOM     18  N   UNL     1       2.717  -2.584   7.201  1.00  0.00    -0.354 N 
ATOM     19  C   UNL     1       4.302   1.459   7.435  1.00  0.00     0.074 A 
ATOM     20  C   UNL     1       3.162   2.125   6.857  1.00  0.00     0.031 C 
ATOM     21  C   UNL     1       1.400  -4.174   6.361  1.00  0.00     0.029 A 
ATOM     22  C   UNL     1       1.990  -3.695   7.601  1.00  0.00     0.049 A 
ATOM     23  H   UNL     1       3.320  -2.094   7.806  1.00  0.00     0.167 HD
ATOM     24  C   UNL     1       5.060   1.801   8.514  1.00  0.00     0.037 A 
ATOM     25  C   UNL     1       1.827  -4.136   8.873  1.00  0.00     0.037 A 
ATOM     26  C   UNL     1       6.205   0.948   8.668  1.00  0.00     0.049 A 
ATOM     27  C   UNL     1       2.930  -3.571   9.691  1.00  0.00     0.074 A 
ATOM     28  C   UNL     1       7.320   0.667   7.904  1.00  0.00     0.029 A 
ATOM     29  N   UNL     1       6.162  -0.029   9.631  1.00  0.00    -0.354 N 
ATOM     30  N   UNL     1       4.187  -3.896   9.566  1.00  0.00    -0.248 NA
ATOM     31  C   UNL     1       2.677  -2.341  10.426  1.00  0.00     0.031 C 
ATOM     32  C   UNL     1       7.600  -0.710   8.144  1.00  0.00     0.029 A 
ATOM     33  C   UNL     1       6.652  -1.174   9.058  1.00  0.00     0.049 A 
ATOM     34  H   UNL     1       5.840   0.073  10.556  1.00  0.00     0.167 HD
ATOM     35  C   UNL     1       4.888  -2.732   9.843  1.00  0.00     0.074 A 
ATOM     36  C   UNL     1       3.915  -1.845  10.471  1.00  0.00     0.031 C 
ATOM     37  C   UNL     1       6.119  -2.497   9.301  1.00  0.00     0.037 A 
BRANCH  24  38
ATOM     38  C   UNL     1       4.603   2.742   9.599  1.00  0.00     0.058 A 
ATOM     39  C   UNL     1       5.532   3.291  10.505  1.00  0.00     0.135 A 
ATOM     40  C   UNL     1       3.242   2.915   9.937  1.00  0.00     0.135 A 
ATOM     41  F   UNL     1       6.851   3.160  10.294  1.00  0.00    -0.206 F 
ATOM     42  C   UNL     1       5.137   3.929  11.683  1.00  0.00     0.059 A 
ATOM     43  C   UNL     1       2.826   3.593  11.077  1.00  0.00     0.059 A 
ATOM     44  F   UNL     1       2.261   2.349   9.221  1.00  0.00    -0.206 F 
ATOM     45  C   UNL     1       3.780   4.063  11.966  1.00  0.00     0.060 A 
BRANCH  45  46
ATOM     46  S   UNL     1       3.270   4.788  13.535  1.00  0.00     0.124 S 
ATOM     47  O   UNL     1       3.670   3.750  14.478  1.00  0.00    -0.237 OA
ATOM     48  O   UNL     1       4.051   6.020  13.571  1.00  0.00    -0.237 OA
ATOM     49  O   UNL     1       1.831   4.971  13.368  1.00  0.00    -0.744 OA
ENDBRANCH  45  46
ENDBRANCH  24  38
BRANCH  25  50
ATOM     50  C   UNL     1       0.607  -4.724   9.485  1.00  0.00     0.058 A 
ATOM     51  C   UNL     1       0.658  -5.351  10.742  1.00  0.00     0.135 A 
ATOM     52  C   UNL     1      -0.679  -4.428   8.988  1.00  0.00     0.135 A 
ATOM     53  F   UNL     1       1.841  -5.649  11.301  1.00  0.00    -0.206 F 
ATOM     54  C   UNL     1      -0.494  -5.617  11.489  1.00  0.00     0.059 A 
ATOM     55  C   UNL     1      -1.841  -4.696   9.707  1.00  0.00     0.059 A 
ATOM     56  F   UNL     1      -0.841  -3.778   7.827  1.00  0.00    -0.206 F 
ATOM     57  C   UNL     1      -1.740  -5.263  10.971  1.00  0.00     0.060 A 
BRANCH  57  58
ATOM     58  S   UNL     1      -3.211  -5.431  12.008  1.00  0.00     0.124 S 
ATOM     59  O   UNL     1      -3.331  -6.880  12.129  1.00  0.00    -0.237 OA
ATOM     60  O   UNL     1      -2.814  -4.720  13.218  1.00  0.00    -0.237 OA
ATOM     61  O   UNL     1      -4.256  -4.782  11.220  1.00  0.00    -0.744 OA
ENDBRANCH  57  58
ENDBRANCH  25  50
BRANCH  37  62
ATOM     62  C   UNL     1       6.851  -3.650   8.666  1.00  0.00     0.058 A 
ATOM     63  C   UNL     1       6.405  -4.332   7.521  1.00  0.00     0.135 A 
ATOM     64  C   UNL     1       8.132  -3.970   9.144  1.00  0.00     0.135 A 
ATOM     65  F   UNL     1       5.239  -4.014   6.939  1.00  0.00    -0.206 F 
ATOM     66  C   UNL     1       7.181  -5.312   6.900  1.00  0.00     0.059 A 
ATOM     67  C   UNL     1       8.937  -4.922   8.522  1.00  0.00     0.059 A 
ATOM     68  F   UNL     1       8.641  -3.311  10.198  1.00  0.00    -0.206 F 
ATOM     69  C   UNL     1       8.450  -5.596   7.404  1.00  0.00     0.060 A 
BRANCH  69  70
ATOM     70  S   UNL     1       9.493  -6.788   6.535  1.00  0.00     0.124 S 
ATOM     71  O   UNL     1       8.825  -8.054   6.829  1.00  0.00    -0.237 OA
ATOM     72  O   UNL     1       9.401  -6.335   5.147  1.00  0.00    -0.237 OA
ATOM     73  O   UNL     1      10.801  -6.615   7.151  1.00  0.00    -0.744 OA
ENDBRANCH  69  70
ENDBRANCH  37  62
ENDBRANCH  11  12
ENDBRANCH   4   6
ENDBRANCH   1   2
BRANCH   1  74
ATOM     74  C   UNL     1       4.869  -2.177  -0.749  1.00  0.00     0.042 C 
BRANCH  74  75
ATOM     75  C   UNL     1       4.297  -3.252  -1.672  1.00  0.00     0.118 C 
BRANCH  75  76
ATOM     76  N   UNL     1       4.760  -3.113  -3.048  1.00  0.00    -0.352 N 
ATOM     77  C   UNL     1       5.640  -3.855  -3.792  1.00  0.00     0.252 C 
ATOM     78  H   UNL     1       4.368  -2.349  -3.530  1.00  0.00     0.163 HD
ATOM     79  O   UNL     1       6.040  -3.407  -4.862  1.00  0.00    -0.269 OA
BRANCH  77  80
ATOM     80  C   UNL     1       6.108  -5.180  -3.351  1.00  0.00     0.058 A 
ATOM     81  C   UNL     1       5.225  -6.138  -2.874  1.00  0.00     0.127 A 
ATOM     82  C   UNL     1       7.447  -5.533  -3.545  1.00  0.00     0.027 A 
ATOM     83  N   UNL     1       5.552  -7.396  -2.498  1.00  0.00    -0.238 NA
ATOM     84  C   UNL     1       7.838  -6.833  -3.182  1.00  0.00     0.020 A 
ATOM     85  C   UNL     1       6.861  -7.681  -2.662  1.00  0.00     0.140 A 
ATOM     86  C   UNL     1       9.052  -7.566  -3.212  1.00  0.00     0.030 A 
ATOM     87  N   UNL     1       7.468  -8.873  -2.339  1.00  0.00    -0.329 N 
ATOM     88  C   UNL     1       8.798  -8.818  -2.692  1.00  0.00     0.088 A 
BRANCH  87  89
ATOM     89  C   UNL     1       6.830 -10.020  -1.694  1.00  0.00     0.088 C 
ATOM     90  C   UNL     1       6.386  -9.700  -0.258  1.00  0.00     0.025 C 
ATOM     91  C   UNL     1       5.690 -10.613  -2.538  1.00  0.00     0.025 C 
ATOM     92  C   UNL     1       5.722 -10.903   0.407  1.00  0.00     0.002 C 
ATOM     93  C   UNL     1       5.033 -11.803  -1.844  1.00  0.00     0.002 C 
ATOM     94  C   UNL     1       4.571 -11.445  -0.435  1.00  0.00     0.000 C 
ENDBRANCH  87  89
ENDBRANCH  77  80
ENDBRANCH  75  76
ENDBRANCH  74  75
ENDBRANCH   1  74
TORSDOF 14
