REMARK SMILES CC(C)(C[C@@H](O)C(F)(F)F)C(=O)NCCCNC(=O)c1ccc(-c2c3nc(c(-c4c(F)cc(S(=O)(=O)[O-])cc4F)c4ccc([nH]4)c(-c4c(F)cc(S(=O)(=O)[O-])cc4F)c4nc(c(-c5c(F)cc(S(=O)(=O)[O-])cc5F)c5ccc2[nH]5)C=C4)C=C3)cc1
REMARK SMILES IDX 15 1 14 2 13 3 11 4 12 5 2 7 1 8 3 9 4 10 5 11 6 12 7 14
REMARK SMILES IDX 8 15 9 16 10 17 16 18 17 19 18 20 19 22 20 23 21 24 85 25
REMARK SMILES IDX 22 26 84 27 23 28 24 29 25 30 78 31 26 32 83 33 77 34 79 35
REMARK SMILES IDX 27 36 82 37 76 38 75 39 28 41 62 42 41 43 61 44 42 45 45 46
REMARK SMILES IDX 60 47 80 48 43 49 44 50 59 52 81 53 46 54 29 55 30 56 39 57
REMARK SMILES IDX 31 58 32 59 38 60 40 61 33 62 34 63 35 64 36 65 37 66 63 67
REMARK SMILES IDX 64 68 73 69 65 70 66 71 72 72 74 73 67 74 68 75 69 76 70 77
REMARK SMILES IDX 71 78 47 79 48 80 57 81 49 82 50 83 56 84 58 85 51 86 52 87
REMARK SMILES IDX 53 88 54 89 55 90
REMARK H PARENT 13 6 6 13 17 21 79 40 45 51
REMARK Flexibility Score: inf
ROOT
ATOM      1  C   UNL     1      -1.352  -0.312  -4.936  1.00  0.00     0.042 C 
ENDROOT
BRANCH   1   2
ATOM      2  C   UNL     1      -0.096  -0.933  -4.333  1.00  0.00     0.117 C 
BRANCH   2   3
ATOM      3  N   UNL     1       0.778   0.048  -3.712  1.00  0.00    -0.356 N 
ATOM      4  C   UNL     1       1.044   0.365  -2.420  1.00  0.00     0.225 C 
ATOM      5  O   UNL     1       1.748   1.367  -2.240  1.00  0.00    -0.275 OA
ATOM      6  H   UNL     1       1.279   0.593  -4.361  1.00  0.00     0.163 HD
BRANCH   4   7
ATOM      7  C   UNL     1       0.479  -0.413  -1.215  1.00  0.00     0.046 C 
ATOM      8  C   UNL     1       1.082   0.180   0.084  1.00  0.00     0.021 C 
ATOM      9  C   UNL     1       0.957  -1.879  -1.256  1.00  0.00     0.021 C 
BRANCH   7  10
ATOM     10  C   UNL     1      -1.068  -0.330  -1.135  1.00  0.00     0.057 C 
BRANCH  10  11
ATOM     11  C   UNL     1      -1.675   1.079  -0.947  1.00  0.00     0.220 C 
BRANCH  11  12
ATOM     12  O   UNL     1      -1.235   1.959  -1.992  1.00  0.00    -0.384 OA
ATOM     13  H   UNL     1      -1.529   1.615  -2.849  1.00  0.00     0.211 HD
ENDBRANCH  11  12
BRANCH  11  14
ATOM     14  C   UNL     1      -3.215   0.990  -0.901  1.00  0.00     0.414 C 
ATOM     15  F   UNL     1      -3.609   0.183   0.114  1.00  0.00    -0.168 F 
ATOM     16  F   UNL     1      -3.771   2.202  -0.686  1.00  0.00    -0.168 F 
ATOM     17  F   UNL     1      -3.725   0.485  -2.045  1.00  0.00    -0.168 F 
ENDBRANCH  11  14
ENDBRANCH  10  11
ENDBRANCH   7  10
ENDBRANCH   4   7
ENDBRANCH   2   3
ENDBRANCH   1   2
BRANCH   1  18
ATOM     18  C   UNL     1      -1.094   0.649  -6.092  1.00  0.00     0.118 C 
BRANCH  18  19
ATOM     19  N   UNL     1      -0.447   0.001  -7.226  1.00  0.00    -0.352 N 
ATOM     20  C   UNL     1      -0.903  -0.245  -8.497  1.00  0.00     0.251 C 
ATOM     21  H   UNL     1       0.470  -0.311  -7.052  1.00  0.00     0.163 HD
ATOM     22  O   UNL     1      -0.254  -0.995  -9.227  1.00  0.00    -0.269 OA
BRANCH  20  23
ATOM     23  C   UNL     1      -2.160   0.358  -8.993  1.00  0.00     0.039 A 
ATOM     24  C   UNL     1      -3.006  -0.412  -9.797  1.00  0.00     0.014 A 
ATOM     25  C   UNL     1      -2.492   1.686  -8.713  1.00  0.00     0.014 A 
ATOM     26  C   UNL     1      -4.213   0.124 -10.258  1.00  0.00     0.010 A 
ATOM     27  C   UNL     1      -3.729   2.194  -9.107  1.00  0.00     0.010 A 
ATOM     28  C   UNL     1      -4.604   1.420  -9.884  1.00  0.00    -0.014 A 
BRANCH  28  29
ATOM     29  C   UNL     1      -5.925   1.975 -10.281  1.00  0.00     0.031 A 
ATOM     30  C   UNL     1      -6.004   3.201 -11.153  1.00  0.00     0.074 A 
ATOM     31  C   UNL     1      -7.052   1.424  -9.787  1.00  0.00     0.049 A 
ATOM     32  N   UNL     1      -7.058   3.881 -11.526  1.00  0.00    -0.248 NA
ATOM     33  C   UNL     1      -4.732   3.753 -11.649  1.00  0.00     0.031 C 
ATOM     34  C   UNL     1      -7.105   0.274  -8.881  1.00  0.00     0.029 A 
ATOM     35  N   UNL     1      -8.371   1.768  -9.957  1.00  0.00    -0.354 N 
ATOM     36  C   UNL     1      -6.578   4.952 -12.271  1.00  0.00     0.074 A 
ATOM     37  C   UNL     1      -5.135   4.852 -12.273  1.00  0.00     0.031 C 
ATOM     38  C   UNL     1      -8.386   0.006  -8.579  1.00  0.00     0.029 A 
ATOM     39  C   UNL     1      -9.244   0.985  -9.238  1.00  0.00     0.049 A 
ATOM     40  H   UNL     1      -8.664   2.507 -10.539  1.00  0.00     0.167 HD
ATOM     41  C   UNL     1      -7.278   5.921 -12.908  1.00  0.00     0.037 A 
ATOM     42  C   UNL     1     -10.584   1.057  -9.107  1.00  0.00     0.037 A 
ATOM     43  C   UNL     1      -8.716   5.987 -12.943  1.00  0.00     0.049 A 
ATOM     44  C   UNL     1     -11.338   2.123  -9.856  1.00  0.00     0.074 A 
ATOM     45  C   UNL     1      -9.517   6.870 -13.647  1.00  0.00     0.029 A 
ATOM     46  N   UNL     1      -9.567   5.143 -12.247  1.00  0.00    -0.354 N 
ATOM     47  N   UNL     1     -10.870   3.070 -10.634  1.00  0.00    -0.248 NA
ATOM     48  C   UNL     1     -12.801   2.127  -9.719  1.00  0.00     0.031 C 
ATOM     49  C   UNL     1     -10.851   6.591 -13.339  1.00  0.00     0.029 A 
ATOM     50  C   UNL     1     -10.884   5.502 -12.483  1.00  0.00     0.049 A 
ATOM     51  H   UNL     1      -9.279   4.399 -11.670  1.00  0.00     0.167 HD
ATOM     52  C   UNL     1     -11.982   3.766 -11.096  1.00  0.00     0.074 A 
ATOM     53  C   UNL     1     -13.146   3.121 -10.525  1.00  0.00     0.031 C 
ATOM     54  C   UNL     1     -12.034   4.843 -11.917  1.00  0.00     0.037 A 
BRANCH  41  55
ATOM     55  C   UNL     1      -6.511   6.993 -13.633  1.00  0.00     0.058 A 
ATOM     56  C   UNL     1      -5.843   6.735 -14.839  1.00  0.00     0.135 A 
ATOM     57  C   UNL     1      -6.522   8.315 -13.160  1.00  0.00     0.135 A 
ATOM     58  F   UNL     1      -5.789   5.486 -15.330  1.00  0.00    -0.206 F 
ATOM     59  C   UNL     1      -5.204   7.748 -15.547  1.00  0.00     0.059 A 
ATOM     60  C   UNL     1      -5.911   9.349 -13.864  1.00  0.00     0.059 A 
ATOM     61  F   UNL     1      -7.145   8.616 -12.009  1.00  0.00    -0.206 F 
ATOM     62  C   UNL     1      -5.250   9.054 -15.055  1.00  0.00     0.060 A 
BRANCH  62  63
ATOM     63  S   UNL     1      -4.457  10.364 -16.012  1.00  0.00     0.124 S 
ATOM     64  O   UNL     1      -3.044  10.079 -15.782  1.00  0.00    -0.237 OA
ATOM     65  O   UNL     1      -4.944  10.102 -17.362  1.00  0.00    -0.237 OA
ATOM     66  O   UNL     1      -4.958  11.588 -15.395  1.00  0.00    -0.744 OA
ENDBRANCH  62  63
ENDBRANCH  41  55
BRANCH  42  67
ATOM     67  C   UNL     1     -11.303   0.095  -8.229  1.00  0.00     0.058 A 
ATOM     68  C   UNL     1     -12.149  -0.887  -8.766  1.00  0.00     0.135 A 
ATOM     69  C   UNL     1     -11.170   0.149  -6.832  1.00  0.00     0.135 A 
ATOM     70  F   UNL     1     -12.312  -0.976 -10.095  1.00  0.00    -0.206 F 
ATOM     71  C   UNL     1     -12.862  -1.760  -7.951  1.00  0.00     0.059 A 
ATOM     72  C   UNL     1     -11.851  -0.732  -5.998  1.00  0.00     0.059 A 
ATOM     73  F   UNL     1     -10.358   1.056  -6.268  1.00  0.00    -0.206 F 
ATOM     74  C   UNL     1     -12.709  -1.672  -6.566  1.00  0.00     0.060 A 
BRANCH  74  75
ATOM     75  S   UNL     1     -13.624  -2.822  -5.516  1.00  0.00     0.124 S 
ATOM     76  O   UNL     1     -14.972  -2.268  -5.581  1.00  0.00    -0.237 OA
ATOM     77  O   UNL     1     -13.422  -4.094  -6.203  1.00  0.00    -0.237 OA
ATOM     78  O   UNL     1     -12.953  -2.702  -4.225  1.00  0.00    -0.744 OA
ENDBRANCH  74  75
ENDBRANCH  42  67
BRANCH  54  79
ATOM     79  C   UNL     1     -13.393   5.375 -12.279  1.00  0.00     0.058 A 
ATOM     80  C   UNL     1     -14.176   6.084 -11.356  1.00  0.00     0.135 A 
ATOM     81  C   UNL     1     -13.892   5.218 -13.582  1.00  0.00     0.135 A 
ATOM     82  F   UNL     1     -13.747   6.256 -10.096  1.00  0.00    -0.206 F 
ATOM     83  C   UNL     1     -15.419   6.602 -11.707  1.00  0.00     0.059 A 
ATOM     84  C   UNL     1     -15.120   5.751 -13.962  1.00  0.00     0.059 A 
ATOM     85  F   UNL     1     -13.177   4.556 -14.506  1.00  0.00    -0.206 F 
ATOM     86  C   UNL     1     -15.882   6.431 -13.013  1.00  0.00     0.060 A 
BRANCH  86  87
ATOM     87  S   UNL     1     -17.480   7.137 -13.465  1.00  0.00     0.124 S 
ATOM     88  O   UNL     1     -18.404   6.211 -12.819  1.00  0.00    -0.237 OA
ATOM     89  O   UNL     1     -17.410   8.473 -12.882  1.00  0.00    -0.237 OA
ATOM     90  O   UNL     1     -17.469   7.096 -14.925  1.00  0.00    -0.744 OA
ENDBRANCH  86  87
ENDBRANCH  54  79
ENDBRANCH  28  29
ENDBRANCH  20  23
ENDBRANCH  18  19
ENDBRANCH   1  18
TORSDOF 17
