REMARK SMILES CCCN1CCC[C@@]2(CCN(c3ccc(C(=O)NCCCNC(=O)c4ccc(-c5c6nc(c(-c7c(F)cc(S(=O)(=O)[O-])cc7F)c7ccc([nH]7)c(-c7c(F)cc(S(=O)(=O)[O-])cc7F)c7nc(c(-c8c(F)cc(S(=O)(=O)[O-])cc8F)c8ccc5[nH]8)C=C7)C=C6)cc4)cn3)C2)C1=O
REMARK SMILES IDX 20 1 19 2 18 3 16 4 17 5 15 7 12 8 13 9 92 10 14 11 91 12
REMARK SMILES IDX 11 13 4 14 5 15 94 16 6 17 8 18 95 19 7 20 9 21 93 22 10 23
REMARK SMILES IDX 3 24 2 25 1 26 21 27 22 28 23 29 24 31 25 32 26 33 90 34
REMARK SMILES IDX 27 35 89 36 28 37 29 38 30 39 83 40 31 41 88 42 82 43 84 44
REMARK SMILES IDX 32 45 87 46 81 47 80 48 33 50 67 51 46 52 66 53 47 54 50 55
REMARK SMILES IDX 65 56 85 57 48 58 49 59 64 61 86 62 51 63 34 64 35 65 44 66
REMARK SMILES IDX 36 67 37 68 43 69 45 70 38 71 39 72 40 73 41 74 42 75 68 76
REMARK SMILES IDX 69 77 78 78 70 79 71 80 77 81 79 82 72 83 73 84 74 85 75 86
REMARK SMILES IDX 76 87 52 88 53 89 62 90 54 91 55 92 61 93 63 94 56 95 57 96
REMARK SMILES IDX 58 97 59 98 60 99
REMARK H PARENT 18 6 22 30 84 49 50 60
REMARK Flexibility Score: inf
ROOT
ATOM      1  C   UNL     1       5.378  11.906   2.200  1.00  0.00     0.042 C 
ENDROOT
BRANCH   1   2
ATOM      2  C   UNL     1       5.284  10.783   3.235  1.00  0.00     0.118 C 
BRANCH   2   3
ATOM      3  N   UNL     1       4.190  11.000   4.167  1.00  0.00    -0.352 N 
ATOM      4  C   UNL     1       2.902  10.524   4.219  1.00  0.00     0.252 C 
ATOM      5  O   UNL     1       2.232  10.820   5.208  1.00  0.00    -0.269 OA
ATOM      6  H   UNL     1       4.416  11.608   4.907  1.00  0.00     0.163 HD
BRANCH   4   7
ATOM      7  C   UNL     1       2.298   9.656   3.178  1.00  0.00     0.058 A 
ATOM      8  C   UNL     1       0.998   7.927   1.421  1.00  0.00     0.128 A 
ATOM      9  C   UNL     1       2.129   8.624   1.015  1.00  0.00     0.048 A 
ATOM     10  N   UNL     1       0.483   8.105   2.652  1.00  0.00    -0.239 NA
ATOM     11  C   UNL     1       2.754   9.519   1.877  1.00  0.00     0.019 A 
ATOM     12  C   UNL     1       1.147   8.941   3.501  1.00  0.00     0.127 A 
BRANCH   8  13
ATOM     13  N   UNL     1       0.399   7.079   0.534  1.00  0.00    -0.356 N 
ATOM     14  N   UNL     1       0.731   2.924  -0.190  1.00  0.00    -0.342 N 
ATOM     15  C   UNL     1       1.339   2.626  -1.478  1.00  0.00     0.119 C 
ATOM     16  C   UNL     1      -0.244   3.912  -0.086  1.00  0.00     0.230 C 
ATOM     17  C   UNL     1       1.753   3.881  -2.225  1.00  0.00     0.023 C 
ATOM     18  C   UNL     1       0.069   5.191  -0.875  1.00  0.00     0.069 C 
ATOM     19  O   UNL     1      -1.188   3.823   0.695  1.00  0.00    -0.274 OA
ATOM     20  C   UNL     1       0.581   4.859  -2.284  1.00  0.00     0.021 C 
ATOM     21  C   UNL     1      -1.136   6.153  -0.905  1.00  0.00     0.040 C 
ATOM     22  C   UNL     1       1.132   5.980  -0.069  1.00  0.00     0.135 C 
ATOM     23  C   UNL     1      -1.031   6.922   0.417  1.00  0.00     0.119 C 
BRANCH  14  24
ATOM     24  C   UNL     1       0.983   2.057   0.955  1.00  0.00     0.119 C 
BRANCH  24  25
ATOM     25  C   UNL     1       0.278   0.704   0.951  1.00  0.00     0.018 C 
ATOM     26  C   UNL     1       0.862  -0.288  -0.040  1.00  0.00     0.006 C 
ENDBRANCH  24  25
ENDBRANCH  14  24
ENDBRANCH   8  13
ENDBRANCH   4   7
ENDBRANCH   2   3
ENDBRANCH   1   2
BRANCH   1  27
ATOM     27  C   UNL     1       5.997  13.188   2.753  1.00  0.00     0.118 C 
BRANCH  27  28
ATOM     28  N   UNL     1       7.406  13.011   3.076  1.00  0.00    -0.352 N 
ATOM     29  C   UNL     1       8.520  13.615   2.548  1.00  0.00     0.251 C 
ATOM     30  H   UNL     1       7.589  12.353   3.785  1.00  0.00     0.163 HD
ATOM     31  O   UNL     1       9.626  13.135   2.776  1.00  0.00    -0.269 OA
BRANCH  29  32
ATOM     32  C   UNL     1       8.398  14.829   1.711  1.00  0.00     0.039 A 
ATOM     33  C   UNL     1       9.225  14.962   0.591  1.00  0.00     0.014 A 
ATOM     34  C   UNL     1       7.513  15.855   2.052  1.00  0.00     0.014 A 
ATOM     35  C   UNL     1       9.122  16.096  -0.219  1.00  0.00     0.010 A 
ATOM     36  C   UNL     1       7.365  16.953   1.208  1.00  0.00     0.010 A 
ATOM     37  C   UNL     1       8.167  17.084   0.065  1.00  0.00    -0.014 A 
BRANCH  37  38
ATOM     38  C   UNL     1       7.967  18.249  -0.834  1.00  0.00     0.031 A 
ATOM     39  C   UNL     1       8.236  19.644  -0.343  1.00  0.00     0.074 A 
ATOM     40  C   UNL     1       7.446  18.052  -2.060  1.00  0.00     0.049 A 
ATOM     41  N   UNL     1       8.017  20.786  -0.940  1.00  0.00    -0.248 NA
ATOM     42  C   UNL     1       8.797  19.770   1.011  1.00  0.00     0.031 C 
ATOM     43  C   UNL     1       7.092  16.749  -2.625  1.00  0.00     0.029 A 
ATOM     44  N   UNL     1       7.096  18.946  -3.040  1.00  0.00    -0.354 N 
ATOM     45  C   UNL     1       8.390  21.768  -0.030  1.00  0.00     0.074 A 
ATOM     46  C   UNL     1       8.810  21.085   1.176  1.00  0.00     0.031 C 
ATOM     47  C   UNL     1       6.573  16.928  -3.849  1.00  0.00     0.029 A 
ATOM     48  C   UNL     1       6.519  18.357  -4.140  1.00  0.00     0.049 A 
ATOM     49  H   UNL     1       7.243  19.917  -2.963  1.00  0.00     0.167 HD
ATOM     50  C   UNL     1       8.394  23.114  -0.190  1.00  0.00     0.037 A 
ATOM     51  C   UNL     1       5.983  18.904  -5.248  1.00  0.00     0.037 A 
ATOM     52  C   UNL     1       7.989  23.780  -1.402  1.00  0.00     0.049 A 
ATOM     53  C   UNL     1       5.995  20.397  -5.410  1.00  0.00     0.074 A 
ATOM     54  C   UNL     1       8.048  25.129  -1.703  1.00  0.00     0.029 A 
ATOM     55  N   UNL     1       7.432  23.148  -2.505  1.00  0.00    -0.354 N 
ATOM     56  N   UNL     1       6.442  21.308  -4.579  1.00  0.00    -0.248 NA
ATOM     57  C   UNL     1       5.433  20.937  -6.654  1.00  0.00     0.031 C 
ATOM     58  C   UNL     1       7.476  25.319  -2.967  1.00  0.00     0.029 A 
ATOM     59  C   UNL     1       7.104  24.083  -3.473  1.00  0.00     0.049 A 
ATOM     60  H   UNL     1       7.291  22.177  -2.587  1.00  0.00     0.167 HD
ATOM     61  C   UNL     1       6.216  22.532  -5.198  1.00  0.00     0.074 A 
ATOM     62  C   UNL     1       5.614  22.241  -6.484  1.00  0.00     0.031 C 
ATOM     63  C   UNL     1       6.482  23.781  -4.741  1.00  0.00     0.037 A 
BRANCH  50  64
ATOM     64  C   UNL     1       8.833  23.948   0.983  1.00  0.00     0.058 A 
ATOM     65  C   UNL     1      10.165  23.957   1.430  1.00  0.00     0.135 A 
ATOM     66  C   UNL     1       7.907  24.745   1.676  1.00  0.00     0.135 A 
ATOM     67  F   UNL     1      11.091  23.208   0.811  1.00  0.00    -0.206 F 
ATOM     68  C   UNL     1      10.551  24.680   2.554  1.00  0.00     0.059 A 
ATOM     69  C   UNL     1       8.278  25.500   2.785  1.00  0.00     0.059 A 
ATOM     70  F   UNL     1       6.622  24.781   1.289  1.00  0.00    -0.206 F 
ATOM     71  C   UNL     1       9.597  25.441   3.232  1.00  0.00     0.060 A 
BRANCH  71  72
ATOM     72  S   UNL     1      10.102  26.337   4.716  1.00  0.00     0.124 S 
ATOM     73  O   UNL     1      10.216  25.251   5.684  1.00  0.00    -0.237 OA
ATOM     74  O   UNL     1      11.360  26.949   4.300  1.00  0.00    -0.237 OA
ATOM     75  O   UNL     1       9.001  27.267   4.942  1.00  0.00    -0.744 OA
ENDBRANCH  71  72
ENDBRANCH  50  64
BRANCH  51  76
ATOM     76  C   UNL     1       5.393  18.012  -6.280  1.00  0.00     0.058 A 
ATOM     77  C   UNL     1       6.062  17.762  -7.486  1.00  0.00     0.135 A 
ATOM     78  C   UNL     1       4.193  17.323  -6.040  1.00  0.00     0.135 A 
ATOM     79  F   UNL     1       7.208  18.404  -7.762  1.00  0.00    -0.206 F 
ATOM     80  C   UNL     1       5.573  16.847  -8.412  1.00  0.00     0.059 A 
ATOM     81  C   UNL     1       3.695  16.388  -6.942  1.00  0.00     0.059 A 
ATOM     82  F   UNL     1       3.525  17.516  -4.893  1.00  0.00    -0.206 F 
ATOM     83  C   UNL     1       4.396  16.154  -8.124  1.00  0.00     0.060 A 
BRANCH  83  84
ATOM     84  S   UNL     1       3.835  14.882  -9.278  1.00  0.00     0.124 S 
ATOM     85  O   UNL     1       3.333  15.688 -10.385  1.00  0.00    -0.237 OA
ATOM     86  O   UNL     1       5.066  14.139  -9.535  1.00  0.00    -0.237 OA
ATOM     87  O   UNL     1       2.825  14.156  -8.514  1.00  0.00    -0.744 OA
ENDBRANCH  83  84
ENDBRANCH  51  76
BRANCH  63  88
ATOM     88  C   UNL     1       6.108  24.936  -5.628  1.00  0.00     0.058 A 
ATOM     89  C   UNL     1       4.770  25.327  -5.791  1.00  0.00     0.135 A 
ATOM     90  C   UNL     1       7.098  25.700  -6.265  1.00  0.00     0.135 A 
ATOM     91  F   UNL     1       3.785  24.623  -5.212  1.00  0.00    -0.206 F 
ATOM     92  C   UNL     1       4.426  26.432  -6.562  1.00  0.00     0.059 A 
ATOM     93  C   UNL     1       6.778  26.824  -7.022  1.00  0.00     0.059 A 
ATOM     94  F   UNL     1       8.394  25.372  -6.137  1.00  0.00    -0.206 F 
ATOM     95  C   UNL     1       5.438  27.178  -7.169  1.00  0.00     0.060 A 
BRANCH  95  96
ATOM     96  S   UNL     1       4.979  28.641  -8.124  1.00  0.00     0.124 S 
ATOM     97  O   UNL     1       4.404  28.041  -9.323  1.00  0.00    -0.237 OA
ATOM     98  O   UNL     1       4.036  29.311  -7.234  1.00  0.00    -0.237 OA
ATOM     99  O   UNL     1       6.250  29.333  -8.316  1.00  0.00    -0.744 OA
ENDBRANCH  95  96
ENDBRANCH  63  88
ENDBRANCH  37  38
ENDBRANCH  29  32
ENDBRANCH  27  28
ENDBRANCH   1  27
TORSDOF 16
