REMARK SMILES O=C(NCCCNC(=O)[C@]12CCC[NH2+][C@@H]1CCN(C(=O)Cc1c(F)cccc1Cl)C2)c1ccc(-c2c3nc(c(-c4c(F)cc(S(=O)(=O)[O-])cc4F)c4ccc([nH]4)c(-c4c(F)cc(S(=O)(=O)[O-])cc4F)c4nc(c(-c5c(F)cc(S(=O)(=O)[O-])cc5F)c5ccc2[nH]5)C=C4)C=C3)cc1
REMARK SMILES IDX 5 1 4 2 3 3 1 4 2 5 31 7 32 8 96 9 33 10 95 11 34 12 35 13
REMARK SMILES IDX 36 14 89 15 37 16 94 17 88 18 90 19 38 20 93 21 87 22 86 23
REMARK SMILES IDX 39 25 73 26 52 27 72 28 53 29 56 30 71 31 91 32 54 33 55 34
REMARK SMILES IDX 70 36 92 37 57 38 40 39 41 40 50 41 42 42 43 43 49 44 51 45
REMARK SMILES IDX 44 46 45 47 46 48 47 49 48 50 74 51 75 52 84 53 76 54 77 55
REMARK SMILES IDX 83 56 85 57 78 58 79 59 80 60 81 61 82 62 58 63 59 64 68 65
REMARK SMILES IDX 60 66 61 67 67 68 69 69 62 70 63 71 64 72 65 73 66 74 6 75
REMARK SMILES IDX 7 76 8 77 9 79 10 80 11 81 15 82 30 83 12 84 14 85 16 86
REMARK SMILES IDX 18 87 13 88 17 91 19 92 20 93 21 94 22 95 23 96 28 97 24 98
REMARK SMILES IDX 25 99 27 100 29 101 26 102
REMARK H PARENT 3 6 90 24 56 35 7 78 14 89 14 90
REMARK Flexibility Score: inf
ROOT
ATOM      1  C   UNL     1       5.289  -1.728  -0.610  1.00  0.00     0.042 C 
ENDROOT
BRANCH   1   2
ATOM      2  C   UNL     1       4.541  -0.480  -1.033  1.00  0.00     0.118 C 
BRANCH   2   3
ATOM      3  N   UNL     1       3.092  -0.494  -0.800  1.00  0.00    -0.352 N 
ATOM      4  O   UNL     1       1.062   0.284  -0.173  1.00  0.00    -0.269 OA
ATOM      5  C   UNL     1       2.268   0.488  -0.288  1.00  0.00     0.251 C 
ATOM      6  H   UNL     1       2.638  -1.333  -1.046  1.00  0.00     0.163 HD
BRANCH   5   7
ATOM      7  C   UNL     1       2.860   1.761   0.168  1.00  0.00     0.039 A 
ATOM      8  C   UNL     1       3.897   2.328  -0.564  1.00  0.00     0.014 A 
ATOM      9  C   UNL     1       2.461   2.331   1.380  1.00  0.00     0.014 A 
ATOM     10  C   UNL     1       4.725   3.247   0.046  1.00  0.00     0.010 A 
ATOM     11  C   UNL     1       3.181   3.410   1.899  1.00  0.00     0.010 A 
ATOM     12  C   UNL     1       4.352   3.842   1.260  1.00  0.00    -0.014 A 
BRANCH  12  13
ATOM     13  C   UNL     1       5.173   4.972   1.760  1.00  0.00     0.031 A 
ATOM     14  C   UNL     1       5.815   4.940   3.117  1.00  0.00     0.074 A 
ATOM     15  C   UNL     1       5.373   6.013   0.925  1.00  0.00     0.049 A 
ATOM     16  N   UNL     1       6.550   5.855   3.696  1.00  0.00    -0.248 NA
ATOM     17  C   UNL     1       5.596   3.741   3.941  1.00  0.00     0.031 C 
ATOM     18  C   UNL     1       4.794   6.135  -0.420  1.00  0.00     0.029 A 
ATOM     19  N   UNL     1       6.140   7.138   1.050  1.00  0.00    -0.354 N 
ATOM     20  C   UNL     1       6.839   5.369   4.966  1.00  0.00     0.074 A 
ATOM     21  C   UNL     1       6.193   4.079   5.077  1.00  0.00     0.031 C 
ATOM     22  C   UNL     1       5.305   7.210  -1.028  1.00  0.00     0.029 A 
ATOM     23  C   UNL     1       6.138   7.926  -0.077  1.00  0.00     0.049 A 
ATOM     24  H   UNL     1       6.643   7.362   1.866  1.00  0.00     0.167 HD
ATOM     25  C   UNL     1       7.571   5.957   5.944  1.00  0.00     0.037 A 
ATOM     26  C   UNL     1       6.711   9.118  -0.313  1.00  0.00     0.037 A 
ATOM     27  C   UNL     1       8.220   7.237   5.792  1.00  0.00     0.049 A 
ATOM     28  C   UNL     1       7.494   9.754   0.791  1.00  0.00     0.074 A 
ATOM     29  C   UNL     1       9.007   7.918   6.704  1.00  0.00     0.029 A 
ATOM     30  N   UNL     1       8.154   8.031   4.653  1.00  0.00    -0.354 N 
ATOM     31  N   UNL     1       7.748   9.286   1.990  1.00  0.00    -0.248 NA
ATOM     32  C   UNL     1       8.055  11.080   0.521  1.00  0.00     0.031 C 
ATOM     33  C   UNL     1       9.371   9.145   6.137  1.00  0.00     0.029 A 
ATOM     34  C   UNL     1       8.866   9.204   4.848  1.00  0.00     0.049 A 
ATOM     35  H   UNL     1       7.672   7.794   3.828  1.00  0.00     0.167 HD
ATOM     36  C   UNL     1       8.518  10.254   2.617  1.00  0.00     0.074 A 
ATOM     37  C   UNL     1       8.697  11.326   1.654  1.00  0.00     0.031 C 
ATOM     38  C   UNL     1       9.030  10.256   3.872  1.00  0.00     0.037 A 
BRANCH  25  39
ATOM     39  C   UNL     1       7.663   5.251   7.272  1.00  0.00     0.058 A 
ATOM     40  C   UNL     1       8.371   4.049   7.439  1.00  0.00     0.135 A 
ATOM     41  C   UNL     1       7.032   5.793   8.405  1.00  0.00     0.135 A 
ATOM     42  F   UNL     1       8.985   3.476   6.392  1.00  0.00    -0.206 F 
ATOM     43  C   UNL     1       8.412   3.390   8.665  1.00  0.00     0.059 A 
ATOM     44  C   UNL     1       7.085   5.167   9.648  1.00  0.00     0.059 A 
ATOM     45  F   UNL     1       6.343   6.941   8.311  1.00  0.00    -0.206 F 
ATOM     46  C   UNL     1       7.759   3.953   9.763  1.00  0.00     0.060 A 
BRANCH  46  47
ATOM     47  S   UNL     1       7.790   3.069  11.337  1.00  0.00     0.124 S 
ATOM     48  O   UNL     1       6.884   1.958  11.064  1.00  0.00    -0.237 OA
ATOM     49  O   UNL     1       9.200   2.717  11.470  1.00  0.00    -0.237 OA
ATOM     50  O   UNL     1       7.301   4.057  12.293  1.00  0.00    -0.744 OA
ENDBRANCH  46  47
ENDBRANCH  25  39
BRANCH  26  51
ATOM     51  C   UNL     1       6.536   9.765  -1.639  1.00  0.00     0.058 A 
ATOM     52  C   UNL     1       7.612   9.881  -2.529  1.00  0.00     0.135 A 
ATOM     53  C   UNL     1       5.274  10.205  -2.074  1.00  0.00     0.135 A 
ATOM     54  F   UNL     1       8.835   9.472  -2.160  1.00  0.00    -0.206 F 
ATOM     55  C   UNL     1       7.445  10.411  -3.804  1.00  0.00     0.059 A 
ATOM     56  C   UNL     1       5.076  10.707  -3.355  1.00  0.00     0.059 A 
ATOM     57  F   UNL     1       4.206  10.090  -1.269  1.00  0.00    -0.206 F 
ATOM     58  C   UNL     1       6.171  10.813  -4.210  1.00  0.00     0.060 A 
BRANCH  58  59
ATOM     59  S   UNL     1       5.955  11.429  -5.893  1.00  0.00     0.124 S 
ATOM     60  O   UNL     1       6.602  12.733  -5.812  1.00  0.00    -0.237 OA
ATOM     61  O   UNL     1       6.652  10.416  -6.680  1.00  0.00    -0.237 OA
ATOM     62  O   UNL     1       4.505  11.451  -6.059  1.00  0.00    -0.744 OA
ENDBRANCH  58  59
ENDBRANCH  26  51
BRANCH  38  63
ATOM     63  C   UNL     1       9.874  11.438   4.252  1.00  0.00     0.058 A 
ATOM     64  C   UNL     1       9.317  12.704   4.484  1.00  0.00     0.135 A 
ATOM     65  C   UNL     1      11.262  11.290   4.405  1.00  0.00     0.135 A 
ATOM     66  F   UNL     1       7.997  12.900   4.337  1.00  0.00    -0.206 F 
ATOM     67  C   UNL     1      10.112  13.793   4.826  1.00  0.00     0.059 A 
ATOM     68  C   UNL     1      12.071  12.356   4.777  1.00  0.00     0.059 A 
ATOM     69  F   UNL     1      11.842  10.096   4.199  1.00  0.00    -0.206 F 
ATOM     70  C   UNL     1      11.488  13.607   4.971  1.00  0.00     0.060 A 
BRANCH  70  71
ATOM     71  S   UNL     1      12.507  15.021   5.438  1.00  0.00     0.124 S 
ATOM     72  O   UNL     1      12.530  15.789   4.197  1.00  0.00    -0.237 OA
ATOM     73  O   UNL     1      11.741  15.609   6.533  1.00  0.00    -0.237 OA
ATOM     74  O   UNL     1      13.776  14.413   5.825  1.00  0.00    -0.744 OA
ENDBRANCH  70  71
ENDBRANCH  38  63
ENDBRANCH  12  13
ENDBRANCH   5   7
ENDBRANCH   2   3
ENDBRANCH   1   2
BRANCH   1  75
ATOM     75  C   UNL     1       4.682  -3.003  -1.166  1.00  0.00     0.117 C 
BRANCH  75  76
ATOM     76  N   UNL     1       5.595  -3.872  -1.947  1.00  0.00    -0.355 N 
ATOM     77  C   UNL     1       6.220  -5.088  -1.917  1.00  0.00     0.234 C 
ATOM     78  H   UNL     1       5.837  -3.410  -2.782  1.00  0.00     0.163 HD
ATOM     79  O   UNL     1       6.785  -5.367  -2.989  1.00  0.00    -0.274 OA
BRANCH  77  80
ATOM     80  C   UNL     1       6.266  -6.154  -0.767  1.00  0.00     0.118 C 
ATOM     81  C   UNL     1       5.596  -7.481  -1.239  1.00  0.00     0.031 C 
ATOM     82  C   UNL     1       5.644  -5.752   0.561  1.00  0.00     0.201 C 
ATOM     83  C   UNL     1       7.734  -6.564  -0.493  1.00  0.00     0.142 C 
ATOM     84  C   UNL     1       4.086  -7.382  -1.333  1.00  0.00     0.063 C 
ATOM     85  N   UNL     1       4.175  -5.614   0.399  1.00  0.00    -0.343 N 
ATOM     86  C   UNL     1       6.438  -4.532   1.090  1.00  0.00     0.087 C 
ATOM     87  N   UNL     1       8.556  -5.676   0.315  1.00  0.00    -0.341 N 
ATOM     88  C   UNL     1       3.497  -6.842  -0.031  1.00  0.00     0.260 C 
ATOM     89  H   UNL     1       3.780  -5.328   1.296  1.00  0.00     0.346 HD
ATOM     90  H   UNL     1       4.026  -4.924  -0.337  1.00  0.00     0.346 HD
ATOM     91  C   UNL     1       7.922  -4.838   1.329  1.00  0.00     0.125 C 
BRANCH  87  92
ATOM     92  C   UNL     1       9.871  -6.136   0.507  1.00  0.00     0.227 C 
ATOM     93  O   UNL     1      10.178  -7.317   0.317  1.00  0.00    -0.275 OA
BRANCH  92  94
ATOM     94  C   UNL     1      10.940  -5.114   0.873  1.00  0.00     0.140 C 
BRANCH  94  95
ATOM     95  C   UNL     1      11.308  -4.269  -0.326  1.00  0.00     0.016 A 
ATOM     96  C   UNL     1      11.713  -4.905  -1.511  1.00  0.00     0.128 A 
ATOM     97  C   UNL     1      11.237  -2.871  -0.339  1.00  0.00     0.047 A 
ATOM     98  F   UNL     1      11.873  -6.236  -1.540  1.00  0.00    -0.207 F 
ATOM     99  C   UNL     1      11.957  -4.201  -2.687  1.00  0.00     0.039 A 
ATOM    100  C   UNL     1      11.493  -2.154  -1.516  1.00  0.00     0.021 A 
ATOM    101  Cl  UNL     1      10.844  -1.957   1.072  1.00  0.00    -0.084 Cl
ATOM    102  C   UNL     1      11.832  -2.818  -2.694  1.00  0.00     0.005 A 
ENDBRANCH  94  95
ENDBRANCH  92  94
ENDBRANCH  87  92
ENDBRANCH  77  80
ENDBRANCH  75  76
ENDBRANCH   1  75
TORSDOF 16
