REMARK SMILES CC(=O)N[C@H]1[C@@H](Oc2ccc(C)c(C)c2)O[C@H]2CO[C@H](c3ccco3)O[C@@H]2[C@H]1OCC(=O)NCCCNC(=O)c1ccc(-c2c3nc(c(-c4c(F)cc(S(=O)(=O)[O-])cc4F)c4ccc([nH]4)c(-c4c(F)cc(S(=O)(=O)[O-])cc4F)c4nc(c(-c5c(F)cc(S(=O)(=O)[O-])cc5F)c5ccc2[nH]5)C=C4)C=C3)cc1
REMARK SMILES IDX 34 1 33 2 31 3 32 4 30 6 29 7 28 8 5 9 6 10 16 11 27 12
REMARK SMILES IDX 17 13 26 14 18 15 20 16 19 17 4 18 1 19 2 20 3 21 7 23 8 24
REMARK SMILES IDX 9 25 15 26 10 27 13 28 11 29 14 30 12 31 21 32 22 33 25 34
REMARK SMILES IDX 23 35 24 36 35 37 36 38 37 39 38 40 39 42 40 43 41 44 105 45
REMARK SMILES IDX 42 46 104 47 43 48 44 49 45 50 98 51 46 52 103 53 97 54
REMARK SMILES IDX 99 55 47 56 102 57 96 58 95 59 48 61 82 62 61 63 81 64 62 65
REMARK SMILES IDX 65 66 80 67 100 68 63 69 64 70 79 72 101 73 66 74 49 75
REMARK SMILES IDX 50 76 59 77 51 78 52 79 58 80 60 81 53 82 54 83 55 84 56 85
REMARK SMILES IDX 57 86 83 87 84 88 93 89 85 90 86 91 92 92 94 93 87 94 88 95
REMARK SMILES IDX 89 96 90 97 91 98 67 99 68 100 77 101 69 102 70 103 76 104
REMARK SMILES IDX 78 105 71 106 72 107 73 108 74 109 75 110
REMARK H PARENT 33 5 4 22 37 41 99 60 65 71
REMARK Flexibility Score: inf
ROOT
ATOM      1  C   UNL     1       5.918  -1.989  -0.854  1.00  0.00     0.117 C 
ENDROOT
BRANCH   1   2
ATOM      2  N   UNL     1       6.267  -0.636  -1.249  1.00  0.00    -0.354 N 
ATOM      3  C   UNL     1       5.596   0.524  -0.982  1.00  0.00     0.246 C 
ATOM      4  O   UNL     1       6.027   1.581  -1.441  1.00  0.00    -0.272 OA
ATOM      5  H   UNL     1       7.093  -0.542  -1.776  1.00  0.00     0.163 HD
BRANCH   3   6
ATOM      6  C   UNL     1       4.345   0.463  -0.107  1.00  0.00     0.260 C 
BRANCH   6   7
ATOM      7  O   UNL     1       3.278  -0.316  -0.622  1.00  0.00    -0.363 OA
BRANCH   7   8
ATOM      8  C   UNL     1       2.587   0.212  -1.764  1.00  0.00     0.179 C 
ATOM      9  C   UNL     1       1.743  -0.938  -2.368  1.00  0.00     0.182 C 
ATOM     10  C   UNL     1       0.856  -0.384  -3.550  1.00  0.00     0.333 C 
ATOM     11  O   UNL     1       0.117   0.805  -3.251  1.00  0.00    -0.332 OA
ATOM     12  C   UNL     1       1.638   1.384  -1.472  1.00  0.00     0.184 C 
ATOM     13  C   UNL     1       0.929   1.856  -2.738  1.00  0.00     0.180 C 
ATOM     14  O   UNL     1       2.267   2.479  -0.832  1.00  0.00    -0.337 OA
ATOM     15  C   UNL     1       0.028   3.051  -2.379  1.00  0.00     0.199 C 
ATOM     16  C   UNL     1       1.255   3.391  -0.419  1.00  0.00     0.319 C 
ATOM     17  O   UNL     1       0.689   4.024  -1.562  1.00  0.00    -0.343 OA
BRANCH   9  18
ATOM     18  N   UNL     1       1.080  -1.868  -1.397  1.00  0.00    -0.345 N 
ATOM     19  C   UNL     1       0.579  -0.712   0.801  1.00  0.00     0.114 C 
ATOM     20  C   UNL     1       0.619  -1.894  -0.123  1.00  0.00     0.217 C 
ATOM     21  O   UNL     1       0.154  -2.966   0.282  1.00  0.00    -0.275 OA
ATOM     22  H   UNL     1       0.932  -2.744  -1.823  1.00  0.00     0.164 HD
ENDBRANCH   9  18
BRANCH  10  23
ATOM     23  O   UNL     1       0.070  -1.375  -4.228  1.00  0.00    -0.463 OA
BRANCH  23  24
ATOM     24  C   UNL     1      -1.044  -1.897  -3.638  1.00  0.00     0.123 A 
ATOM     25  C   UNL     1      -1.645  -1.438  -2.474  1.00  0.00     0.047 A 
ATOM     26  C   UNL     1      -1.573  -3.028  -4.265  1.00  0.00     0.050 A 
ATOM     27  C   UNL     1      -2.631  -2.198  -1.845  1.00  0.00     0.007 A 
ATOM     28  C   UNL     1      -2.611  -3.774  -3.675  1.00  0.00    -0.045 A 
ATOM     29  C   UNL     1      -3.086  -3.396  -2.408  1.00  0.00    -0.048 A 
ATOM     30  C   UNL     1      -3.161  -4.947  -4.441  1.00  0.00     0.045 C 
ATOM     31  C   UNL     1      -4.059  -4.232  -1.627  1.00  0.00     0.044 C 
ENDBRANCH  23  24
ENDBRANCH  10  23
BRANCH  16  32
ATOM     32  C   UNL     1       1.844   4.410   0.488  1.00  0.00     0.159 A 
ATOM     33  C   UNL     1       1.308   5.529   1.097  1.00  0.00     0.051 A 
ATOM     34  O   UNL     1       3.109   4.196   0.963  1.00  0.00    -0.464 OA
ATOM     35  C   UNL     1       2.297   6.023   1.981  1.00  0.00     0.042 A 
ATOM     36  C   UNL     1       3.378   5.183   1.853  1.00  0.00     0.195 A 
ENDBRANCH  16  32
ENDBRANCH   7   8
ENDBRANCH   6   7
ENDBRANCH   3   6
ENDBRANCH   1   2
BRANCH   1  37
ATOM     37  C   UNL     1       5.443  -2.825  -2.037  1.00  0.00     0.042 C 
BRANCH  37  38
ATOM     38  C   UNL     1       6.462  -2.960  -3.163  1.00  0.00     0.118 C 
BRANCH  38  39
ATOM     39  N   UNL     1       7.711  -3.566  -2.728  1.00  0.00    -0.352 N 
ATOM     40  C   UNL     1       8.400  -4.637  -3.243  1.00  0.00     0.251 C 
ATOM     41  H   UNL     1       8.127  -3.142  -1.943  1.00  0.00     0.163 HD
ATOM     42  O   UNL     1       9.353  -5.091  -2.621  1.00  0.00    -0.269 OA
BRANCH  40  43
ATOM     43  C   UNL     1       7.985  -5.251  -4.524  1.00  0.00     0.039 A 
ATOM     44  C   UNL     1       8.001  -6.644  -4.634  1.00  0.00     0.014 A 
ATOM     45  C   UNL     1       7.608  -4.469  -5.618  1.00  0.00     0.014 A 
ATOM     46  C   UNL     1       7.584  -7.252  -5.821  1.00  0.00     0.010 A 
ATOM     47  C   UNL     1       7.117  -5.077  -6.771  1.00  0.00     0.010 A 
ATOM     48  C   UNL     1       7.105  -6.475  -6.888  1.00  0.00    -0.014 A 
BRANCH  48  49
ATOM     49  C   UNL     1       6.591  -7.108  -8.131  1.00  0.00     0.031 A 
ATOM     50  C   UNL     1       7.269  -6.848  -9.451  1.00  0.00     0.074 A 
ATOM     51  C   UNL     1       5.475  -7.864  -8.081  1.00  0.00     0.049 A 
ATOM     52  N   UNL     1       6.925  -7.249 -10.648  1.00  0.00    -0.248 NA
ATOM     53  C   UNL     1       8.477  -6.006  -9.427  1.00  0.00     0.031 C 
ATOM     54  C   UNL     1       4.699  -8.147  -6.871  1.00  0.00     0.029 A 
ATOM     55  N   UNL     1       4.791  -8.523  -9.073  1.00  0.00    -0.354 N 
ATOM     56  C   UNL     1       7.858  -6.695 -11.517  1.00  0.00     0.074 A 
ATOM     57  C   UNL     1       8.756  -5.892 -10.718  1.00  0.00     0.031 C 
ATOM     58  C   UNL     1       3.657  -8.932  -7.189  1.00  0.00     0.029 A 
ATOM     59  C   UNL     1       3.663  -9.174  -8.628  1.00  0.00     0.049 A 
ATOM     60  H   UNL     1       5.080  -8.528 -10.014  1.00  0.00     0.167 HD
ATOM     61  C   UNL     1       7.967  -6.858 -12.857  1.00  0.00     0.037 A 
ATOM     62  C   UNL     1       2.731  -9.874  -9.304  1.00  0.00     0.037 A 
ATOM     63  C   UNL     1       7.089  -7.688 -13.642  1.00  0.00     0.049 A 
ATOM     64  C   UNL     1       2.881 -10.048 -10.792  1.00  0.00     0.074 A 
ATOM     65  C   UNL     1       7.162  -7.976 -14.993  1.00  0.00     0.029 A 
ATOM     66  N   UNL     1       5.979  -8.359 -13.150  1.00  0.00    -0.354 N 
ATOM     67  N   UNL     1       3.814  -9.577 -11.586  1.00  0.00    -0.248 NA
ATOM     68  C   UNL     1       1.861 -10.854 -11.476  1.00  0.00     0.031 C 
ATOM     69  C   UNL     1       6.065  -8.774 -15.330  1.00  0.00     0.029 A 
ATOM     70  C   UNL     1       5.344  -9.038 -14.176  1.00  0.00     0.049 A 
ATOM     71  H   UNL     1       5.686  -8.353 -12.210  1.00  0.00     0.167 HD
ATOM     72  C   UNL     1       3.510 -10.058 -12.856  1.00  0.00     0.074 A 
ATOM     73  C   UNL     1       2.316 -10.865 -12.722  1.00  0.00     0.031 C 
ATOM     74  C   UNL     1       4.163  -9.852 -14.026  1.00  0.00     0.037 A 
BRANCH  61  75
ATOM     75  C   UNL     1       9.075  -6.132 -13.572  1.00  0.00     0.058 A 
ATOM     76  C   UNL     1      10.421  -6.497 -13.416  1.00  0.00     0.135 A 
ATOM     77  C   UNL     1       8.778  -5.104 -14.482  1.00  0.00     0.135 A 
ATOM     78  F   UNL     1      10.765  -7.462 -12.549  1.00  0.00    -0.206 F 
ATOM     79  C   UNL     1      11.435  -5.860 -14.125  1.00  0.00     0.059 A 
ATOM     80  C   UNL     1       9.773  -4.472 -15.223  1.00  0.00     0.059 A 
ATOM     81  F   UNL     1       7.508  -4.712 -14.668  1.00  0.00    -0.206 F 
ATOM     82  C   UNL     1      11.100  -4.853 -15.031  1.00  0.00     0.060 A 
BRANCH  82  83
ATOM     83  S   UNL     1      12.425  -4.062 -15.968  1.00  0.00     0.124 S 
ATOM     84  O   UNL     1      13.088  -3.278 -14.930  1.00  0.00    -0.237 OA
ATOM     85  O   UNL     1      13.175  -5.207 -16.472  1.00  0.00    -0.237 OA
ATOM     86  O   UNL     1      11.713  -3.287 -16.979  1.00  0.00    -0.744 OA
ENDBRANCH  82  83
ENDBRANCH  61  75
BRANCH  62  87
ATOM     87  C   UNL     1       1.571 -10.466  -8.582  1.00  0.00     0.058 A 
ATOM     88  C   UNL     1       1.428 -11.855  -8.451  1.00  0.00     0.135 A 
ATOM     89  C   UNL     1       0.577  -9.653  -8.014  1.00  0.00     0.135 A 
ATOM     90  F   UNL     1       2.349 -12.677  -8.979  1.00  0.00    -0.206 F 
ATOM     91  C   UNL     1       0.329 -12.419  -7.811  1.00  0.00     0.059 A 
ATOM     92  C   UNL     1      -0.515 -10.192  -7.343  1.00  0.00     0.059 A 
ATOM     93  F   UNL     1       0.674  -8.316  -8.094  1.00  0.00    -0.206 F 
ATOM     94  C   UNL     1      -0.639 -11.578  -7.261  1.00  0.00     0.060 A 
BRANCH  94  95
ATOM     95  S   UNL     1      -2.051 -12.318  -6.413  1.00  0.00     0.124 S 
ATOM     96  O   UNL     1      -2.814 -12.858  -7.532  1.00  0.00    -0.237 OA
ATOM     97  O   UNL     1      -1.408 -13.298  -5.544  1.00  0.00    -0.237 OA
ATOM     98  O   UNL     1      -2.660 -11.184  -5.723  1.00  0.00    -0.744 OA
ENDBRANCH  94  95
ENDBRANCH  62  87
BRANCH  74  99
ATOM     99  C   UNL     1       3.635 -10.547 -15.252  1.00  0.00     0.058 A 
ATOM    100  C   UNL     1       2.437 -10.157 -15.869  1.00  0.00     0.135 A 
ATOM    101  C   UNL     1       4.373 -11.583 -15.848  1.00  0.00     0.135 A 
ATOM    102  F   UNL     1       1.690  -9.176 -15.338  1.00  0.00    -0.206 F 
ATOM    103  C   UNL     1       1.976 -10.787 -17.021  1.00  0.00     0.059 A 
ATOM    104  C   UNL     1       3.947 -12.205 -17.018  1.00  0.00     0.059 A 
ATOM    105  F   UNL     1       5.532 -11.988 -15.305  1.00  0.00    -0.206 F 
ATOM    106  C   UNL     1       2.740 -11.807 -17.590  1.00  0.00     0.060 A 
BRANCH 106 107
ATOM    107  S   UNL     1       2.148 -12.591 -19.104  1.00  0.00     0.124 S 
ATOM    108  O   UNL     1       1.032 -13.389 -18.605  1.00  0.00    -0.237 OA
ATOM    109  O   UNL     1       1.787 -11.443 -19.929  1.00  0.00    -0.237 OA
ATOM    110  O   UNL     1       3.304 -13.352 -19.569  1.00  0.00    -0.744 OA
ENDBRANCH 106 107
ENDBRANCH  74  99
ENDBRANCH  48  49
ENDBRANCH  40  43
ENDBRANCH  38  39
ENDBRANCH  37  38
ENDBRANCH   1  37
TORSDOF 19
