REMARK SMILES CC(C)(Cn1ccc2ccc([N+](=O)[O-])cc21)C(=O)NCCCNC(=O)c1ccc(-c2c3nc(c(-c4c(F)cc(S(=O)(=O)[O-])cc4F)c4ccc([nH]4)c(-c4c(F)cc(S(=O)(=O)[O-])cc4F)c4nc(c(-c5c(F)cc(S(=O)(=O)[O-])cc5F)c5ccc2[nH]5)C=C4)C=C3)cc1
REMARK SMILES IDX 21 1 20 2 19 3 17 4 18 5 2 7 1 8 3 9 4 10 5 11 6 12 16 13
REMARK SMILES IDX 7 14 8 15 15 16 9 17 11 18 10 19 12 20 13 21 14 22 22 23
REMARK SMILES IDX 23 24 24 25 25 27 26 28 27 29 91 30 28 31 90 32 29 33 30 34
REMARK SMILES IDX 31 35 84 36 32 37 89 38 83 39 85 40 33 41 88 42 82 43 81 44
REMARK SMILES IDX 34 46 68 47 47 48 67 49 48 50 51 51 66 52 86 53 49 54 50 55
REMARK SMILES IDX 65 57 87 58 52 59 35 60 36 61 45 62 37 63 38 64 44 65 46 66
REMARK SMILES IDX 39 67 40 68 41 69 42 70 43 71 69 72 70 73 79 74 71 75 72 76
REMARK SMILES IDX 78 77 80 78 73 79 74 80 75 81 76 82 77 83 53 84 54 85 63 86
REMARK SMILES IDX 55 87 56 88 62 89 64 90 57 91 58 92 59 93 60 94 61 95
REMARK H PARENT 19 6 23 26 85 45 51 56
REMARK Flexibility Score: inf
ROOT
ATOM      1  C   UNL     1      -1.090   5.207   1.324  1.00  0.00     0.042 C 
ENDROOT
BRANCH   1   2
ATOM      2  C   UNL     1       0.058   4.539   0.572  1.00  0.00     0.117 C 
BRANCH   2   3
ATOM      3  N   UNL     1       0.754   3.523   1.348  1.00  0.00    -0.356 N 
ATOM      4  C   UNL     1       1.020   2.206   1.179  1.00  0.00     0.227 C 
ATOM      5  O   UNL     1       1.740   1.703   2.049  1.00  0.00    -0.274 OA
ATOM      6  H   UNL     1       1.115   3.876   2.193  1.00  0.00     0.163 HD
BRANCH   4   7
ATOM      7  C   UNL     1       0.474   1.365   0.015  1.00  0.00     0.061 C 
ATOM      8  C   UNL     1       1.185  -0.015   0.049  1.00  0.00     0.023 C 
ATOM      9  C   UNL     1       0.892   1.959  -1.348  1.00  0.00     0.023 C 
BRANCH   7  10
ATOM     10  C   UNL     1      -1.073   1.218   0.132  1.00  0.00     0.138 C 
BRANCH  10  11
ATOM     11  N   UNL     1      -1.554   0.421   1.266  1.00  0.00    -0.346 N 
ATOM     12  C   UNL     1      -1.488  -0.953   1.310  1.00  0.00     0.087 A 
ATOM     13  C   UNL     1      -2.149   0.874   2.433  1.00  0.00     0.055 A 
ATOM     14  C   UNL     1      -1.746  -1.350   2.600  1.00  0.00     0.028 A 
ATOM     15  C   UNL     1      -2.159  -0.206   3.326  1.00  0.00     0.000 A 
ATOM     16  C   UNL     1      -2.680   2.119   2.804  1.00  0.00     0.112 A 
ATOM     17  C   UNL     1      -2.586  -0.008   4.656  1.00  0.00     0.017 A 
ATOM     18  C   UNL     1      -3.115   2.288   4.131  1.00  0.00     0.271 A 
ATOM     19  C   UNL     1      -3.046   1.249   5.059  1.00  0.00     0.086 A 
BRANCH  18  20
ATOM     20  N   UNL     1      -3.647   3.592   4.555  1.00  0.00     0.062 N 
ATOM     21  O   UNL     1      -3.835   4.450   3.681  1.00  0.00    -0.258 OA
ATOM     22  O   UNL     1      -3.852   3.766   5.765  1.00  0.00    -0.258 OA
ENDBRANCH  18  20
ENDBRANCH  10  11
ENDBRANCH   7  10
ENDBRANCH   4   7
ENDBRANCH   2   3
ENDBRANCH   1   2
BRANCH   1  23
ATOM     23  C   UNL     1      -0.763   5.619   2.755  1.00  0.00     0.118 C 
BRANCH  23  24
ATOM     24  N   UNL     1       0.121   6.758   2.825  1.00  0.00    -0.352 N 
ATOM     25  C   UNL     1      -0.099   8.107   2.779  1.00  0.00     0.251 C 
ATOM     26  H   UNL     1       1.069   6.515   2.927  1.00  0.00     0.163 HD
ATOM     27  O   UNL     1       0.888   8.819   2.985  1.00  0.00    -0.269 OA
BRANCH  25  28
ATOM     28  C   UNL     1      -1.395   8.748   2.413  1.00  0.00     0.039 A 
ATOM     29  C   UNL     1      -2.615   8.095   2.213  1.00  0.00     0.014 A 
ATOM     30  C   UNL     1      -1.326  10.129   2.156  1.00  0.00     0.014 A 
ATOM     31  C   UNL     1      -3.670   8.752   1.593  1.00  0.00     0.010 A 
ATOM     32  C   UNL     1      -2.393  10.801   1.579  1.00  0.00     0.010 A 
ATOM     33  C   UNL     1      -3.525  10.083   1.211  1.00  0.00    -0.014 A 
BRANCH  33  34
ATOM     34  C   UNL     1      -4.580  10.688   0.408  1.00  0.00     0.031 A 
ATOM     35  C   UNL     1      -5.925  10.754   1.050  1.00  0.00     0.074 A 
ATOM     36  C   UNL     1      -4.321  11.224  -0.803  1.00  0.00     0.049 A 
ATOM     37  N   UNL     1      -7.032  10.206   0.665  1.00  0.00    -0.248 NA
ATOM     38  C   UNL     1      -6.019  11.428   2.356  1.00  0.00     0.031 C 
ATOM     39  C   UNL     1      -3.022  11.452  -1.448  1.00  0.00     0.029 A 
ATOM     40  N   UNL     1      -5.189  11.777  -1.689  1.00  0.00    -0.354 N 
ATOM     41  C   UNL     1      -8.007  10.611   1.579  1.00  0.00     0.074 A 
ATOM     42  C   UNL     1      -7.304  11.248   2.663  1.00  0.00     0.031 C 
ATOM     43  C   UNL     1      -3.179  12.311  -2.481  1.00  0.00     0.029 A 
ATOM     44  C   UNL     1      -4.596  12.570  -2.662  1.00  0.00     0.049 A 
ATOM     45  H   UNL     1      -6.161  11.627  -1.645  1.00  0.00     0.167 HD
ATOM     46  C   UNL     1      -9.341  10.547   1.304  1.00  0.00     0.037 A 
ATOM     47  C   UNL     1      -5.237  13.430  -3.494  1.00  0.00     0.037 A 
ATOM     48  C   UNL     1      -9.614   9.681   0.190  1.00  0.00     0.049 A 
ATOM     49  C   UNL     1      -6.666  13.015  -3.526  1.00  0.00     0.074 A 
ATOM     50  C   UNL     1      -9.457   8.328  -0.043  1.00  0.00     0.029 A 
ATOM     51  N   UNL     1      -9.799  10.250  -1.046  1.00  0.00    -0.354 N 
ATOM     52  N   UNL     1      -7.080  11.892  -4.048  1.00  0.00    -0.248 NA
ATOM     53  C   UNL     1      -7.565  13.619  -2.553  1.00  0.00     0.031 C 
ATOM     54  C   UNL     1      -9.048   8.235  -1.406  1.00  0.00     0.029 A 
ATOM     55  C   UNL     1      -9.039   9.527  -1.933  1.00  0.00     0.049 A 
ATOM     56  H   UNL     1     -10.367  11.026  -1.256  1.00  0.00     0.167 HD
ATOM     57  C   UNL     1      -8.069  11.439  -3.187  1.00  0.00     0.074 A 
ATOM     58  C   UNL     1      -8.369  12.578  -2.319  1.00  0.00     0.031 C 
ATOM     59  C   UNL     1      -8.357  10.109  -3.066  1.00  0.00     0.037 A 
BRANCH  46  60
ATOM     60  C   UNL     1     -10.374  11.499   1.854  1.00  0.00     0.058 A 
ATOM     61  C   UNL     1     -11.747  11.211   1.711  1.00  0.00     0.135 A 
ATOM     62  C   UNL     1     -10.066  12.815   2.265  1.00  0.00     0.135 A 
ATOM     63  F   UNL     1     -12.153   9.993   1.321  1.00  0.00    -0.206 F 
ATOM     64  C   UNL     1     -12.736  12.180   1.894  1.00  0.00     0.059 A 
ATOM     65  C   UNL     1     -11.038  13.781   2.502  1.00  0.00     0.059 A 
ATOM     66  F   UNL     1      -8.803  13.250   2.359  1.00  0.00    -0.206 F 
ATOM     67  C   UNL     1     -12.367  13.469   2.272  1.00  0.00     0.060 A 
BRANCH  67  68
ATOM     68  S   UNL     1     -13.629  14.752   2.374  1.00  0.00     0.124 S 
ATOM     69  O   UNL     1     -14.039  14.872   0.981  1.00  0.00    -0.237 OA
ATOM     70  O   UNL     1     -14.600  14.152   3.280  1.00  0.00    -0.237 OA
ATOM     71  O   UNL     1     -12.899  15.898   2.917  1.00  0.00    -0.744 OA
ENDBRANCH  67  68
ENDBRANCH  46  60
BRANCH  47  72
ATOM     72  C   UNL     1      -4.791  14.789  -3.905  1.00  0.00     0.058 A 
ATOM     73  C   UNL     1      -5.433  15.482  -4.947  1.00  0.00     0.135 A 
ATOM     74  C   UNL     1      -3.924  15.552  -3.095  1.00  0.00     0.135 A 
ATOM     75  F   UNL     1      -6.289  14.839  -5.755  1.00  0.00    -0.206 F 
ATOM     76  C   UNL     1      -5.270  16.860  -5.139  1.00  0.00     0.059 A 
ATOM     77  C   UNL     1      -3.740  16.923  -3.272  1.00  0.00     0.059 A 
ATOM     78  F   UNL     1      -3.300  15.005  -2.041  1.00  0.00    -0.206 F 
ATOM     79  C   UNL     1      -4.440  17.577  -4.278  1.00  0.00     0.060 A 
BRANCH  79  80
ATOM     80  S   UNL     1      -4.375  19.381  -4.401  1.00  0.00     0.124 S 
ATOM     81  O   UNL     1      -3.725  19.573  -5.693  1.00  0.00    -0.237 OA
ATOM     82  O   UNL     1      -5.787  19.743  -4.336  1.00  0.00    -0.237 OA
ATOM     83  O   UNL     1      -3.580  19.772  -3.239  1.00  0.00    -0.744 OA
ENDBRANCH  79  80
ENDBRANCH  47  72
BRANCH  59  84
ATOM     84  C   UNL     1      -7.725   9.155  -4.049  1.00  0.00     0.058 A 
ATOM     85  C   UNL     1      -6.339   8.931  -4.150  1.00  0.00     0.135 A 
ATOM     86  C   UNL     1      -8.559   8.334  -4.819  1.00  0.00     0.135 A 
ATOM     87  F   UNL     1      -5.476   9.587  -3.364  1.00  0.00    -0.206 F 
ATOM     88  C   UNL     1      -5.806   7.977  -5.019  1.00  0.00     0.059 A 
ATOM     89  C   UNL     1      -8.052   7.353  -5.669  1.00  0.00     0.059 A 
ATOM     90  F   UNL     1      -9.894   8.445  -4.715  1.00  0.00    -0.206 F 
ATOM     91  C   UNL     1      -6.672   7.193  -5.778  1.00  0.00     0.060 A 
BRANCH  91  92
ATOM     92  S   UNL     1      -5.985   5.924  -6.864  1.00  0.00     0.124 S 
ATOM     93  O   UNL     1      -5.345   6.726  -7.906  1.00  0.00    -0.237 OA
ATOM     94  O   UNL     1      -5.074   5.205  -5.974  1.00  0.00    -0.237 OA
ATOM     95  O   UNL     1      -7.153   5.166  -7.290  1.00  0.00    -0.744 OA
ENDBRANCH  91  92
ENDBRANCH  59  84
ENDBRANCH  33  34
ENDBRANCH  25  28
ENDBRANCH  23  24
ENDBRANCH   1  23
TORSDOF 16
