REMARK SMILES COc1ccc(C2=NO[C@](C)(C(=O)NCCCNC(=O)c3ccc(-c4c5nc(c(-c6c(F)cc(S(=O)(=O)[O-])cc6F)c6ccc([nH]6)c(-c6c(F)cc(S(=O)(=O)[O-])cc6F)c6nc(c(-c7c(F)cc(S(=O)(=O)[O-])cc7F)c7ccc4[nH]7)C=C6)C=C5)cc3)C2)c(OC)c1OC
REMARK SMILES IDX 16 1 15 2 14 3 12 4 13 5 10 7 7 8 8 9 87 10 9 11 11 12 6 13
REMARK SMILES IDX 3 14 4 15 91 16 5 17 88 18 2 19 1 20 92 21 93 22 89 23 90 24
REMARK SMILES IDX 17 25 18 26 19 27 20 29 21 30 22 31 86 32 23 33 85 34 24 35
REMARK SMILES IDX 25 36 26 37 79 38 27 39 84 40 78 41 80 42 28 43 83 44 77 45
REMARK SMILES IDX 76 46 29 48 63 49 42 50 62 51 43 52 46 53 61 54 81 55 44 56
REMARK SMILES IDX 45 57 60 59 82 60 47 61 30 62 31 63 40 64 32 65 33 66 39 67
REMARK SMILES IDX 41 68 34 69 35 70 36 71 37 72 38 73 64 74 65 75 74 76 66 77
REMARK SMILES IDX 67 78 73 79 75 80 68 81 69 82 70 83 71 84 72 85 48 86 49 87
REMARK SMILES IDX 58 88 50 89 51 90 57 91 59 92 52 93 53 94 54 95 55 96 56 97
REMARK H PARENT 14 6 18 28 80 47 46 58
REMARK Flexibility Score: inf
ROOT
ATOM      1  C   UNL     1       1.012   8.652  -0.009  1.00  0.00     0.042 C 
ENDROOT
BRANCH   1   2
ATOM      2  C   UNL     1       0.487   9.097  -1.374  1.00  0.00     0.118 C 
BRANCH   2   3
ATOM      3  N   UNL     1       1.561   9.574  -2.227  1.00  0.00    -0.352 N 
ATOM      4  C   UNL     1       2.293   8.960  -3.206  1.00  0.00     0.267 C 
ATOM      5  O   UNL     1       3.219   9.630  -3.675  1.00  0.00    -0.270 OA
ATOM      6  H   UNL     1       1.808  10.514  -2.071  1.00  0.00     0.163 HD
BRANCH   4   7
ATOM      7  C   UNL     1       1.907   7.577  -3.782  1.00  0.00     0.217 C 
ATOM      8  C   UNL     1       2.172   5.337  -3.357  1.00  0.00     0.095 C 
ATOM      9  N   UNL     1       3.013   5.592  -4.303  1.00  0.00    -0.089 NA
ATOM     10  C   UNL     1       1.529   6.531  -2.758  1.00  0.00     0.122 C 
ATOM     11  O   UNL     1       3.055   7.007  -4.445  1.00  0.00    -0.379 OA
ATOM     12  C   UNL     1       0.835   7.795  -4.853  1.00  0.00     0.071 C 
BRANCH   8  13
ATOM     13  C   UNL     1       1.841   3.993  -2.843  1.00  0.00     0.046 A 
ATOM     14  C   UNL     1       1.104   1.502  -1.848  1.00  0.00     0.164 A 
ATOM     15  C   UNL     1       0.128   2.369  -2.350  1.00  0.00     0.051 A 
ATOM     16  C   UNL     1       2.469   1.860  -1.852  1.00  0.00     0.203 A 
ATOM     17  C   UNL     1       0.494   3.612  -2.852  1.00  0.00     0.018 A 
ATOM     18  C   UNL     1       2.840   3.139  -2.330  1.00  0.00     0.173 A 
BRANCH  14  19
ATOM     19  O   UNL     1       0.693   0.245  -1.482  1.00  0.00    -0.493 OA
ATOM     20  C   UNL     1       0.000   0.254  -0.229  1.00  0.00     0.278 C 
ENDBRANCH  14  19
BRANCH  16  21
ATOM     21  O   UNL     1       3.482   1.000  -1.515  1.00  0.00    -0.490 OA
ATOM     22  C   UNL     1       3.254   0.057  -0.475  1.00  0.00     0.278 C 
ENDBRANCH  16  21
BRANCH  18  23
ATOM     23  O   UNL     1       4.098   3.687  -2.335  1.00  0.00    -0.492 OA
ATOM     24  C   UNL     1       5.160   3.039  -1.655  1.00  0.00     0.278 C 
ENDBRANCH  18  23
ENDBRANCH   8  13
ENDBRANCH   4   7
ENDBRANCH   2   3
ENDBRANCH   1   2
BRANCH   1  25
ATOM     25  C   UNL     1       1.364   9.816   0.913  1.00  0.00     0.118 C 
BRANCH  25  26
ATOM     26  N   UNL     1       0.178  10.544   1.346  1.00  0.00    -0.352 N 
ATOM     27  C   UNL     1      -0.335  10.721   2.606  1.00  0.00     0.251 C 
ATOM     28  H   UNL     1      -0.333  10.976   0.624  1.00  0.00     0.163 HD
ATOM     29  O   UNL     1      -1.477  11.166   2.731  1.00  0.00    -0.269 OA
BRANCH  27  30
ATOM     30  C   UNL     1       0.458  10.368   3.803  1.00  0.00     0.039 A 
ATOM     31  C   UNL     1      -0.178   9.732   4.872  1.00  0.00     0.014 A 
ATOM     32  C   UNL     1       1.817  10.682   3.886  1.00  0.00     0.014 A 
ATOM     33  C   UNL     1       0.564   9.345   5.991  1.00  0.00     0.010 A 
ATOM     34  C   UNL     1       2.570  10.230   4.968  1.00  0.00     0.010 A 
ATOM     35  C   UNL     1       1.953   9.551   6.029  1.00  0.00    -0.014 A 
BRANCH  35  36
ATOM     36  C   UNL     1       2.781   9.036   7.149  1.00  0.00     0.031 A 
ATOM     37  C   UNL     1       3.543   9.985   8.034  1.00  0.00     0.074 A 
ATOM     38  C   UNL     1       2.908   7.704   7.317  1.00  0.00     0.049 A 
ATOM     39  N   UNL     1       4.386   9.717   8.997  1.00  0.00    -0.248 NA
ATOM     40  C   UNL     1       3.349  11.423   7.788  1.00  0.00     0.031 C 
ATOM     41  C   UNL     1       2.254   6.683   6.496  1.00  0.00     0.029 A 
ATOM     42  N   UNL     1       3.643   6.978   8.222  1.00  0.00    -0.354 N 
ATOM     43  C   UNL     1       4.832  10.948   9.464  1.00  0.00     0.074 A 
ATOM     44  C   UNL     1       4.203  11.962   8.646  1.00  0.00     0.031 C 
ATOM     45  C   UNL     1       2.603   5.466   6.942  1.00  0.00     0.029 A 
ATOM     46  C   UNL     1       3.543   5.617   8.049  1.00  0.00     0.049 A 
ATOM     47  H   UNL     1       4.190   7.392   8.927  1.00  0.00     0.167 HD
ATOM     48  C   UNL     1       5.674  11.207  10.494  1.00  0.00     0.037 A 
ATOM     49  C   UNL     1       4.153   4.603   8.693  1.00  0.00     0.037 A 
ATOM     50  C   UNL     1       6.284  10.190  11.311  1.00  0.00     0.049 A 
ATOM     51  C   UNL     1       5.106   4.916   9.814  1.00  0.00     0.074 A 
ATOM     52  C   UNL     1       7.102  10.352  12.415  1.00  0.00     0.029 A 
ATOM     53  N   UNL     1       6.152   8.823  11.109  1.00  0.00    -0.354 N 
ATOM     54  N   UNL     1       5.460   6.087  10.289  1.00  0.00    -0.248 NA
ATOM     55  C   UNL     1       5.743   3.776  10.486  1.00  0.00     0.031 C 
ATOM     56  C   UNL     1       7.511   9.086  12.846  1.00  0.00     0.029 A 
ATOM     57  C   UNL     1       6.901   8.132  12.047  1.00  0.00     0.049 A 
ATOM     58  H   UNL     1       5.607   8.407  10.403  1.00  0.00     0.167 HD
ATOM     59  C   UNL     1       6.345   5.823  11.329  1.00  0.00     0.074 A 
ATOM     60  C   UNL     1       6.458   4.382  11.425  1.00  0.00     0.031 C 
ATOM     61  C   UNL     1       7.004   6.695  12.131  1.00  0.00     0.037 A 
BRANCH  48  62
ATOM     62  C   UNL     1       5.989  12.648  10.797  1.00  0.00     0.058 A 
ATOM     63  C   UNL     1       5.026  13.517  11.335  1.00  0.00     0.135 A 
ATOM     64  C   UNL     1       7.283  13.155  10.590  1.00  0.00     0.135 A 
ATOM     65  F   UNL     1       3.770  13.090  11.542  1.00  0.00    -0.206 F 
ATOM     66  C   UNL     1       5.325  14.843  11.631  1.00  0.00     0.059 A 
ATOM     67  C   UNL     1       7.613  14.470  10.907  1.00  0.00     0.059 A 
ATOM     68  F   UNL     1       8.243  12.370  10.079  1.00  0.00    -0.206 F 
ATOM     69  C   UNL     1       6.623  15.310  11.414  1.00  0.00     0.060 A 
BRANCH  69  70
ATOM     70  S   UNL     1       6.994  17.032  11.811  1.00  0.00     0.124 S 
ATOM     71  O   UNL     1       6.277  17.735  10.751  1.00  0.00    -0.237 OA
ATOM     72  O   UNL     1       6.435  17.169  13.152  1.00  0.00    -0.237 OA
ATOM     73  O   UNL     1       8.450  17.094  11.731  1.00  0.00    -0.744 OA
ENDBRANCH  69  70
ENDBRANCH  48  62
BRANCH  49  74
ATOM     74  C   UNL     1       3.879   3.196   8.292  1.00  0.00     0.058 A 
ATOM     75  C   UNL     1       3.164   2.330   9.132  1.00  0.00     0.135 A 
ATOM     76  C   UNL     1       4.308   2.695   7.053  1.00  0.00     0.135 A 
ATOM     77  F   UNL     1       2.738   2.759  10.330  1.00  0.00    -0.206 F 
ATOM     78  C   UNL     1       2.892   1.016   8.765  1.00  0.00     0.059 A 
ATOM     79  C   UNL     1       4.026   1.393   6.652  1.00  0.00     0.059 A 
ATOM     80  F   UNL     1       4.982   3.486   6.203  1.00  0.00    -0.206 F 
ATOM     81  C   UNL     1       3.323   0.558   7.519  1.00  0.00     0.060 A 
BRANCH  81  82
ATOM     82  S   UNL     1       2.910  -1.128   7.023  1.00  0.00     0.124 S 
ATOM     83  O   UNL     1       3.803  -1.911   7.868  1.00  0.00    -0.237 OA
ATOM     84  O   UNL     1       1.489  -1.203   7.349  1.00  0.00    -0.237 OA
ATOM     85  O   UNL     1       3.215  -1.142   5.595  1.00  0.00    -0.744 OA
ENDBRANCH  81  82
ENDBRANCH  49  74
BRANCH  61  86
ATOM     86  C   UNL     1       7.894   6.121  13.200  1.00  0.00     0.058 A 
ATOM     87  C   UNL     1       9.122   5.518  12.890  1.00  0.00     0.135 A 
ATOM     88  C   UNL     1       7.545   6.239  14.556  1.00  0.00     0.135 A 
ATOM     89  F   UNL     1       9.499   5.371  11.610  1.00  0.00    -0.206 F 
ATOM     90  C   UNL     1       9.968   5.039  13.885  1.00  0.00     0.059 A 
ATOM     91  C   UNL     1       8.388   5.793  15.568  1.00  0.00     0.059 A 
ATOM     92  F   UNL     1       6.383   6.813  14.908  1.00  0.00    -0.206 F 
ATOM     93  C   UNL     1       9.595   5.188  15.222  1.00  0.00     0.060 A 
BRANCH  93  94
ATOM     94  S   UNL     1      10.728   4.610  16.504  1.00  0.00     0.124 S 
ATOM     95  O   UNL     1      10.605   3.162  16.374  1.00  0.00    -0.237 OA
ATOM     96  O   UNL     1      12.001   5.180  16.073  1.00  0.00    -0.237 OA
ATOM     97  O   UNL     1      10.175   5.179  17.729  1.00  0.00    -0.744 OA
ENDBRANCH  93  94
ENDBRANCH  61  86
ENDBRANCH  35  36
ENDBRANCH  27  30
ENDBRANCH  25  26
ENDBRANCH   1  25
TORSDOF 17
