REMARK SMILES O=C(NCCCNC(=O)[C@@H]1CCC[N@@H+](Cc2ccc(F)cc2Cl)C1)c1ccc(-c2c3nc(c(-c4c(F)cc(S(=O)(=O)[O-])cc4F)c4ccc([nH]4)c(-c4c(F)cc(S(=O)(=O)[O-])cc4F)c4nc(c(-c5c(F)cc(S(=O)(=O)[O-])cc5F)c5ccc2[nH]5)C=C4)C=C3)cc1
REMARK SMILES IDX 4 1 3 2 1 3 2 4 25 6 26 7 90 8 27 9 89 10 28 11 29 12 30 13
REMARK SMILES IDX 83 14 31 15 88 16 82 17 84 18 32 19 87 20 81 21 80 22 33 24
REMARK SMILES IDX 67 25 46 26 66 27 47 28 50 29 65 30 85 31 48 32 49 33 64 35
REMARK SMILES IDX 86 36 51 37 34 38 35 39 44 40 36 41 37 42 43 43 45 44 38 45
REMARK SMILES IDX 39 46 40 47 41 48 42 49 68 50 69 51 78 52 70 53 71 54 77 55
REMARK SMILES IDX 79 56 72 57 73 58 74 59 75 60 76 61 52 62 53 63 62 64 54 65
REMARK SMILES IDX 55 66 61 67 63 68 56 69 57 70 58 71 59 72 60 73 5 74 6 75
REMARK SMILES IDX 7 76 8 77 9 79 10 80 11 81 24 82 12 83 14 84 13 85 15 87
REMARK SMILES IDX 16 88 17 89 22 90 18 91 21 92 23 93 19 94 20 95
REMARK H PARENT 3 5 84 23 50 34 7 78 14 86
REMARK Flexibility Score: inf
ROOT
ATOM      1  C   UNL     1       4.125   0.271  -1.392  1.00  0.00     0.118 C 
ENDROOT
BRANCH   1   2
ATOM      2  N   UNL     1       2.742   0.443  -0.984  1.00  0.00    -0.352 N 
ATOM      3  O   UNL     1       0.936   0.216   0.331  1.00  0.00    -0.269 OA
ATOM      4  C   UNL     1       2.164   0.285   0.251  1.00  0.00     0.251 C 
ATOM      5  H   UNL     1       2.125   0.713  -1.702  1.00  0.00     0.163 HD
BRANCH   4   6
ATOM      6  C   UNL     1       2.990   0.182   1.478  1.00  0.00     0.039 A 
ATOM      7  C   UNL     1       4.125   0.974   1.654  1.00  0.00     0.014 A 
ATOM      8  C   UNL     1       2.581  -0.671   2.509  1.00  0.00     0.014 A 
ATOM      9  C   UNL     1       4.925   0.814   2.780  1.00  0.00     0.010 A 
ATOM     10  C   UNL     1       3.323  -0.745   3.695  1.00  0.00     0.010 A 
ATOM     11  C   UNL     1       4.511  -0.012   3.836  1.00  0.00    -0.014 A 
BRANCH  11  12
ATOM     12  C   UNL     1       5.273   0.009   5.113  1.00  0.00     0.031 A 
ATOM     13  C   UNL     1       5.932  -1.227   5.657  1.00  0.00     0.074 A 
ATOM     14  C   UNL     1       5.370   1.179   5.779  1.00  0.00     0.049 A 
ATOM     15  N   UNL     1       6.622  -1.371   6.760  1.00  0.00    -0.248 NA
ATOM     16  C   UNL     1       5.793  -2.463   4.873  1.00  0.00     0.031 C 
ATOM     17  C   UNL     1       4.751   2.440   5.359  1.00  0.00     0.029 A 
ATOM     18  N   UNL     1       6.032   1.509   6.934  1.00  0.00    -0.354 N 
ATOM     19  C   UNL     1       6.981  -2.713   6.817  1.00  0.00     0.074 A 
ATOM     20  C   UNL     1       6.413  -3.347   5.645  1.00  0.00     0.031 C 
ATOM     21  C   UNL     1       5.104   3.413   6.210  1.00  0.00     0.029 A 
ATOM     22  C   UNL     1       5.908   2.835   7.279  1.00  0.00     0.049 A 
ATOM     23  H   UNL     1       6.547   0.859   7.465  1.00  0.00     0.167 HD
ATOM     24  C   UNL     1       7.718  -3.351   7.758  1.00  0.00     0.037 A 
ATOM     25  C   UNL     1       6.367   3.512   8.348  1.00  0.00     0.037 A 
ATOM     26  C   UNL     1       8.292  -2.703   8.912  1.00  0.00     0.049 A 
ATOM     27  C   UNL     1       7.171   2.778   9.379  1.00  0.00     0.074 A 
ATOM     28  C   UNL     1       9.087  -3.254   9.902  1.00  0.00     0.029 A 
ATOM     29  N   UNL     1       8.128  -1.362   9.235  1.00  0.00    -0.354 N 
ATOM     30  N   UNL     1       7.523   1.515   9.399  1.00  0.00    -0.248 NA
ATOM     31  C   UNL     1       7.635   3.555  10.535  1.00  0.00     0.031 C 
ATOM     32  C   UNL     1       9.365  -2.261  10.847  1.00  0.00     0.029 A 
ATOM     33  C   UNL     1       8.788  -1.075  10.421  1.00  0.00     0.049 A 
ATOM     34  H   UNL     1       7.619  -0.711   8.701  1.00  0.00     0.167 HD
ATOM     35  C   UNL     1       8.262   1.347  10.563  1.00  0.00     0.074 A 
ATOM     36  C   UNL     1       8.322   2.643  11.209  1.00  0.00     0.031 C 
ATOM     37  C   UNL     1       8.836   0.220  11.053  1.00  0.00     0.037 A 
BRANCH  24  38
ATOM     38  C   UNL     1       7.935  -4.832   7.598  1.00  0.00     0.058 A 
ATOM     39  C   UNL     1       8.783  -5.356   6.609  1.00  0.00     0.135 A 
ATOM     40  C   UNL     1       7.324  -5.740   8.480  1.00  0.00     0.135 A 
ATOM     41  F   UNL     1       9.383  -4.538   5.730  1.00  0.00    -0.206 F 
ATOM     42  C   UNL     1       8.998  -6.726   6.485  1.00  0.00     0.059 A 
ATOM     43  C   UNL     1       7.545  -7.112   8.391  1.00  0.00     0.059 A 
ATOM     44  F   UNL     1       6.505  -5.295   9.446  1.00  0.00    -0.206 F 
ATOM     45  C   UNL     1       8.374  -7.596   7.381  1.00  0.00     0.060 A 
BRANCH  45  46
ATOM     46  S   UNL     1       8.666  -9.370   7.207  1.00  0.00     0.124 S 
ATOM     47  O   UNL     1       7.897  -9.675   6.005  1.00  0.00    -0.237 OA
ATOM     48  O   UNL     1      10.117  -9.435   7.064  1.00  0.00    -0.237 OA
ATOM     49  O   UNL     1       8.136  -9.926   8.448  1.00  0.00    -0.744 OA
ENDBRANCH  45  46
ENDBRANCH  24  38
BRANCH  25  50
ATOM     50  C   UNL     1       6.056   4.959   8.490  1.00  0.00     0.058 A 
ATOM     51  C   UNL     1       7.054   5.933   8.351  1.00  0.00     0.135 A 
ATOM     52  C   UNL     1       4.742   5.397   8.724  1.00  0.00     0.135 A 
ATOM     53  F   UNL     1       8.325   5.564   8.131  1.00  0.00    -0.206 F 
ATOM     54  C   UNL     1       6.765   7.290   8.447  1.00  0.00     0.059 A 
ATOM     55  C   UNL     1       4.423   6.749   8.794  1.00  0.00     0.059 A 
ATOM     56  F   UNL     1       3.746   4.505   8.844  1.00  0.00    -0.206 F 
ATOM     57  C   UNL     1       5.444   7.688   8.664  1.00  0.00     0.060 A 
BRANCH  57  58
ATOM     58  S   UNL     1       5.069   9.453   8.726  1.00  0.00     0.124 S 
ATOM     59  O   UNL     1       5.599   9.819  10.034  1.00  0.00    -0.237 OA
ATOM     60  O   UNL     1       5.802   9.964   7.573  1.00  0.00    -0.237 OA
ATOM     61  O   UNL     1       3.615   9.491   8.600  1.00  0.00    -0.744 OA
ENDBRANCH  57  58
ENDBRANCH  25  50
BRANCH  37  62
ATOM     62  C   UNL     1       9.601   0.347  12.340  1.00  0.00     0.058 A 
ATOM     63  C   UNL     1       8.949   0.520  13.571  1.00  0.00     0.135 A 
ATOM     64  C   UNL     1      11.002   0.258  12.345  1.00  0.00     0.135 A 
ATOM     65  F   UNL     1       7.611   0.621  13.619  1.00  0.00    -0.206 F 
ATOM     66  C   UNL     1       9.661   0.624  14.761  1.00  0.00     0.059 A 
ATOM     67  C   UNL     1      11.733   0.332  13.526  1.00  0.00     0.059 A 
ATOM     68  F   UNL     1      11.673   0.086  11.195  1.00  0.00    -0.206 F 
ATOM     69  C   UNL     1      11.054   0.528  14.728  1.00  0.00     0.060 A 
BRANCH  69  70
ATOM     70  S   UNL     1      11.966   0.635  16.282  1.00  0.00     0.124 S 
ATOM     71  O   UNL     1      11.877   2.061  16.577  1.00  0.00    -0.237 OA
ATOM     72  O   UNL     1      11.195  -0.243  17.158  1.00  0.00    -0.237 OA
ATOM     73  O   UNL     1      13.296   0.147  15.930  1.00  0.00    -0.744 OA
ENDBRANCH  69  70
ENDBRANCH  37  62
ENDBRANCH  11  12
ENDBRANCH   4   6
ENDBRANCH   1   2
BRANCH   1  74
ATOM     74  C   UNL     1       4.398  -1.130  -1.915  1.00  0.00     0.042 C 
BRANCH  74  75
ATOM     75  C   UNL     1       3.903  -1.373  -3.338  1.00  0.00     0.117 C 
BRANCH  75  76
ATOM     76  N   UNL     1       4.485  -0.459  -4.303  1.00  0.00    -0.356 N 
ATOM     77  C   UNL     1       5.436  -0.518  -5.257  1.00  0.00     0.228 C 
ATOM     78  H   UNL     1       4.081   0.437  -4.247  1.00  0.00     0.163 HD
ATOM     79  O   UNL     1       5.562   0.537  -5.901  1.00  0.00    -0.275 OA
BRANCH  77  80
ATOM     80  C   UNL     1       6.257  -1.743  -5.681  1.00  0.00     0.133 C 
ATOM     81  C   UNL     1       6.305  -3.047  -4.893  1.00  0.00     0.025 C 
ATOM     82  C   UNL     1       7.711  -1.285  -5.931  1.00  0.00     0.276 C 
ATOM     83  C   UNL     1       7.144  -2.943  -3.629  1.00  0.00     0.062 C 
ATOM     84  N   UNL     1       8.431  -1.082  -4.667  1.00  0.00    -0.330 N 
ATOM     85  C   UNL     1       8.510  -2.309  -3.867  1.00  0.00     0.262 C 
ATOM     86  H   UNL     1       7.867  -0.426  -4.127  1.00  0.00     0.348 HD
BRANCH  84  87
ATOM     87  C   UNL     1       9.737  -0.407  -4.834  1.00  0.00     0.300 C 
BRANCH  87  88
ATOM     88  C   UNL     1      10.889  -1.320  -5.216  1.00  0.00     0.025 A 
ATOM     89  C   UNL     1      10.957  -1.812  -6.534  1.00  0.00     0.014 A 
ATOM     90  C   UNL     1      11.821  -1.799  -4.274  1.00  0.00     0.052 A 
ATOM     91  C   UNL     1      11.854  -2.823  -6.872  1.00  0.00     0.040 A 
ATOM     92  C   UNL     1      12.726  -2.804  -4.619  1.00  0.00     0.060 A 
ATOM     93  Cl  UNL     1      11.884  -1.213  -2.650  1.00  0.00    -0.084 Cl
ATOM     94  C   UNL     1      12.717  -3.321  -5.906  1.00  0.00     0.124 A 
ATOM     95  F   UNL     1      13.550  -4.320  -6.223  1.00  0.00    -0.207 F 
ENDBRANCH  87  88
ENDBRANCH  84  87
ENDBRANCH  77  80
ENDBRANCH  75  76
ENDBRANCH  74  75
ENDBRANCH   1  74
TORSDOF 15
