REMARK SMILES O=C(C[C@H](C(=O)Nc1ccc([N+](=O)[O-])cc1)[C@H]1CCCO1)NCCCNC(=O)c1ccc(-c2c3nc(c(-c4c(F)cc(S(=O)(=O)[O-])cc4F)c4ccc([nH]4)c(-c4c(F)cc(S(=O)(=O)[O-])cc4F)c4nc(c(-c5c(F)cc(S(=O)(=O)[O-])cc5F)c5ccc2[nH]5)C=C4)C=C3)cc1
REMARK SMILES IDX 23 1 22 2 1 3 2 4 3 6 4 7 5 8 6 9 7 10 8 12 9 13 16 14 10 15
REMARK SMILES IDX 15 16 11 17 12 18 13 19 14 20 17 21 18 22 21 23 19 24 20 25
REMARK SMILES IDX 24 26 25 27 26 28 27 29 28 31 29 32 30 33 94 34 31 35 93 36
REMARK SMILES IDX 32 37 33 38 34 39 87 40 35 41 92 42 86 43 88 44 36 45 91 46
REMARK SMILES IDX 85 47 84 48 37 50 71 51 50 52 70 53 51 54 54 55 69 56 89 57
REMARK SMILES IDX 52 58 53 59 68 61 90 62 55 63 38 64 39 65 48 66 40 67 41 68
REMARK SMILES IDX 47 69 49 70 42 71 43 72 44 73 45 74 46 75 72 76 73 77 82 78
REMARK SMILES IDX 74 79 75 80 81 81 83 82 76 83 77 84 78 85 79 86 80 87 56 88
REMARK SMILES IDX 57 89 66 90 58 91 59 92 65 93 67 94 60 95 61 96 62 97 63 98
REMARK SMILES IDX 64 99
REMARK H PARENT 22 5 7 11 26 30 88 49 54 60
REMARK Flexibility Score: inf
ROOT
ATOM      1  C   UNL     1       3.741   4.540   7.347  1.00  0.00     0.117 C 
ENDROOT
BRANCH   1   2
ATOM      2  N   UNL     1       4.029   4.238   5.957  1.00  0.00    -0.356 N 
ATOM      3  O   UNL     1       6.296   4.117   6.311  1.00  0.00    -0.275 OA
ATOM      4  C   UNL     1       5.330   3.997   5.562  1.00  0.00     0.220 C 
ATOM      5  H   UNL     1       3.299   4.206   5.298  1.00  0.00     0.163 HD
BRANCH   4   6
ATOM      6  C   UNL     1       5.510   3.636   4.106  1.00  0.00     0.116 C 
BRANCH   6   7
ATOM      7  C   UNL     1       4.947   2.275   3.648  1.00  0.00     0.117 C 
BRANCH   7   8
ATOM      8  C   UNL     1       5.865   1.101   4.080  1.00  0.00     0.230 C 
ATOM      9  O   UNL     1       6.385   0.323   3.276  1.00  0.00    -0.274 OA
ATOM     10  N   UNL     1       6.206   0.927   5.388  1.00  0.00    -0.326 N 
ATOM     11  H   UNL     1       7.150   0.686   5.530  1.00  0.00     0.169 HD
BRANCH  10  12
ATOM     12  C   UNL     1       5.458   1.029   6.564  1.00  0.00     0.041 A 
ATOM     13  C   UNL     1       6.157   1.363   7.731  1.00  0.00     0.033 A 
ATOM     14  C   UNL     1       4.094   0.731   6.627  1.00  0.00     0.033 A 
ATOM     15  C   UNL     1       5.480   1.533   8.938  1.00  0.00     0.088 A 
ATOM     16  C   UNL     1       3.423   0.808   7.855  1.00  0.00     0.088 A 
ATOM     17  C   UNL     1       4.109   1.268   8.988  1.00  0.00     0.269 A 
BRANCH  17  18
ATOM     18  N   UNL     1       3.367   1.603  10.203  1.00  0.00     0.062 N 
ATOM     19  O   UNL     1       3.781   2.562  10.871  1.00  0.00    -0.258 OA
ATOM     20  O   UNL     1       2.373   0.922  10.473  1.00  0.00    -0.258 OA
ENDBRANCH  17  18
ENDBRANCH  10  12
ENDBRANCH   7   8
BRANCH   7  21
ATOM     21  C   UNL     1       4.861   2.257   2.084  1.00  0.00     0.131 C 
ATOM     22  C   UNL     1       4.018   3.360   1.430  1.00  0.00     0.035 C 
ATOM     23  O   UNL     1       6.186   2.410   1.523  1.00  0.00    -0.377 OA
ATOM     24  C   UNL     1       5.035   4.300   0.810  1.00  0.00     0.031 C 
ATOM     25  C   UNL     1       6.161   3.363   0.465  1.00  0.00     0.160 C 
ENDBRANCH   7  21
ENDBRANCH   6   7
ENDBRANCH   4   6
ENDBRANCH   1   2
BRANCH   1  26
ATOM     26  C   UNL     1       2.377   5.141   7.647  1.00  0.00     0.042 C 
BRANCH  26  27
ATOM     27  C   UNL     1       1.161   4.443   7.052  1.00  0.00     0.118 C 
BRANCH  27  28
ATOM     28  N   UNL     1       0.833   3.145   7.620  1.00  0.00    -0.352 N 
ATOM     29  C   UNL     1      -0.247   2.713   8.367  1.00  0.00     0.251 C 
ATOM     30  H   UNL     1       1.502   2.446   7.439  1.00  0.00     0.163 HD
ATOM     31  O   UNL     1      -0.312   1.540   8.704  1.00  0.00    -0.269 OA
BRANCH  29  32
ATOM     32  C   UNL     1      -1.311   3.661   8.768  1.00  0.00     0.039 A 
ATOM     33  C   UNL     1      -1.780   3.665  10.086  1.00  0.00     0.014 A 
ATOM     34  C   UNL     1      -1.839   4.558   7.844  1.00  0.00     0.014 A 
ATOM     35  C   UNL     1      -2.688   4.648  10.496  1.00  0.00     0.010 A 
ATOM     36  C   UNL     1      -2.639   5.606   8.278  1.00  0.00     0.010 A 
ATOM     37  C   UNL     1      -3.075   5.665   9.610  1.00  0.00    -0.014 A 
BRANCH  37  38
ATOM     38  C   UNL     1      -3.935   6.808  10.020  1.00  0.00     0.031 A 
ATOM     39  C   UNL     1      -5.231   7.058   9.293  1.00  0.00     0.074 A 
ATOM     40  C   UNL     1      -3.492   7.683  10.945  1.00  0.00     0.049 A 
ATOM     41  N   UNL     1      -6.033   8.089   9.358  1.00  0.00    -0.248 NA
ATOM     42  C   UNL     1      -5.658   6.030   8.328  1.00  0.00     0.031 C 
ATOM     43  C   UNL     1      -2.227   7.578  11.677  1.00  0.00     0.029 A 
ATOM     44  N   UNL     1      -4.044   8.851  11.412  1.00  0.00    -0.354 N 
ATOM     45  C   UNL     1      -7.035   7.848   8.424  1.00  0.00     0.074 A 
ATOM     46  C   UNL     1      -6.707   6.606   7.762  1.00  0.00     0.031 C 
ATOM     47  C   UNL     1      -2.110   8.623  12.511  1.00  0.00     0.029 A 
ATOM     48  C   UNL     1      -3.263   9.500  12.341  1.00  0.00     0.049 A 
ATOM     49  H   UNL     1      -4.917   9.192  11.110  1.00  0.00     0.167 HD
ATOM     50  C   UNL     1      -8.142   8.583   8.162  1.00  0.00     0.037 A 
ATOM     51  C   UNL     1      -3.448  10.677  12.971  1.00  0.00     0.037 A 
ATOM     52  C   UNL     1      -8.475   9.797   8.859  1.00  0.00     0.049 A 
ATOM     53  C   UNL     1      -4.692  11.470  12.673  1.00  0.00     0.074 A 
ATOM     54  C   UNL     1      -9.603  10.586   8.723  1.00  0.00     0.029 A 
ATOM     55  N   UNL     1      -7.682  10.396   9.827  1.00  0.00    -0.354 N 
ATOM     56  N   UNL     1      -5.660  11.199  11.828  1.00  0.00    -0.248 NA
ATOM     57  C   UNL     1      -4.875  12.725  13.414  1.00  0.00     0.031 C 
ATOM     58  C   UNL     1      -9.470  11.687   9.574  1.00  0.00     0.029 A 
ATOM     59  C   UNL     1      -8.286  11.555  10.284  1.00  0.00     0.049 A 
ATOM     60  H   UNL     1      -6.817  10.048  10.143  1.00  0.00     0.167 HD
ATOM     61  C   UNL     1      -6.580  12.233  11.959  1.00  0.00     0.074 A 
ATOM     62  C   UNL     1      -6.059  13.128  12.972  1.00  0.00     0.031 C 
ATOM     63  C   UNL     1      -7.751  12.425  11.302  1.00  0.00     0.037 A 
BRANCH  50  64
ATOM     64  C   UNL     1      -9.074   8.088   7.087  1.00  0.00     0.058 A 
ATOM     65  C   UNL     1      -9.827   6.912   7.242  1.00  0.00     0.135 A 
ATOM     66  C   UNL     1      -9.237   8.812   5.893  1.00  0.00     0.135 A 
ATOM     67  F   UNL     1      -9.700   6.170   8.354  1.00  0.00    -0.206 F 
ATOM     68  C   UNL     1     -10.678   6.453   6.243  1.00  0.00     0.059 A 
ATOM     69  C   UNL     1     -10.109   8.389   4.894  1.00  0.00     0.059 A 
ATOM     70  F   UNL     1      -8.543   9.942   5.687  1.00  0.00    -0.206 F 
ATOM     71  C   UNL     1     -10.813   7.199   5.071  1.00  0.00     0.060 A 
BRANCH  71  72
ATOM     72  S   UNL     1     -11.925   6.589   3.787  1.00  0.00     0.124 S 
ATOM     73  O   UNL     1     -11.178   5.444   3.276  1.00  0.00    -0.237 OA
ATOM     74  O   UNL     1     -13.131   6.272   4.544  1.00  0.00    -0.237 OA
ATOM     75  O   UNL     1     -12.041   7.720   2.872  1.00  0.00    -0.744 OA
ENDBRANCH  71  72
ENDBRANCH  50  64
BRANCH  51  76
ATOM     76  C   UNL     1      -2.446  11.161  13.961  1.00  0.00     0.058 A 
ATOM     77  C   UNL     1      -2.749  11.203  15.330  1.00  0.00     0.135 A 
ATOM     78  C   UNL     1      -1.164  11.575  13.566  1.00  0.00     0.135 A 
ATOM     79  F   UNL     1      -3.963  10.824  15.760  1.00  0.00    -0.206 F 
ATOM     80  C   UNL     1      -1.827  11.653  16.270  1.00  0.00     0.059 A 
ATOM     81  C   UNL     1      -0.215  12.003  14.490  1.00  0.00     0.059 A 
ATOM     82  F   UNL     1      -0.815  11.540  12.270  1.00  0.00    -0.206 F 
ATOM     83  C   UNL     1      -0.560  12.049  15.840  1.00  0.00     0.060 A 
BRANCH  83  84
ATOM     84  S   UNL     1       0.643  12.590  17.075  1.00  0.00     0.124 S 
ATOM     85  O   UNL     1       0.097  13.883  17.469  1.00  0.00    -0.237 OA
ATOM     86  O   UNL     1       0.555  11.528  18.073  1.00  0.00    -0.237 OA
ATOM     87  O   UNL     1       1.895  12.635  16.326  1.00  0.00    -0.744 OA
ENDBRANCH  83  84
ENDBRANCH  51  76
BRANCH  63  88
ATOM     88  C   UNL     1      -8.570  13.627  11.685  1.00  0.00     0.058 A 
ATOM     89  C   UNL     1      -8.186  14.928  11.328  1.00  0.00     0.135 A 
ATOM     90  C   UNL     1      -9.790  13.464  12.363  1.00  0.00     0.135 A 
ATOM     91  F   UNL     1      -7.026  15.138  10.685  1.00  0.00    -0.206 F 
ATOM     92  C   UNL     1      -8.971  16.030  11.649  1.00  0.00     0.059 A 
ATOM     93  C   UNL     1     -10.606  14.548  12.666  1.00  0.00     0.059 A 
ATOM     94  F   UNL     1     -10.209  12.239  12.716  1.00  0.00    -0.206 F 
ATOM     95  C   UNL     1     -10.183  15.829  12.314  1.00  0.00     0.060 A 
BRANCH  95  96
ATOM     96  S   UNL     1     -11.212  17.264  12.686  1.00  0.00     0.124 S 
ATOM     97  O   UNL     1     -10.459  17.894  13.765  1.00  0.00    -0.237 OA
ATOM     98  O   UNL     1     -11.218  17.980  11.414  1.00  0.00    -0.237 OA
ATOM     99  O   UNL     1     -12.491  16.674  13.073  1.00  0.00    -0.744 OA
ENDBRANCH  95  96
ENDBRANCH  63  88
ENDBRANCH  37  38
ENDBRANCH  29  32
ENDBRANCH  27  28
ENDBRANCH  26  27
ENDBRANCH   1  26
TORSDOF 18
