REMARK SMILES CN(C(=O)C[C@@H]1SC(=O)N(c2ccccc2)C1=O)c1ccccc1C(=O)NCCCNC(=O)c1ccc(-c2c3nc(c(-c4c(F)cc(S(=O)(=O)[O-])cc4F)c4ccc([nH]4)c(-c4c(F)cc(S(=O)(=O)[O-])cc4F)c4nc(c(-c5c(F)cc(S(=O)(=O)[O-])cc5F)c5ccc2[nH]5)C=C4)C=C3)cc1
REMARK SMILES IDX 28 1 27 2 25 3 26 4 24 6 19 7 20 8 21 9 23 10 22 11 2 12
REMARK SMILES IDX 1 13 3 14 4 15 5 16 6 17 7 18 17 19 8 20 10 21 18 22 9 23
REMARK SMILES IDX 11 24 12 25 16 26 13 27 15 28 14 29 29 30 30 31 31 32 32 33
REMARK SMILES IDX 33 35 34 36 35 37 99 38 36 39 98 40 37 41 38 42 39 43 92 44
REMARK SMILES IDX 40 45 97 46 91 47 93 48 41 49 96 50 90 51 89 52 42 54 76 55
REMARK SMILES IDX 55 56 75 57 56 58 59 59 74 60 94 61 57 62 58 63 73 65 95 66
REMARK SMILES IDX 60 67 43 68 44 69 53 70 45 71 46 72 52 73 54 74 47 75 48 76
REMARK SMILES IDX 49 77 50 78 51 79 77 80 78 81 87 82 79 83 80 84 86 85 88 86
REMARK SMILES IDX 81 87 82 88 83 89 84 90 85 91 61 92 62 93 71 94 63 95 64 96
REMARK SMILES IDX 70 97 72 98 65 99 66 100 67 101 68 102 69 103
REMARK H PARENT 27 5 31 34 93 53 59 64
REMARK Flexibility Score: inf
ROOT
ATOM      1  C   UNL     1       2.828   0.466  -0.202  1.00  0.00     0.118 C 
ENDROOT
BRANCH   1   2
ATOM      2  N   UNL     1       3.491  -0.764   0.110  1.00  0.00    -0.352 N 
ATOM      3  C   UNL     1       3.252  -1.967   0.680  1.00  0.00     0.253 C 
ATOM      4  O   UNL     1       4.292  -2.649   0.637  1.00  0.00    -0.269 OA
ATOM      5  H   UNL     1       4.428  -0.719  -0.186  1.00  0.00     0.163 HD
BRANCH   3   6
ATOM      6  C   UNL     1       2.013  -2.598   1.285  1.00  0.00     0.063 A 
ATOM      7  C   UNL     1       0.664  -2.202   1.506  1.00  0.00     0.056 A 
ATOM      8  C   UNL     1      -0.231  -3.177   2.038  1.00  0.00     0.027 A 
ATOM      9  C   UNL     1       0.159  -4.446   2.461  1.00  0.00     0.002 A 
ATOM     10  C   UNL     1       2.360  -3.915   1.743  1.00  0.00     0.016 A 
ATOM     11  C   UNL     1       1.473  -4.813   2.330  1.00  0.00     0.001 A 
BRANCH   7  12
ATOM     12  N   UNL     1       0.062  -0.900   1.252  1.00  0.00    -0.315 N 
ATOM     13  C   UNL     1      -0.355  -0.710  -0.137  1.00  0.00     0.153 C 
BRANCH  12  14
ATOM     14  C   UNL     1      -0.801  -0.332   2.241  1.00  0.00     0.228 C 
ATOM     15  O   UNL     1      -1.271  -0.950   3.201  1.00  0.00    -0.274 OA
BRANCH  14  16
ATOM     16  C   UNL     1      -1.040   1.181   2.211  1.00  0.00     0.125 C 
BRANCH  16  17
ATOM     17  C   UNL     1       0.199   1.928   2.677  1.00  0.00     0.156 C 
ATOM     18  S   UNL     1       1.173   1.087   3.967  1.00  0.00    -0.050 SA
ATOM     19  C   UNL     1       0.108   3.356   3.229  1.00  0.00     0.248 C 
ATOM     20  C   UNL     1       2.059   2.550   4.280  1.00  0.00     0.293 C 
ATOM     21  N   UNL     1       1.303   3.640   3.909  1.00  0.00    -0.240 N 
ATOM     22  O   UNL     1      -0.803   4.122   2.945  1.00  0.00    -0.273 OA
ATOM     23  O   UNL     1       3.189   2.495   4.742  1.00  0.00    -0.261 OA
BRANCH  21  24
ATOM     24  C   UNL     1       1.754   4.947   4.249  1.00  0.00     0.053 A 
ATOM     25  C   UNL     1       0.891   5.903   4.779  1.00  0.00     0.027 A 
ATOM     26  C   UNL     1       3.122   5.271   4.139  1.00  0.00     0.027 A 
ATOM     27  C   UNL     1       1.406   7.117   5.250  1.00  0.00     0.002 A 
ATOM     28  C   UNL     1       3.617   6.511   4.546  1.00  0.00     0.002 A 
ATOM     29  C   UNL     1       2.754   7.437   5.110  1.00  0.00     0.000 A 
ENDBRANCH  21  24
ENDBRANCH  16  17
ENDBRANCH  14  16
ENDBRANCH  12  14
ENDBRANCH   7  12
ENDBRANCH   3   6
ENDBRANCH   1   2
BRANCH   1  30
ATOM     30  C   UNL     1       3.258   1.558   0.752  1.00  0.00     0.042 C 
BRANCH  30  31
ATOM     31  C   UNL     1       3.050   2.985   0.249  1.00  0.00     0.118 C 
BRANCH  31  32
ATOM     32  N   UNL     1       1.956   3.178  -0.690  1.00  0.00    -0.352 N 
ATOM     33  C   UNL     1       1.163   4.264  -0.983  1.00  0.00     0.251 C 
ATOM     34  H   UNL     1       1.740   2.375  -1.217  1.00  0.00     0.163 HD
ATOM     35  O   UNL     1       0.359   4.125  -1.907  1.00  0.00    -0.269 OA
BRANCH  33  36
ATOM     36  C   UNL     1       1.202   5.548  -0.230  1.00  0.00     0.039 A 
ATOM     37  C   UNL     1       0.067   6.372  -0.261  1.00  0.00     0.014 A 
ATOM     38  C   UNL     1       2.309   5.990   0.481  1.00  0.00     0.014 A 
ATOM     39  C   UNL     1       0.021   7.573   0.469  1.00  0.00     0.010 A 
ATOM     40  C   UNL     1       2.217   7.122   1.294  1.00  0.00     0.010 A 
ATOM     41  C   UNL     1       1.076   7.939   1.313  1.00  0.00    -0.014 A 
BRANCH  41  42
ATOM     42  C   UNL     1       1.038   9.127   2.233  1.00  0.00     0.031 A 
ATOM     43  C   UNL     1       2.231  10.063   2.312  1.00  0.00     0.074 A 
ATOM     44  C   UNL     1       0.041   9.269   3.137  1.00  0.00     0.049 A 
ATOM     45  N   UNL     1       2.535  10.958   3.222  1.00  0.00    -0.248 NA
ATOM     46  C   UNL     1       3.247   9.937   1.252  1.00  0.00     0.031 C 
ATOM     47  C   UNL     1      -1.127   8.392   3.276  1.00  0.00     0.029 A 
ATOM     48  N   UNL     1      -0.085  10.142   4.200  1.00  0.00    -0.354 N 
ATOM     49  C   UNL     1       3.767  11.487   2.843  1.00  0.00     0.074 A 
ATOM     50  C   UNL     1       4.212  10.727   1.698  1.00  0.00     0.031 C 
ATOM     51  C   UNL     1      -1.792   8.707   4.399  1.00  0.00     0.029 A 
ATOM     52  C   UNL     1      -1.092   9.793   5.076  1.00  0.00     0.049 A 
ATOM     53  H   UNL     1       0.487  10.934   4.320  1.00  0.00     0.167 HD
ATOM     54  C   UNL     1       4.439  12.551   3.350  1.00  0.00     0.037 A 
ATOM     55  C   UNL     1      -1.384  10.234   6.316  1.00  0.00     0.037 A 
ATOM     56  C   UNL     1       3.966  13.350   4.451  1.00  0.00     0.049 A 
ATOM     57  C   UNL     1      -0.609  11.378   6.905  1.00  0.00     0.074 A 
ATOM     58  C   UNL     1       4.474  14.546   4.929  1.00  0.00     0.029 A 
ATOM     59  N   UNL     1       2.878  13.033   5.248  1.00  0.00    -0.354 N 
ATOM     60  N   UNL     1       0.471  11.962   6.449  1.00  0.00    -0.248 NA
ATOM     61  C   UNL     1      -1.127  11.958   8.152  1.00  0.00     0.031 C 
ATOM     62  C   UNL     1       3.725  14.925   6.048  1.00  0.00     0.029 A 
ATOM     63  C   UNL     1       2.715  13.996   6.231  1.00  0.00     0.049 A 
ATOM     64  H   UNL     1       2.306  12.240   5.134  1.00  0.00     0.167 HD
ATOM     65  C   UNL     1       0.712  13.031   7.308  1.00  0.00     0.074 A 
ATOM     66  C   UNL     1      -0.314  12.990   8.327  1.00  0.00     0.031 C 
ATOM     67  C   UNL     1       1.678  13.978   7.231  1.00  0.00     0.037 A 
BRANCH  54  68
ATOM     68  C   UNL     1       5.720  12.976   2.672  1.00  0.00     0.058 A 
ATOM     69  C   UNL     1       5.720  13.469   1.355  1.00  0.00     0.135 A 
ATOM     70  C   UNL     1       6.945  12.970   3.360  1.00  0.00     0.135 A 
ATOM     71  F   UNL     1       4.581  13.503   0.644  1.00  0.00    -0.206 F 
ATOM     72  C   UNL     1       6.887  13.898   0.734  1.00  0.00     0.059 A 
ATOM     73  C   UNL     1       8.120  13.432   2.771  1.00  0.00     0.059 A 
ATOM     74  F   UNL     1       7.008  12.523   4.624  1.00  0.00    -0.206 F 
ATOM     75  C   UNL     1       8.083  13.880   1.451  1.00  0.00     0.060 A 
BRANCH  75  76
ATOM     76  S   UNL     1       9.579  14.467   0.630  1.00  0.00     0.124 S 
ATOM     77  O   UNL     1       9.826  13.393  -0.327  1.00  0.00    -0.237 OA
ATOM     78  O   UNL     1       9.142  15.737   0.058  1.00  0.00    -0.237 OA
ATOM     79  O   UNL     1      10.546  14.572   1.718  1.00  0.00    -0.744 OA
ENDBRANCH  75  76
ENDBRANCH  54  68
BRANCH  55  80
ATOM     80  C   UNL     1      -2.486   9.604   7.091  1.00  0.00     0.058 A 
ATOM     81  C   UNL     1      -3.725  10.246   7.221  1.00  0.00     0.135 A 
ATOM     82  C   UNL     1      -2.321   8.362   7.726  1.00  0.00     0.135 A 
ATOM     83  F   UNL     1      -3.922  11.440   6.642  1.00  0.00    -0.206 F 
ATOM     84  C   UNL     1      -4.756   9.695   7.971  1.00  0.00     0.059 A 
ATOM     85  C   UNL     1      -3.346   7.779   8.467  1.00  0.00     0.059 A 
ATOM     86  F   UNL     1      -1.158   7.702   7.619  1.00  0.00    -0.206 F 
ATOM     87  C   UNL     1      -4.559   8.459   8.590  1.00  0.00     0.060 A 
BRANCH  87  88
ATOM     88  S   UNL     1      -5.928   7.746   9.528  1.00  0.00     0.124 S 
ATOM     89  O   UNL     1      -6.023   8.665  10.656  1.00  0.00    -0.237 OA
ATOM     90  O   UNL     1      -7.019   7.808   8.561  1.00  0.00    -0.237 OA
ATOM     91  O   UNL     1      -5.455   6.402   9.847  1.00  0.00    -0.744 OA
ENDBRANCH  87  88
ENDBRANCH  55  80
BRANCH  67  92
ATOM     92  C   UNL     1       1.621  15.119   8.210  1.00  0.00     0.058 A 
ATOM     93  C   UNL     1       1.924  14.959   9.570  1.00  0.00     0.135 A 
ATOM     94  C   UNL     1       1.290  16.409   7.761  1.00  0.00     0.135 A 
ATOM     95  F   UNL     1       2.236  13.747  10.056  1.00  0.00    -0.206 F 
ATOM     96  C   UNL     1       1.876  16.032  10.456  1.00  0.00     0.059 A 
ATOM     97  C   UNL     1       1.268  17.502   8.621  1.00  0.00     0.059 A 
ATOM     98  F   UNL     1       0.997  16.621   6.468  1.00  0.00    -0.206 F 
ATOM     99  C   UNL     1       1.550  17.300   9.971  1.00  0.00     0.060 A 
BRANCH  99 100
ATOM    100  S   UNL     1       1.524  18.690  11.123  1.00  0.00     0.124 S 
ATOM    101  O   UNL     1       0.317  18.411  11.893  1.00  0.00    -0.237 OA
ATOM    102  O   UNL     1       2.786  18.523  11.839  1.00  0.00    -0.237 OA
ATOM    103  O   UNL     1       1.456  19.857  10.249  1.00  0.00    -0.744 OA
ENDBRANCH  99 100
ENDBRANCH  67  92
ENDBRANCH  41  42
ENDBRANCH  33  36
ENDBRANCH  31  32
ENDBRANCH  30  31
ENDBRANCH   1  30
TORSDOF 18
