REMARK SMILES O=C(CCCCC(=O)c1ccc(-c2ccccc2)cc1)NCCCNC(=O)c1ccc(-c2c3nc(c(-c4c(F)cc(S(=O)(=O)[O-])cc4F)c4ccc([nH]4)c(-c4c(F)cc(S(=O)(=O)[O-])cc4F)c4nc(c(-c5c(F)cc(S(=O)(=O)[O-])cc5F)c5ccc2[nH]5)C=C4)C=C3)cc1
REMARK SMILES IDX 1 1 2 2 21 3 3 5 4 6 5 7 6 8 7 9 8 10 9 11 10 12 20 13 11 14
REMARK SMILES IDX 19 15 12 16 13 17 14 18 18 19 15 20 17 21 16 22 22 23 23 24
REMARK SMILES IDX 24 25 25 26 26 27 27 29 28 30 29 31 93 32 30 33 92 34 31 35
REMARK SMILES IDX 32 36 33 37 86 38 34 39 91 40 85 41 87 42 35 43 90 44 84 45
REMARK SMILES IDX 83 46 36 48 70 49 49 50 69 51 50 52 53 53 68 54 88 55 51 56
REMARK SMILES IDX 52 57 67 59 89 60 54 61 37 62 38 63 47 64 39 65 40 66 46 67
REMARK SMILES IDX 48 68 41 69 42 70 43 71 44 72 45 73 71 74 72 75 81 76 73 77
REMARK SMILES IDX 74 78 80 79 82 80 75 81 76 82 77 83 78 84 79 85 55 86 56 87
REMARK SMILES IDX 65 88 57 89 58 90 64 91 66 92 59 93 60 94 61 95 62 96 63 97
REMARK H PARENT 21 4 25 28 87 47 53 58
REMARK Flexibility Score: inf
ROOT
ATOM      1  O   UNL     1       0.513   0.065   0.171  1.00  0.00    -0.275 OA
ATOM      2  C   UNL     1       1.738   0.114   0.224  1.00  0.00     0.219 C 
ATOM      3  N   UNL     1       2.444   0.888   1.109  1.00  0.00    -0.356 N 
ATOM      4  H   UNL     1       3.422   0.782   1.147  1.00  0.00     0.163 HD
ENDROOT
BRANCH   2   5
ATOM      5  C   UNL     1       2.620  -0.671  -0.719  1.00  0.00     0.100 C 
BRANCH   5   6
ATOM      6  C   UNL     1       3.420   0.257  -1.635  1.00  0.00     0.010 C 
BRANCH   6   7
ATOM      7  C   UNL     1       4.824   0.706  -1.178  1.00  0.00     0.009 C 
BRANCH   7   8
ATOM      8  C   UNL     1       5.765  -0.317  -0.532  1.00  0.00     0.081 C 
BRANCH   8   9
ATOM      9  C   UNL     1       6.634  -1.168  -1.451  1.00  0.00     0.162 C 
ATOM     10  O   UNL     1       7.852  -1.249  -1.322  1.00  0.00    -0.294 OA
BRANCH   9  11
ATOM     11  C   UNL     1       5.971  -2.049  -2.425  1.00  0.00     0.018 A 
ATOM     12  C   UNL     1       5.910  -3.419  -2.183  1.00  0.00     0.012 A 
ATOM     13  C   UNL     1       5.373  -1.507  -3.555  1.00  0.00     0.012 A 
ATOM     14  C   UNL     1       5.141  -4.230  -3.025  1.00  0.00     0.009 A 
ATOM     15  C   UNL     1       4.562  -2.312  -4.354  1.00  0.00     0.009 A 
ATOM     16  C   UNL     1       4.406  -3.687  -4.097  1.00  0.00    -0.018 A 
BRANCH  16  17
ATOM     17  C   UNL     1       3.477  -4.508  -4.908  1.00  0.00    -0.018 A 
ATOM     18  C   UNL     1       2.739  -5.562  -4.338  1.00  0.00     0.009 A 
ATOM     19  C   UNL     1       3.261  -4.238  -6.272  1.00  0.00     0.009 A 
ATOM     20  C   UNL     1       1.832  -6.310  -5.096  1.00  0.00     0.001 A 
ATOM     21  C   UNL     1       2.345  -4.973  -7.028  1.00  0.00     0.001 A 
ATOM     22  C   UNL     1       1.632  -6.012  -6.440  1.00  0.00     0.000 A 
ENDBRANCH  16  17
ENDBRANCH   9  11
ENDBRANCH   8   9
ENDBRANCH   7   8
ENDBRANCH   6   7
ENDBRANCH   5   6
ENDBRANCH   2   5
BRANCH   3  23
ATOM     23  C   UNL     1       1.822   1.852   1.989  1.00  0.00     0.117 C 
BRANCH  23  24
ATOM     24  C   UNL     1       2.236   1.648   3.438  1.00  0.00     0.042 C 
BRANCH  24  25
ATOM     25  C   UNL     1       3.740   1.718   3.683  1.00  0.00     0.118 C 
BRANCH  25  26
ATOM     26  N   UNL     1       4.315   3.019   3.376  1.00  0.00    -0.352 N 
ATOM     27  C   UNL     1       5.075   3.849   4.166  1.00  0.00     0.251 C 
ATOM     28  H   UNL     1       4.133   3.355   2.468  1.00  0.00     0.163 HD
ATOM     29  O   UNL     1       5.335   4.982   3.772  1.00  0.00    -0.269 OA
BRANCH  27  30
ATOM     30  C   UNL     1       5.550   3.394   5.493  1.00  0.00     0.039 A 
ATOM     31  C   UNL     1       5.474   4.279   6.570  1.00  0.00     0.014 A 
ATOM     32  C   UNL     1       6.073   2.112   5.681  1.00  0.00     0.014 A 
ATOM     33  C   UNL     1       5.865   3.857   7.843  1.00  0.00     0.010 A 
ATOM     34  C   UNL     1       6.379   1.665   6.965  1.00  0.00     0.010 A 
ATOM     35  C   UNL     1       6.286   2.534   8.061  1.00  0.00    -0.014 A 
BRANCH  35  36
ATOM     36  C   UNL     1       6.624   2.060   9.431  1.00  0.00     0.031 A 
ATOM     37  C   UNL     1       8.018   1.591   9.759  1.00  0.00     0.074 A 
ATOM     38  C   UNL     1       5.663   2.024  10.376  1.00  0.00     0.049 A 
ATOM     39  N   UNL     1       8.496   1.160  10.899  1.00  0.00    -0.248 NA
ATOM     40  C   UNL     1       8.997   1.581   8.660  1.00  0.00     0.031 C 
ATOM     41  C   UNL     1       4.260   2.390  10.169  1.00  0.00     0.029 A 
ATOM     42  N   UNL     1       5.717   1.666  11.700  1.00  0.00    -0.354 N 
ATOM     43  C   UNL     1       9.823   0.825  10.655  1.00  0.00     0.074 A 
ATOM     44  C   UNL     1      10.057   1.042   9.244  1.00  0.00     0.031 C 
ATOM     45  C   UNL     1       3.598   2.277  11.331  1.00  0.00     0.029 A 
ATOM     46  C   UNL     1       4.515   1.795  12.358  1.00  0.00     0.049 A 
ATOM     47  H   UNL     1       6.539   1.347  12.139  1.00  0.00     0.167 HD
ATOM     48  C   UNL     1      10.768   0.404  11.529  1.00  0.00     0.037 A 
ATOM     49  C   UNL     1       4.188   1.554  13.643  1.00  0.00     0.037 A 
ATOM     50  C   UNL     1      10.534   0.206  12.937  1.00  0.00     0.049 A 
ATOM     51  C   UNL     1       5.257   1.092  14.596  1.00  0.00     0.074 A 
ATOM     52  C   UNL     1      11.439  -0.166  13.916  1.00  0.00     0.029 A 
ATOM     53  N   UNL     1       9.306   0.356  13.567  1.00  0.00    -0.354 N 
ATOM     54  N   UNL     1       6.526   0.854  14.362  1.00  0.00    -0.248 NA
ATOM     55  C   UNL     1       4.852   0.877  15.992  1.00  0.00     0.031 C 
ATOM     56  C   UNL     1      10.749  -0.291  15.127  1.00  0.00     0.029 A 
ATOM     57  C   UNL     1       9.426   0.063  14.916  1.00  0.00     0.049 A 
ATOM     58  H   UNL     1       8.473   0.632  13.121  1.00  0.00     0.167 HD
ATOM     59  C   UNL     1       7.077   0.489  15.586  1.00  0.00     0.074 A 
ATOM     60  C   UNL     1       6.006   0.557  16.560  1.00  0.00     0.031 C 
ATOM     61  C   UNL     1       8.353   0.133  15.877  1.00  0.00     0.037 A 
BRANCH  48  62
ATOM     62  C   UNL     1      12.149   0.133  10.991  1.00  0.00     0.058 A 
ATOM     63  C   UNL     1      12.980   1.169  10.533  1.00  0.00     0.135 A 
ATOM     64  C   UNL     1      12.666  -1.173  10.970  1.00  0.00     0.135 A 
ATOM     65  F   UNL     1      12.535   2.436  10.516  1.00  0.00    -0.206 F 
ATOM     66  C   UNL     1      14.259   0.918  10.048  1.00  0.00     0.059 A 
ATOM     67  C   UNL     1      13.955  -1.444  10.519  1.00  0.00     0.059 A 
ATOM     68  F   UNL     1      11.918  -2.203  11.396  1.00  0.00    -0.206 F 
ATOM     69  C   UNL     1      14.739  -0.393  10.046  1.00  0.00     0.060 A 
BRANCH  69  70
ATOM     70  S   UNL     1      16.405  -0.698   9.423  1.00  0.00     0.124 S 
ATOM     71  O   UNL     1      16.225  -0.484   7.991  1.00  0.00    -0.237 OA
ATOM     72  O   UNL     1      17.190   0.315  10.121  1.00  0.00    -0.237 OA
ATOM     73  O   UNL     1      16.671  -2.077   9.822  1.00  0.00    -0.744 OA
ENDBRANCH  69  70
ENDBRANCH  48  62
BRANCH  49  74
ATOM     74  C   UNL     1       2.792   1.777  14.110  1.00  0.00     0.058 A 
ATOM     75  C   UNL     1       2.481   2.821  14.993  1.00  0.00     0.135 A 
ATOM     76  C   UNL     1       1.740   0.955  13.676  1.00  0.00     0.135 A 
ATOM     77  F   UNL     1       3.452   3.632  15.442  1.00  0.00    -0.206 F 
ATOM     78  C   UNL     1       1.183   3.030  15.448  1.00  0.00     0.059 A 
ATOM     79  C   UNL     1       0.429   1.162  14.093  1.00  0.00     0.059 A 
ATOM     80  F   UNL     1       1.980  -0.048  12.816  1.00  0.00    -0.206 F 
ATOM     81  C   UNL     1       0.162   2.196  14.989  1.00  0.00     0.060 A 
BRANCH  81  82
ATOM     82  S   UNL     1      -1.526   2.504  15.550  1.00  0.00     0.124 S 
ATOM     83  O   UNL     1      -1.460   2.060  16.938  1.00  0.00    -0.237 OA
ATOM     84  O   UNL     1      -1.659   3.943  15.345  1.00  0.00    -0.237 OA
ATOM     85  O   UNL     1      -2.332   1.674  14.659  1.00  0.00    -0.744 OA
ENDBRANCH  81  82
ENDBRANCH  49  74
BRANCH  61  86
ATOM     86  C   UNL     1       8.671  -0.178  17.316  1.00  0.00     0.058 A 
ATOM     87  C   UNL     1       8.182  -1.330  17.952  1.00  0.00     0.135 A 
ATOM     88  C   UNL     1       9.496   0.680  18.061  1.00  0.00     0.135 A 
ATOM     89  F   UNL     1       7.386  -2.184  17.288  1.00  0.00    -0.206 F 
ATOM     90  C   UNL     1       8.466  -1.599  19.288  1.00  0.00     0.059 A 
ATOM     91  C   UNL     1       9.821   0.413  19.388  1.00  0.00     0.059 A 
ATOM     92  F   UNL     1      10.003   1.789  17.500  1.00  0.00    -0.206 F 
ATOM     93  C   UNL     1       9.285  -0.720  19.998  1.00  0.00     0.060 A 
BRANCH  93  94
ATOM     94  S   UNL     1       9.649  -1.082  21.728  1.00  0.00     0.124 S 
ATOM     95  O   UNL     1       8.377  -0.764  22.369  1.00  0.00    -0.237 OA
ATOM     96  O   UNL     1      10.001  -2.498  21.684  1.00  0.00    -0.237 OA
ATOM     97  O   UNL     1      10.752  -0.178  22.041  1.00  0.00    -0.744 OA
ENDBRANCH  93  94
ENDBRANCH  61  86
ENDBRANCH  35  36
ENDBRANCH  27  30
ENDBRANCH  25  26
ENDBRANCH  24  25
ENDBRANCH  23  24
ENDBRANCH   3  23
TORSDOF 19
