REMARK SMILES CN1C(=O)[C@H](CC(=O)NCCCNC(=O)c2ccc(-c3c4nc(c(-c5c(F)cc(S(=O)(=O)[O-])cc5F)c5ccc([nH]5)c(-c5c(F)cc(S(=O)(=O)[O-])cc5F)c5nc(c(-c6c(F)cc(S(=O)(=O)[O-])cc6F)c6ccc3[nH]6)C=C5)C=C4)cc2)S/C1=[NH+]\N=C\c1ccc(O)cc1O
REMARK SMILES IDX 10 1 9 2 7 3 8 4 6 6 5 7 1 8 2 9 3 10 83 11 4 12 82 13 84 14
REMARK SMILES IDX 85 16 86 17 87 18 88 19 93 20 89 21 92 22 90 23 94 24 91 26
REMARK SMILES IDX 11 28 12 29 13 30 14 31 15 33 16 34 17 35 81 36 18 37 80 38
REMARK SMILES IDX 19 39 20 40 21 41 74 42 22 43 79 44 73 45 75 46 23 47 78 48
REMARK SMILES IDX 72 49 71 50 24 52 58 53 37 54 57 55 38 56 41 57 56 58 76 59
REMARK SMILES IDX 39 60 40 61 55 63 77 64 42 65 25 66 26 67 35 68 27 69 28 70
REMARK SMILES IDX 34 71 36 72 29 73 30 74 31 75 32 76 33 77 59 78 60 79 69 80
REMARK SMILES IDX 61 81 62 82 68 83 70 84 63 85 64 86 65 87 66 88 67 89 43 90
REMARK SMILES IDX 44 91 53 92 45 93 46 94 52 95 54 96 47 97 48 98 49 99 50 100
REMARK SMILES IDX 51 101
REMARK H PARENT 9 5 84 15 94 25 91 27 13 32 75 51 41 62
REMARK Flexibility Score: inf
ROOT
ATOM      1  C   UNL     1      -3.723   0.815   4.959  1.00  0.00     0.117 C 
ENDROOT
BRANCH   1   2
ATOM      2  N   UNL     1      -3.709   1.459   3.655  1.00  0.00    -0.356 N 
ATOM      3  C   UNL     1      -3.127   1.065   2.491  1.00  0.00     0.221 C 
ATOM      4  O   UNL     1      -3.208   1.795   1.502  1.00  0.00    -0.275 OA
ATOM      5  H   UNL     1      -4.198   2.313   3.608  1.00  0.00     0.163 HD
BRANCH   3   6
ATOM      6  C   UNL     1      -2.418  -0.263   2.413  1.00  0.00     0.127 C 
BRANCH   6   7
ATOM      7  C   UNL     1      -0.969  -0.311   2.908  1.00  0.00     0.183 C 
ATOM      8  C   UNL     1       1.319   0.406   0.014  1.00  0.00     0.301 C 
ATOM      9  N   UNL     1       0.591   0.451   1.259  1.00  0.00    -0.191 N 
ATOM     10  C   UNL     1      -0.083  -0.655   1.728  1.00  0.00     0.324 C 
ATOM     11  C   UNL     1       0.608   1.553   2.070  1.00  0.00     0.339 C 
ATOM     12  O   UNL     1      -0.041  -1.779   1.238  1.00  0.00    -0.245 OA
ATOM     13  S   UNL     1      -0.234   1.208   3.560  1.00  0.00    -0.020 SA
ATOM     14  N   UNL     1       1.187   2.674   1.764  1.00  0.00    -0.142 N 
ATOM     15  H   UNL     1       1.631   2.838   0.901  1.00  0.00     0.343 HD
BRANCH  14  16
ATOM     16  N   UNL     1       1.114   3.619   2.786  1.00  0.00    -0.093 NA
ATOM     17  C   UNL     1       1.370   4.826   2.394  1.00  0.00     0.170 C 
BRANCH  17  18
ATOM     18  C   UNL     1       1.330   5.947   3.358  1.00  0.00     0.039 A 
ATOM     19  C   UNL     1       1.484   7.248   2.865  1.00  0.00     0.017 A 
ATOM     20  C   UNL     1       1.144   5.744   4.735  1.00  0.00     0.128 A 
ATOM     21  C   UNL     1       1.456   8.330   3.749  1.00  0.00     0.047 A 
ATOM     22  C   UNL     1       1.138   6.823   5.618  1.00  0.00     0.093 A 
ATOM     23  C   UNL     1       1.295   8.109   5.115  1.00  0.00     0.119 A 
BRANCH  20  24
ATOM     24  O   UNL     1       0.955   4.508   5.293  1.00  0.00    -0.507 OA
ATOM     25  H   UNL     1       0.949   3.744   4.749  1.00  0.00     0.293 HD
ENDBRANCH  20  24
BRANCH  23  26
ATOM     26  O   UNL     1       1.294   9.200   5.932  1.00  0.00    -0.508 OA
ATOM     27  H   UNL     1       1.401  10.057   5.569  1.00  0.00     0.293 HD
ENDBRANCH  23  26
ENDBRANCH  17  18
ENDBRANCH  14  16
ENDBRANCH   6   7
ENDBRANCH   3   6
ENDBRANCH   1   2
BRANCH   1  28
ATOM     28  C   UNL     1      -2.926   1.580   6.012  1.00  0.00     0.042 C 
BRANCH  28  29
ATOM     29  C   UNL     1      -3.373   3.021   6.216  1.00  0.00     0.118 C 
BRANCH  29  30
ATOM     30  N   UNL     1      -4.650   3.097   6.912  1.00  0.00    -0.352 N 
ATOM     31  C   UNL     1      -4.913   3.507   8.196  1.00  0.00     0.251 C 
ATOM     32  H   UNL     1      -5.435   2.815   6.388  1.00  0.00     0.163 HD
ATOM     33  O   UNL     1      -6.009   3.263   8.700  1.00  0.00    -0.269 OA
BRANCH  31  34
ATOM     34  C   UNL     1      -3.877   4.218   8.977  1.00  0.00     0.039 A 
ATOM     35  C   UNL     1      -3.651   3.846  10.305  1.00  0.00     0.014 A 
ATOM     36  C   UNL     1      -3.129   5.250   8.402  1.00  0.00     0.014 A 
ATOM     37  C   UNL     1      -2.623   4.455  11.030  1.00  0.00     0.010 A 
ATOM     38  C   UNL     1      -2.059   5.803   9.101  1.00  0.00     0.010 A 
ATOM     39  C   UNL     1      -1.789   5.407  10.419  1.00  0.00    -0.014 A 
BRANCH  39  40
ATOM     40  C   UNL     1      -0.615   5.979  11.128  1.00  0.00     0.031 A 
ATOM     41  C   UNL     1      -0.549   7.452  11.424  1.00  0.00     0.074 A 
ATOM     42  C   UNL     1       0.427   5.181  11.438  1.00  0.00     0.049 A 
ATOM     43  N   UNL     1       0.432   8.148  11.937  1.00  0.00    -0.248 NA
ATOM     44  C   UNL     1      -1.733   8.252  11.073  1.00  0.00     0.031 C 
ATOM     45  C   UNL     1       0.497   3.743  11.174  1.00  0.00     0.029 A 
ATOM     46  N   UNL     1       1.633   5.467  12.029  1.00  0.00    -0.354 N 
ATOM     47  C   UNL     1      -0.012   9.464  11.971  1.00  0.00     0.074 A 
ATOM     48  C   UNL     1      -1.329   9.478  11.371  1.00  0.00     0.031 C 
ATOM     49  C   UNL     1       1.673   3.270  11.617  1.00  0.00     0.029 A 
ATOM     50  C   UNL     1       2.462   4.376  12.150  1.00  0.00     0.049 A 
ATOM     51  H   UNL     1       1.881   6.369  12.338  1.00  0.00     0.167 HD
ATOM     52  C   UNL     1       0.612  10.556  12.475  1.00  0.00     0.037 A 
ATOM     53  C   UNL     1       3.722   4.278  12.617  1.00  0.00     0.037 A 
ATOM     54  C   UNL     1       1.919  10.530  13.082  1.00  0.00     0.049 A 
ATOM     55  C   UNL     1       4.417   5.515  13.120  1.00  0.00     0.074 A 
ATOM     56  C   UNL     1       2.616  11.574  13.665  1.00  0.00     0.029 A 
ATOM     57  N   UNL     1       2.730   9.408  13.176  1.00  0.00    -0.354 N 
ATOM     58  N   UNL     1       3.959   6.742  13.198  1.00  0.00    -0.248 NA
ATOM     59  C   UNL     1       5.799   5.357  13.592  1.00  0.00     0.031 C 
ATOM     60  C   UNL     1       3.870  11.097  14.059  1.00  0.00     0.029 A 
ATOM     61  C   UNL     1       3.935   9.743  13.773  1.00  0.00     0.049 A 
ATOM     62  H   UNL     1       2.485   8.507  12.865  1.00  0.00     0.167 HD
ATOM     63  C   UNL     1       4.990   7.498  13.746  1.00  0.00     0.074 A 
ATOM     64  C   UNL     1       6.089   6.588  13.994  1.00  0.00     0.031 C 
ATOM     65  C   UNL     1       5.022   8.826  14.016  1.00  0.00     0.037 A 
BRANCH  52  66
ATOM     66  C   UNL     1      -0.110  11.874  12.388  1.00  0.00     0.058 A 
ATOM     67  C   UNL     1      -1.258  12.139  13.152  1.00  0.00     0.135 A 
ATOM     68  C   UNL     1       0.368  12.897  11.552  1.00  0.00     0.135 A 
ATOM     69  F   UNL     1      -1.766  11.195  13.959  1.00  0.00    -0.206 F 
ATOM     70  C   UNL     1      -1.926  13.356  13.063  1.00  0.00     0.059 A 
ATOM     71  C   UNL     1      -0.267  14.133  11.471  1.00  0.00     0.059 A 
ATOM     72  F   UNL     1       1.463  12.699  10.800  1.00  0.00    -0.206 F 
ATOM     73  C   UNL     1      -1.424  14.346  12.218  1.00  0.00     0.060 A 
BRANCH  73  74
ATOM     74  S   UNL     1      -2.310  15.915  12.109  1.00  0.00     0.124 S 
ATOM     75  O   UNL     1      -3.505  15.523  11.367  1.00  0.00    -0.237 OA
ATOM     76  O   UNL     1      -2.520  16.253  13.513  1.00  0.00    -0.237 OA
ATOM     77  O   UNL     1      -1.382  16.782  11.390  1.00  0.00    -0.744 OA
ENDBRANCH  73  74
ENDBRANCH  52  66
BRANCH  53  78
ATOM     78  C   UNL     1       4.407   2.957  12.634  1.00  0.00     0.058 A 
ATOM     79  C   UNL     1       4.686   2.306  13.845  1.00  0.00     0.135 A 
ATOM     80  C   UNL     1       4.780   2.310  11.445  1.00  0.00     0.135 A 
ATOM     81  F   UNL     1       4.358   2.888  15.009  1.00  0.00    -0.206 F 
ATOM     82  C   UNL     1       5.317   1.067  13.879  1.00  0.00     0.059 A 
ATOM     83  C   UNL     1       5.388   1.058  11.452  1.00  0.00     0.059 A 
ATOM     84  F   UNL     1       4.527   2.885  10.259  1.00  0.00    -0.206 F 
ATOM     85  C   UNL     1       5.659   0.448  12.675  1.00  0.00     0.060 A 
BRANCH  85  86
ATOM     86  S   UNL     1       6.426  -1.186  12.732  1.00  0.00     0.124 S 
ATOM     87  O   UNL     1       7.756  -0.869  13.239  1.00  0.00    -0.237 OA
ATOM     88  O   UNL     1       5.547  -1.904  13.649  1.00  0.00    -0.237 OA
ATOM     89  O   UNL     1       6.370  -1.632  11.343  1.00  0.00    -0.744 OA
ENDBRANCH  85  86
ENDBRANCH  53  78
BRANCH  65  90
ATOM     90  C   UNL     1       6.280   9.384  14.625  1.00  0.00     0.058 A 
ATOM     91  C   UNL     1       7.452   9.545  13.871  1.00  0.00     0.135 A 
ATOM     92  C   UNL     1       6.289   9.835  15.955  1.00  0.00     0.135 A 
ATOM     93  F   UNL     1       7.501   9.120  12.598  1.00  0.00    -0.206 F 
ATOM     94  C   UNL     1       8.592  10.127  14.415  1.00  0.00     0.059 A 
ATOM     95  C   UNL     1       7.409  10.446  16.512  1.00  0.00     0.059 A 
ATOM     96  F   UNL     1       5.192   9.710  16.719  1.00  0.00    -0.206 F 
ATOM     97  C   UNL     1       8.557  10.584  15.735  1.00  0.00     0.060 A 
BRANCH  97  98
ATOM     98  S   UNL     1      10.023  11.398  16.405  1.00  0.00     0.124 S 
ATOM     99  O   UNL     1      10.944  10.276  16.549  1.00  0.00    -0.237 OA
ATOM    100  O   UNL     1      10.352  12.357  15.355  1.00  0.00    -0.237 OA
ATOM    101  O   UNL     1       9.547  11.984  17.654  1.00  0.00    -0.744 OA
ENDBRANCH  97  98
ENDBRANCH  65  90
ENDBRANCH  39  40
ENDBRANCH  31  34
ENDBRANCH  29  30
ENDBRANCH  28  29
ENDBRANCH   1  28
TORSDOF 18
