REMARK SMILES NS(=O)(=O)c1ccc(-n2nc(NC(=O)NCCCCCCCCCCC(=O)NCCCNC(=O)c3ccc(-c4c5nc(c(-c6c(F)cc(S(=O)(=O)[O-])cc6F)c6ccc([nH]6)c(-c6c(F)cc(S(=O)(=O)[O-])cc6F)c6nc(c(-c7c(F)cc(S(=O)(=O)[O-])cc7F)c7ccc4[nH]7)C=C6)C=C5)cc3)cc2-c2ccccc2)cc1
REMARK SMILES IDX 22 1 21 2 20 3 19 4 18 5 17 6 16 7 15 8 12 9 13 10 14 12
REMARK SMILES IDX 11 14 9 15 10 16 102 17 101 18 8 19 5 20 6 21 110 22 7 23
REMARK SMILES IDX 109 24 2 25 3 26 4 27 1 28 103 31 104 32 108 33 105 34
REMARK SMILES IDX 107 35 106 36 23 37 24 38 25 39 26 40 27 41 28 42 29 44
REMARK SMILES IDX 30 45 31 46 32 47 33 48 34 50 35 51 36 52 100 53 37 54 99 55
REMARK SMILES IDX 38 56 39 57 40 58 93 59 41 60 98 61 92 62 94 63 42 64 97 65
REMARK SMILES IDX 91 66 90 67 43 69 77 70 56 71 76 72 57 73 60 74 75 75 95 76
REMARK SMILES IDX 58 77 59 78 74 80 96 81 61 82 44 83 45 84 54 85 46 86 47 87
REMARK SMILES IDX 53 88 55 89 48 90 49 91 50 92 51 93 52 94 78 95 79 96 88 97
REMARK SMILES IDX 80 98 81 99 87 100 89 101 82 102 83 103 84 104 85 105 86 106
REMARK SMILES IDX 62 107 63 108 72 109 64 110 65 111 71 112 73 113 66 114
REMARK SMILES IDX 67 115 68 116 69 117 70 118
REMARK H PARENT 12 11 15 13 1 29 1 30 28 43 32 49 94 68 60 79
REMARK Flexibility Score: inf
ROOT
ATOM      1  C   UNL     1      -1.987  -1.206   6.303  1.00  0.00     0.000 C 
ENDROOT
BRANCH   1   2
ATOM      2  C   UNL     1      -1.159  -2.221   5.550  1.00  0.00     0.000 C 
BRANCH   2   3
ATOM      3  C   UNL     1      -0.010  -2.795   6.372  1.00  0.00     0.000 C 
BRANCH   3   4
ATOM      4  C   UNL     1      -0.370  -3.503   7.683  1.00  0.00     0.000 C 
BRANCH   4   5
ATOM      5  C   UNL     1      -1.384  -4.651   7.595  1.00  0.00     0.002 C 
BRANCH   5   6
ATOM      6  C   UNL     1      -1.177  -5.666   6.473  1.00  0.00     0.021 C 
BRANCH   6   7
ATOM      7  C   UNL     1       0.245  -6.157   6.259  1.00  0.00     0.117 C 
BRANCH   7   8
ATOM      8  N   UNL     1       0.738  -7.141   7.185  1.00  0.00    -0.338 N 
ATOM      9  N   UNL     1       2.341  -8.255   5.813  1.00  0.00    -0.291 N 
ATOM     10  C   UNL     1       1.679  -8.091   6.983  1.00  0.00     0.320 C 
ATOM     11  H   UNL     1       2.723  -9.155   5.699  1.00  0.00     0.173 HD
ATOM     12  O   UNL     1       1.856  -8.927   7.875  1.00  0.00    -0.248 OA
ATOM     13  H   UNL     1       0.337  -7.121   8.084  1.00  0.00     0.165 HD
BRANCH   9  14
ATOM     14  C   UNL     1       2.587  -7.413   4.748  1.00  0.00     0.157 A 
ATOM     15  N   UNL     1       2.521  -5.706   3.491  1.00  0.00    -0.231 N 
ATOM     16  N   UNL     1       2.593  -6.078   4.786  1.00  0.00    -0.149 NA
ATOM     17  C   UNL     1       2.930  -6.734   2.651  1.00  0.00     0.076 A 
ATOM     18  C   UNL     1       2.925  -7.863   3.449  1.00  0.00     0.078 A 
BRANCH  15  19
ATOM     19  C   UNL     1       2.007  -4.431   3.124  1.00  0.00     0.065 A 
ATOM     20  C   UNL     1       1.052  -1.929   2.356  1.00  0.00     0.082 A 
ATOM     21  C   UNL     1       0.673  -3.059   1.631  1.00  0.00     0.024 A 
ATOM     22  C   UNL     1       1.878  -2.043   3.480  1.00  0.00     0.024 A 
ATOM     23  C   UNL     1       1.160  -4.310   2.009  1.00  0.00     0.030 A 
ATOM     24  C   UNL     1       2.342  -3.302   3.877  1.00  0.00     0.030 A 
BRANCH  20  25
ATOM     25  S   UNL     1       0.448  -0.342   1.863  1.00  0.00     0.238 S 
ATOM     26  O   UNL     1       1.032   0.677   2.685  1.00  0.00    -0.207 OA
ATOM     27  O   UNL     1      -0.982  -0.448   1.630  1.00  0.00    -0.207 OA
BRANCH  25  28
ATOM     28  N   UNL     1       1.149  -0.156   0.344  1.00  0.00    -0.225 NA
ATOM     29  H   UNL     1       0.869   0.741  -0.052  1.00  0.00     0.137 HD
ATOM     30  H   UNL     1       0.839  -0.910  -0.268  1.00  0.00     0.137 HD
ENDBRANCH  25  28
ENDBRANCH  20  25
ENDBRANCH  15  19
BRANCH  17  31
ATOM     31  C   UNL     1       3.281  -6.524   1.250  1.00  0.00     0.000 A 
ATOM     32  C   UNL     1       4.165  -5.484   0.916  1.00  0.00     0.010 A 
ATOM     33  C   UNL     1       2.685  -7.268   0.230  1.00  0.00     0.010 A 
ATOM     34  C   UNL     1       4.407  -5.156  -0.415  1.00  0.00     0.001 A 
ATOM     35  C   UNL     1       2.935  -6.942  -1.105  1.00  0.00     0.001 A 
ATOM     36  C   UNL     1       3.785  -5.882  -1.426  1.00  0.00     0.000 A 
ENDBRANCH  17  31
ENDBRANCH   9  14
ENDBRANCH   7   8
ENDBRANCH   6   7
ENDBRANCH   5   6
ENDBRANCH   4   5
ENDBRANCH   3   4
ENDBRANCH   2   3
ENDBRANCH   1   2
BRANCH   1  37
ATOM     37  C   UNL     1      -1.230   0.090   6.613  1.00  0.00     0.001 C 
BRANCH  37  38
ATOM     38  C   UNL     1      -1.728   1.298   5.832  1.00  0.00     0.010 C 
BRANCH  38  39
ATOM     39  C   UNL     1      -3.219   1.608   5.981  1.00  0.00     0.100 C 
BRANCH  39  40
ATOM     40  C   UNL     1      -3.596   2.245   7.304  1.00  0.00     0.219 C 
ATOM     41  O   UNL     1      -3.619   3.472   7.412  1.00  0.00    -0.275 OA
ATOM     42  N   UNL     1      -3.936   1.505   8.398  1.00  0.00    -0.356 N 
ATOM     43  H   UNL     1      -4.081   2.038   9.213  1.00  0.00     0.163 HD
BRANCH  42  44
ATOM     44  C   UNL     1      -4.123   0.071   8.585  1.00  0.00     0.117 C 
BRANCH  44  45
ATOM     45  C   UNL     1      -3.050  -0.579   9.478  1.00  0.00     0.042 C 
BRANCH  45  46
ATOM     46  C   UNL     1      -3.313  -0.448  10.958  1.00  0.00     0.118 C 
BRANCH  46  47
ATOM     47  N   UNL     1      -4.263  -1.441  11.470  1.00  0.00    -0.352 N 
ATOM     48  C   UNL     1      -4.668  -1.594  12.789  1.00  0.00     0.251 C 
ATOM     49  H   UNL     1      -4.653  -2.061  10.812  1.00  0.00     0.163 HD
ATOM     50  O   UNL     1      -5.135  -2.651  13.192  1.00  0.00    -0.269 OA
BRANCH  48  51
ATOM     51  C   UNL     1      -4.505  -0.436  13.687  1.00  0.00     0.039 A 
ATOM     52  C   UNL     1      -4.019  -0.546  14.991  1.00  0.00     0.014 A 
ATOM     53  C   UNL     1      -4.739   0.807  13.118  1.00  0.00     0.014 A 
ATOM     54  C   UNL     1      -3.685   0.624  15.673  1.00  0.00     0.010 A 
ATOM     55  C   UNL     1      -4.146   1.902  13.668  1.00  0.00     0.010 A 
ATOM     56  C   UNL     1      -3.726   1.848  14.988  1.00  0.00    -0.014 A 
BRANCH  56  57
ATOM     57  C   UNL     1      -3.272   3.099  15.581  1.00  0.00     0.031 A 
ATOM     58  C   UNL     1      -1.908   3.047  16.168  1.00  0.00     0.074 A 
ATOM     59  C   UNL     1      -3.943   4.261  15.399  1.00  0.00     0.049 A 
ATOM     60  N   UNL     1      -1.597   3.081  17.420  1.00  0.00    -0.248 NA
ATOM     61  C   UNL     1      -0.769   2.747  15.284  1.00  0.00     0.031 C 
ATOM     62  C   UNL     1      -5.145   4.511  14.588  1.00  0.00     0.029 A 
ATOM     63  N   UNL     1      -3.615   5.512  15.811  1.00  0.00    -0.354 N 
ATOM     64  C   UNL     1      -0.207   3.078  17.466  1.00  0.00     0.074 A 
ATOM     65  C   UNL     1       0.230   2.641  16.166  1.00  0.00     0.031 C 
ATOM     66  C   UNL     1      -5.278   5.835  14.360  1.00  0.00     0.029 A 
ATOM     67  C   UNL     1      -4.293   6.538  15.155  1.00  0.00     0.049 A 
ATOM     68  H   UNL     1      -2.951   5.682  16.518  1.00  0.00     0.167 HD
ATOM     69  C   UNL     1       0.461   3.695  18.481  1.00  0.00     0.037 A 
ATOM     70  C   UNL     1      -4.036   7.868  15.245  1.00  0.00     0.037 A 
ATOM     71  C   UNL     1      -0.434   4.004  19.572  1.00  0.00     0.049 A 
ATOM     72  C   UNL     1      -3.292   8.062  16.521  1.00  0.00     0.074 A 
ATOM     73  C   UNL     1      -1.281   3.256  20.369  1.00  0.00     0.029 A 
ATOM     74  N   UNL     1      -0.859   5.307  19.698  1.00  0.00    -0.354 N 
ATOM     75  N   UNL     1      -3.815   7.845  17.699  1.00  0.00    -0.248 NA
ATOM     76  C   UNL     1      -1.838   8.004  16.467  1.00  0.00     0.031 C 
ATOM     77  C   UNL     1      -2.451   4.058  20.515  1.00  0.00     0.029 A 
ATOM     78  C   UNL     1      -2.219   5.281  19.883  1.00  0.00     0.049 A 
ATOM     79  H   UNL     1      -0.291   6.111  19.663  1.00  0.00     0.167 HD
ATOM     80  C   UNL     1      -2.817   7.201  18.419  1.00  0.00     0.074 A 
ATOM     81  C   UNL     1      -1.598   7.398  17.635  1.00  0.00     0.031 C 
ATOM     82  C   UNL     1      -3.118   6.316  19.417  1.00  0.00     0.037 A 
BRANCH  69  83
ATOM     83  C   UNL     1       1.812   4.362  18.347  1.00  0.00     0.058 A 
ATOM     84  C   UNL     1       2.458   4.835  19.508  1.00  0.00     0.135 A 
ATOM     85  C   UNL     1       2.362   4.805  17.124  1.00  0.00     0.135 A 
ATOM     86  F   UNL     1       2.022   4.479  20.727  1.00  0.00    -0.206 F 
ATOM     87  C   UNL     1       3.514   5.746  19.459  1.00  0.00     0.059 A 
ATOM     88  C   UNL     1       3.449   5.669  17.052  1.00  0.00     0.059 A 
ATOM     89  F   UNL     1       1.818   4.507  15.939  1.00  0.00    -0.206 F 
ATOM     90  C   UNL     1       3.991   6.169  18.223  1.00  0.00     0.060 A 
BRANCH  90  91
ATOM     91  S   UNL     1       5.281   7.422  18.156  1.00  0.00     0.124 S 
ATOM     92  O   UNL     1       4.569   8.598  18.642  1.00  0.00    -0.237 OA
ATOM     93  O   UNL     1       6.287   6.865  19.055  1.00  0.00    -0.237 OA
ATOM     94  O   UNL     1       5.654   7.444  16.745  1.00  0.00    -0.744 OA
ENDBRANCH  90  91
ENDBRANCH  69  83
BRANCH  70  95
ATOM     95  C   UNL     1      -4.053   8.875  14.145  1.00  0.00     0.058 A 
ATOM     96  C   UNL     1      -3.849  10.242  14.414  1.00  0.00     0.135 A 
ATOM     97  C   UNL     1      -3.978   8.501  12.786  1.00  0.00     0.135 A 
ATOM     98  F   UNL     1      -3.899  10.694  15.676  1.00  0.00    -0.206 F 
ATOM     99  C   UNL     1      -3.511  11.162  13.413  1.00  0.00     0.059 A 
ATOM    100  C   UNL     1      -3.657   9.402  11.770  1.00  0.00     0.059 A 
ATOM    101  F   UNL     1      -4.122   7.223  12.406  1.00  0.00    -0.206 F 
ATOM    102  C   UNL     1      -3.389  10.725  12.095  1.00  0.00     0.060 A 
BRANCH 102 103
ATOM    103  S   UNL     1      -2.736  11.850  10.836  1.00  0.00     0.124 S 
ATOM    104  O   UNL     1      -3.850  12.773  10.649  1.00  0.00    -0.237 OA
ATOM    105  O   UNL     1      -1.557  12.400  11.495  1.00  0.00    -0.237 OA
ATOM    106  O   UNL     1      -2.458  10.968   9.705  1.00  0.00    -0.744 OA
ENDBRANCH 102 103
ENDBRANCH  70  95
BRANCH  82 107
ATOM    107  C   UNL     1      -4.539   6.248  19.925  1.00  0.00     0.058 A 
ATOM    108  C   UNL     1      -5.650   5.856  19.155  1.00  0.00     0.135 A 
ATOM    109  C   UNL     1      -4.752   6.424  21.301  1.00  0.00     0.135 A 
ATOM    110  F   UNL     1      -5.521   5.562  17.855  1.00  0.00    -0.206 F 
ATOM    111  C   UNL     1      -6.917   5.686  19.719  1.00  0.00     0.059 A 
ATOM    112  C   UNL     1      -5.998   6.229  21.890  1.00  0.00     0.059 A 
ATOM    113  F   UNL     1      -3.723   6.737  22.105  1.00  0.00    -0.206 F 
ATOM    114  C   UNL     1      -7.081   5.873  21.090  1.00  0.00     0.060 A 
BRANCH 114 115
ATOM    115  S   UNL     1      -8.703   5.588  21.833  1.00  0.00     0.124 S 
ATOM    116  O   UNL     1      -9.473   6.721  21.331  1.00  0.00    -0.237 OA
ATOM    117  O   UNL     1      -9.074   4.282  21.296  1.00  0.00    -0.237 OA
ATOM    118  O   UNL     1      -8.430   5.606  23.268  1.00  0.00    -0.744 OA
ENDBRANCH 114 115
ENDBRANCH  82 107
ENDBRANCH  56  57
ENDBRANCH  48  51
ENDBRANCH  46  47
ENDBRANCH  45  46
ENDBRANCH  44  45
ENDBRANCH  42  44
ENDBRANCH  39  40
ENDBRANCH  38  39
ENDBRANCH  37  38
ENDBRANCH   1  37
TORSDOF 28
