REMARK SMILES CN(C)S(=O)(=O)c1c[nH]c(C(=O)NCCCNC(=O)c2ccc(-c3c4nc(c(-c5c(F)cc(S(=O)(=O)[O-])cc5F)c5ccc([nH]5)c(-c5c(F)cc(S(=O)(=O)[O-])cc5F)c5nc(c(-c6c(F)cc(S(=O)(=O)[O-])cc6F)c6ccc3[nH]6)C=C5)C=C4)cc2)c1
REMARK SMILES IDX 15 1 14 2 13 3 11 4 12 5 10 7 7 8 8 9 86 10 9 11 4 13 5 14
REMARK SMILES IDX 6 15 2 16 1 17 3 18 16 19 17 20 18 21 19 23 20 24 21 25
REMARK SMILES IDX 85 26 22 27 84 28 23 29 24 30 25 31 78 32 26 33 83 34 77 35
REMARK SMILES IDX 79 36 27 37 82 38 76 39 75 40 28 42 62 43 41 44 61 45 42 46
REMARK SMILES IDX 45 47 60 48 80 49 43 50 44 51 59 53 81 54 46 55 29 56 30 57
REMARK SMILES IDX 39 58 31 59 32 60 38 61 40 62 33 63 34 64 35 65 36 66 37 67
REMARK SMILES IDX 63 68 64 69 73 70 65 71 66 72 72 73 74 74 67 75 68 76 69 77
REMARK SMILES IDX 70 78 71 79 47 80 48 81 57 82 49 83 50 84 56 85 58 86 51 87
REMARK SMILES IDX 52 88 53 89 54 90 55 91
REMARK H PARENT 13 6 9 12 17 22 79 41 45 52
REMARK Flexibility Score: inf
ROOT
ATOM      1  C   UNL     1      -3.454   3.619   4.952  1.00  0.00     0.042 C 
ENDROOT
BRANCH   1   2
ATOM      2  C   UNL     1      -3.532   4.271   3.569  1.00  0.00     0.118 C 
BRANCH   2   3
ATOM      3  N   UNL     1      -2.946   5.597   3.562  1.00  0.00    -0.351 N 
ATOM      4  C   UNL     1      -1.714   6.041   3.166  1.00  0.00     0.267 C 
ATOM      5  O   UNL     1      -1.536   7.258   3.135  1.00  0.00    -0.268 OA
ATOM      6  H   UNL     1      -3.541   6.304   3.902  1.00  0.00     0.163 HD
BRANCH   4   7
ATOM      7  C   UNL     1      -0.671   5.133   2.734  1.00  0.00     0.105 A 
ATOM      8  C   UNL     1       0.707   3.438   2.103  1.00  0.00     0.100 A 
ATOM      9  C   UNL     1       1.245   4.617   1.637  1.00  0.00     0.104 A 
ATOM     10  C   UNL     1      -0.455   3.771   2.850  1.00  0.00     0.055 A 
ATOM     11  N   UNL     1       0.438   5.634   2.069  1.00  0.00    -0.356 N 
ATOM     12  H   UNL     1       0.619   6.591   1.927  1.00  0.00     0.166 HD
BRANCH   8  13
ATOM     13  S   UNL     1       1.269   1.832   1.800  1.00  0.00     0.244 S 
ATOM     14  O   UNL     1       0.726   1.038   2.884  1.00  0.00    -0.207 OA
ATOM     15  O   UNL     1       2.692   1.959   1.585  1.00  0.00    -0.207 OA
BRANCH  13  16
ATOM     16  N   UNL     1       0.552   1.280   0.345  1.00  0.00    -0.204 NA
ATOM     17  C   UNL     1       1.056  -0.050  -0.061  1.00  0.00     0.124 C 
ATOM     18  C   UNL     1      -0.926   1.332   0.321  1.00  0.00     0.124 C 
ENDBRANCH  13  16
ENDBRANCH   8  13
ENDBRANCH   4   7
ENDBRANCH   2   3
ENDBRANCH   1   2
BRANCH   1  19
ATOM     19  C   UNL     1      -4.641   4.013   5.839  1.00  0.00     0.118 C 
BRANCH  19  20
ATOM     20  N   UNL     1      -5.864   3.381   5.358  1.00  0.00    -0.352 N 
ATOM     21  C   UNL     1      -7.163   3.450   5.788  1.00  0.00     0.251 C 
ATOM     22  H   UNL     1      -5.732   2.794   4.579  1.00  0.00     0.163 HD
ATOM     23  O   UNL     1      -7.948   2.598   5.369  1.00  0.00    -0.269 OA
BRANCH  21  24
ATOM     24  C   UNL     1      -7.645   4.465   6.752  1.00  0.00     0.039 A 
ATOM     25  C   UNL     1      -8.635   4.060   7.663  1.00  0.00     0.014 A 
ATOM     26  C   UNL     1      -7.219   5.796   6.741  1.00  0.00     0.014 A 
ATOM     27  C   UNL     1      -9.130   4.952   8.611  1.00  0.00     0.010 A 
ATOM     28  C   UNL     1      -7.702   6.691   7.699  1.00  0.00     0.010 A 
ATOM     29  C   UNL     1      -8.629   6.258   8.659  1.00  0.00    -0.014 A 
BRANCH  29  30
ATOM     30  C   UNL     1      -8.887   7.082   9.868  1.00  0.00     0.031 A 
ATOM     31  C   UNL     1      -7.928   6.708  11.029  1.00  0.00     0.074 A 
ATOM     32  C   UNL     1      -9.875   8.026   9.790  1.00  0.00     0.049 A 
ATOM     33  N   UNL     1      -8.015   6.934  12.306  1.00  0.00    -0.248 NA
ATOM     34  C   UNL     1      -6.709   5.901  10.725  1.00  0.00     0.031 C 
ATOM     35  C   UNL     1     -10.717   8.259   8.597  1.00  0.00     0.029 A 
ATOM     36  N   UNL     1     -10.372   8.978  10.662  1.00  0.00    -0.354 N 
ATOM     37  C   UNL     1      -6.792   6.529  12.896  1.00  0.00     0.074 A 
ATOM     38  C   UNL     1      -6.087   5.788  11.899  1.00  0.00     0.031 C 
ATOM     39  C   UNL     1     -11.642   9.215   8.837  1.00  0.00     0.029 A 
ATOM     40  C   UNL     1     -11.483   9.729  10.184  1.00  0.00     0.049 A 
ATOM     41  H   UNL     1      -9.983   9.127  11.554  1.00  0.00     0.167 HD
ATOM     42  C   UNL     1      -6.364   6.945  14.126  1.00  0.00     0.037 A 
ATOM     43  C   UNL     1     -12.235  10.678  10.831  1.00  0.00     0.037 A 
ATOM     44  C   UNL     1      -7.346   7.781  14.724  1.00  0.00     0.049 A 
ATOM     45  C   UNL     1     -11.518  10.948  12.087  1.00  0.00     0.074 A 
ATOM     46  C   UNL     1      -8.571   7.524  15.276  1.00  0.00     0.029 A 
ATOM     47  N   UNL     1      -7.222   9.132  14.505  1.00  0.00    -0.354 N 
ATOM     48  N   UNL     1     -10.401  11.605  12.175  1.00  0.00    -0.248 NA
ATOM     49  C   UNL     1     -12.056  10.399  13.338  1.00  0.00     0.031 C 
ATOM     50  C   UNL     1      -9.326   8.669  14.955  1.00  0.00     0.029 A 
ATOM     51  C   UNL     1      -8.492   9.635  14.379  1.00  0.00     0.049 A 
ATOM     52  H   UNL     1      -6.381   9.641  14.450  1.00  0.00     0.167 HD
ATOM     53  C   UNL     1      -9.951  11.254  13.423  1.00  0.00     0.074 A 
ATOM     54  C   UNL     1     -11.106  10.810  14.172  1.00  0.00     0.031 C 
ATOM     55  C   UNL     1      -8.674  10.822  13.572  1.00  0.00     0.037 A 
BRANCH  42  56
ATOM     56  C   UNL     1      -5.021   6.895  14.812  1.00  0.00     0.058 A 
ATOM     57  C   UNL     1      -4.990   7.076  16.219  1.00  0.00     0.135 A 
ATOM     58  C   UNL     1      -3.798   7.054  14.146  1.00  0.00     0.135 A 
ATOM     59  F   UNL     1      -6.093   6.876  16.962  1.00  0.00    -0.206 F 
ATOM     60  C   UNL     1      -3.868   7.546  16.892  1.00  0.00     0.059 A 
ATOM     61  C   UNL     1      -2.643   7.482  14.812  1.00  0.00     0.059 A 
ATOM     62  F   UNL     1      -3.707   6.883  12.820  1.00  0.00    -0.206 F 
ATOM     63  C   UNL     1      -2.708   7.788  16.170  1.00  0.00     0.060 A 
BRANCH  63  64
ATOM     64  S   UNL     1      -1.314   8.557  17.023  1.00  0.00     0.124 S 
ATOM     65  O   UNL     1      -1.771   9.937  17.151  1.00  0.00    -0.237 OA
ATOM     66  O   UNL     1      -1.252   7.796  18.268  1.00  0.00    -0.237 OA
ATOM     67  O   UNL     1      -0.199   8.337  16.109  1.00  0.00    -0.744 OA
ENDBRANCH  63  64
ENDBRANCH  42  56
BRANCH  43  68
ATOM     68  C   UNL     1     -13.558  11.413  10.660  1.00  0.00     0.058 A 
ATOM     69  C   UNL     1     -14.447  11.288   9.585  1.00  0.00     0.135 A 
ATOM     70  C   UNL     1     -14.073  12.195  11.739  1.00  0.00     0.135 A 
ATOM     71  F   UNL     1     -14.071  10.713   8.437  1.00  0.00    -0.206 F 
ATOM     72  C   UNL     1     -15.781  11.739   9.648  1.00  0.00     0.059 A 
ATOM     73  C   UNL     1     -15.401  12.601  11.851  1.00  0.00     0.059 A 
ATOM     74  F   UNL     1     -13.305  12.569  12.772  1.00  0.00    -0.206 F 
ATOM     75  C   UNL     1     -16.266  12.334  10.811  1.00  0.00     0.060 A 
BRANCH  75  76
ATOM     76  S   UNL     1     -18.034  12.629  11.042  1.00  0.00     0.124 S 
ATOM     77  O   UNL     1     -18.199  13.961  10.472  1.00  0.00    -0.237 OA
ATOM     78  O   UNL     1     -18.639  11.534  10.291  1.00  0.00    -0.237 OA
ATOM     79  O   UNL     1     -18.196  12.539  12.492  1.00  0.00    -0.744 OA
ENDBRANCH  75  76
ENDBRANCH  43  68
BRANCH  55  80
ATOM     80  C   UNL     1      -7.694  11.373  12.552  1.00  0.00     0.058 A 
ATOM     81  C   UNL     1      -7.411  12.747  12.517  1.00  0.00     0.135 A 
ATOM     82  C   UNL     1      -7.084  10.598  11.550  1.00  0.00     0.135 A 
ATOM     83  F   UNL     1      -7.953  13.564  13.434  1.00  0.00    -0.206 F 
ATOM     84  C   UNL     1      -6.568  13.313  11.554  1.00  0.00     0.059 A 
ATOM     85  C   UNL     1      -6.229  11.132  10.583  1.00  0.00     0.059 A 
ATOM     86  F   UNL     1      -7.312   9.288  11.478  1.00  0.00    -0.206 F 
ATOM     87  C   UNL     1      -5.976  12.497  10.591  1.00  0.00     0.060 A 
BRANCH  87  88
ATOM     88  S   UNL     1      -4.870  13.235   9.366  1.00  0.00     0.124 S 
ATOM     89  O   UNL     1      -5.740  14.200   8.701  1.00  0.00    -0.237 OA
ATOM     90  O   UNL     1      -3.821  13.805  10.206  1.00  0.00    -0.237 OA
ATOM     91  O   UNL     1      -4.461  12.101   8.541  1.00  0.00    -0.744 OA
ENDBRANCH  87  88
ENDBRANCH  55  80
ENDBRANCH  29  30
ENDBRANCH  21  24
ENDBRANCH  19  20
ENDBRANCH   1  19
TORSDOF 15
