REMARK SMILES O=C(NCCCNC(=O)c1ccc(-c2c3nc(c(-c4c(F)cc(S(=O)(=O)[O-])cc4F)c4ccc([nH]4)c(-c4c(F)cc(S(=O)(=O)[O-])cc4F)c4nc(c(-c5c(F)cc(S(=O)(=O)[O-])cc5F)c5ccc2[nH]5)C=C4)C=C3)cc1)c1ccc(C[C@H]2CCN(C(=O)Cc3cccc(O)c3)C2)cc1
REMARK SMILES IDX 1 1 2 2 3 3 76 5 77 6 97 7 78 8 96 9 79 10 80 11 81 12 82 13
REMARK SMILES IDX 95 14 83 15 84 16 85 17 86 18 87 19 88 20 89 21 94 22 90 23
REMARK SMILES IDX 92 24 91 25 93 26 4 28 5 29 6 30 7 31 8 32 9 34 10 35 11 36
REMARK SMILES IDX 75 37 12 38 74 39 13 40 14 41 15 42 68 43 16 44 73 45 67 46
REMARK SMILES IDX 69 47 17 48 72 49 66 50 65 51 18 53 52 54 31 55 51 56 32 57
REMARK SMILES IDX 35 58 50 59 70 60 33 61 34 62 49 64 71 65 36 66 19 67 20 68
REMARK SMILES IDX 29 69 21 70 22 71 28 72 30 73 23 74 24 75 25 76 26 77 27 78
REMARK SMILES IDX 53 79 54 80 63 81 55 82 56 83 62 84 64 85 57 86 58 87 59 88
REMARK SMILES IDX 60 89 61 90 37 91 38 92 47 93 39 94 40 95 46 96 48 97 41 98
REMARK SMILES IDX 42 99 43 100 44 101 45 102
REMARK H PARENT 3 4 93 27 7 33 69 52 35 63
REMARK Flexibility Score: inf
ROOT
ATOM      1  O   UNL     1       6.887   4.079 -10.635  1.00  0.00    -0.269 OA
ATOM      2  C   UNL     1       6.801   3.277  -9.707  1.00  0.00     0.251 C 
ATOM      3  N   UNL     1       6.605   1.942  -9.950  1.00  0.00    -0.352 N 
ATOM      4  H   UNL     1       6.691   1.665 -10.891  1.00  0.00     0.163 HD
ENDROOT
BRANCH   2   5
ATOM      5  C   UNL     1       6.917   3.751  -8.317  1.00  0.00     0.039 A 
ATOM      6  C   UNL     1       7.898   3.219  -7.481  1.00  0.00     0.014 A 
ATOM      7  C   UNL     1       6.058   4.749  -7.854  1.00  0.00     0.014 A 
ATOM      8  C   UNL     1       7.969   3.633  -6.154  1.00  0.00     0.004 A 
ATOM      9  C   UNL     1       6.122   5.150  -6.516  1.00  0.00     0.004 A 
ATOM     10  C   UNL     1       7.061   4.575  -5.647  1.00  0.00    -0.048 A 
BRANCH  10  11
ATOM     11  C   UNL     1       7.119   4.975  -4.191  1.00  0.00     0.041 C 
BRANCH  11  12
ATOM     12  C   UNL     1       6.512   3.953  -3.215  1.00  0.00     0.015 C 
ATOM     13  C   UNL     1       7.176   2.567  -3.244  1.00  0.00     0.027 C 
ATOM     14  C   UNL     1       6.696   4.403  -1.755  1.00  0.00     0.123 C 
ATOM     15  C   UNL     1       6.964   2.029  -1.845  1.00  0.00     0.120 C 
ATOM     16  N   UNL     1       7.098   3.214  -1.022  1.00  0.00    -0.342 N 
BRANCH  16  17
ATOM     17  C   UNL     1       7.538   3.292   0.281  1.00  0.00     0.227 C 
ATOM     18  O   UNL     1       7.593   4.369   0.880  1.00  0.00    -0.275 OA
BRANCH  17  19
ATOM     19  C   UNL     1       8.027   2.015   0.952  1.00  0.00     0.135 C 
BRANCH  19  20
ATOM     20  C   UNL     1       6.982   0.941   1.146  1.00  0.00    -0.035 A 
ATOM     21  C   UNL     1       5.660   1.262   1.487  1.00  0.00     0.004 A 
ATOM     22  C   UNL     1       7.342  -0.411   1.018  1.00  0.00     0.050 A 
ATOM     23  C   UNL     1       4.704   0.257   1.642  1.00  0.00     0.004 A 
ATOM     24  C   UNL     1       6.380  -1.405   1.183  1.00  0.00     0.115 A 
ATOM     25  C   UNL     1       5.064  -1.079   1.485  1.00  0.00     0.046 A 
BRANCH  24  26
ATOM     26  O   UNL     1       6.693  -2.725   1.053  1.00  0.00    -0.508 OA
ATOM     27  H   UNL     1       6.031  -3.377   1.169  1.00  0.00     0.293 HD
ENDBRANCH  24  26
ENDBRANCH  19  20
ENDBRANCH  17  19
ENDBRANCH  16  17
ENDBRANCH  11  12
ENDBRANCH  10  11
ENDBRANCH   2   5
BRANCH   3  28
ATOM     28  C   UNL     1       6.287   0.876  -9.010  1.00  0.00     0.118 C 
BRANCH  28  29
ATOM     29  C   UNL     1       4.861   0.364  -9.170  1.00  0.00     0.042 C 
BRANCH  29  30
ATOM     30  C   UNL     1       4.566  -0.281 -10.520  1.00  0.00     0.118 C 
BRANCH  30  31
ATOM     31  N   UNL     1       5.399  -1.443 -10.787  1.00  0.00    -0.352 N 
ATOM     32  C   UNL     1       5.058  -2.732 -11.113  1.00  0.00     0.251 C 
ATOM     33  H   UNL     1       6.368  -1.278 -10.724  1.00  0.00     0.163 HD
ATOM     34  O   UNL     1       5.940  -3.589 -11.135  1.00  0.00    -0.269 OA
BRANCH  32  35
ATOM     35  C   UNL     1       3.657  -3.106 -11.418  1.00  0.00     0.039 A 
ATOM     36  C   UNL     1       3.196  -4.359 -11.002  1.00  0.00     0.014 A 
ATOM     37  C   UNL     1       2.810  -2.267 -12.145  1.00  0.00     0.014 A 
ATOM     38  C   UNL     1       1.880  -4.746 -11.273  1.00  0.00     0.010 A 
ATOM     39  C   UNL     1       1.474  -2.615 -12.337  1.00  0.00     0.010 A 
ATOM     40  C   UNL     1       0.997  -3.866 -11.919  1.00  0.00    -0.014 A 
BRANCH  40  41
ATOM     41  C   UNL     1      -0.414  -4.252 -12.182  1.00  0.00     0.031 A 
ATOM     42  C   UNL     1      -0.922  -4.368 -13.596  1.00  0.00     0.074 A 
ATOM     43  C   UNL     1      -1.254  -4.456 -11.148  1.00  0.00     0.049 A 
ATOM     44  N   UNL     1      -2.122  -4.669 -14.021  1.00  0.00    -0.248 NA
ATOM     45  C   UNL     1       0.038  -4.080 -14.675  1.00  0.00     0.031 C 
ATOM     46  C   UNL     1      -0.904  -4.313  -9.733  1.00  0.00     0.029 A 
ATOM     47  N   UNL     1      -2.578  -4.820 -11.125  1.00  0.00    -0.354 N 
ATOM     48  C   UNL     1      -2.067  -4.588 -15.408  1.00  0.00     0.074 A 
ATOM     49  C   UNL     1      -0.730  -4.156 -15.751  1.00  0.00     0.031 C 
ATOM     50  C   UNL     1      -1.976  -4.611  -8.981  1.00  0.00     0.029 A 
ATOM     51  C   UNL     1      -3.097  -4.936  -9.857  1.00  0.00     0.049 A 
ATOM     52  H   UNL     1      -3.105  -4.982 -11.940  1.00  0.00     0.167 HD
ATOM     53  C   UNL     1      -3.033  -4.872 -16.316  1.00  0.00     0.037 A 
ATOM     54  C   UNL     1      -4.336  -5.268  -9.445  1.00  0.00     0.037 A 
ATOM     55  C   UNL     1      -4.352  -5.334 -15.970  1.00  0.00     0.049 A 
ATOM     56  C   UNL     1      -5.382  -5.613 -10.469  1.00  0.00     0.074 A 
ATOM     57  C   UNL     1      -5.379  -5.717 -16.816  1.00  0.00     0.029 A 
ATOM     58  N   UNL     1      -4.829  -5.476 -14.675  1.00  0.00    -0.354 N 
ATOM     59  N   UNL     1      -5.289  -5.605 -11.778  1.00  0.00    -0.248 NA
ATOM     60  C   UNL     1      -6.697  -6.028  -9.962  1.00  0.00     0.031 C 
ATOM     61  C   UNL     1      -6.490  -6.050 -16.033  1.00  0.00     0.029 A 
ATOM     62  C   UNL     1      -6.140  -5.923 -14.698  1.00  0.00     0.049 A 
ATOM     63  H   UNL     1      -4.311  -5.286 -13.859  1.00  0.00     0.167 HD
ATOM     64  C   UNL     1      -6.523  -6.038 -12.250  1.00  0.00     0.074 A 
ATOM     65  C   UNL     1      -7.341  -6.313 -11.086  1.00  0.00     0.031 C 
ATOM     66  C   UNL     1      -6.941  -6.194 -13.531  1.00  0.00     0.037 A 
BRANCH  53  67
ATOM     67  C   UNL     1      -2.695  -4.695 -17.772  1.00  0.00     0.058 A 
ATOM     68  C   UNL     1      -1.789  -5.544 -18.430  1.00  0.00     0.135 A 
ATOM     69  C   UNL     1      -3.302  -3.679 -18.528  1.00  0.00     0.135 A 
ATOM     70  F   UNL     1      -1.168  -6.524 -17.754  1.00  0.00    -0.206 F 
ATOM     71  C   UNL     1      -1.471  -5.370 -19.773  1.00  0.00     0.059 A 
ATOM     72  C   UNL     1      -3.021  -3.505 -19.880  1.00  0.00     0.059 A 
ATOM     73  F   UNL     1      -4.177  -2.839 -17.952  1.00  0.00    -0.206 F 
ATOM     74  C   UNL     1      -2.091  -4.346 -20.489  1.00  0.00     0.060 A 
BRANCH  74  75
ATOM     75  S   UNL     1      -1.665  -4.131 -22.230  1.00  0.00     0.124 S 
ATOM     76  O   UNL     1      -0.331  -3.547 -22.133  1.00  0.00    -0.237 OA
ATOM     77  O   UNL     1      -1.722  -5.498 -22.737  1.00  0.00    -0.237 OA
ATOM     78  O   UNL     1      -2.706  -3.238 -22.728  1.00  0.00    -0.744 OA
ENDBRANCH  74  75
ENDBRANCH  53  67
BRANCH  54  79
ATOM     79  C   UNL     1      -4.641  -5.322  -7.990  1.00  0.00     0.058 A 
ATOM     80  C   UNL     1      -4.840  -6.547  -7.338  1.00  0.00     0.135 A 
ATOM     81  C   UNL     1      -4.714  -4.151  -7.219  1.00  0.00     0.135 A 
ATOM     82  F   UNL     1      -4.785  -7.693  -8.034  1.00  0.00    -0.206 F 
ATOM     83  C   UNL     1      -5.113  -6.613  -5.976  1.00  0.00     0.059 A 
ATOM     84  C   UNL     1      -4.962  -4.192  -5.851  1.00  0.00     0.059 A 
ATOM     85  F   UNL     1      -4.514  -2.954  -7.792  1.00  0.00    -0.206 F 
ATOM     86  C   UNL     1      -5.169  -5.428  -5.239  1.00  0.00     0.060 A 
BRANCH  86  87
ATOM     87  S   UNL     1      -5.464  -5.527  -3.460  1.00  0.00     0.124 S 
ATOM     88  O   UNL     1      -6.884  -5.857  -3.416  1.00  0.00    -0.237 OA
ATOM     89  O   UNL     1      -4.548  -6.589  -3.056  1.00  0.00    -0.237 OA
ATOM     90  O   UNL     1      -5.110  -4.192  -2.988  1.00  0.00    -0.744 OA
ENDBRANCH  86  87
ENDBRANCH  54  79
BRANCH  66  91
ATOM     91  C   UNL     1      -8.335  -6.719 -13.742  1.00  0.00     0.058 A 
ATOM     92  C   UNL     1      -9.469  -5.933 -13.482  1.00  0.00     0.135 A 
ATOM     93  C   UNL     1      -8.538  -8.016 -14.241  1.00  0.00     0.135 A 
ATOM     94  F   UNL     1      -9.332  -4.687 -13.000  1.00  0.00    -0.206 F 
ATOM     95  C   UNL     1     -10.755  -6.426 -13.677  1.00  0.00     0.059 A 
ATOM     96  C   UNL     1      -9.814  -8.519 -14.471  1.00  0.00     0.059 A 
ATOM     97  F   UNL     1      -7.488  -8.805 -14.518  1.00  0.00    -0.206 F 
ATOM     98  C   UNL     1     -10.917  -7.722 -14.170  1.00  0.00     0.060 A 
BRANCH  98  99
ATOM     99  S   UNL     1     -12.591  -8.348 -14.430  1.00  0.00     0.124 S 
ATOM    100  O   UNL     1     -13.017  -8.623 -13.062  1.00  0.00    -0.237 OA
ATOM    101  O   UNL     1     -13.249  -7.222 -15.085  1.00  0.00    -0.237 OA
ATOM    102  O   UNL     1     -12.386  -9.523 -15.273  1.00  0.00    -0.744 OA
ENDBRANCH  98  99
ENDBRANCH  66  91
ENDBRANCH  40  41
ENDBRANCH  32  35
ENDBRANCH  30  31
ENDBRANCH  29  30
ENDBRANCH  28  29
ENDBRANCH   3  28
TORSDOF 19
