REMARK SMILES C[C@@H]1[C@@H](C(=O)NCCCNC(=O)c2ccc(-c3c4nc(c(-c5c(F)cc(S(=O)(=O)[O-])cc5F)c5ccc([nH]5)c(-c5c(F)cc(S(=O)(=O)[O-])cc5F)c5nc(c(-c6c(F)cc(S(=O)(=O)[O-])cc6F)c6ccc3[nH]6)C=C5)C=C4)cc2)CCN1C(=O)N1CCC[C@H]2CCC[C@@H]21
REMARK SMILES IDX 8 1 7 2 6 3 4 4 5 5 3 7 1 8 2 9 81 10 79 11 80 12 82 13
REMARK SMILES IDX 83 14 84 15 85 16 92 17 86 18 88 19 91 20 87 21 89 22 90 23
REMARK SMILES IDX 9 24 10 25 11 26 12 28 13 29 14 30 78 31 15 32 77 33 16 34
REMARK SMILES IDX 17 35 18 36 71 37 19 38 76 39 70 40 72 41 20 42 75 43 69 44
REMARK SMILES IDX 68 45 21 47 55 48 34 49 54 50 35 51 38 52 53 53 73 54 36 55
REMARK SMILES IDX 37 56 52 58 74 59 39 60 22 61 23 62 32 63 24 64 25 65 31 66
REMARK SMILES IDX 33 67 26 68 27 69 28 70 29 71 30 72 56 73 57 74 66 75 58 76
REMARK SMILES IDX 59 77 65 78 67 79 60 80 61 81 62 82 63 83 64 84 40 85 41 86
REMARK SMILES IDX 50 87 42 88 43 89 49 90 51 91 44 92 45 93 46 94 47 95 48 96
REMARK H PARENT 6 6 10 27 72 46 38 57
REMARK Flexibility Score: inf
ROOT
ATOM      1  C   UNL     1      -2.926   4.111  -1.179  1.00  0.00     0.042 C 
ENDROOT
BRANCH   1   2
ATOM      2  C   UNL     1      -2.614   2.672  -0.814  1.00  0.00     0.117 C 
BRANCH   2   3
ATOM      3  N   UNL     1      -1.839   1.966  -1.819  1.00  0.00    -0.356 N 
ATOM      4  C   UNL     1      -0.814   1.079  -1.653  1.00  0.00     0.225 C 
ATOM      5  O   UNL     1      -0.337   0.566  -2.665  1.00  0.00    -0.275 OA
ATOM      6  H   UNL     1      -2.089   2.153  -2.752  1.00  0.00     0.163 HD
BRANCH   4   7
ATOM      7  C   UNL     1      -0.246   0.853  -0.258  1.00  0.00     0.102 C 
ATOM      8  C   UNL     1       1.911   0.203   0.806  1.00  0.00     0.032 C 
ATOM      9  C   UNL     1       0.878  -0.211  -0.252  1.00  0.00     0.096 C 
ATOM     10  N   UNL     1       0.178  -1.474   0.074  1.00  0.00    -0.321 N 
ATOM     11  C   UNL     1      -1.237   0.283   0.762  1.00  0.00     0.037 C 
ATOM     12  C   UNL     1      -1.169  -1.210   0.534  1.00  0.00     0.122 C 
BRANCH  10  13
ATOM     13  C   UNL     1       0.414  -2.743  -0.434  1.00  0.00     0.320 C 
ATOM     14  O   UNL     1      -0.436  -3.632  -0.381  1.00  0.00    -0.248 OA
BRANCH  13  15
ATOM     15  N   UNL     1       1.592  -2.920  -1.110  1.00  0.00    -0.321 N 
ATOM     16  C   UNL     1       2.877  -2.869  -0.431  1.00  0.00     0.121 C 
ATOM     17  C   UNL     1       1.647  -3.621  -2.377  1.00  0.00     0.090 C 
ATOM     18  C   UNL     1       3.914  -2.141  -1.291  1.00  0.00     0.022 C 
ATOM     19  C   UNL     1       2.547  -2.795  -3.299  1.00  0.00     0.012 C 
ATOM     20  C   UNL     1       0.390  -3.776  -3.227  1.00  0.00     0.025 C 
ATOM     21  C   UNL     1       3.961  -2.697  -2.727  1.00  0.00     0.007 C 
ATOM     22  C   UNL     1       2.386  -3.483  -4.643  1.00  0.00     0.006 C 
ATOM     23  C   UNL     1       0.924  -3.950  -4.656  1.00  0.00     0.002 C 
ENDBRANCH  13  15
ENDBRANCH  10  13
ENDBRANCH   4   7
ENDBRANCH   2   3
ENDBRANCH   1   2
BRANCH   1  24
ATOM     24  C   UNL     1      -3.693   4.290  -2.480  1.00  0.00     0.118 C 
BRANCH  24  25
ATOM     25  N   UNL     1      -5.022   3.695  -2.459  1.00  0.00    -0.352 N 
ATOM     26  C   UNL     1      -6.268   4.282  -2.490  1.00  0.00     0.251 C 
ATOM     27  H   UNL     1      -5.031   2.712  -2.417  1.00  0.00     0.163 HD
ATOM     28  O   UNL     1      -7.263   3.590  -2.324  1.00  0.00    -0.269 OA
BRANCH  26  29
ATOM     29  C   UNL     1      -6.404   5.745  -2.681  1.00  0.00     0.039 A 
ATOM     30  C   UNL     1      -7.339   6.444  -1.912  1.00  0.00     0.014 A 
ATOM     31  C   UNL     1      -5.615   6.434  -3.603  1.00  0.00     0.014 A 
ATOM     32  C   UNL     1      -7.410   7.838  -2.001  1.00  0.00     0.010 A 
ATOM     33  C   UNL     1      -5.605   7.824  -3.607  1.00  0.00     0.010 A 
ATOM     34  C   UNL     1      -6.505   8.545  -2.809  1.00  0.00    -0.014 A 
BRANCH  34  35
ATOM     35  C   UNL     1      -6.483  10.032  -2.842  1.00  0.00     0.031 A 
ATOM     36  C   UNL     1      -6.716  10.763  -4.139  1.00  0.00     0.074 A 
ATOM     37  C   UNL     1      -6.179  10.724  -1.724  1.00  0.00     0.049 A 
ATOM     38  N   UNL     1      -6.645  12.045  -4.390  1.00  0.00    -0.248 NA
ATOM     39  C   UNL     1      -7.037   9.941  -5.318  1.00  0.00     0.031 C 
ATOM     40  C   UNL     1      -5.880  10.134  -0.417  1.00  0.00     0.029 A 
ATOM     41  N   UNL     1      -6.061  12.075  -1.509  1.00  0.00    -0.354 N 
ATOM     42  C   UNL     1      -6.895  12.179  -5.751  1.00  0.00     0.074 A 
ATOM     43  C   UNL     1      -7.055  10.845  -6.285  1.00  0.00     0.031 C 
ATOM     44  C   UNL     1      -5.644  11.116   0.468  1.00  0.00     0.029 A 
ATOM     45  C   UNL     1      -5.729  12.403  -0.215  1.00  0.00     0.049 A 
ATOM     46  H   UNL     1      -6.202  12.746  -2.215  1.00  0.00     0.167 HD
ATOM     47  C   UNL     1      -7.011  13.312  -6.486  1.00  0.00     0.037 A 
ATOM     48  C   UNL     1      -5.508  13.603   0.357  1.00  0.00     0.037 A 
ATOM     49  C   UNL     1      -6.882  14.639  -5.943  1.00  0.00     0.049 A 
ATOM     50  C   UNL     1      -5.639  14.848  -0.480  1.00  0.00     0.074 A 
ATOM     51  C   UNL     1      -7.038  15.851  -6.591  1.00  0.00     0.029 A 
ATOM     52  N   UNL     1      -6.566  14.928  -4.623  1.00  0.00    -0.354 N 
ATOM     53  N   UNL     1      -5.936  14.958  -1.753  1.00  0.00    -0.248 NA
ATOM     54  C   UNL     1      -5.411  16.132   0.198  1.00  0.00     0.031 C 
ATOM     55  C   UNL     1      -6.771  16.874  -5.675  1.00  0.00     0.029 A 
ATOM     56  C   UNL     1      -6.503  16.300  -4.442  1.00  0.00     0.049 A 
ATOM     57  H   UNL     1      -6.411  14.258  -3.919  1.00  0.00     0.167 HD
ATOM     58  C   UNL     1      -5.961  16.322  -2.021  1.00  0.00     0.074 A 
ATOM     59  C   UNL     1      -5.660  16.997  -0.776  1.00  0.00     0.031 C 
ATOM     60  C   UNL     1      -6.212  16.958  -3.192  1.00  0.00     0.037 A 
BRANCH  47  61
ATOM     61  C   UNL     1      -7.302  13.165  -7.955  1.00  0.00     0.058 A 
ATOM     62  C   UNL     1      -8.542  12.694  -8.418  1.00  0.00     0.135 A 
ATOM     63  C   UNL     1      -6.343  13.530  -8.915  1.00  0.00     0.135 A 
ATOM     64  F   UNL     1      -9.490  12.316  -7.546  1.00  0.00    -0.206 F 
ATOM     65  C   UNL     1      -8.810  12.561  -9.776  1.00  0.00     0.059 A 
ATOM     66  C   UNL     1      -6.601  13.435 -10.279  1.00  0.00     0.059 A 
ATOM     67  F   UNL     1      -5.141  13.985  -8.530  1.00  0.00    -0.206 F 
ATOM     68  C   UNL     1      -7.833  12.935 -10.700  1.00  0.00     0.060 A 
BRANCH  68  69
ATOM     69  S   UNL     1      -8.200  12.761 -12.459  1.00  0.00     0.124 S 
ATOM     70  O   UNL     1      -8.156  11.312 -12.623  1.00  0.00    -0.237 OA
ATOM     71  O   UNL     1      -9.522  13.370 -12.562  1.00  0.00    -0.237 OA
ATOM     72  O   UNL     1      -7.121  13.499 -13.107  1.00  0.00    -0.744 OA
ENDBRANCH  68  69
ENDBRANCH  47  61
BRANCH  48  73
ATOM     73  C   UNL     1      -5.166  13.689   1.803  1.00  0.00     0.058 A 
ATOM     74  C   UNL     1      -6.075  14.223   2.729  1.00  0.00     0.135 A 
ATOM     75  C   UNL     1      -3.932  13.232   2.291  1.00  0.00     0.135 A 
ATOM     76  F   UNL     1      -7.266  14.680   2.312  1.00  0.00    -0.206 F 
ATOM     77  C   UNL     1      -5.768  14.319   4.082  1.00  0.00     0.059 A 
ATOM     78  C   UNL     1      -3.612  13.291   3.644  1.00  0.00     0.059 A 
ATOM     79  F   UNL     1      -3.033  12.696   1.450  1.00  0.00    -0.206 F 
ATOM     80  C   UNL     1      -4.533  13.847   4.531  1.00  0.00     0.060 A 
BRANCH  80  81
ATOM     81  S   UNL     1      -4.163  13.932   6.296  1.00  0.00     0.124 S 
ATOM     82  O   UNL     1      -3.947  15.362   6.482  1.00  0.00    -0.237 OA
ATOM     83  O   UNL     1      -5.379  13.386   6.890  1.00  0.00    -0.237 OA
ATOM     84  O   UNL     1      -2.977  13.092   6.431  1.00  0.00    -0.744 OA
ENDBRANCH  80  81
ENDBRANCH  48  73
BRANCH  60  85
ATOM     85  C   UNL     1      -6.213  18.462  -3.179  1.00  0.00     0.058 A 
ATOM     86  C   UNL     1      -5.028  19.203  -3.057  1.00  0.00     0.135 A 
ATOM     87  C   UNL     1      -7.415  19.171  -3.349  1.00  0.00     0.135 A 
ATOM     88  F   UNL     1      -3.853  18.575  -2.887  1.00  0.00    -0.206 F 
ATOM     89  C   UNL     1      -5.035  20.594  -3.079  1.00  0.00     0.059 A 
ATOM     90  C   UNL     1      -7.442  20.560  -3.404  1.00  0.00     0.059 A 
ATOM     91  F   UNL     1      -8.576  18.511  -3.481  1.00  0.00    -0.206 F 
ATOM     92  C   UNL     1      -6.248  21.264  -3.257  1.00  0.00     0.060 A 
BRANCH  92  93
ATOM     93  S   UNL     1      -6.238  23.068  -3.320  1.00  0.00     0.124 S 
ATOM     94  O   UNL     1      -5.998  23.410  -1.922  1.00  0.00    -0.237 OA
ATOM     95  O   UNL     1      -5.136  23.341  -4.237  1.00  0.00    -0.237 OA
ATOM     96  O   UNL     1      -7.566  23.398  -3.829  1.00  0.00    -0.744 OA
ENDBRANCH  92  93
ENDBRANCH  60  85
ENDBRANCH  34  35
ENDBRANCH  26  29
ENDBRANCH  24  25
ENDBRANCH   1  24
TORSDOF 15
