REMARK SMILES CC(C)C[C@@H](C(=O)NCCCNC(=O)c1ccc(-c2c3nc(c(-c4c(F)cc(S(=O)(=O)[O-])cc4F)c4ccc([nH]4)c(-c4c(F)cc(S(=O)(=O)[O-])cc4F)c4nc(c(-c5c(F)cc(S(=O)(=O)[O-])cc5F)c5ccc2[nH]5)C=C4)C=C3)cc1)[C@@H]1CCC[C@@H](C)C1
REMARK SMILES IDX 10 1 9 2 8 3 6 4 7 5 5 7 4 8 2 9 1 10 3 11 81 12 82 13 87 14
REMARK SMILES IDX 83 15 85 16 84 17 86 18 11 19 12 20 13 21 14 23 15 24 16 25
REMARK SMILES IDX 80 26 17 27 79 28 18 29 19 30 20 31 73 32 21 33 78 34 72 35
REMARK SMILES IDX 74 36 22 37 77 38 71 39 70 40 23 42 57 43 36 44 56 45 37 46
REMARK SMILES IDX 40 47 55 48 75 49 38 50 39 51 54 53 76 54 41 55 24 56 25 57
REMARK SMILES IDX 34 58 26 59 27 60 33 61 35 62 28 63 29 64 30 65 31 66 32 67
REMARK SMILES IDX 58 68 59 69 68 70 60 71 61 72 67 73 69 74 62 75 63 76 64 77
REMARK SMILES IDX 65 78 66 79 42 80 43 81 52 82 44 83 45 84 51 85 53 86 46 87
REMARK SMILES IDX 47 88 48 89 49 90 50 91
REMARK H PARENT 8 6 12 22 74 41 40 52
REMARK Flexibility Score: inf
ROOT
ATOM      1  C   UNL     1      -0.427   5.553   1.798  1.00  0.00     0.042 C 
ENDROOT
BRANCH   1   2
ATOM      2  C   UNL     1       0.487   5.246   0.621  1.00  0.00     0.117 C 
BRANCH   2   3
ATOM      3  N   UNL     1       0.870   3.847   0.595  1.00  0.00    -0.356 N 
ATOM      4  C   UNL     1       0.753   2.854  -0.313  1.00  0.00     0.223 C 
ATOM      5  O   UNL     1       1.331   1.799  -0.014  1.00  0.00    -0.275 OA
ATOM      6  H   UNL     1       1.316   3.558   1.423  1.00  0.00     0.163 HD
BRANCH   4   7
ATOM      7  C   UNL     1      -0.017   2.937  -1.640  1.00  0.00     0.082 C 
BRANCH   7   8
ATOM      8  C   UNL     1       0.723   3.615  -2.824  1.00  0.00     0.016 C 
BRANCH   8   9
ATOM      9  C   UNL     1       0.903   5.138  -2.896  1.00  0.00    -0.017 C 
ATOM     10  C   UNL     1       2.206   5.602  -2.239  1.00  0.00     0.007 C 
ATOM     11  C   UNL     1       0.924   5.610  -4.357  1.00  0.00     0.007 C 
ENDBRANCH   8   9
ENDBRANCH   7   8
BRANCH   7  12
ATOM     12  C   UNL     1      -1.580   2.855  -1.537  1.00  0.00     0.002 C 
ATOM     13  C   UNL     1      -2.304   2.610  -2.875  1.00  0.00     0.004 C 
ATOM     14  C   UNL     1      -2.357   3.890  -0.719  1.00  0.00     0.007 C 
ATOM     15  C   UNL     1      -2.689   3.884  -3.620  1.00  0.00     0.001 C 
ATOM     16  C   UNL     1      -2.691   5.189  -1.457  1.00  0.00    -0.014 C 
ATOM     17  C   UNL     1      -3.454   4.872  -2.745  1.00  0.00     0.003 C 
ATOM     18  C   UNL     1      -3.478   6.159  -0.571  1.00  0.00     0.007 C 
ENDBRANCH   7  12
ENDBRANCH   4   7
ENDBRANCH   2   3
ENDBRANCH   1   2
BRANCH   1  19
ATOM     19  C   UNL     1      -0.192   6.905   2.447  1.00  0.00     0.118 C 
BRANCH  19  20
ATOM     20  N   UNL     1      -0.165   8.035   1.532  1.00  0.00    -0.352 N 
ATOM     21  C   UNL     1      -0.865   9.222   1.495  1.00  0.00     0.251 C 
ATOM     22  H   UNL     1       0.479   7.932   0.794  1.00  0.00     0.163 HD
ATOM     23  O   UNL     1      -0.613  10.009   0.587  1.00  0.00    -0.269 OA
BRANCH  21  24
ATOM     24  C   UNL     1      -1.938   9.546   2.471  1.00  0.00     0.039 A 
ATOM     25  C   UNL     1      -3.002  10.355   2.052  1.00  0.00     0.014 A 
ATOM     26  C   UNL     1      -1.929   9.083   3.783  1.00  0.00     0.014 A 
ATOM     27  C   UNL     1      -4.080  10.607   2.910  1.00  0.00     0.010 A 
ATOM     28  C   UNL     1      -3.065   9.201   4.576  1.00  0.00     0.010 A 
ATOM     29  C   UNL     1      -4.152   9.980   4.162  1.00  0.00    -0.014 A 
BRANCH  29  30
ATOM     30  C   UNL     1      -5.316  10.137   5.078  1.00  0.00     0.031 A 
ATOM     31  C   UNL     1      -5.094  10.593   6.501  1.00  0.00     0.074 A 
ATOM     32  C   UNL     1      -6.551   9.770   4.678  1.00  0.00     0.049 A 
ATOM     33  N   UNL     1      -5.924  10.595   7.512  1.00  0.00    -0.248 NA
ATOM     34  C   UNL     1      -3.737  11.052   6.845  1.00  0.00     0.031 C 
ATOM     35  C   UNL     1      -6.901   9.255   3.352  1.00  0.00     0.029 A 
ATOM     36  N   UNL     1      -7.744   9.759   5.359  1.00  0.00    -0.354 N 
ATOM     37  C   UNL     1      -5.176  10.991   8.616  1.00  0.00     0.074 A 
ATOM     38  C   UNL     1      -3.814  11.167   8.162  1.00  0.00     0.031 C 
ATOM     39  C   UNL     1      -8.221   9.015   3.305  1.00  0.00     0.029 A 
ATOM     40  C   UNL     1      -8.805   9.306   4.609  1.00  0.00     0.049 A 
ATOM     41  H   UNL     1      -7.832  10.049   6.295  1.00  0.00     0.167 HD
ATOM     42  C   UNL     1      -5.587  11.219   9.886  1.00  0.00     0.037 A 
ATOM     43  C   UNL     1     -10.100   9.135   4.937  1.00  0.00     0.037 A 
ATOM     44  C   UNL     1      -6.959  11.131  10.311  1.00  0.00     0.049 A 
ATOM     45  C   UNL     1     -10.551   9.463   6.333  1.00  0.00     0.074 A 
ATOM     46  C   UNL     1      -7.499  11.429  11.549  1.00  0.00     0.029 A 
ATOM     47  N   UNL     1      -8.012  10.734   9.499  1.00  0.00    -0.354 N 
ATOM     48  N   UNL     1      -9.837   9.873   7.355  1.00  0.00    -0.248 NA
ATOM     49  C   UNL     1     -11.983   9.309   6.623  1.00  0.00     0.031 C 
ATOM     50  C   UNL     1      -8.877  11.192  11.493  1.00  0.00     0.029 A 
ATOM     51  C   UNL     1      -9.199  10.778  10.210  1.00  0.00     0.049 A 
ATOM     52  H   UNL     1      -7.927  10.461   8.557  1.00  0.00     0.167 HD
ATOM     53  C   UNL     1     -10.735  10.047   8.401  1.00  0.00     0.074 A 
ATOM     54  C   UNL     1     -12.046   9.709   7.886  1.00  0.00     0.031 C 
ATOM     55  C   UNL     1     -10.496  10.449   9.674  1.00  0.00     0.037 A 
BRANCH  42  56
ATOM     56  C   UNL     1      -4.541  11.604  10.898  1.00  0.00     0.058 A 
ATOM     57  C   UNL     1      -3.882  12.844  10.846  1.00  0.00     0.135 A 
ATOM     58  C   UNL     1      -4.191  10.723  11.934  1.00  0.00     0.135 A 
ATOM     59  F   UNL     1      -4.167  13.720   9.869  1.00  0.00    -0.206 F 
ATOM     60  C   UNL     1      -2.880  13.175  11.751  1.00  0.00     0.059 A 
ATOM     61  C   UNL     1      -3.213  11.048  12.871  1.00  0.00     0.059 A 
ATOM     62  F   UNL     1      -4.790   9.527  12.037  1.00  0.00    -0.206 F 
ATOM     63  C   UNL     1      -2.546  12.267  12.756  1.00  0.00     0.060 A 
BRANCH  63  64
ATOM     64  S   UNL     1      -1.228  12.701  13.910  1.00  0.00     0.124 S 
ATOM     65  O   UNL     1      -0.041  12.473  13.091  1.00  0.00    -0.237 OA
ATOM     66  O   UNL     1      -1.525  14.096  14.218  1.00  0.00    -0.237 OA
ATOM     67  O   UNL     1      -1.420  11.764  15.012  1.00  0.00    -0.744 OA
ENDBRANCH  63  64
ENDBRANCH  42  56
BRANCH  43  68
ATOM     68  C   UNL     1     -11.068   8.667   3.910  1.00  0.00     0.058 A 
ATOM     69  C   UNL     1     -11.998   9.556   3.349  1.00  0.00     0.135 A 
ATOM     70  C   UNL     1     -11.063   7.344   3.442  1.00  0.00     0.135 A 
ATOM     71  F   UNL     1     -12.044  10.829   3.769  1.00  0.00    -0.206 F 
ATOM     72  C   UNL     1     -12.895   9.149   2.367  1.00  0.00     0.059 A 
ATOM     73  C   UNL     1     -11.935   6.919   2.444  1.00  0.00     0.059 A 
ATOM     74  F   UNL     1     -10.180   6.461   3.933  1.00  0.00    -0.206 F 
ATOM     75  C   UNL     1     -12.853   7.829   1.917  1.00  0.00     0.060 A 
BRANCH  75  76
ATOM     76  S   UNL     1     -13.977   7.329   0.595  1.00  0.00     0.124 S 
ATOM     77  O   UNL     1     -15.247   7.241   1.306  1.00  0.00    -0.237 OA
ATOM     78  O   UNL     1     -13.850   8.434  -0.351  1.00  0.00    -0.237 OA
ATOM     79  O   UNL     1     -13.417   6.060   0.141  1.00  0.00    -0.744 OA
ENDBRANCH  75  76
ENDBRANCH  43  68
BRANCH  55  80
ATOM     80  C   UNL     1     -11.679  10.581  10.589  1.00  0.00     0.058 A 
ATOM     81  C   UNL     1     -12.313   9.456  11.136  1.00  0.00     0.135 A 
ATOM     82  C   UNL     1     -12.145  11.850  10.966  1.00  0.00     0.135 A 
ATOM     83  F   UNL     1     -11.908   8.221  10.801  1.00  0.00    -0.206 F 
ATOM     84  C   UNL     1     -13.383   9.585  12.016  1.00  0.00     0.059 A 
ATOM     85  C   UNL     1     -13.198  12.002  11.862  1.00  0.00     0.059 A 
ATOM     86  F   UNL     1     -11.564  12.957  10.477  1.00  0.00    -0.206 F 
ATOM     87  C   UNL     1     -13.817  10.863  12.374  1.00  0.00     0.060 A 
BRANCH  87  88
ATOM     88  S   UNL     1     -15.181  11.018  13.547  1.00  0.00     0.124 S 
ATOM     89  O   UNL     1     -16.328  10.691  12.707  1.00  0.00    -0.237 OA
ATOM     90  O   UNL     1     -14.835  10.028  14.563  1.00  0.00    -0.237 OA
ATOM     91  O   UNL     1     -15.096  12.409  13.982  1.00  0.00    -0.744 OA
ENDBRANCH  87  88
ENDBRANCH  55  80
ENDBRANCH  29  30
ENDBRANCH  21  24
ENDBRANCH  19  20
ENDBRANCH   1  19
TORSDOF 16
