REMARK SMILES CC(C)(C)OC(=O)N1CCN(c2nc3ccccc3s2)[C@H](C(=O)NCCCNC(=O)c2ccc(-c3c4nc(c(-c5c(F)cc(S(=O)(=O)[O-])cc5F)c5ccc([nH]5)c(-c5c(F)cc(S(=O)(=O)[O-])cc5F)c5nc(c(-c6c(F)cc(S(=O)(=O)[O-])cc6F)c6ccc3[nH]6)C=C5)C=C4)cc2)C1
REMARK SMILES IDX 26 1 25 2 24 3 22 4 23 5 21 7 8 8 9 9 97 10 10 11 11 12 6 13
REMARK SMILES IDX 7 14 5 15 2 16 1 17 3 18 4 19 12 20 13 21 20 22 14 23 19 24
REMARK SMILES IDX 15 25 18 26 16 27 17 28 27 29 28 30 29 31 30 33 31 34 32 35
REMARK SMILES IDX 96 36 33 37 95 38 34 39 35 40 36 41 89 42 37 43 94 44 88 45
REMARK SMILES IDX 90 46 38 47 93 48 87 49 86 50 39 52 73 53 52 54 72 55 53 56
REMARK SMILES IDX 56 57 71 58 91 59 54 60 55 61 70 63 92 64 57 65 40 66 41 67
REMARK SMILES IDX 50 68 42 69 43 70 49 71 51 72 44 73 45 74 46 75 47 76 48 77
REMARK SMILES IDX 74 78 75 79 84 80 76 81 77 82 83 83 85 84 78 85 79 86 80 87
REMARK SMILES IDX 81 88 82 89 58 90 59 91 68 92 60 93 61 94 67 95 69 96 62 97
REMARK SMILES IDX 63 98 64 99 65 100 66 101
REMARK H PARENT 24 6 28 32 90 51 56 62
REMARK Flexibility Score: inf
ROOT
ATOM      1  C   UNL     1       5.237   5.665  -4.313  1.00  0.00     0.042 C 
ENDROOT
BRANCH   1   2
ATOM      2  C   UNL     1       4.622   4.875  -3.159  1.00  0.00     0.117 C 
BRANCH   2   3
ATOM      3  N   UNL     1       5.021   5.304  -1.825  1.00  0.00    -0.354 N 
ATOM      4  C   UNL     1       4.293   5.779  -0.770  1.00  0.00     0.244 C 
ATOM      5  O   UNL     1       4.904   5.992   0.283  1.00  0.00    -0.273 OA
ATOM      6  H   UNL     1       5.988   5.240  -1.652  1.00  0.00     0.163 HD
BRANCH   4   7
ATOM      7  C   UNL     1       2.773   5.998  -0.847  1.00  0.00     0.193 C 
ATOM      8  N   UNL     1       0.828   4.557  -1.768  1.00  0.00    -0.304 N 
ATOM      9  C   UNL     1       0.446   5.694  -2.605  1.00  0.00     0.144 C 
ATOM     10  C   UNL     1       2.097   4.614  -1.035  1.00  0.00     0.158 C 
ATOM     11  C   UNL     1       0.887   7.044  -2.033  1.00  0.00     0.141 C 
ATOM     12  N   UNL     1       2.343   7.033  -1.831  1.00  0.00    -0.332 N 
BRANCH   8  13
ATOM     13  C   UNL     1       0.193   3.341  -1.983  1.00  0.00     0.410 C 
ATOM     14  O   UNL     1      -0.712   3.181  -2.789  1.00  0.00    -0.224 OA
BRANCH  13  15
ATOM     15  O   UNL     1       0.715   2.356  -1.205  1.00  0.00    -0.444 OA
BRANCH  15  16
ATOM     16  C   UNL     1       0.285   0.975  -1.323  1.00  0.00     0.106 C 
ATOM     17  C   UNL     1       0.954   0.261  -0.138  1.00  0.00     0.056 C 
ATOM     18  C   UNL     1       0.809   0.367  -2.628  1.00  0.00     0.056 C 
ATOM     19  C   UNL     1      -1.234   0.810  -1.190  1.00  0.00     0.056 C 
ENDBRANCH  15  16
ENDBRANCH  13  15
ENDBRANCH   8  13
BRANCH  12  20
ATOM     20  C   UNL     1       2.949   8.264  -1.793  1.00  0.00     0.187 A 
ATOM     21  N   UNL     1       2.419   9.357  -1.285  1.00  0.00    -0.220 NA
ATOM     22  S   UNL     1       4.469   8.521  -2.557  1.00  0.00    -0.097 S 
ATOM     23  C   UNL     1       3.260  10.454  -1.493  1.00  0.00     0.084 A 
ATOM     24  C   UNL     1       4.425  10.181  -2.204  1.00  0.00     0.056 A 
ATOM     25  C   UNL     1       3.043  11.784  -1.074  1.00  0.00     0.030 A 
ATOM     26  C   UNL     1       5.367  11.166  -2.540  1.00  0.00     0.021 A 
ATOM     27  C   UNL     1       3.981  12.780  -1.392  1.00  0.00     0.002 A 
ATOM     28  C   UNL     1       5.124  12.473  -2.122  1.00  0.00     0.002 A 
ENDBRANCH  12  20
ENDBRANCH   4   7
ENDBRANCH   2   3
ENDBRANCH   1   2
BRANCH   1  29
ATOM     29  C   UNL     1       6.681   6.110  -4.122  1.00  0.00     0.118 C 
BRANCH  29  30
ATOM     30  N   UNL     1       7.621   5.031  -4.367  1.00  0.00    -0.352 N 
ATOM     31  C   UNL     1       8.531   4.907  -5.390  1.00  0.00     0.251 C 
ATOM     32  H   UNL     1       7.605   4.292  -3.716  1.00  0.00     0.163 HD
ATOM     33  O   UNL     1       9.076   3.826  -5.593  1.00  0.00    -0.269 OA
BRANCH  31  34
ATOM     34  C   UNL     1       8.839   6.071  -6.253  1.00  0.00     0.039 A 
ATOM     35  C   UNL     1       8.889   5.898  -7.638  1.00  0.00     0.014 A 
ATOM     36  C   UNL     1       9.099   7.327  -5.695  1.00  0.00     0.014 A 
ATOM     37  C   UNL     1       9.156   6.992  -8.466  1.00  0.00     0.010 A 
ATOM     38  C   UNL     1       9.293   8.430  -6.525  1.00  0.00     0.010 A 
ATOM     39  C   UNL     1       9.341   8.273  -7.919  1.00  0.00    -0.014 A 
BRANCH  39  40
ATOM     40  C   UNL     1       9.628   9.452  -8.779  1.00  0.00     0.031 A 
ATOM     41  C   UNL     1      10.946  10.170  -8.648  1.00  0.00     0.074 A 
ATOM     42  C   UNL     1       8.691   9.915  -9.630  1.00  0.00     0.049 A 
ATOM     43  N   UNL     1      11.351  11.270  -9.230  1.00  0.00    -0.248 NA
ATOM     44  C   UNL     1      11.927   9.590  -7.716  1.00  0.00     0.031 C 
ATOM     45  C   UNL     1       7.361   9.335  -9.823  1.00  0.00     0.029 A 
ATOM     46  N   UNL     1       8.711  10.990 -10.484  1.00  0.00    -0.354 N 
ATOM     47  C   UNL     1      12.618  11.526  -8.717  1.00  0.00     0.074 A 
ATOM     48  C   UNL     1      12.895  10.494  -7.742  1.00  0.00     0.031 C 
ATOM     49  C   UNL     1       6.699  10.051 -10.748  1.00  0.00     0.029 A 
ATOM     50  C   UNL     1       7.542  11.159 -11.188  1.00  0.00     0.049 A 
ATOM     51  H   UNL     1       9.489  11.585 -10.583  1.00  0.00     0.167 HD
ATOM     52  C   UNL     1      13.484  12.516  -9.045  1.00  0.00     0.037 A 
ATOM     53  C   UNL     1       7.185  12.104 -12.081  1.00  0.00     0.037 A 
ATOM     54  C   UNL     1      13.223  13.516 -10.046  1.00  0.00     0.049 A 
ATOM     55  C   UNL     1       8.168  13.186 -12.441  1.00  0.00     0.074 A 
ATOM     56  C   UNL     1      14.059  14.525 -10.493  1.00  0.00     0.029 A 
ATOM     57  N   UNL     1      12.040  13.632 -10.760  1.00  0.00    -0.354 N 
ATOM     58  N   UNL     1       9.381  13.383 -11.981  1.00  0.00    -0.248 NA
ATOM     59  C   UNL     1       7.738  14.169 -13.445  1.00  0.00     0.031 C 
ATOM     60  C   UNL     1      13.368  15.271 -11.454  1.00  0.00     0.029 A 
ATOM     61  C   UNL     1      12.118  14.703 -11.635  1.00  0.00     0.049 A 
ATOM     62  H   UNL     1      11.259  13.041 -10.660  1.00  0.00     0.167 HD
ATOM     63  C   UNL     1       9.868  14.496 -12.659  1.00  0.00     0.074 A 
ATOM     64  C   UNL     1       8.823  14.923 -13.566  1.00  0.00     0.031 C 
ATOM     65  C   UNL     1      11.072  15.108 -12.541  1.00  0.00     0.037 A 
BRANCH  52  66
ATOM     66  C   UNL     1      14.799  12.559  -8.316  1.00  0.00     0.058 A 
ATOM     67  C   UNL     1      15.798  11.598  -8.541  1.00  0.00     0.135 A 
ATOM     68  C   UNL     1      15.075  13.587  -7.400  1.00  0.00     0.135 A 
ATOM     69  F   UNL     1      15.581  10.585  -9.395  1.00  0.00    -0.206 F 
ATOM     70  C   UNL     1      17.009  11.634  -7.859  1.00  0.00     0.059 A 
ATOM     71  C   UNL     1      16.291  13.659  -6.727  1.00  0.00     0.059 A 
ATOM     72  F   UNL     1      14.156  14.533  -7.148  1.00  0.00    -0.206 F 
ATOM     73  C   UNL     1      17.246  12.668  -6.951  1.00  0.00     0.060 A 
BRANCH  73  74
ATOM     74  S   UNL     1      18.822  12.700  -6.071  1.00  0.00     0.124 S 
ATOM     75  O   UNL     1      18.632  11.627  -5.099  1.00  0.00    -0.237 OA
ATOM     76  O   UNL     1      19.781  12.427  -7.136  1.00  0.00    -0.237 OA
ATOM     77  O   UNL     1      18.873  14.049  -5.516  1.00  0.00    -0.744 OA
ENDBRANCH  73  74
ENDBRANCH  52  66
BRANCH  53  78
ATOM     78  C   UNL     1       5.841  12.058 -12.714  1.00  0.00     0.058 A 
ATOM     79  C   UNL     1       5.693  11.706 -14.065  1.00  0.00     0.135 A 
ATOM     80  C   UNL     1       4.678  12.350 -11.985  1.00  0.00     0.135 A 
ATOM     81  F   UNL     1       6.776  11.426 -14.806  1.00  0.00    -0.206 F 
ATOM     82  C   UNL     1       4.444  11.660 -14.674  1.00  0.00     0.059 A 
ATOM     83  C   UNL     1       3.415  12.288 -12.565  1.00  0.00     0.059 A 
ATOM     84  F   UNL     1       4.765  12.677 -10.686  1.00  0.00    -0.206 F 
ATOM     85  C   UNL     1       3.309  11.951 -13.914  1.00  0.00     0.060 A 
BRANCH  85  86
ATOM     86  S   UNL     1       1.687  11.837 -14.701  1.00  0.00     0.124 S 
ATOM     87  O   UNL     1       1.674  13.043 -15.522  1.00  0.00    -0.237 OA
ATOM     88  O   UNL     1       1.784  10.573 -15.424  1.00  0.00    -0.237 OA
ATOM     89  O   UNL     1       0.766  11.833 -13.568  1.00  0.00    -0.744 OA
ENDBRANCH  85  86
ENDBRANCH  53  78
BRANCH  65  90
ATOM     90  C   UNL     1      11.343  16.284 -13.438  1.00  0.00     0.058 A 
ATOM     91  C   UNL     1      10.748  17.534 -13.214  1.00  0.00     0.135 A 
ATOM     92  C   UNL     1      12.255  16.170 -14.499  1.00  0.00     0.135 A 
ATOM     93  F   UNL     1       9.864  17.693 -12.216  1.00  0.00    -0.206 F 
ATOM     94  C   UNL     1      11.032  18.628 -14.025  1.00  0.00     0.059 A 
ATOM     95  C   UNL     1      12.573  17.257 -15.307  1.00  0.00     0.059 A 
ATOM     96  F   UNL     1      12.861  14.998 -14.749  1.00  0.00    -0.206 F 
ATOM     97  C   UNL     1      11.948  18.480 -15.069  1.00  0.00     0.060 A 
BRANCH  97  98
ATOM     98  S   UNL     1      12.338  19.917 -16.091  1.00  0.00     0.124 S 
ATOM     99  O   UNL     1      11.145  20.016 -16.925  1.00  0.00    -0.237 OA
ATOM    100  O   UNL     1      12.507  20.972 -15.097  1.00  0.00    -0.237 OA
ATOM    101  O   UNL     1      13.559  19.518 -16.785  1.00  0.00    -0.744 OA
ENDBRANCH  97  98
ENDBRANCH  65  90
ENDBRANCH  39  40
ENDBRANCH  31  34
ENDBRANCH  29  30
ENDBRANCH   1  29
TORSDOF 17
