REMARK SMILES CCn1c(SCC(=O)NCCCNC(=O)c2ccc(-c3c4nc(c(-c5c(F)cc(S(=O)(=O)[O-])cc5F)c5ccc([nH]5)c(-c5c(F)cc(S(=O)(=O)[O-])cc5F)c5nc(c(-c6c(F)cc(S(=O)(=O)[O-])cc6F)c6ccc3[nH]6)C=C5)C=C4)cc2)nnc1-c1ccc(C)cc1
REMARK SMILES IDX 11 1 10 2 9 3 7 4 8 5 6 7 5 8 4 9 3 10 84 11 82 12 83 13
REMARK SMILES IDX 2 14 1 15 85 16 86 17 91 18 87 19 90 20 88 21 89 22 12 23
REMARK SMILES IDX 13 24 14 25 15 27 16 28 17 29 81 30 18 31 80 32 19 33 20 34
REMARK SMILES IDX 21 35 74 36 22 37 79 38 73 39 75 40 23 41 78 42 72 43 71 44
REMARK SMILES IDX 24 46 58 47 37 48 57 49 38 50 41 51 56 52 76 53 39 54 40 55
REMARK SMILES IDX 55 57 77 58 42 59 25 60 26 61 35 62 27 63 28 64 34 65 36 66
REMARK SMILES IDX 29 67 30 68 31 69 32 70 33 71 59 72 60 73 69 74 61 75 62 76
REMARK SMILES IDX 68 77 70 78 63 79 64 80 65 81 66 82 67 83 43 84 44 85 53 86
REMARK SMILES IDX 45 87 46 88 52 89 54 90 47 91 48 92 49 93 50 94 51 95
REMARK H PARENT 9 6 13 26 75 45 41 56
REMARK Flexibility Score: inf
ROOT
ATOM      1  C   UNL     1       3.983   3.386   2.182  1.00  0.00     0.042 C 
ENDROOT
BRANCH   1   2
ATOM      2  C   UNL     1       2.869   3.847   1.242  1.00  0.00     0.117 C 
BRANCH   2   3
ATOM      3  N   UNL     1       2.483   2.867   0.242  1.00  0.00    -0.355 N 
ATOM      4  C   UNL     1       1.283   2.275   0.020  1.00  0.00     0.230 C 
ATOM      5  O   UNL     1       1.070   1.911  -1.142  1.00  0.00    -0.274 OA
ATOM      6  H   UNL     1       3.204   2.590  -0.368  1.00  0.00     0.163 HD
BRANCH   4   7
ATOM      7  C   UNL     1       0.179   2.172   1.052  1.00  0.00     0.178 C 
BRANCH   7   8
ATOM      8  S   UNL     1       0.607   1.690   2.708  1.00  0.00    -0.076 SA
BRANCH   8   9
ATOM      9  C   UNL     1       1.098   0.046   2.898  1.00  0.00     0.191 A 
ATOM     10  N   UNL     1       0.843  -1.102   2.183  1.00  0.00    -0.302 N 
ATOM     11  C   UNL     1       1.384  -2.140   2.939  1.00  0.00     0.164 A 
ATOM     12  N   UNL     1       1.724  -0.281   4.010  1.00  0.00    -0.123 NA
ATOM     13  N   UNL     1       1.883  -1.635   4.048  1.00  0.00    -0.129 NA
BRANCH  10  14
ATOM     14  C   UNL     1       0.035  -1.311   1.002  1.00  0.00     0.123 C 
ATOM     15  C   UNL     1       0.720  -0.947  -0.301  1.00  0.00     0.028 C 
ENDBRANCH  10  14
BRANCH  11  16
ATOM     16  C   UNL     1       1.363  -3.563   2.606  1.00  0.00     0.019 A 
ATOM     17  C   UNL     1       0.588  -4.456   3.358  1.00  0.00     0.012 A 
ATOM     18  C   UNL     1       2.131  -4.057   1.546  1.00  0.00     0.012 A 
ATOM     19  C   UNL     1       0.550  -5.816   3.028  1.00  0.00     0.004 A 
ATOM     20  C   UNL     1       2.095  -5.416   1.220  1.00  0.00     0.004 A 
ATOM     21  C   UNL     1       1.300  -6.304   1.952  1.00  0.00    -0.051 A 
ATOM     22  C   UNL     1       1.245  -7.760   1.580  1.00  0.00     0.044 C 
ENDBRANCH  11  16
ENDBRANCH   8   9
ENDBRANCH   7   8
ENDBRANCH   4   7
ENDBRANCH   2   3
ENDBRANCH   1   2
BRANCH   1  23
ATOM     23  C   UNL     1       5.265   2.985   1.468  1.00  0.00     0.118 C 
BRANCH  23  24
ATOM     24  N   UNL     1       5.941   4.081   0.766  1.00  0.00    -0.352 N 
ATOM     25  C   UNL     1       7.181   4.063   0.136  1.00  0.00     0.251 C 
ATOM     26  H   UNL     1       5.457   4.937   0.738  1.00  0.00     0.163 HD
ATOM     27  O   UNL     1       7.747   5.101  -0.151  1.00  0.00    -0.269 OA
BRANCH  25  28
ATOM     28  C   UNL     1       7.798   2.754  -0.174  1.00  0.00     0.039 A 
ATOM     29  C   UNL     1       9.173   2.528  -0.047  1.00  0.00     0.014 A 
ATOM     30  C   UNL     1       6.951   1.727  -0.567  1.00  0.00     0.014 A 
ATOM     31  C   UNL     1       9.663   1.235  -0.241  1.00  0.00     0.010 A 
ATOM     32  C   UNL     1       7.394   0.436  -0.541  1.00  0.00     0.010 A 
ATOM     33  C   UNL     1       8.758   0.189  -0.473  1.00  0.00    -0.014 A 
BRANCH  33  34
ATOM     34  C   UNL     1       9.183  -1.201  -0.584  1.00  0.00     0.031 A 
ATOM     35  C   UNL     1       9.890  -1.735   0.610  1.00  0.00     0.074 A 
ATOM     36  C   UNL     1       8.713  -2.007  -1.564  1.00  0.00     0.049 A 
ATOM     37  N   UNL     1      11.126  -2.097   0.705  1.00  0.00    -0.248 NA
ATOM     38  C   UNL     1       9.175  -1.729   1.898  1.00  0.00     0.031 C 
ATOM     39  C   UNL     1       7.722  -1.693  -2.605  1.00  0.00     0.029 A 
ATOM     40  N   UNL     1       8.922  -3.335  -1.758  1.00  0.00    -0.354 N 
ATOM     41  C   UNL     1      11.277  -2.596   1.998  1.00  0.00     0.074 A 
ATOM     42  C   UNL     1      10.130  -2.138   2.735  1.00  0.00     0.031 C 
ATOM     43  C   UNL     1       7.238  -2.837  -3.134  1.00  0.00     0.029 A 
ATOM     44  C   UNL     1       8.009  -3.947  -2.610  1.00  0.00     0.049 A 
ATOM     45  H   UNL     1       9.660  -3.825  -1.329  1.00  0.00     0.167 HD
ATOM     46  C   UNL     1      12.197  -3.563   2.280  1.00  0.00     0.037 A 
ATOM     47  C   UNL     1       7.875  -5.278  -2.838  1.00  0.00     0.037 A 
ATOM     48  C   UNL     1      13.137  -3.709   1.195  1.00  0.00     0.049 A 
ATOM     49  C   UNL     1       9.150  -5.913  -2.412  1.00  0.00     0.074 A 
ATOM     50  C   UNL     1      14.024  -2.865   0.555  1.00  0.00     0.029 A 
ATOM     51  N   UNL     1      12.967  -4.782   0.350  1.00  0.00    -0.354 N 
ATOM     52  N   UNL     1      10.300  -5.695  -2.993  1.00  0.00    -0.248 NA
ATOM     53  C   UNL     1       9.231  -6.416  -1.049  1.00  0.00     0.031 C 
ATOM     54  C   UNL     1      13.948  -3.228  -0.822  1.00  0.00     0.029 A 
ATOM     55  C   UNL     1      13.083  -4.318  -0.935  1.00  0.00     0.049 A 
ATOM     56  H   UNL     1      12.793  -5.712   0.620  1.00  0.00     0.167 HD
ATOM     57  C   UNL     1      11.217  -5.617  -1.954  1.00  0.00     0.074 A 
ATOM     58  C   UNL     1      10.516  -6.159  -0.791  1.00  0.00     0.031 C 
ATOM     59  C   UNL     1      12.349  -4.858  -2.061  1.00  0.00     0.037 A 
BRANCH  46  60
ATOM     60  C   UNL     1      12.036  -4.638   3.337  1.00  0.00     0.058 A 
ATOM     61  C   UNL     1      13.119  -5.505   3.599  1.00  0.00     0.135 A 
ATOM     62  C   UNL     1      10.797  -5.039   3.885  1.00  0.00     0.135 A 
ATOM     63  F   UNL     1      14.348  -5.223   3.136  1.00  0.00    -0.206 F 
ATOM     64  C   UNL     1      12.963  -6.722   4.262  1.00  0.00     0.059 A 
ATOM     65  C   UNL     1      10.632  -6.221   4.600  1.00  0.00     0.059 A 
ATOM     66  F   UNL     1       9.663  -4.364   3.674  1.00  0.00    -0.206 F 
ATOM     67  C   UNL     1      11.707  -7.080   4.740  1.00  0.00     0.060 A 
BRANCH  67  68
ATOM     68  S   UNL     1      11.472  -8.705   5.478  1.00  0.00     0.124 S 
ATOM     69  O   UNL     1      11.619  -9.574   4.316  1.00  0.00    -0.237 OA
ATOM     70  O   UNL     1      12.555  -8.754   6.455  1.00  0.00    -0.237 OA
ATOM     71  O   UNL     1      10.128  -8.626   6.042  1.00  0.00    -0.744 OA
ENDBRANCH  67  68
ENDBRANCH  46  60
BRANCH  47  72
ATOM     72  C   UNL     1       6.621  -6.043  -3.076  1.00  0.00     0.058 A 
ATOM     73  C   UNL     1       6.648  -7.368  -3.547  1.00  0.00     0.135 A 
ATOM     74  C   UNL     1       5.377  -5.586  -2.592  1.00  0.00     0.135 A 
ATOM     75  F   UNL     1       7.792  -7.893  -4.011  1.00  0.00    -0.206 F 
ATOM     76  C   UNL     1       5.525  -8.205  -3.495  1.00  0.00     0.059 A 
ATOM     77  C   UNL     1       4.243  -6.395  -2.543  1.00  0.00     0.059 A 
ATOM     78  F   UNL     1       5.245  -4.360  -2.063  1.00  0.00    -0.206 F 
ATOM     79  C   UNL     1       4.331  -7.714  -2.967  1.00  0.00     0.060 A 
BRANCH  79  80
ATOM     80  S   UNL     1       2.924  -8.829  -2.742  1.00  0.00     0.124 S 
ATOM     81  O   UNL     1       2.631  -9.234  -4.112  1.00  0.00    -0.237 OA
ATOM     82  O   UNL     1       3.487  -9.859  -1.876  1.00  0.00    -0.237 OA
ATOM     83  O   UNL     1       1.916  -7.978  -2.115  1.00  0.00    -0.744 OA
ENDBRANCH  79  80
ENDBRANCH  47  72
BRANCH  59  84
ATOM     84  C   UNL     1      12.751  -4.348  -3.423  1.00  0.00     0.058 A 
ATOM     85  C   UNL     1      12.015  -3.415  -4.177  1.00  0.00     0.135 A 
ATOM     86  C   UNL     1      14.027  -4.685  -3.898  1.00  0.00     0.135 A 
ATOM     87  F   UNL     1      10.831  -2.961  -3.748  1.00  0.00    -0.206 F 
ATOM     88  C   UNL     1      12.514  -2.867  -5.361  1.00  0.00     0.059 A 
ATOM     89  C   UNL     1      14.557  -4.129  -5.059  1.00  0.00     0.059 A 
ATOM     90  F   UNL     1      14.805  -5.524  -3.193  1.00  0.00    -0.206 F 
ATOM     91  C   UNL     1      13.790  -3.226  -5.792  1.00  0.00     0.060 A 
BRANCH  91  92
ATOM     92  S   UNL     1      14.472  -2.450  -7.273  1.00  0.00     0.124 S 
ATOM     93  O   UNL     1      13.682  -3.066  -8.334  1.00  0.00    -0.237 OA
ATOM     94  O   UNL     1      14.218  -1.032  -7.035  1.00  0.00    -0.237 OA
ATOM     95  O   UNL     1      15.882  -2.834  -7.242  1.00  0.00    -0.744 OA
ENDBRANCH  91  92
ENDBRANCH  59  84
ENDBRANCH  33  34
ENDBRANCH  25  28
ENDBRANCH  23  24
ENDBRANCH   1  23
TORSDOF 17
