REMARK SMILES Cc1cc(Cl)c2c(c1)C=C(C(=O)NCCCNC(=O)c1ccc(-c3c4nc(c(-c5c(F)cc(S(=O)(=O)[O-])cc5F)c5ccc([nH]5)c(-c5c(F)cc(S(=O)(=O)[O-])cc5F)c5nc(c(-c6c(F)cc(S(=O)(=O)[O-])cc6F)c6ccc3[nH]6)C=C5)C=C4)cc1)[C@@H](C(F)(F)F)O2
REMARK SMILES IDX 16 1 15 2 14 3 13 4 11 5 12 6 10 8 1 9 2 10 3 11 8 12 4 13
REMARK SMILES IDX 7 14 5 15 6 16 9 17 91 18 86 19 87 20 88 21 89 22 90 23
REMARK SMILES IDX 17 24 18 25 19 27 20 28 21 29 85 30 22 31 84 32 23 33 24 34
REMARK SMILES IDX 25 35 78 36 26 37 83 38 77 39 79 40 27 41 82 42 76 43 75 44
REMARK SMILES IDX 28 46 62 47 41 48 61 49 42 50 45 51 60 52 80 53 43 54 44 55
REMARK SMILES IDX 59 57 81 58 46 59 29 60 30 61 39 62 31 63 32 64 38 65 40 66
REMARK SMILES IDX 33 67 34 68 35 69 36 70 37 71 63 72 64 73 73 74 65 75 66 76
REMARK SMILES IDX 72 77 74 78 67 79 68 80 69 81 70 82 71 83 47 84 48 85 57 86
REMARK SMILES IDX 49 87 50 88 56 89 58 90 51 91 52 92 53 93 54 94 55 95
REMARK H PARENT 13 7 17 26 79 45 45 56
REMARK Flexibility Score: inf
ROOT
ATOM      1  C   UNL     1      -3.571   4.428  -9.263  1.00  0.00     0.118 C 
ENDROOT
BRANCH   1   2
ATOM      2  C   UNL     1      -3.124   3.178  -8.517  1.00  0.00     0.042 C 
BRANCH   2   3
ATOM      3  C   UNL     1      -1.638   3.204  -8.195  1.00  0.00     0.118 C 
BRANCH   3   4
ATOM      4  N   UNL     1      -1.341   4.048  -7.048  1.00  0.00    -0.352 N 
ATOM      5  C   UNL     1      -0.954   3.873  -5.763  1.00  0.00     0.251 C 
ATOM      6  O   UNL     1      -0.791   4.913  -5.115  1.00  0.00    -0.270 OA
ATOM      7  H   UNL     1      -1.452   5.002  -7.264  1.00  0.00     0.163 HD
BRANCH   5   8
ATOM      8  C   UNL     1      -0.716   2.553  -5.111  1.00  0.00     0.067 C 
ATOM      9  C   UNL     1       1.086   0.126   0.289  1.00  0.00     0.044 C 
ATOM     10  C   UNL     1       0.535   0.127  -1.106  1.00  0.00    -0.049 A 
ATOM     11  C   UNL     1       0.274  -1.083  -1.761  1.00  0.00     0.028 A 
ATOM     12  C   UNL     1       0.322   1.334  -1.787  1.00  0.00     0.015 A 
ATOM     13  C   UNL     1      -0.219  -1.084  -3.066  1.00  0.00     0.084 A 
ATOM     14  C   UNL     1      -0.168   1.336  -3.098  1.00  0.00     0.019 A 
ATOM     15  Cl  UNL     1      -0.531  -2.602  -3.827  1.00  0.00    -0.080 Cl
ATOM     16  C   UNL     1      -0.436   0.122  -3.736  1.00  0.00     0.146 A 
ATOM     17  C   UNL     1      -0.435   2.589  -3.796  1.00  0.00     0.025 C 
ATOM     18  O   UNL     1      -0.956   0.076  -5.000  1.00  0.00    -0.474 OA
ATOM     19  C   UNL     1      -0.739   1.239  -5.838  1.00  0.00     0.314 C 
BRANCH  19  20
ATOM     20  C   UNL     1       0.522   1.020  -6.697  1.00  0.00     0.429 C 
ATOM     21  F   UNL     1       0.308   0.054  -7.624  1.00  0.00    -0.167 F 
ATOM     22  F   UNL     1       0.890   2.131  -7.380  1.00  0.00    -0.167 F 
ATOM     23  F   UNL     1       1.594   0.647  -5.961  1.00  0.00    -0.167 F 
ENDBRANCH  19  20
ENDBRANCH   5   8
ENDBRANCH   3   4
ENDBRANCH   2   3
ENDBRANCH   1   2
BRANCH   1  24
ATOM     24  N   UNL     1      -2.924   4.541 -10.568  1.00  0.00    -0.352 N 
ATOM     25  C   UNL     1      -3.427   4.325 -11.825  1.00  0.00     0.251 C 
ATOM     26  H   UNL     1      -1.978   4.814 -10.540  1.00  0.00     0.163 HD
ATOM     27  O   UNL     1      -2.655   4.185 -12.773  1.00  0.00    -0.269 OA
BRANCH  25  28
ATOM     28  C   UNL     1      -4.885   4.262 -12.036  1.00  0.00     0.039 A 
ATOM     29  C   UNL     1      -5.413   3.328 -12.931  1.00  0.00     0.014 A 
ATOM     30  C   UNL     1      -5.729   5.148 -11.363  1.00  0.00     0.014 A 
ATOM     31  C   UNL     1      -6.796   3.245 -13.100  1.00  0.00     0.010 A 
ATOM     32  C   UNL     1      -7.105   4.995 -11.453  1.00  0.00     0.010 A 
ATOM     33  C   UNL     1      -7.652   4.056 -12.337  1.00  0.00    -0.014 A 
BRANCH  33  34
ATOM     34  C   UNL     1      -9.126   3.970 -12.470  1.00  0.00     0.031 A 
ATOM     35  C   UNL     1      -9.899   5.166 -12.957  1.00  0.00     0.074 A 
ATOM     36  C   UNL     1      -9.764   2.844 -12.100  1.00  0.00     0.049 A 
ATOM     37  N   UNL     1     -11.191   5.321 -13.071  1.00  0.00    -0.248 NA
ATOM     38  C   UNL     1      -9.117   6.356 -13.335  1.00  0.00     0.031 C 
ATOM     39  C   UNL     1      -9.119   1.638 -11.575  1.00  0.00     0.029 A 
ATOM     40  N   UNL     1     -11.099   2.528 -12.106  1.00  0.00    -0.354 N 
ATOM     41  C   UNL     1     -11.375   6.621 -13.527  1.00  0.00     0.074 A 
ATOM     42  C   UNL     1     -10.070   7.237 -13.599  1.00  0.00     0.031 C 
ATOM     43  C   UNL     1     -10.053   0.702 -11.347  1.00  0.00     0.029 A 
ATOM     44  C   UNL     1     -11.366   1.252 -11.668  1.00  0.00     0.049 A 
ATOM     45  H   UNL     1     -11.799   3.155 -12.397  1.00  0.00     0.167 HD
ATOM     46  C   UNL     1     -12.526   7.234 -13.889  1.00  0.00     0.037 A 
ATOM     47  C   UNL     1     -12.540   0.603 -11.540  1.00  0.00     0.037 A 
ATOM     48  C   UNL     1     -13.816   6.601 -13.841  1.00  0.00     0.049 A 
ATOM     49  C   UNL     1     -13.808   1.313 -11.927  1.00  0.00     0.074 A 
ATOM     50  C   UNL     1     -15.041   7.116 -14.224  1.00  0.00     0.029 A 
ATOM     51  N   UNL     1     -14.048   5.310 -13.388  1.00  0.00    -0.354 N 
ATOM     52  N   UNL     1     -13.961   2.527 -12.399  1.00  0.00    -0.248 NA
ATOM     53  C   UNL     1     -15.064   0.567 -11.765  1.00  0.00     0.031 C 
ATOM     54  C   UNL     1     -16.020   6.153 -13.961  1.00  0.00     0.029 A 
ATOM     55  C   UNL     1     -15.399   5.018 -13.462  1.00  0.00     0.049 A 
ATOM     56  H   UNL     1     -13.353   4.693 -13.062  1.00  0.00     0.167 HD
ATOM     57  C   UNL     1     -15.326   2.684 -12.612  1.00  0.00     0.074 A 
ATOM     58  C   UNL     1     -15.953   1.435 -12.230  1.00  0.00     0.031 C 
ATOM     59  C   UNL     1     -16.000   3.765 -13.078  1.00  0.00     0.037 A 
BRANCH  46  60
ATOM     60  C   UNL     1     -12.438   8.650 -14.388  1.00  0.00     0.058 A 
ATOM     61  C   UNL     1     -11.854   8.955 -15.628  1.00  0.00     0.135 A 
ATOM     62  C   UNL     1     -12.979   9.710 -13.642  1.00  0.00     0.135 A 
ATOM     63  F   UNL     1     -11.303   7.983 -16.373  1.00  0.00    -0.206 F 
ATOM     64  C   UNL     1     -11.788  10.261 -16.101  1.00  0.00     0.059 A 
ATOM     65  C   UNL     1     -12.951  11.021 -14.110  1.00  0.00     0.059 A 
ATOM     66  F   UNL     1     -13.544   9.476 -12.447  1.00  0.00    -0.206 F 
ATOM     67  C   UNL     1     -12.344  11.287 -15.336  1.00  0.00     0.060 A 
BRANCH  67  68
ATOM     68  S   UNL     1     -12.266  12.972 -15.978  1.00  0.00     0.124 S 
ATOM     69  O   UNL     1     -10.838  13.257 -15.876  1.00  0.00    -0.237 OA
ATOM     70  O   UNL     1     -12.784  12.811 -17.333  1.00  0.00    -0.237 OA
ATOM     71  O   UNL     1     -13.122  13.725 -15.066  1.00  0.00    -0.744 OA
ENDBRANCH  67  68
ENDBRANCH  46  60
BRANCH  47  72
ATOM     72  C   UNL     1     -12.559  -0.806 -11.063  1.00  0.00     0.058 A 
ATOM     73  C   UNL     1     -12.876  -1.855 -11.938  1.00  0.00     0.135 A 
ATOM     74  C   UNL     1     -12.232  -1.137  -9.739  1.00  0.00     0.135 A 
ATOM     75  F   UNL     1     -13.202  -1.589 -13.213  1.00  0.00    -0.206 F 
ATOM     76  C   UNL     1     -12.876  -3.181 -11.518  1.00  0.00     0.059 A 
ATOM     77  C   UNL     1     -12.200  -2.458  -9.301  1.00  0.00     0.059 A 
ATOM     78  F   UNL     1     -11.904  -0.173  -8.865  1.00  0.00    -0.206 F 
ATOM     79  C   UNL     1     -12.530  -3.473 -10.198  1.00  0.00     0.060 A 
BRANCH  79  80
ATOM     80  S   UNL     1     -12.480  -5.204  -9.683  1.00  0.00     0.124 S 
ATOM     81  O   UNL     1     -13.894  -5.559  -9.705  1.00  0.00    -0.237 OA
ATOM     82  O   UNL     1     -11.653  -5.806 -10.725  1.00  0.00    -0.237 OA
ATOM     83  O   UNL     1     -11.865  -5.143  -8.361  1.00  0.00    -0.744 OA
ENDBRANCH  79  80
ENDBRANCH  47  72
BRANCH  59  84
ATOM     84  C   UNL     1     -17.492   3.646 -13.219  1.00  0.00     0.058 A 
ATOM     85  C   UNL     1     -18.335   3.650 -12.098  1.00  0.00     0.135 A 
ATOM     86  C   UNL     1     -18.087   3.613 -14.491  1.00  0.00     0.135 A 
ATOM     87  F   UNL     1     -17.816   3.675 -10.861  1.00  0.00    -0.206 F 
ATOM     88  C   UNL     1     -19.719   3.613 -12.233  1.00  0.00     0.059 A 
ATOM     89  C   UNL     1     -19.468   3.605 -14.649  1.00  0.00     0.059 A 
ATOM     90  F   UNL     1     -17.323   3.619 -15.595  1.00  0.00    -0.206 F 
ATOM     91  C   UNL     1     -20.276   3.598 -13.513  1.00  0.00     0.060 A 
BRANCH  91  92
ATOM     92  S   UNL     1     -22.074   3.601 -13.669  1.00  0.00     0.124 S 
ATOM     93  O   UNL     1     -22.412   2.260 -13.204  1.00  0.00    -0.237 OA
ATOM     94  O   UNL     1     -22.459   4.696 -12.783  1.00  0.00    -0.237 OA
ATOM     95  O   UNL     1     -22.293   3.846 -15.091  1.00  0.00    -0.744 OA
ENDBRANCH  91  92
ENDBRANCH  59  84
ENDBRANCH  33  34
ENDBRANCH  25  28
ENDBRANCH   1  24
TORSDOF 14
