REMARK SMILES O=C(NCCCNC(=O)[C@@H]1CNc2ccccc2C1)c1ccc(-c2c3nc(c(-c4c(F)cc(S(=O)(=O)[O-])cc4F)c4ccc([nH]4)c(-c4c(F)cc(S(=O)(=O)[O-])cc4F)c4nc(c(-c5c(F)cc(S(=O)(=O)[O-])cc5F)c5ccc2[nH]5)C=C4)C=C3)cc1
REMARK SMILES IDX 1 1 2 2 3 3 20 5 21 6 85 7 22 8 84 9 23 10 24 11 25 12 78 13
REMARK SMILES IDX 26 14 83 15 77 16 79 17 27 18 82 19 76 20 75 21 28 23 62 24
REMARK SMILES IDX 41 25 61 26 42 27 45 28 60 29 80 30 43 31 44 32 59 34 81 35
REMARK SMILES IDX 46 36 29 37 30 38 39 39 31 40 32 41 38 42 40 43 33 44 34 45
REMARK SMILES IDX 35 46 36 47 37 48 63 49 64 50 73 51 65 52 66 53 72 54 74 55
REMARK SMILES IDX 67 56 68 57 69 58 70 59 71 60 47 61 48 62 57 63 49 64 50 65
REMARK SMILES IDX 56 66 58 67 51 68 52 69 53 70 54 71 55 72 4 73 5 74 6 75
REMARK SMILES IDX 7 76 8 77 9 79 10 80 11 81 19 82 12 83 18 84 13 85 17 87
REMARK SMILES IDX 14 88 16 89 15 90
REMARK H PARENT 3 4 79 22 45 33 7 78 12 86
REMARK Flexibility Score: inf
ROOT
ATOM      1  O   UNL     1       1.163  -0.015   0.022  1.00  0.00    -0.269 OA
ATOM      2  C   UNL     1       2.389  -0.000   0.101  1.00  0.00     0.251 C 
ATOM      3  N   UNL     1       3.088   1.074  -0.401  1.00  0.00    -0.352 N 
ATOM      4  H   UNL     1       2.532   1.838  -0.677  1.00  0.00     0.163 HD
ENDROOT
BRANCH   2   5
ATOM      5  C   UNL     1       3.108  -1.145   0.702  1.00  0.00     0.039 A 
ATOM      6  C   UNL     1       4.206  -0.935   1.535  1.00  0.00     0.014 A 
ATOM      7  C   UNL     1       2.679  -2.450   0.436  1.00  0.00     0.014 A 
ATOM      8  C   UNL     1       4.986  -2.010   1.933  1.00  0.00     0.010 A 
ATOM      9  C   UNL     1       3.397  -3.539   0.944  1.00  0.00     0.010 A 
ATOM     10  C   UNL     1       4.580  -3.329   1.667  1.00  0.00    -0.014 A 
BRANCH  10  11
ATOM     11  C   UNL     1       5.385  -4.444   2.233  1.00  0.00     0.031 A 
ATOM     12  C   UNL     1       6.082  -5.443   1.350  1.00  0.00     0.074 A 
ATOM     13  C   UNL     1       5.540  -4.495   3.572  1.00  0.00     0.049 A 
ATOM     14  N   UNL     1       6.874  -6.427   1.695  1.00  0.00    -0.248 NA
ATOM     15  C   UNL     1       5.861  -5.337  -0.101  1.00  0.00     0.031 C 
ATOM     16  C   UNL     1       4.889  -3.594   4.529  1.00  0.00     0.029 A 
ATOM     17  N   UNL     1       6.318  -5.303   4.360  1.00  0.00    -0.354 N 
ATOM     18  C   UNL     1       7.231  -7.066   0.513  1.00  0.00     0.074 A 
ATOM     19  C   UNL     1       6.553  -6.372  -0.560  1.00  0.00     0.031 C 
ATOM     20  C   UNL     1       5.351  -3.848   5.761  1.00  0.00     0.029 A 
ATOM     21  C   UNL     1       6.274  -4.973   5.694  1.00  0.00     0.049 A 
ATOM     22  H   UNL     1       6.856  -6.047   4.005  1.00  0.00     0.167 HD
ATOM     23  C   UNL     1       8.056  -8.129   0.343  1.00  0.00     0.037 A 
ATOM     24  C   UNL     1       6.897  -5.520   6.753  1.00  0.00     0.037 A 
ATOM     25  C   UNL     1       8.744  -8.801   1.417  1.00  0.00     0.049 A 
ATOM     26  C   UNL     1       7.818  -6.682   6.530  1.00  0.00     0.074 A 
ATOM     27  C   UNL     1       9.608  -9.881   1.345  1.00  0.00     0.029 A 
ATOM     28  N   UNL     1       8.655  -8.453   2.758  1.00  0.00    -0.354 N 
ATOM     29  N   UNL     1       8.141  -7.268   5.402  1.00  0.00    -0.248 NA
ATOM     30  C   UNL     1       8.450  -7.263   7.720  1.00  0.00     0.031 C 
ATOM     31  C   UNL     1      10.019 -10.204   2.644  1.00  0.00     0.029 A 
ATOM     32  C   UNL     1       9.440  -9.302   3.522  1.00  0.00     0.049 A 
ATOM     33  H   UNL     1       8.113  -7.712   3.114  1.00  0.00     0.167 HD
ATOM     34  C   UNL     1       9.011  -8.293   5.748  1.00  0.00     0.074 A 
ATOM     35  C   UNL     1       9.192  -8.222   7.184  1.00  0.00     0.031 C 
ATOM     36  C   UNL     1       9.596  -9.221   4.951  1.00  0.00     0.037 A 
BRANCH  23  37
ATOM     37  C   UNL     1       8.265  -8.643  -1.055  1.00  0.00     0.058 A 
ATOM     38  C   UNL     1       9.077  -7.961  -1.974  1.00  0.00     0.135 A 
ATOM     39  C   UNL     1       7.707  -9.867  -1.457  1.00  0.00     0.135 A 
ATOM     40  F   UNL     1       9.622  -6.779  -1.648  1.00  0.00    -0.206 F 
ATOM     41  C   UNL     1       9.323  -8.471  -3.246  1.00  0.00     0.059 A 
ATOM     42  C   UNL     1       7.955 -10.406  -2.717  1.00  0.00     0.059 A 
ATOM     43  F   UNL     1       6.920 -10.559  -0.618  1.00  0.00    -0.206 F 
ATOM     44  C   UNL     1       8.759  -9.697  -3.607  1.00  0.00     0.060 A 
BRANCH  44  45
ATOM     45  S   UNL     1       9.112 -10.358  -5.250  1.00  0.00     0.124 S 
ATOM     46  O   UNL     1       8.288  -9.497  -6.093  1.00  0.00    -0.237 OA
ATOM     47  O   UNL     1      10.553 -10.163  -5.364  1.00  0.00    -0.237 OA
ATOM     48  O   UNL     1       8.676 -11.748  -5.158  1.00  0.00    -0.744 OA
ENDBRANCH  44  45
ENDBRANCH  23  37
BRANCH  24  49
ATOM     49  C   UNL     1       6.647  -4.984   8.116  1.00  0.00     0.058 A 
ATOM     50  C   UNL     1       7.642  -4.291   8.819  1.00  0.00     0.135 A 
ATOM     51  C   UNL     1       5.397  -5.144   8.734  1.00  0.00     0.135 A 
ATOM     52  F   UNL     1       8.853  -4.115   8.270  1.00  0.00    -0.206 F 
ATOM     53  C   UNL     1       7.413  -3.788  10.096  1.00  0.00     0.059 A 
ATOM     54  C   UNL     1       5.135  -4.626   9.997  1.00  0.00     0.059 A 
ATOM     55  F   UNL     1       4.405  -5.781   8.092  1.00  0.00    -0.206 F 
ATOM     56  C   UNL     1       6.155  -3.963  10.677  1.00  0.00     0.060 A 
BRANCH  56  57
ATOM     57  S   UNL     1       5.843  -3.275  12.317  1.00  0.00     0.124 S 
ATOM     58  O   UNL     1       6.453  -4.284  13.175  1.00  0.00    -0.237 OA
ATOM     59  O   UNL     1       6.532  -1.990  12.253  1.00  0.00    -0.237 OA
ATOM     60  O   UNL     1       4.387  -3.193  12.370  1.00  0.00    -0.744 OA
ENDBRANCH  56  57
ENDBRANCH  24  49
BRANCH  36  61
ATOM     61  C   UNL     1      10.482 -10.225   5.628  1.00  0.00     0.058 A 
ATOM     62  C   UNL     1       9.944 -11.270   6.396  1.00  0.00     0.135 A 
ATOM     63  C   UNL     1      11.877 -10.142   5.511  1.00  0.00     0.135 A 
ATOM     64  F   UNL     1       8.615 -11.385   6.544  1.00  0.00    -0.206 F 
ATOM     65  C   UNL     1      10.763 -12.179   7.056  1.00  0.00     0.059 A 
ATOM     66  C   UNL     1      12.715 -11.054   6.144  1.00  0.00     0.059 A 
ATOM     67  F   UNL     1      12.438  -9.165   4.781  1.00  0.00    -0.206 F 
ATOM     68  C   UNL     1      12.148 -12.058   6.930  1.00  0.00     0.060 A 
BRANCH  68  69
ATOM     69  S   UNL     1      13.206 -13.240   7.792  1.00  0.00     0.124 S 
ATOM     70  O   UNL     1      13.172 -12.721   9.155  1.00  0.00    -0.237 OA
ATOM     71  O   UNL     1      12.508 -14.504   7.577  1.00  0.00    -0.237 OA
ATOM     72  O   UNL     1      14.485 -13.113   7.101  1.00  0.00    -0.744 OA
ENDBRANCH  68  69
ENDBRANCH  36  61
ENDBRANCH  10  11
ENDBRANCH   2   5
BRANCH   3  73
ATOM     73  C   UNL     1       4.522   1.259  -0.586  1.00  0.00     0.118 C 
BRANCH  73  74
ATOM     74  C   UNL     1       4.938   1.288  -2.048  1.00  0.00     0.042 C 
BRANCH  74  75
ATOM     75  C   UNL     1       4.419   2.486  -2.824  1.00  0.00     0.117 C 
BRANCH  75  76
ATOM     76  N   UNL     1       4.831   3.748  -2.237  1.00  0.00    -0.356 N 
ATOM     77  C   UNL     1       5.582   4.764  -2.748  1.00  0.00     0.225 C 
ATOM     78  H   UNL     1       4.515   3.895  -1.317  1.00  0.00     0.163 HD
ATOM     79  O   UNL     1       5.915   5.654  -1.963  1.00  0.00    -0.275 OA
BRANCH  77  80
ATOM     80  C   UNL     1       6.038   4.718  -4.203  1.00  0.00     0.102 C 
ATOM     81  C   UNL     1       6.954   5.903  -4.522  1.00  0.00     0.126 C 
ATOM     82  C   UNL     1       4.890   4.694  -5.219  1.00  0.00     0.053 C 
ATOM     83  N   UNL     1       6.231   7.163  -4.630  1.00  0.00    -0.384 N 
ATOM     84  C   UNL     1       4.217   6.030  -5.372  1.00  0.00    -0.024 A 
ATOM     85  C   UNL     1       4.912   7.201  -5.046  1.00  0.00     0.037 A 
ATOM     86  H   UNL     1       6.690   8.003  -4.403  1.00  0.00     0.160 HD
ATOM     87  C   UNL     1       2.898   6.091  -5.848  1.00  0.00     0.006 A 
ATOM     88  C   UNL     1       4.263   8.428  -5.209  1.00  0.00     0.026 A 
ATOM     89  C   UNL     1       2.261   7.320  -5.989  1.00  0.00     0.000 A 
ATOM     90  C   UNL     1       2.944   8.489  -5.669  1.00  0.00     0.002 A 
ENDBRANCH  77  80
ENDBRANCH  75  76
ENDBRANCH  74  75
ENDBRANCH  73  74
ENDBRANCH   3  73
TORSDOF 13
