REMARK SMILES Cc1nc2scc(C)n2c1CNc1ccc(C(=O)NCCCNC(=O)c2ccc(-c3c4nc(c(-c5c(F)cc(S(=O)(=O)[O-])cc5F)c5ccc([nH]5)c(-c5c(F)cc(S(=O)(=O)[O-])cc5F)c5nc(c(-c6c(F)cc(S(=O)(=O)[O-])cc6F)c6ccc3[nH]6)C=C5)C=C4)cc2)cc1
REMARK SMILES IDX 21 1 20 2 19 3 17 4 18 5 16 7 13 8 14 9 93 10 15 11 92 12
REMARK SMILES IDX 12 13 11 15 10 16 1 17 2 18 3 19 4 20 9 21 5 22 7 23 6 24
REMARK SMILES IDX 8 25 22 26 23 27 24 28 25 30 26 31 27 32 91 33 28 34 90 35
REMARK SMILES IDX 29 36 30 37 31 38 84 39 32 40 89 41 83 42 85 43 33 44 88 45
REMARK SMILES IDX 82 46 81 47 34 49 68 50 47 51 67 52 48 53 51 54 66 55 86 56
REMARK SMILES IDX 49 57 50 58 65 60 87 61 52 62 35 63 36 64 45 65 37 66 38 67
REMARK SMILES IDX 44 68 46 69 39 70 40 71 41 72 42 73 43 74 69 75 70 76 79 77
REMARK SMILES IDX 71 78 72 79 78 80 80 81 73 82 74 83 75 84 76 85 77 86 53 87
REMARK SMILES IDX 54 88 63 89 55 90 56 91 62 92 64 93 57 94 58 95 59 96 60 97
REMARK SMILES IDX 61 98
REMARK H PARENT 19 6 12 14 23 29 85 48 51 59
REMARK Flexibility Score: inf
ROOT
ATOM      1  C   UNL     1      -6.039  -1.642   7.346  1.00  0.00     0.042 C 
ENDROOT
BRANCH   1   2
ATOM      2  C   UNL     1      -5.935  -0.111   7.308  1.00  0.00     0.118 C 
BRANCH   2   3
ATOM      3  N   UNL     1      -5.134   0.410   8.404  1.00  0.00    -0.352 N 
ATOM      4  C   UNL     1      -3.805   0.738   8.506  1.00  0.00     0.251 C 
ATOM      5  O   UNL     1      -3.430   1.271   9.550  1.00  0.00    -0.269 OA
ATOM      6  H   UNL     1      -5.644   0.557   9.233  1.00  0.00     0.163 HD
BRANCH   4   7
ATOM      7  C   UNL     1      -2.821   0.546   7.403  1.00  0.00     0.039 A 
ATOM      8  C   UNL     1      -0.974   0.479   5.259  1.00  0.00     0.034 A 
ATOM      9  C   UNL     1      -0.742   1.285   6.375  1.00  0.00     0.026 A 
ATOM     10  C   UNL     1      -2.082  -0.365   5.279  1.00  0.00     0.026 A 
ATOM     11  C   UNL     1      -1.663   1.335   7.427  1.00  0.00     0.016 A 
ATOM     12  C   UNL     1      -2.972  -0.358   6.354  1.00  0.00     0.016 A 
BRANCH   8  13
ATOM     13  N   UNL     1      -0.200   0.641   4.127  1.00  0.00    -0.379 N 
ATOM     14  H   UNL     1       0.780   0.696   4.204  1.00  0.00     0.160 HD
BRANCH  13  15
ATOM     15  C   UNL     1      -0.829   0.731   2.824  1.00  0.00     0.169 C 
BRANCH  15  16
ATOM     16  C   UNL     1      -0.145   1.690   1.925  1.00  0.00     0.066 A 
ATOM     17  C   UNL     1       0.986   0.180   0.132  1.00  0.00     0.069 C 
ATOM     18  C   UNL     1       0.630   1.462   0.788  1.00  0.00     0.062 A 
ATOM     19  N   UNL     1       1.101   2.643   0.253  1.00  0.00    -0.224 NA
ATOM     20  C   UNL     1       0.621   3.550   1.054  1.00  0.00     0.194 A 
ATOM     21  N   UNL     1      -0.154   3.062   2.071  1.00  0.00    -0.290 N 
ATOM     22  S   UNL     1       0.743   5.279   1.095  1.00  0.00    -0.105 S 
ATOM     23  C   UNL     1      -0.688   4.044   2.904  1.00  0.00     0.032 A 
ATOM     24  C   UNL     1      -0.300   5.277   2.513  1.00  0.00     0.090 A 
ATOM     25  C   UNL     1      -1.589   3.808   4.062  1.00  0.00     0.066 C 
ENDBRANCH  15  16
ENDBRANCH  13  15
ENDBRANCH   8  13
ENDBRANCH   4   7
ENDBRANCH   2   3
ENDBRANCH   1   2
BRANCH   1  26
ATOM     26  C   UNL     1      -7.107  -2.120   8.311  1.00  0.00     0.118 C 
BRANCH  26  27
ATOM     27  N   UNL     1      -8.460  -1.833   7.828  1.00  0.00    -0.352 N 
ATOM     28  C   UNL     1      -9.672  -2.080   8.452  1.00  0.00     0.251 C 
ATOM     29  H   UNL     1      -8.515  -1.408   6.942  1.00  0.00     0.163 HD
ATOM     30  O   UNL     1     -10.702  -2.126   7.803  1.00  0.00    -0.269 OA
BRANCH  28  31
ATOM     31  C   UNL     1      -9.682  -2.284   9.913  1.00  0.00     0.039 A 
ATOM     32  C   UNL     1     -10.529  -3.214  10.523  1.00  0.00     0.014 A 
ATOM     33  C   UNL     1      -8.786  -1.539  10.669  1.00  0.00     0.014 A 
ATOM     34  C   UNL     1     -10.401  -3.431  11.894  1.00  0.00     0.010 A 
ATOM     35  C   UNL     1      -8.512  -1.910  11.954  1.00  0.00     0.010 A 
ATOM     36  C   UNL     1      -9.372  -2.785  12.598  1.00  0.00    -0.014 A 
BRANCH  36  37
ATOM     37  C   UNL     1      -9.080  -3.090  13.992  1.00  0.00     0.031 A 
ATOM     38  C   UNL     1      -8.811  -4.530  14.234  1.00  0.00     0.074 A 
ATOM     39  C   UNL     1      -8.819  -2.127  14.906  1.00  0.00     0.049 A 
ATOM     40  N   UNL     1      -9.588  -5.389  14.805  1.00  0.00    -0.248 NA
ATOM     41  C   UNL     1      -7.639  -5.140  13.580  1.00  0.00     0.031 C 
ATOM     42  C   UNL     1      -8.730  -0.674  14.697  1.00  0.00     0.029 A 
ATOM     43  N   UNL     1      -8.464  -2.250  16.213  1.00  0.00    -0.354 N 
ATOM     44  C   UNL     1      -8.860  -6.574  14.847  1.00  0.00     0.074 A 
ATOM     45  C   UNL     1      -7.825  -6.432  13.860  1.00  0.00     0.031 C 
ATOM     46  C   UNL     1      -8.116  -0.096  15.753  1.00  0.00     0.029 A 
ATOM     47  C   UNL     1      -7.931  -1.096  16.786  1.00  0.00     0.049 A 
ATOM     48  H   UNL     1      -8.574  -3.089  16.715  1.00  0.00     0.167 HD
ATOM     49  C   UNL     1      -8.972  -7.417  15.913  1.00  0.00     0.037 A 
ATOM     50  C   UNL     1      -7.364  -0.983  18.016  1.00  0.00     0.037 A 
ATOM     51  C   UNL     1     -10.137  -7.083  16.703  1.00  0.00     0.049 A 
ATOM     52  C   UNL     1      -7.845  -2.143  18.811  1.00  0.00     0.074 A 
ATOM     53  C   UNL     1     -11.491  -6.967  16.451  1.00  0.00     0.029 A 
ATOM     54  N   UNL     1      -9.918  -6.410  17.883  1.00  0.00    -0.354 N 
ATOM     55  N   UNL     1      -9.093  -2.318  19.153  1.00  0.00    -0.248 NA
ATOM     56  C   UNL     1      -7.027  -3.346  18.803  1.00  0.00     0.031 C 
ATOM     57  C   UNL     1     -11.917  -5.845  17.222  1.00  0.00     0.029 A 
ATOM     58  C   UNL     1     -10.828  -5.390  17.968  1.00  0.00     0.049 A 
ATOM     59  H   UNL     1      -9.227  -6.625  18.550  1.00  0.00     0.167 HD
ATOM     60  C   UNL     1      -9.324  -3.674  18.970  1.00  0.00     0.074 A 
ATOM     61  C   UNL     1      -7.994  -4.268  18.840  1.00  0.00     0.031 C 
ATOM     62  C   UNL     1     -10.568  -4.136  18.644  1.00  0.00     0.037 A 
BRANCH  49  63
ATOM     63  C   UNL     1      -7.829  -8.227  16.495  1.00  0.00     0.058 A 
ATOM     64  C   UNL     1      -8.105  -9.106  17.566  1.00  0.00     0.135 A 
ATOM     65  C   UNL     1      -6.457  -7.968  16.270  1.00  0.00     0.135 A 
ATOM     66  F   UNL     1      -9.370  -9.441  17.866  1.00  0.00    -0.206 F 
ATOM     67  C   UNL     1      -7.110  -9.592  18.414  1.00  0.00     0.059 A 
ATOM     68  C   UNL     1      -5.446  -8.485  17.071  1.00  0.00     0.059 A 
ATOM     69  F   UNL     1      -6.021  -7.130  15.325  1.00  0.00    -0.206 F 
ATOM     70  C   UNL     1      -5.784  -9.257  18.168  1.00  0.00     0.060 A 
BRANCH  70  71
ATOM     71  S   UNL     1      -4.508  -9.791  19.318  1.00  0.00     0.124 S 
ATOM     72  O   UNL     1      -4.828  -8.993  20.496  1.00  0.00    -0.237 OA
ATOM     73  O   UNL     1      -4.776 -11.222  19.419  1.00  0.00    -0.237 OA
ATOM     74  O   UNL     1      -3.269  -9.438  18.631  1.00  0.00    -0.744 OA
ENDBRANCH  70  71
ENDBRANCH  49  63
BRANCH  50  75
ATOM     75  C   UNL     1      -6.195  -0.157  18.434  1.00  0.00     0.058 A 
ATOM     76  C   UNL     1      -5.860  -0.001  19.793  1.00  0.00     0.135 A 
ATOM     77  C   UNL     1      -5.212   0.247  17.508  1.00  0.00     0.135 A 
ATOM     78  F   UNL     1      -6.728  -0.372  20.747  1.00  0.00    -0.206 F 
ATOM     79  C   UNL     1      -4.607   0.469  20.209  1.00  0.00     0.059 A 
ATOM     80  C   UNL     1      -3.960   0.725  17.898  1.00  0.00     0.059 A 
ATOM     81  F   UNL     1      -5.405   0.101  16.189  1.00  0.00    -0.206 F 
ATOM     82  C   UNL     1      -3.652   0.808  19.251  1.00  0.00     0.060 A 
BRANCH  82  83
ATOM     83  S   UNL     1      -1.974   1.237  19.777  1.00  0.00     0.124 S 
ATOM     84  O   UNL     1      -2.176   2.538  20.404  1.00  0.00    -0.237 OA
ATOM     85  O   UNL     1      -1.640   0.140  20.679  1.00  0.00    -0.237 OA
ATOM     86  O   UNL     1      -1.221   1.259  18.524  1.00  0.00    -0.744 OA
ENDBRANCH  82  83
ENDBRANCH  50  75
BRANCH  62  87
ATOM     87  C   UNL     1     -11.744  -3.208  18.818  1.00  0.00     0.058 A 
ATOM     88  C   UNL     1     -11.951  -2.019  18.095  1.00  0.00     0.135 A 
ATOM     89  C   UNL     1     -12.782  -3.630  19.662  1.00  0.00     0.135 A 
ATOM     90  F   UNL     1     -11.056  -1.594  17.193  1.00  0.00    -0.206 F 
ATOM     91  C   UNL     1     -13.119  -1.265  18.238  1.00  0.00     0.059 A 
ATOM     92  C   UNL     1     -13.966  -2.913  19.796  1.00  0.00     0.059 A 
ATOM     93  F   UNL     1     -12.672  -4.788  20.334  1.00  0.00    -0.206 F 
ATOM     94  C   UNL     1     -14.123  -1.722  19.091  1.00  0.00     0.060 A 
BRANCH  94  95
ATOM     95  S   UNL     1     -15.660  -0.784  19.233  1.00  0.00     0.124 S 
ATOM     96  O   UNL     1     -15.228   0.408  19.954  1.00  0.00    -0.237 OA
ATOM     97  O   UNL     1     -16.038  -0.579  17.837  1.00  0.00    -0.237 OA
ATOM     98  O   UNL     1     -16.540  -1.680  19.981  1.00  0.00    -0.744 OA
ENDBRANCH  94  95
ENDBRANCH  62  87
ENDBRANCH  36  37
ENDBRANCH  28  31
ENDBRANCH  26  27
ENDBRANCH   1  26
TORSDOF 16
