REMARK SMILES C[C@H](CNC(=O)c1ccc(Br)nc1)C(=O)NCCCNC(=O)c1ccc(-c2c3nc(c(-c4c(F)cc(S(=O)(=O)[O-])cc4F)c4ccc([nH]4)c(-c4c(F)cc(S(=O)(=O)[O-])cc4F)c4nc(c(-c5c(F)cc(S(=O)(=O)[O-])cc5F)c5ccc2[nH]5)C=C4)C=C3)cc1
REMARK SMILES IDX 18 1 17 2 16 3 14 4 15 5 2 7 1 8 3 9 4 10 5 11 6 13 7 14
REMARK SMILES IDX 8 15 13 16 9 17 12 18 10 19 11 20 19 21 20 22 21 23 22 25
REMARK SMILES IDX 23 26 24 27 88 28 25 29 87 30 26 31 27 32 28 33 81 34 29 35
REMARK SMILES IDX 86 36 80 37 82 38 30 39 85 40 79 41 78 42 31 44 65 45 44 46
REMARK SMILES IDX 64 47 45 48 48 49 63 50 83 51 46 52 47 53 62 55 84 56 49 57
REMARK SMILES IDX 32 58 33 59 42 60 34 61 35 62 41 63 43 64 36 65 37 66 38 67
REMARK SMILES IDX 39 68 40 69 66 70 67 71 76 72 68 73 69 74 75 75 77 76 70 77
REMARK SMILES IDX 71 78 72 79 73 80 74 81 50 82 51 83 60 84 52 85 53 86 59 87
REMARK SMILES IDX 61 88 54 89 55 90 56 91 57 92 58 93
REMARK H PARENT 16 6 4 12 20 24 82 43 48 54
REMARK Flexibility Score: inf
ROOT
ATOM      1  C   UNL     1      -1.447   2.414   1.014  1.00  0.00     0.042 C 
ENDROOT
BRANCH   1   2
ATOM      2  C   UNL     1      -1.068   1.312   1.997  1.00  0.00     0.117 C 
BRANCH   2   3
ATOM      3  N   UNL     1      -1.583   0.010   1.604  1.00  0.00    -0.356 N 
ATOM      4  C   UNL     1      -0.948  -1.132   1.230  1.00  0.00     0.224 C 
ATOM      5  O   UNL     1      -1.647  -2.100   0.920  1.00  0.00    -0.275 OA
ATOM      6  H   UNL     1      -2.565  -0.055   1.608  1.00  0.00     0.163 HD
BRANCH   4   7
ATOM      7  C   UNL     1       0.570  -1.240   1.200  1.00  0.00     0.094 C 
ATOM      8  C   UNL     1       1.164  -1.174   2.606  1.00  0.00     0.020 C 
BRANCH   7   9
ATOM      9  C   UNL     1       1.170  -0.319   0.127  1.00  0.00     0.129 C 
BRANCH   9  10
ATOM     10  N   UNL     1       2.366   0.399   0.546  1.00  0.00    -0.351 N 
ATOM     11  C   UNL     1       3.626   0.386   0.012  1.00  0.00     0.252 C 
ATOM     12  H   UNL     1       2.250   0.981   1.331  1.00  0.00     0.163 HD
ATOM     13  O   UNL     1       4.559   0.895   0.632  1.00  0.00    -0.269 OA
BRANCH  11  14
ATOM     14  C   UNL     1       3.887  -0.256  -1.283  1.00  0.00     0.058 A 
ATOM     15  C   UNL     1       3.140   0.022  -2.428  1.00  0.00     0.018 A 
ATOM     16  C   UNL     1       4.952  -1.138  -1.388  1.00  0.00     0.126 A 
ATOM     17  C   UNL     1       3.454  -0.637  -3.616  1.00  0.00     0.037 A 
ATOM     18  N   UNL     1       5.270  -1.801  -2.527  1.00  0.00    -0.249 NA
ATOM     19  C   UNL     1       4.513  -1.536  -3.616  1.00  0.00     0.106 A 
ATOM     20  Br  UNL     1       4.929  -2.462  -5.218  1.00  0.00    -0.029 Br
ENDBRANCH  11  14
ENDBRANCH   9  10
ENDBRANCH   7   9
ENDBRANCH   4   7
ENDBRANCH   2   3
ENDBRANCH   1   2
BRANCH   1  21
ATOM     21  C   UNL     1      -2.947   2.657   0.887  1.00  0.00     0.118 C 
BRANCH  21  22
ATOM     22  N   UNL     1      -3.545   3.144   2.121  1.00  0.00    -0.352 N 
ATOM     23  C   UNL     1      -4.089   4.371   2.421  1.00  0.00     0.251 C 
ATOM     24  H   UNL     1      -3.562   2.493   2.859  1.00  0.00     0.163 HD
ATOM     25  O   UNL     1      -4.365   4.637   3.588  1.00  0.00    -0.269 OA
BRANCH  23  26
ATOM     26  C   UNL     1      -4.318   5.374   1.357  1.00  0.00     0.039 A 
ATOM     27  C   UNL     1      -3.977   6.708   1.601  1.00  0.00     0.014 A 
ATOM     28  C   UNL     1      -4.880   5.012   0.131  1.00  0.00     0.014 A 
ATOM     29  C   UNL     1      -4.118   7.658   0.587  1.00  0.00     0.010 A 
ATOM     30  C   UNL     1      -4.950   5.943  -0.903  1.00  0.00     0.010 A 
ATOM     31  C   UNL     1      -4.562   7.274  -0.689  1.00  0.00    -0.014 A 
BRANCH  31  32
ATOM     32  C   UNL     1      -4.605   8.237  -1.820  1.00  0.00     0.031 A 
ATOM     33  C   UNL     1      -5.915   8.581  -2.476  1.00  0.00     0.074 A 
ATOM     34  C   UNL     1      -3.453   8.734  -2.313  1.00  0.00     0.049 A 
ATOM     35  N   UNL     1      -6.139   9.306  -3.542  1.00  0.00    -0.248 NA
ATOM     36  C   UNL     1      -7.129   8.013  -1.870  1.00  0.00     0.031 C 
ATOM     37  C   UNL     1      -2.114   8.441  -1.794  1.00  0.00     0.029 A 
ATOM     38  N   UNL     1      -3.219   9.576  -3.371  1.00  0.00    -0.354 N 
ATOM     39  C   UNL     1      -7.513   9.267  -3.746  1.00  0.00     0.074 A 
ATOM     40  C   UNL     1      -8.067   8.411  -2.719  1.00  0.00     0.031 C 
ATOM     41  C   UNL     1      -1.203   9.102  -2.526  1.00  0.00     0.029 A 
ATOM     42  C   UNL     1      -1.886   9.832  -3.589  1.00  0.00     0.049 A 
ATOM     43  H   UNL     1      -3.938   9.959  -3.923  1.00  0.00     0.167 HD
ATOM     44  C   UNL     1      -8.248   9.901  -4.691  1.00  0.00     0.037 A 
ATOM     45  C   UNL     1      -1.278  10.561  -4.546  1.00  0.00     0.037 A 
ATOM     46  C   UNL     1      -7.696  10.775  -5.692  1.00  0.00     0.049 A 
ATOM     47  C   UNL     1      -2.115  11.255  -5.585  1.00  0.00     0.074 A 
ATOM     48  C   UNL     1      -8.365  11.517  -6.651  1.00  0.00     0.029 A 
ATOM     49  N   UNL     1      -6.342  11.027  -5.867  1.00  0.00    -0.354 N 
ATOM     50  N   UNL     1      -3.419  11.252  -5.727  1.00  0.00    -0.248 NA
ATOM     51  C   UNL     1      -1.400  12.050  -6.593  1.00  0.00     0.031 C 
ATOM     52  C   UNL     1      -7.414  12.187  -7.429  1.00  0.00     0.029 A 
ATOM     53  C   UNL     1      -6.155  11.894  -6.930  1.00  0.00     0.049 A 
ATOM     54  H   UNL     1      -5.622  10.644  -5.316  1.00  0.00     0.167 HD
ATOM     55  C   UNL     1      -3.682  12.058  -6.829  1.00  0.00     0.074 A 
ATOM     56  C   UNL     1      -2.403  12.543  -7.306  1.00  0.00     0.031 C 
ATOM     57  C   UNL     1      -4.874  12.367  -7.394  1.00  0.00     0.037 A 
BRANCH  44  58
ATOM     58  C   UNL     1      -9.734   9.676  -4.683  1.00  0.00     0.058 A 
ATOM     59  C   UNL     1     -10.555  10.222  -3.683  1.00  0.00     0.135 A 
ATOM     60  C   UNL     1     -10.350   8.932  -5.702  1.00  0.00     0.135 A 
ATOM     61  F   UNL     1     -10.016  10.929  -2.678  1.00  0.00    -0.206 F 
ATOM     62  C   UNL     1     -11.930  10.014  -3.677  1.00  0.00     0.059 A 
ATOM     63  C   UNL     1     -11.728   8.732  -5.730  1.00  0.00     0.059 A 
ATOM     64  F   UNL     1      -9.613   8.387  -6.682  1.00  0.00    -0.206 F 
ATOM     65  C   UNL     1     -12.507   9.264  -4.704  1.00  0.00     0.060 A 
BRANCH  65  66
ATOM     66  S   UNL     1     -14.293   9.000  -4.680  1.00  0.00     0.124 S 
ATOM     67  O   UNL     1     -14.425   8.008  -3.618  1.00  0.00    -0.237 OA
ATOM     68  O   UNL     1     -14.803  10.332  -4.370  1.00  0.00    -0.237 OA
ATOM     69  O   UNL     1     -14.583   8.520  -6.028  1.00  0.00    -0.744 OA
ENDBRANCH  65  66
ENDBRANCH  44  58
BRANCH  45  70
ATOM     70  C   UNL     1       0.203  10.680  -4.558  1.00  0.00     0.058 A 
ATOM     71  C   UNL     1       0.831  11.882  -4.202  1.00  0.00     0.135 A 
ATOM     72  C   UNL     1       1.020   9.593  -4.906  1.00  0.00     0.135 A 
ATOM     73  F   UNL     1       0.091  12.951  -3.867  1.00  0.00    -0.206 F 
ATOM     74  C   UNL     1       2.215  12.009  -4.202  1.00  0.00     0.059 A 
ATOM     75  C   UNL     1       2.407   9.688  -4.893  1.00  0.00     0.059 A 
ATOM     76  F   UNL     1       0.467   8.415  -5.237  1.00  0.00    -0.206 F 
ATOM     77  C   UNL     1       2.996  10.905  -4.548  1.00  0.00     0.060 A 
BRANCH  77  78
ATOM     78  S   UNL     1       4.794  11.062  -4.494  1.00  0.00     0.124 S 
ATOM     79  O   UNL     1       5.056  11.843  -5.697  1.00  0.00    -0.237 OA
ATOM     80  O   UNL     1       5.004  11.753  -3.225  1.00  0.00    -0.237 OA
ATOM     81  O   UNL     1       5.251   9.676  -4.526  1.00  0.00    -0.744 OA
ENDBRANCH  77  78
ENDBRANCH  45  70
BRANCH  57  82
ATOM     82  C   UNL     1      -4.857  13.287  -8.582  1.00  0.00     0.058 A 
ATOM     83  C   UNL     1      -4.435  12.845  -9.845  1.00  0.00     0.135 A 
ATOM     84  C   UNL     1      -5.314  14.609  -8.467  1.00  0.00     0.135 A 
ATOM     85  F   UNL     1      -3.980  11.592 -10.005  1.00  0.00    -0.206 F 
ATOM     86  C   UNL     1      -4.451  13.688 -10.952  1.00  0.00     0.059 A 
ATOM     87  C   UNL     1      -5.362  15.462  -9.565  1.00  0.00     0.059 A 
ATOM     88  F   UNL     1      -5.736  15.078  -7.282  1.00  0.00    -0.206 F 
ATOM     89  C   UNL     1      -4.918  14.995 -10.802  1.00  0.00     0.060 A 
BRANCH  89  90
ATOM     90  S   UNL     1      -4.972  16.068 -12.253  1.00  0.00     0.124 S 
ATOM     91  O   UNL     1      -3.563  16.411 -12.416  1.00  0.00    -0.237 OA
ATOM     92  O   UNL     1      -5.532  15.187 -13.274  1.00  0.00    -0.237 OA
ATOM     93  O   UNL     1      -5.842  17.162 -11.834  1.00  0.00    -0.744 OA
ENDBRANCH  89  90
ENDBRANCH  57  82
ENDBRANCH  31  32
ENDBRANCH  23  26
ENDBRANCH  21  22
ENDBRANCH   1  21
TORSDOF 16
