REMARK SMILES O=C(CSc1ccnc(C(=O)NCCCNC(=O)c2ccc(-c3c4nc(c(-c5c(F)cc(S(=O)(=O)[O-])cc5F)c5ccc([nH]5)c(-c5c(F)cc(S(=O)(=O)[O-])cc5F)c5nc(c(-c6c(F)cc(S(=O)(=O)[O-])cc6F)c6ccc3[nH]6)C=C5)C=C4)cc2)c1)NCC(F)(F)F
REMARK SMILES IDX 13 1 12 2 10 3 11 4 9 6 5 7 6 8 85 9 7 10 8 11 4 12 3 13
REMARK SMILES IDX 2 14 1 15 86 16 87 18 88 19 89 20 90 21 91 22 14 23 15 24
REMARK SMILES IDX 16 25 17 26 18 28 19 29 20 30 84 31 21 32 83 33 22 34 23 35
REMARK SMILES IDX 24 36 77 37 25 38 82 39 76 40 78 41 26 42 81 43 75 44 74 45
REMARK SMILES IDX 27 47 61 48 40 49 60 50 41 51 44 52 59 53 79 54 42 55 43 56
REMARK SMILES IDX 58 58 80 59 45 60 28 61 29 62 38 63 30 64 31 65 37 66 39 67
REMARK SMILES IDX 32 68 33 69 34 70 35 71 36 72 62 73 63 74 72 75 64 76 65 77
REMARK SMILES IDX 71 78 73 79 66 80 67 81 68 82 69 83 70 84 46 85 47 86 56 87
REMARK SMILES IDX 48 88 49 89 55 90 57 91 50 92 51 93 52 94 53 95 54 96
REMARK H PARENT 12 5 86 17 16 27 78 46 44 57
REMARK Flexibility Score: inf
ROOT
ATOM      1  C   UNL     1      -0.196   1.233   2.708  1.00  0.00     0.118 C 
ENDROOT
BRANCH   1   2
ATOM      2  N   UNL     1      -0.332   2.580   3.213  1.00  0.00    -0.351 N 
ATOM      3  C   UNL     1       0.350   3.748   2.974  1.00  0.00     0.269 C 
ATOM      4  O   UNL     1      -0.066   4.735   3.589  1.00  0.00    -0.268 OA
ATOM      5  H   UNL     1      -1.066   2.682   3.861  1.00  0.00     0.163 HD
BRANCH   3   6
ATOM      6  C   UNL     1       1.516   3.900   2.023  1.00  0.00     0.129 A 
ATOM      7  C   UNL     1       3.357   3.163   0.662  1.00  0.00     0.012 A 
ATOM      8  C   UNL     1       3.618   4.492   0.340  1.00  0.00     0.035 A 
ATOM      9  C   UNL     1       2.316   2.867   1.548  1.00  0.00     0.049 A 
ATOM     10  C   UNL     1       2.807   5.466   0.884  1.00  0.00     0.113 A 
ATOM     11  N   UNL     1       1.765   5.197   1.690  1.00  0.00    -0.251 NA
BRANCH   7  12
ATOM     12  S   UNL     1       4.456   1.908   0.015  1.00  0.00    -0.116 SA
BRANCH  12  13
ATOM     13  C   UNL     1       3.308   0.860  -0.954  1.00  0.00     0.174 C 
BRANCH  13  14
ATOM     14  C   UNL     1       2.569  -0.118  -0.059  1.00  0.00     0.230 C 
ATOM     15  O   UNL     1       1.342  -0.155  -0.018  1.00  0.00    -0.274 OA
ATOM     16  N   UNL     1       3.365  -0.953   0.693  1.00  0.00    -0.346 N 
ATOM     17  H   UNL     1       4.341  -0.924   0.560  1.00  0.00     0.163 HD
BRANCH  16  18
ATOM     18  C   UNL     1       2.814  -1.884   1.684  1.00  0.00     0.231 C 
BRANCH  18  19
ATOM     19  C   UNL     1       3.210  -3.348   1.534  1.00  0.00     0.405 C 
ATOM     20  F   UNL     1       4.553  -3.483   1.572  1.00  0.00    -0.169 F 
ATOM     21  F   UNL     1       2.691  -4.079   2.546  1.00  0.00    -0.169 F 
ATOM     22  F   UNL     1       2.767  -3.868   0.371  1.00  0.00    -0.169 F 
ENDBRANCH  18  19
ENDBRANCH  16  18
ENDBRANCH  13  14
ENDBRANCH  12  13
ENDBRANCH   7  12
ENDBRANCH   3   6
ENDBRANCH   1   2
BRANCH   1  23
ATOM     23  C   UNL     1       0.678   0.396   3.639  1.00  0.00     0.042 C 
BRANCH  23  24
ATOM     24  C   UNL     1      -0.080  -0.631   4.476  1.00  0.00     0.118 C 
BRANCH  24  25
ATOM     25  N   UNL     1      -0.852  -1.568   3.674  1.00  0.00    -0.352 N 
ATOM     26  C   UNL     1      -1.011  -2.927   3.736  1.00  0.00     0.251 C 
ATOM     27  H   UNL     1      -1.359  -1.142   2.945  1.00  0.00     0.163 HD
ATOM     28  O   UNL     1      -1.702  -3.462   2.865  1.00  0.00    -0.269 OA
BRANCH  26  29
ATOM     29  C   UNL     1      -0.359  -3.766   4.767  1.00  0.00     0.039 A 
ATOM     30  C   UNL     1      -0.010  -5.074   4.411  1.00  0.00     0.014 A 
ATOM     31  C   UNL     1      -0.119  -3.328   6.071  1.00  0.00     0.014 A 
ATOM     32  C   UNL     1       0.619  -5.911   5.333  1.00  0.00     0.010 A 
ATOM     33  C   UNL     1       0.596  -4.130   6.962  1.00  0.00     0.010 A 
ATOM     34  C   UNL     1       0.966  -5.434   6.606  1.00  0.00    -0.014 A 
BRANCH  34  35
ATOM     35  C   UNL     1       1.721  -6.296   7.552  1.00  0.00     0.031 A 
ATOM     36  C   UNL     1       1.120  -6.705   8.871  1.00  0.00     0.074 A 
ATOM     37  C   UNL     1       2.966  -6.695   7.222  1.00  0.00     0.049 A 
ATOM     38  N   UNL     1       1.623  -7.475   9.803  1.00  0.00    -0.248 NA
ATOM     39  C   UNL     1      -0.205  -6.158   9.201  1.00  0.00     0.031 C 
ATOM     40  C   UNL     1       3.679  -6.312   6.000  1.00  0.00     0.029 A 
ATOM     41  N   UNL     1       3.851  -7.514   7.876  1.00  0.00    -0.354 N 
ATOM     42  C   UNL     1       0.681  -7.502  10.825  1.00  0.00     0.074 A 
ATOM     43  C   UNL     1      -0.394  -6.618  10.430  1.00  0.00     0.031 C 
ATOM     44  C   UNL     1       4.870  -6.929   5.972  1.00  0.00     0.029 A 
ATOM     45  C   UNL     1       5.024  -7.720   7.188  1.00  0.00     0.049 A 
ATOM     46  H   UNL     1       3.664  -7.916   8.755  1.00  0.00     0.167 HD
ATOM     47  C   UNL     1       0.697  -8.218  11.976  1.00  0.00     0.037 A 
ATOM     48  C   UNL     1       6.100  -8.468   7.498  1.00  0.00     0.037 A 
ATOM     49  C   UNL     1       1.766  -9.107  12.353  1.00  0.00     0.049 A 
ATOM     50  C   UNL     1       6.088  -9.264   8.774  1.00  0.00     0.074 A 
ATOM     51  C   UNL     1       1.856  -9.922  13.469  1.00  0.00     0.029 A 
ATOM     52  N   UNL     1       2.935  -9.296  11.629  1.00  0.00    -0.354 N 
ATOM     53  N   UNL     1       5.154  -9.335   9.694  1.00  0.00    -0.248 NA
ATOM     54  C   UNL     1       7.269 -10.091   9.048  1.00  0.00     0.031 C 
ATOM     55  C   UNL     1       3.101 -10.561  13.446  1.00  0.00     0.029 A 
ATOM     56  C   UNL     1       3.763 -10.193  12.285  1.00  0.00     0.049 A 
ATOM     57  H   UNL     1       3.145  -8.856  10.773  1.00  0.00     0.167 HD
ATOM     58  C   UNL     1       5.627 -10.232  10.646  1.00  0.00     0.074 A 
ATOM     59  C   UNL     1       6.916 -10.697  10.173  1.00  0.00     0.031 C 
ATOM     60  C   UNL     1       5.051 -10.633  11.808  1.00  0.00     0.037 A 
BRANCH  47  61
ATOM     61  C   UNL     1      -0.479  -8.073  12.907  1.00  0.00     0.058 A 
ATOM     62  C   UNL     1      -1.754  -8.560  12.570  1.00  0.00     0.135 A 
ATOM     63  C   UNL     1      -0.325  -7.473  14.167  1.00  0.00     0.135 A 
ATOM     64  F   UNL     1      -1.966  -9.129  11.373  1.00  0.00    -0.206 F 
ATOM     65  C   UNL     1      -2.837  -8.428  13.434  1.00  0.00     0.059 A 
ATOM     66  C   UNL     1      -1.387  -7.359  15.060  1.00  0.00     0.059 A 
ATOM     67  F   UNL     1       0.869  -6.989  14.544  1.00  0.00    -0.206 F 
ATOM     68  C   UNL     1      -2.643  -7.828  14.679  1.00  0.00     0.060 A 
BRANCH  68  69
ATOM     69  S   UNL     1      -4.057  -7.675  15.790  1.00  0.00     0.124 S 
ATOM     70  O   UNL     1      -4.845  -6.645  15.119  1.00  0.00    -0.237 OA
ATOM     71  O   UNL     1      -4.621  -9.021  15.764  1.00  0.00    -0.237 OA
ATOM     72  O   UNL     1      -3.453  -7.275  17.057  1.00  0.00    -0.744 OA
ENDBRANCH  68  69
ENDBRANCH  47  61
BRANCH  48  73
ATOM     73  C   UNL     1       7.262  -8.522   6.569  1.00  0.00     0.058 A 
ATOM     74  C   UNL     1       7.572  -9.693   5.861  1.00  0.00     0.135 A 
ATOM     75  C   UNL     1       8.078  -7.399   6.361  1.00  0.00     0.135 A 
ATOM     76  F   UNL     1       6.825 -10.795   6.028  1.00  0.00    -0.206 F 
ATOM     77  C   UNL     1       8.661  -9.757   4.997  1.00  0.00     0.059 A 
ATOM     78  C   UNL     1       9.154  -7.429   5.480  1.00  0.00     0.059 A 
ATOM     79  F   UNL     1       7.814  -6.247   6.998  1.00  0.00    -0.206 F 
ATOM     80  C   UNL     1       9.445  -8.617   4.811  1.00  0.00     0.060 A 
BRANCH  80  81
ATOM     81  S   UNL     1      10.828  -8.696   3.652  1.00  0.00     0.124 S 
ATOM     82  O   UNL     1      11.780  -9.521   4.386  1.00  0.00    -0.237 OA
ATOM     83  O   UNL     1      10.212  -9.316   2.483  1.00  0.00    -0.237 OA
ATOM     84  O   UNL     1      11.204  -7.295   3.483  1.00  0.00    -0.744 OA
ENDBRANCH  80  81
ENDBRANCH  48  73
BRANCH  60  85
ATOM     85  C   UNL     1       5.810 -11.639  12.632  1.00  0.00     0.058 A 
ATOM     86  C   UNL     1       7.008 -11.307  13.285  1.00  0.00     0.135 A 
ATOM     87  C   UNL     1       5.334 -12.953  12.768  1.00  0.00     0.135 A 
ATOM     88  F   UNL     1       7.509 -10.065  13.187  1.00  0.00    -0.206 F 
ATOM     89  C   UNL     1       7.736 -12.255  13.996  1.00  0.00     0.059 A 
ATOM     90  C   UNL     1       6.027 -13.909  13.505  1.00  0.00     0.059 A 
ATOM     91  F   UNL     1       4.184 -13.322  12.180  1.00  0.00    -0.206 F 
ATOM     92  C   UNL     1       7.240 -13.556  14.094  1.00  0.00     0.060 A 
BRANCH  92  93
ATOM     93  S   UNL     1       8.204 -14.784  15.000  1.00  0.00     0.124 S 
ATOM     94  O   UNL     1       9.296 -15.045  14.068  1.00  0.00    -0.237 OA
ATOM     95  O   UNL     1       8.566 -14.061  16.215  1.00  0.00    -0.237 OA
ATOM     96  O   UNL     1       7.262 -15.883  15.189  1.00  0.00    -0.744 OA
ENDBRANCH  92  93
ENDBRANCH  60  85
ENDBRANCH  34  35
ENDBRANCH  26  29
ENDBRANCH  24  25
ENDBRANCH  23  24
ENDBRANCH   1  23
TORSDOF 18
