REMARK SMILES CC[C@@H](NC(=O)N[C@H]1CCCCC[C@@H]1C(=O)NCCCNC(=O)c1ccc(-c2c3nc(c(-c4c(F)cc(S(=O)(=O)[O-])cc4F)c4ccc([nH]4)c(-c4c(F)cc(S(=O)(=O)[O-])cc4F)c4nc(c(-c5c(F)cc(S(=O)(=O)[O-])cc5F)c5ccc2[nH]5)C=C4)C=C3)cc1)C(C)C
REMARK SMILES IDX 18 1 17 2 15 3 16 4 14 6 8 7 7 8 4 9 5 10 6 12 3 14 2 15
REMARK SMILES IDX 1 16 90 17 91 18 92 19 9 20 10 21 11 22 13 24 12 25 19 27
REMARK SMILES IDX 20 28 21 29 22 30 23 32 24 33 25 34 89 35 26 36 88 37 27 38
REMARK SMILES IDX 28 39 29 40 82 41 30 42 87 43 81 44 83 45 31 46 86 47 80 48
REMARK SMILES IDX 79 49 32 51 66 52 45 53 65 54 46 55 49 56 64 57 84 58 47 59
REMARK SMILES IDX 48 60 63 62 85 63 50 64 33 65 34 66 43 67 35 68 36 69 42 70
REMARK SMILES IDX 44 71 37 72 38 73 39 74 40 75 41 76 67 77 68 78 77 79 69 80
REMARK SMILES IDX 70 81 76 82 78 83 71 84 72 85 73 86 74 87 75 88 51 89 52 90
REMARK SMILES IDX 61 91 53 92 54 93 60 94 62 95 55 96 56 97 57 98 58 99 59 100
REMARK H PARENT 17 5 4 11 7 13 21 31 83 50 49 61
REMARK Flexibility Score: 90.00
ROOT
ATOM      1  C   UNL     1       3.287   6.574  -2.929  1.00  0.00     0.117 C 
ENDROOT
BRANCH   1   2
ATOM      2  N   UNL     1       2.500   5.834  -3.904  1.00  0.00    -0.356 N 
ATOM      3  C   UNL     1       1.245   5.298  -3.757  1.00  0.00     0.225 C 
ATOM      4  O   UNL     1       0.707   4.745  -4.713  1.00  0.00    -0.275 OA
ATOM      5  H   UNL     1       2.922   5.701  -4.783  1.00  0.00     0.163 HD
BRANCH   3   6
ATOM      6  C   UNL     1       0.578   5.431  -2.393  1.00  0.00     0.101 C 
BRANCH   6   7
ATOM      7  C   UNL     1      -0.707   4.041  -2.188  1.00  0.00     0.096 C 
BRANCH   7   8
ATOM      8  N   UNL     1      -0.038   2.860  -1.605  1.00  0.00    -0.335 N 
ATOM      9  N   UNL     1      -0.068   3.284   0.708  1.00  0.00    -0.335 N 
ATOM     10  C   UNL     1       0.341   2.562  -0.350  1.00  0.00     0.315 C 
ATOM     11  H   UNL     1       0.443   3.120   1.533  1.00  0.00     0.165 HD
ATOM     12  O   UNL     1       1.098   1.611  -0.161  1.00  0.00    -0.249 OA
ATOM     13  H   UNL     1       0.171   2.156  -2.261  1.00  0.00     0.165 HD
BRANCH   9  14
ATOM     14  C   UNL     1      -1.153   4.285   0.850  1.00  0.00     0.086 C 
BRANCH  14  15
ATOM     15  C   UNL     1      -2.417   3.461   1.313  1.00  0.00     0.022 C 
ATOM     16  C   UNL     1      -2.800   3.698   2.774  1.00  0.00     0.006 C 
ENDBRANCH  14  15
BRANCH  14  17
ATOM     17  C   UNL     1      -0.841   5.590  -0.282  1.00  0.00     0.005 C 
ATOM     18  C   UNL     1      -1.675   6.134  -2.044  1.00  0.00     0.009 C 
ATOM     19  C   UNL     1       0.217   6.440   0.620  1.00  0.00     0.009 C 
ENDBRANCH  14  17
ENDBRANCH   9  14
ENDBRANCH   7   8
BRANCH   7  20
ATOM     20  C   UNL     1      -2.421   4.168  -1.447  1.00  0.00     0.026 C 
BRANCH  20  21
ATOM     21  C   UNL     1      -3.172   5.654  -0.482  1.00  0.00     0.002 C 
BRANCH  21  22
ATOM     22  C   UNL     1      -2.441   7.342  -0.260  1.00  0.00     0.000 CG0
ATOM     23  G   UNL     1      -0.919   8.065  -0.987  1.00  0.00     0.000 G0
ENDBRANCH  21  22
ENDBRANCH  20  21
ENDBRANCH   7  20
ENDBRANCH   6   7
BRANCH   6  24
ATOM     24  C   UNL     1       0.263   7.236  -2.115  1.00  0.00     0.015 C 
BRANCH  24  25
ATOM     25  C   UNL     1      -0.919   8.065  -0.987  1.00  0.00     0.001 CG0
ATOM     26  G   UNL     1      -2.441   7.342  -0.260  1.00  0.00     0.000 G0
ENDBRANCH  24  25
ENDBRANCH   6  24
ENDBRANCH   3   6
ENDBRANCH   1   2
BRANCH   1  27
ATOM     27  C   UNL     1       4.556   5.881  -2.486  1.00  0.00     0.042 C 
BRANCH  27  28
ATOM     28  C   UNL     1       5.594   5.744  -3.575  1.00  0.00     0.118 C 
BRANCH  28  29
ATOM     29  N   UNL     1       6.005   7.026  -4.129  1.00  0.00    -0.352 N 
ATOM     30  C   UNL     1       7.260   7.566  -4.274  1.00  0.00     0.251 C 
ATOM     31  H   UNL     1       5.268   7.594  -4.450  1.00  0.00     0.163 HD
ATOM     32  O   UNL     1       7.370   8.735  -4.620  1.00  0.00    -0.269 OA
BRANCH  30  33
ATOM     33  C   UNL     1       8.463   6.750  -3.995  1.00  0.00     0.039 A 
ATOM     34  C   UNL     1       9.575   7.370  -3.420  1.00  0.00     0.014 A 
ATOM     35  C   UNL     1       8.514   5.390  -4.313  1.00  0.00     0.014 A 
ATOM     36  C   UNL     1      10.713   6.617  -3.131  1.00  0.00     0.010 A 
ATOM     37  C   UNL     1       9.599   4.620  -3.917  1.00  0.00     0.010 A 
ATOM     38  C   UNL     1      10.725   5.230  -3.353  1.00  0.00    -0.014 A 
BRANCH  38  39
ATOM     39  C   UNL     1      11.927   4.415  -3.044  1.00  0.00     0.031 A 
ATOM     40  C   UNL     1      12.646   3.684  -4.147  1.00  0.00     0.074 A 
ATOM     41  C   UNL     1      12.349   4.311  -1.769  1.00  0.00     0.049 A 
ATOM     42  N   UNL     1      13.712   2.928  -4.077  1.00  0.00    -0.248 NA
ATOM     43  C   UNL     1      12.080   3.791  -5.502  1.00  0.00     0.031 C 
ATOM     44  C   UNL     1      11.696   4.921  -0.608  1.00  0.00     0.029 A 
ATOM     45  N   UNL     1      13.430   3.658  -1.235  1.00  0.00    -0.354 N 
ATOM     46  C   UNL     1      13.934   2.465  -5.370  1.00  0.00     0.074 A 
ATOM     47  C   UNL     1      12.854   2.966  -6.190  1.00  0.00     0.031 C 
ATOM     48  C   UNL     1      12.411   4.646   0.494  1.00  0.00     0.029 A 
ATOM     49  C   UNL     1      13.551   3.812   0.126  1.00  0.00     0.049 A 
ATOM     50  H   UNL     1      14.059   3.128  -1.775  1.00  0.00     0.167 HD
ATOM     51  C   UNL     1      14.961   1.718  -5.839  1.00  0.00     0.037 A 
ATOM     52  C   UNL     1      14.479   3.338   0.978  1.00  0.00     0.037 A 
ATOM     53  C   UNL     1      16.044   1.242  -5.018  1.00  0.00     0.049 A 
ATOM     54  C   UNL     1      15.619   2.522   0.432  1.00  0.00     0.074 A 
ATOM     55  C   UNL     1      17.163   0.524  -5.401  1.00  0.00     0.029 A 
ATOM     56  N   UNL     1      16.143   1.433  -3.647  1.00  0.00    -0.354 N 
ATOM     57  N   UNL     1      15.854   2.155  -0.806  1.00  0.00    -0.248 NA
ATOM     58  C   UNL     1      16.630   2.071   1.396  1.00  0.00     0.031 C 
ATOM     59  C   UNL     1      17.912   0.237  -4.254  1.00  0.00     0.029 A 
ATOM     60  C   UNL     1      17.293   0.830  -3.165  1.00  0.00     0.049 A 
ATOM     61  H   UNL     1      15.491   1.926  -3.098  1.00  0.00     0.167 HD
ATOM     62  C   UNL     1      17.054   1.453  -0.774  1.00  0.00     0.074 A 
ATOM     63  C   UNL     1      17.505   1.468   0.604  1.00  0.00     0.031 C 
ATOM     64  C   UNL     1      17.725   0.851  -1.789  1.00  0.00     0.037 A 
BRANCH  51  65
ATOM     65  C   UNL     1      14.963   1.376  -7.305  1.00  0.00     0.058 A 
ATOM     66  C   UNL     1      15.158   2.355  -8.294  1.00  0.00     0.135 A 
ATOM     67  C   UNL     1      14.792   0.048  -7.729  1.00  0.00     0.135 A 
ATOM     68  F   UNL     1      15.309   3.644  -7.950  1.00  0.00    -0.206 F 
ATOM     69  C   UNL     1      15.150   2.036  -9.648  1.00  0.00     0.059 A 
ATOM     70  C   UNL     1      14.813  -0.299  -9.078  1.00  0.00     0.059 A 
ATOM     71  F   UNL     1      14.599  -0.930  -6.830  1.00  0.00    -0.206 F 
ATOM     72  C   UNL     1      14.978   0.705 -10.030  1.00  0.00     0.060 A 
BRANCH  72  73
ATOM     73  S   UNL     1      14.978   0.308 -11.791  1.00  0.00     0.124 S 
ATOM     74  O   UNL     1      13.697   0.864 -12.215  1.00  0.00    -0.237 OA
ATOM     75  O   UNL     1      16.163   1.013 -12.269  1.00  0.00    -0.237 OA
ATOM     76  O   UNL     1      15.068  -1.148 -11.812  1.00  0.00    -0.744 OA
ENDBRANCH  72  73
ENDBRANCH  51  65
BRANCH  52  77
ATOM     77  C   UNL     1      14.387   3.655   2.429  1.00  0.00     0.058 A 
ATOM     78  C   UNL     1      15.312   4.513   3.043  1.00  0.00     0.135 A 
ATOM     79  C   UNL     1      13.367   3.116   3.228  1.00  0.00     0.135 A 
ATOM     80  F   UNL     1      16.308   5.051   2.323  1.00  0.00    -0.206 F 
ATOM     81  C   UNL     1      15.242   4.809   4.400  1.00  0.00     0.059 A 
ATOM     82  C   UNL     1      13.259   3.421   4.581  1.00  0.00     0.059 A 
ATOM     83  F   UNL     1      12.445   2.306   2.686  1.00  0.00    -0.206 F 
ATOM     84  C   UNL     1      14.209   4.260   5.161  1.00  0.00     0.060 A 
BRANCH  84  85
ATOM     85  S   UNL     1      14.101   4.689   6.912  1.00  0.00     0.124 S 
ATOM     86  O   UNL     1      15.228   3.949   7.466  1.00  0.00    -0.237 OA
ATOM     87  O   UNL     1      14.243   6.142   6.880  1.00  0.00    -0.237 OA
ATOM     88  O   UNL     1      12.778   4.206   7.295  1.00  0.00    -0.744 OA
ENDBRANCH  84  85
ENDBRANCH  52  77
BRANCH  64  89
ATOM     89  C   UNL     1      19.036   0.194  -1.449  1.00  0.00     0.058 A 
ATOM     90  C   UNL     1      19.103  -0.970  -0.667  1.00  0.00     0.135 A 
ATOM     91  C   UNL     1      20.243   0.737  -1.919  1.00  0.00     0.135 A 
ATOM     92  F   UNL     1      17.980  -1.531  -0.192  1.00  0.00    -0.206 F 
ATOM     93  C   UNL     1      20.322  -1.542  -0.319  1.00  0.00     0.059 A 
ATOM     94  C   UNL     1      21.472   0.161  -1.613  1.00  0.00     0.059 A 
ATOM     95  F   UNL     1      20.238   1.839  -2.686  1.00  0.00    -0.206 F 
ATOM     96  C   UNL     1      21.502  -0.965  -0.792  1.00  0.00     0.060 A 
BRANCH  96  97
ATOM     97  S   UNL     1      23.079  -1.706  -0.320  1.00  0.00     0.124 S 
ATOM     98  O   UNL     1      23.190  -1.292   1.075  1.00  0.00    -0.237 OA
ATOM     99  O   UNL     1      22.836  -3.127  -0.542  1.00  0.00    -0.237 OA
ATOM    100  O   UNL     1      24.032  -1.088  -1.236  1.00  0.00    -0.744 OA
ENDBRANCH  96  97
ENDBRANCH  64  89
ENDBRANCH  38  39
ENDBRANCH  30  33
ENDBRANCH  28  29
ENDBRANCH  27  28
ENDBRANCH   1  27
TORSDOF 17
