REMARK SMILES Cc1cc(=O)n2nc(C[N@@H+](C)CC(=O)NCCCNC(=O)c3ccc(-c4c5nc(c(-c6c(F)cc(S(=O)(=O)[O-])cc6F)c6ccc([nH]6)c(-c6c(F)cc(S(=O)(=O)[O-])cc6F)c6nc(c(-c7c(F)cc(S(=O)(=O)[O-])cc7F)c7ccc4[nH]7)C=C6)C=C5)cc3)sc2n1
REMARK SMILES IDX 17 1 16 2 15 3 13 4 14 5 12 7 10 8 11 9 9 11 8 12 1 13 2 14
REMARK SMILES IDX 3 15 90 16 4 17 89 18 5 19 6 20 88 21 7 22 18 23 19 24 20 25
REMARK SMILES IDX 21 27 22 28 23 29 87 30 24 31 86 32 25 33 26 34 27 35 80 36
REMARK SMILES IDX 28 37 85 38 79 39 81 40 29 41 84 42 78 43 77 44 30 46 64 47
REMARK SMILES IDX 43 48 63 49 44 50 47 51 62 52 82 53 45 54 46 55 61 57 83 58
REMARK SMILES IDX 48 59 31 60 32 61 41 62 33 63 34 64 40 65 42 66 35 67 36 68
REMARK SMILES IDX 37 69 38 70 39 71 65 72 66 73 75 74 67 75 68 76 74 77 76 78
REMARK SMILES IDX 69 79 70 80 71 81 72 82 73 83 49 84 50 85 59 86 51 87 52 88
REMARK SMILES IDX 58 89 60 90 53 91 54 92 55 93 56 94 57 95
REMARK H PARENT 15 6 10 10 19 26 81 45 47 56
REMARK Flexibility Score: inf
ROOT
ATOM      1  C   UNL     1      -1.551   9.867  -5.216  1.00  0.00     0.042 C 
ENDROOT
BRANCH   1   2
ATOM      2  C   UNL     1      -2.724   9.144  -4.555  1.00  0.00     0.118 C 
BRANCH   2   3
ATOM      3  N   UNL     1      -2.869   7.777  -5.024  1.00  0.00    -0.351 N 
ATOM      4  C   UNL     1      -2.486   6.606  -4.445  1.00  0.00     0.275 C 
ATOM      5  O   UNL     1      -2.712   5.562  -5.059  1.00  0.00    -0.269 OA
ATOM      6  H   UNL     1      -3.313   7.683  -5.897  1.00  0.00     0.163 HD
BRANCH   4   7
ATOM      7  C   UNL     1      -1.820   6.582  -3.070  1.00  0.00     0.363 C 
BRANCH   7   8
ATOM      8  N   UNL     1      -0.354   6.695  -3.072  1.00  0.00    -0.324 N 
ATOM      9  C   UNL     1       0.217   8.017  -2.965  1.00  0.00     0.333 C 
ATOM     10  H   UNL     1      -0.167   6.300  -2.150  1.00  0.00     0.348 HD
BRANCH   8  11
ATOM     11  C   UNL     1       0.362   5.815  -4.007  1.00  0.00     0.333 C 
BRANCH  11  12
ATOM     12  C   UNL     1       0.467   4.440  -3.405  1.00  0.00     0.172 A 
ATOM     13  C   UNL     1       1.020  -0.422   0.013  1.00  0.00     0.067 C 
ATOM     14  C   UNL     1       0.696   0.509  -1.119  1.00  0.00     0.046 A 
ATOM     15  C   UNL     1      -0.009   0.098  -2.184  1.00  0.00     0.097 A 
ATOM     16  N   UNL     1       1.175   1.788  -0.960  1.00  0.00    -0.224 NA
ATOM     17  C   UNL     1      -0.341   1.059  -3.267  1.00  0.00     0.275 A 
ATOM     18  C   UNL     1       0.886   2.609  -1.913  1.00  0.00     0.215 A 
ATOM     19  O   UNL     1      -1.002   0.684  -4.216  1.00  0.00    -0.267 OA
ATOM     20  N   UNL     1       0.157   2.327  -3.034  1.00  0.00    -0.167 N 
ATOM     21  S   UNL     1       1.386   4.261  -1.920  1.00  0.00    -0.073 S 
ATOM     22  N   UNL     1      -0.094   3.375  -3.886  1.00  0.00    -0.150 NA
ENDBRANCH  11  12
ENDBRANCH   8  11
ENDBRANCH   7   8
ENDBRANCH   4   7
ENDBRANCH   2   3
ENDBRANCH   1   2
BRANCH   1  23
ATOM     23  C   UNL     1      -1.800  10.199  -6.669  1.00  0.00     0.118 C 
BRANCH  23  24
ATOM     24  N   UNL     1      -2.713  11.315  -6.886  1.00  0.00    -0.352 N 
ATOM     25  C   UNL     1      -2.993  11.930  -8.098  1.00  0.00     0.251 C 
ATOM     26  H   UNL     1      -3.178  11.668  -6.093  1.00  0.00     0.163 HD
ATOM     27  O   UNL     1      -3.495  13.046  -8.128  1.00  0.00    -0.269 OA
BRANCH  25  28
ATOM     28  C   UNL     1      -2.645  11.211  -9.342  1.00  0.00     0.039 A 
ATOM     29  C   UNL     1      -2.132  11.864 -10.462  1.00  0.00     0.014 A 
ATOM     30  C   UNL     1      -2.782   9.827  -9.341  1.00  0.00     0.014 A 
ATOM     31  C   UNL     1      -1.701  11.088 -11.538  1.00  0.00     0.010 A 
ATOM     32  C   UNL     1      -2.122   9.072 -10.269  1.00  0.00     0.010 A 
ATOM     33  C   UNL     1      -1.678   9.685 -11.422  1.00  0.00    -0.014 A 
BRANCH  33  34
ATOM     34  C   UNL     1      -1.169   8.836 -12.489  1.00  0.00     0.031 A 
ATOM     35  C   UNL     1       0.143   9.255 -13.027  1.00  0.00     0.074 A 
ATOM     36  C   UNL     1      -1.761   7.693 -12.902  1.00  0.00     0.049 A 
ATOM     37  N   UNL     1       0.350   9.978 -14.075  1.00  0.00    -0.248 NA
ATOM     38  C   UNL     1       1.345   9.019 -12.215  1.00  0.00     0.031 C 
ATOM     39  C   UNL     1      -2.890   6.955 -12.316  1.00  0.00     0.029 A 
ATOM     40  N   UNL     1      -1.419   6.910 -13.961  1.00  0.00    -0.354 N 
ATOM     41  C   UNL     1       1.729  10.065 -14.206  1.00  0.00     0.074 A 
ATOM     42  C   UNL     1       2.271   9.659 -12.935  1.00  0.00     0.031 C 
ATOM     43  C   UNL     1      -3.007   5.745 -12.906  1.00  0.00     0.029 A 
ATOM     44  C   UNL     1      -2.101   5.703 -14.036  1.00  0.00     0.049 A 
ATOM     45  H   UNL     1      -0.740   7.179 -14.622  1.00  0.00     0.167 HD
ATOM     46  C   UNL     1       2.297  10.206 -15.436  1.00  0.00     0.037 A 
ATOM     47  C   UNL     1      -1.974   4.753 -14.994  1.00  0.00     0.037 A 
ATOM     48  C   UNL     1       1.303  10.581 -16.419  1.00  0.00     0.049 A 
ATOM     49  C   UNL     1      -1.443   5.446 -16.195  1.00  0.00     0.074 A 
ATOM     50  C   UNL     1       0.442  11.649 -16.579  1.00  0.00     0.029 A 
ATOM     51  N   UNL     1       0.807   9.577 -17.216  1.00  0.00    -0.354 N 
ATOM     52  N   UNL     1      -2.103   6.353 -16.863  1.00  0.00    -0.248 NA
ATOM     53  C   UNL     1      -0.004   5.447 -16.400  1.00  0.00     0.031 C 
ATOM     54  C   UNL     1      -0.763  11.084 -17.098  1.00  0.00     0.029 A 
ATOM     55  C   UNL     1      -0.556   9.716 -17.290  1.00  0.00     0.049 A 
ATOM     56  H   UNL     1       1.339   8.877 -17.658  1.00  0.00     0.167 HD
ATOM     57  C   UNL     1      -1.149   7.293 -17.226  1.00  0.00     0.074 A 
ATOM     58  C   UNL     1       0.133   6.627 -17.008  1.00  0.00     0.031 C 
ATOM     59  C   UNL     1      -1.482   8.605 -17.412  1.00  0.00     0.037 A 
BRANCH  46  60
ATOM     60  C   UNL     1       3.634   9.621 -15.832  1.00  0.00     0.058 A 
ATOM     61  C   UNL     1       4.165   9.931 -17.102  1.00  0.00     0.135 A 
ATOM     62  C   UNL     1       4.277   8.565 -15.149  1.00  0.00     0.135 A 
ATOM     63  F   UNL     1       3.636  10.916 -17.844  1.00  0.00    -0.206 F 
ATOM     64  C   UNL     1       5.198   9.192 -17.682  1.00  0.00     0.059 A 
ATOM     65  C   UNL     1       5.343   7.851 -15.685  1.00  0.00     0.059 A 
ATOM     66  F   UNL     1       3.849   8.101 -13.970  1.00  0.00    -0.206 F 
ATOM     67  C   UNL     1       5.769   8.143 -16.969  1.00  0.00     0.060 A 
BRANCH  67  68
ATOM     68  S   UNL     1       7.026   7.122 -17.753  1.00  0.00     0.124 S 
ATOM     69  O   UNL     1       6.252   6.460 -18.796  1.00  0.00    -0.237 OA
ATOM     70  O   UNL     1       7.986   8.123 -18.205  1.00  0.00    -0.237 OA
ATOM     71  O   UNL     1       7.488   6.264 -16.666  1.00  0.00    -0.744 OA
ENDBRANCH  67  68
ENDBRANCH  46  60
BRANCH  47  72
ATOM     72  C   UNL     1      -1.860   3.283 -14.798  1.00  0.00     0.058 A 
ATOM     73  C   UNL     1      -1.839   2.416 -15.906  1.00  0.00     0.135 A 
ATOM     74  C   UNL     1      -1.454   2.730 -13.567  1.00  0.00     0.135 A 
ATOM     75  F   UNL     1      -2.207   2.862 -17.117  1.00  0.00    -0.206 F 
ATOM     76  C   UNL     1      -1.364   1.104 -15.818  1.00  0.00     0.059 A 
ATOM     77  C   UNL     1      -0.983   1.422 -13.453  1.00  0.00     0.059 A 
ATOM     78  F   UNL     1      -1.411   3.479 -12.455  1.00  0.00    -0.206 F 
ATOM     79  C   UNL     1      -0.909   0.625 -14.590  1.00  0.00     0.060 A 
BRANCH  79  80
ATOM     80  S   UNL     1      -0.110  -0.997 -14.518  1.00  0.00     0.124 S 
ATOM     81  O   UNL     1      -1.225  -1.895 -14.798  1.00  0.00    -0.237 OA
ATOM     82  O   UNL     1       0.898  -0.888 -15.567  1.00  0.00    -0.237 OA
ATOM     83  O   UNL     1       0.415  -1.057 -13.157  1.00  0.00    -0.744 OA
ENDBRANCH  79  80
ENDBRANCH  47  72
BRANCH  59  84
ATOM     84  C   UNL     1      -2.945   8.952 -17.569  1.00  0.00     0.058 A 
ATOM     85  C   UNL     1      -3.924   8.807 -16.569  1.00  0.00     0.135 A 
ATOM     86  C   UNL     1      -3.339   9.592 -18.755  1.00  0.00     0.135 A 
ATOM     87  F   UNL     1      -3.617   8.287 -15.373  1.00  0.00    -0.206 F 
ATOM     88  C   UNL     1      -5.238   9.249 -16.754  1.00  0.00     0.059 A 
ATOM     89  C   UNL     1      -4.634  10.067 -18.949  1.00  0.00     0.059 A 
ATOM     90  F   UNL     1      -2.442   9.808 -19.732  1.00  0.00    -0.206 F 
ATOM     91  C   UNL     1      -5.583   9.884 -17.947  1.00  0.00     0.060 A 
BRANCH  91  92
ATOM     92  S   UNL     1      -7.260  10.524 -18.157  1.00  0.00     0.124 S 
ATOM     93  O   UNL     1      -8.052   9.300 -18.227  1.00  0.00    -0.237 OA
ATOM     94  O   UNL     1      -7.444  11.330 -16.954  1.00  0.00    -0.237 OA
ATOM     95  O   UNL     1      -7.182  11.287 -19.401  1.00  0.00    -0.744 OA
ENDBRANCH  91  92
ENDBRANCH  59  84
ENDBRANCH  33  34
ENDBRANCH  25  28
ENDBRANCH  23  24
ENDBRANCH   1  23
TORSDOF 16
