REMARK SMILES CC[NH+](CC)C[C@H](F)C(=O)NCCCNC(=O)c1ccc(-c2c3nc(c(-c4c(F)cc(S(=O)(=O)[O-])cc4F)c4ccc([nH]4)c(-c4c(F)cc(S(=O)(=O)[O-])cc4F)c4nc(c(-c5c(F)cc(S(=O)(=O)[O-])cc5F)c5ccc2[nH]5)C=C4)C=C3)cc1
REMARK SMILES IDX 13 1 12 2 11 3 9 4 10 5 7 7 8 8 6 9 3 10 2 12 1 13 4 14 5 15
REMARK SMILES IDX 14 16 15 17 16 18 17 20 18 21 19 22 83 23 20 24 82 25 21 26
REMARK SMILES IDX 22 27 23 28 76 29 24 30 81 31 75 32 77 33 25 34 80 35 74 36
REMARK SMILES IDX 73 37 26 39 60 40 39 41 59 42 40 43 43 44 58 45 78 46 41 47
REMARK SMILES IDX 42 48 57 50 79 51 44 52 27 53 28 54 37 55 29 56 30 57 36 58
REMARK SMILES IDX 38 59 31 60 32 61 33 62 34 63 35 64 61 65 62 66 71 67 63 68
REMARK SMILES IDX 64 69 70 70 72 71 65 72 66 73 67 74 68 75 69 76 45 77 46 78
REMARK SMILES IDX 55 79 47 80 48 81 54 82 56 83 49 84 50 85 51 86 52 87 53 88
REMARK H PARENT 11 6 3 11 15 19 77 38 43 49
REMARK Flexibility Score: inf
ROOT
ATOM      1  C   UNL     1       4.795   1.396   0.514  1.00  0.00     0.042 C 
ENDROOT
BRANCH   1   2
ATOM      2  C   UNL     1       4.443  -0.005   0.054  1.00  0.00     0.117 C 
BRANCH   2   3
ATOM      3  N   UNL     1       5.084  -1.013   0.878  1.00  0.00    -0.353 N 
ATOM      4  C   UNL     1       4.508  -1.892   1.746  1.00  0.00     0.260 C 
ATOM      5  O   UNL     1       5.249  -2.617   2.414  1.00  0.00    -0.271 OA
ATOM      6  H   UNL     1       6.064  -1.070   0.799  1.00  0.00     0.163 HD
BRANCH   4   7
ATOM      7  C   UNL     1       2.992  -1.994   1.833  1.00  0.00     0.309 C 
ATOM      8  F   UNL     1       2.433  -0.757   2.045  1.00  0.00    -0.230 F 
BRANCH   7   9
ATOM      9  C   UNL     1       2.335  -2.592   0.568  1.00  0.00     0.310 C 
BRANCH   9  10
ATOM     10  N   UNL     1       2.406  -4.028   0.248  1.00  0.00    -0.333 N 
ATOM     11  H   UNL     1       2.098  -4.037  -0.724  1.00  0.00     0.348 HD
BRANCH  10  12
ATOM     12  C   UNL     1       3.746  -4.615   0.172  1.00  0.00     0.258 C 
ATOM     13  C   UNL     1       4.593  -4.042  -0.962  1.00  0.00     0.071 C 
ENDBRANCH  10  12
BRANCH  10  14
ATOM     14  C   UNL     1       1.443  -4.860   0.974  1.00  0.00     0.258 C 
ATOM     15  C   UNL     1       1.590  -4.929   2.487  1.00  0.00     0.071 C 
ENDBRANCH  10  14
ENDBRANCH   9  10
ENDBRANCH   7   9
ENDBRANCH   4   7
ENDBRANCH   2   3
ENDBRANCH   1   2
BRANCH   1  16
ATOM     16  C   UNL     1       6.287   1.684   0.474  1.00  0.00     0.118 C 
BRANCH  16  17
ATOM     17  N   UNL     1       6.850   1.532  -0.861  1.00  0.00    -0.352 N 
ATOM     18  C   UNL     1       7.493   2.454  -1.648  1.00  0.00     0.251 C 
ATOM     19  H   UNL     1       6.755   0.635  -1.257  1.00  0.00     0.163 HD
ATOM     20  O   UNL     1       7.710   2.199  -2.828  1.00  0.00    -0.269 OA
BRANCH  18  21
ATOM     21  C   UNL     1       7.907   3.749  -1.071  1.00  0.00     0.039 A 
ATOM     22  C   UNL     1       7.765   4.909  -1.834  1.00  0.00     0.014 A 
ATOM     23  C   UNL     1       8.444   3.816   0.217  1.00  0.00     0.014 A 
ATOM     24  C   UNL     1       8.127   6.139  -1.286  1.00  0.00     0.010 A 
ATOM     25  C   UNL     1       8.694   5.051   0.801  1.00  0.00     0.010 A 
ATOM     26  C   UNL     1       8.574   6.223   0.043  1.00  0.00    -0.014 A 
BRANCH  26  27
ATOM     27  C   UNL     1       8.983   7.520   0.636  1.00  0.00     0.031 A 
ATOM     28  C   UNL     1      10.406   7.715   1.093  1.00  0.00     0.074 A 
ATOM     29  C   UNL     1       8.074   8.501   0.793  1.00  0.00     0.049 A 
ATOM     30  N   UNL     1      10.958   8.761   1.652  1.00  0.00    -0.248 NA
ATOM     31  C   UNL     1      11.324   6.574   0.931  1.00  0.00     0.031 C 
ATOM     32  C   UNL     1       6.655   8.406   0.443  1.00  0.00     0.029 A 
ATOM     33  N   UNL     1       8.209   9.773   1.288  1.00  0.00    -0.354 N 
ATOM     34  C   UNL     1      12.274   8.398   1.917  1.00  0.00     0.074 A 
ATOM     35  C   UNL     1      12.419   7.015   1.528  1.00  0.00     0.031 C 
ATOM     36  C   UNL     1       6.059   9.582   0.699  1.00  0.00     0.029 A 
ATOM     37  C   UNL     1       7.043  10.502   1.263  1.00  0.00     0.049 A 
ATOM     38  H   UNL     1       9.060  10.131   1.629  1.00  0.00     0.167 HD
ATOM     39  C   UNL     1      13.280   9.159   2.407  1.00  0.00     0.037 A 
ATOM     40  C   UNL     1       6.798  11.769   1.648  1.00  0.00     0.037 A 
ATOM     41  C   UNL     1      13.133  10.545   2.762  1.00  0.00     0.049 A 
ATOM     42  C   UNL     1       7.936  12.601   2.176  1.00  0.00     0.074 A 
ATOM     43  C   UNL     1      14.098  11.424   3.219  1.00  0.00     0.029 A 
ATOM     44  N   UNL     1      11.942  11.255   2.697  1.00  0.00    -0.354 N 
ATOM     45  N   UNL     1       9.191  12.262   2.359  1.00  0.00    -0.248 NA
ATOM     46  C   UNL     1       7.630  13.992   2.535  1.00  0.00     0.031 C 
ATOM     47  C   UNL     1      13.481  12.653   3.476  1.00  0.00     0.029 A 
ATOM     48  C   UNL     1      12.145  12.558   3.120  1.00  0.00     0.049 A 
ATOM     49  H   UNL     1      11.081  10.887   2.395  1.00  0.00     0.167 HD
ATOM     50  C   UNL     1       9.832  13.408   2.818  1.00  0.00     0.074 A 
ATOM     51  C   UNL     1       8.826  14.450   2.875  1.00  0.00     0.031 C 
ATOM     52  C   UNL     1      11.133  13.585   3.157  1.00  0.00     0.037 A 
BRANCH  39  53
ATOM     53  C   UNL     1      14.628   8.509   2.578  1.00  0.00     0.058 A 
ATOM     54  C   UNL     1      15.401   8.109   1.475  1.00  0.00     0.135 A 
ATOM     55  C   UNL     1      15.165   8.304   3.859  1.00  0.00     0.135 A 
ATOM     56  F   UNL     1      14.930   8.262   0.227  1.00  0.00    -0.206 F 
ATOM     57  C   UNL     1      16.641   7.500   1.636  1.00  0.00     0.059 A 
ATOM     58  C   UNL     1      16.419   7.727   4.043  1.00  0.00     0.059 A 
ATOM     59  F   UNL     1      14.470   8.664   4.949  1.00  0.00    -0.206 F 
ATOM     60  C   UNL     1      17.142   7.314   2.925  1.00  0.00     0.060 A 
BRANCH  60  61
ATOM     61  S   UNL     1      18.757   6.530   3.116  1.00  0.00     0.124 S 
ATOM     62  O   UNL     1      18.452   5.147   2.763  1.00  0.00    -0.237 OA
ATOM     63  O   UNL     1      19.574   7.264   2.155  1.00  0.00    -0.237 OA
ATOM     64  O   UNL     1      19.084   6.762   4.519  1.00  0.00    -0.744 OA
ENDBRANCH  60  61
ENDBRANCH  39  53
BRANCH  40  65
ATOM     65  C   UNL     1       5.430  12.339   1.510  1.00  0.00     0.058 A 
ATOM     66  C   UNL     1       5.155  13.341   0.567  1.00  0.00     0.135 A 
ATOM     67  C   UNL     1       4.369  11.887   2.310  1.00  0.00     0.135 A 
ATOM     68  F   UNL     1       6.136  13.808  -0.221  1.00  0.00    -0.206 F 
ATOM     69  C   UNL     1       3.884  13.892   0.437  1.00  0.00     0.059 A 
ATOM     70  C   UNL     1       3.083  12.403   2.179  1.00  0.00     0.059 A 
ATOM     71  F   UNL     1       4.574  10.916   3.213  1.00  0.00    -0.206 F 
ATOM     72  C   UNL     1       2.853  13.415   1.248  1.00  0.00     0.060 A 
BRANCH  72  73
ATOM     73  S   UNL     1       1.199  14.110   1.045  1.00  0.00     0.124 S 
ATOM     74  O   UNL     1       1.366  15.439   1.621  1.00  0.00    -0.237 OA
ATOM     75  O   UNL     1       1.022  14.059  -0.403  1.00  0.00    -0.237 OA
ATOM     76  O   UNL     1       0.354  13.193   1.805  1.00  0.00    -0.744 OA
ENDBRANCH  72  73
ENDBRANCH  40  65
BRANCH  52  77
ATOM     77  C   UNL     1      11.560  14.968   3.565  1.00  0.00     0.058 A 
ATOM     78  C   UNL     1      11.166  15.540   4.785  1.00  0.00     0.135 A 
ATOM     79  C   UNL     1      12.412  15.716   2.735  1.00  0.00     0.135 A 
ATOM     80  F   UNL     1      10.351  14.869   5.614  1.00  0.00    -0.206 F 
ATOM     81  C   UNL     1      11.572  16.819   5.151  1.00  0.00     0.059 A 
ATOM     82  C   UNL     1      12.856  16.983   3.096  1.00  0.00     0.059 A 
ATOM     83  F   UNL     1      12.831  15.211   1.564  1.00  0.00    -0.206 F 
ATOM     84  C   UNL     1      12.416  17.534   4.298  1.00  0.00     0.060 A 
BRANCH  84  85
ATOM     85  S   UNL     1      12.947  19.187   4.791  1.00  0.00     0.124 S 
ATOM     86  O   UNL     1      11.727  19.960   4.583  1.00  0.00    -0.237 OA
ATOM     87  O   UNL     1      13.341  18.987   6.182  1.00  0.00    -0.237 OA
ATOM     88  O   UNL     1      14.041  19.481   3.871  1.00  0.00    -0.744 OA
ENDBRANCH  84  85
ENDBRANCH  52  77
ENDBRANCH  26  27
ENDBRANCH  18  21
ENDBRANCH  16  17
ENDBRANCH   1  16
TORSDOF 17
