REMARK SMILES O=C(COc1ccc(/C=C/C(=O)c2ccc(F)cc2F)cc1[N+](=O)[O-])NCCCNC(=O)c1ccc(-c2c3nc(c(-c4c(F)cc(S(=O)(=O)[O-])cc4F)c4ccc([nH]4)c(-c4c(F)cc(S(=O)(=O)[O-])cc4F)c4nc(c(-c5c(F)cc(S(=O)(=O)[O-])cc5F)c5ccc2[nH]5)C=C4)C=C3)cc1
REMARK SMILES IDX 27 1 26 2 1 3 2 4 3 6 4 7 5 8 6 9 22 10 7 11 21 12 8 13
REMARK SMILES IDX 23 14 24 15 25 16 9 17 10 18 11 19 12 20 13 21 14 22 19 23
REMARK SMILES IDX 15 24 18 25 20 26 16 27 17 28 28 29 29 30 30 31 31 32 32 34
REMARK SMILES IDX 33 35 34 36 98 37 35 38 97 39 36 40 37 41 38 42 91 43 39 44
REMARK SMILES IDX 96 45 90 46 92 47 40 48 95 49 89 50 88 51 41 53 75 54 54 55
REMARK SMILES IDX 74 56 55 57 58 58 73 59 93 60 56 61 57 62 72 64 94 65 59 66
REMARK SMILES IDX 42 67 43 68 52 69 44 70 45 71 51 72 53 73 46 74 47 75 48 76
REMARK SMILES IDX 49 77 50 78 76 79 77 80 86 81 78 82 79 83 85 84 87 85 80 86
REMARK SMILES IDX 81 87 82 88 83 89 84 90 60 91 61 92 70 93 62 94 63 95 69 96
REMARK SMILES IDX 71 97 64 98 65 99 66 100 67 101 68 102
REMARK H PARENT 26 5 30 33 92 52 58 63
REMARK Flexibility Score: inf
ROOT
ATOM      1  C   UNL     1       1.907   0.911   2.160  1.00  0.00     0.117 C 
ENDROOT
BRANCH   1   2
ATOM      2  N   UNL     1       2.683   0.381   1.053  1.00  0.00    -0.353 N 
ATOM      3  O   UNL     1       1.015  -0.896   0.104  1.00  0.00    -0.271 OA
ATOM      4  C   UNL     1       2.130  -0.386   0.048  1.00  0.00     0.257 C 
ATOM      5  H   UNL     1       3.647   0.578   1.017  1.00  0.00     0.163 HD
BRANCH   4   6
ATOM      6  C   UNL     1       3.034  -0.548  -1.178  1.00  0.00     0.329 C 
BRANCH   6   7
ATOM      7  O   UNL     1       3.774   0.642  -1.486  1.00  0.00    -0.477 OA
BRANCH   7   8
ATOM      8  C   UNL     1       3.151   1.422  -2.423  1.00  0.00     0.197 A 
ATOM      9  C   UNL     1       3.473   1.230  -3.769  1.00  0.00     0.054 A 
ATOM     10  C   UNL     1       2.292   2.471  -2.094  1.00  0.00     0.311 A 
ATOM     11  C   UNL     1       2.907   2.050  -4.761  1.00  0.00     0.012 A 
ATOM     12  C   UNL     1       1.691   3.267  -3.073  1.00  0.00     0.098 A 
ATOM     13  C   UNL     1       2.009   3.069  -4.418  1.00  0.00    -0.018 A 
BRANCH  10  14
ATOM     14  N   UNL     1       2.054   2.849  -0.721  1.00  0.00     0.066 N 
ATOM     15  O   UNL     1       0.871   2.922  -0.358  1.00  0.00    -0.258 OA
ATOM     16  O   UNL     1       3.042   3.122  -0.026  1.00  0.00    -0.258 OA
ENDBRANCH  10  14
BRANCH  13  17
ATOM     17  C   UNL     1       1.367   3.967  -5.383  1.00  0.00     0.012 C 
ATOM     18  C   UNL     1       2.003   4.566  -6.399  1.00  0.00     0.053 C 
BRANCH  18  19
ATOM     19  C   UNL     1       1.339   5.572  -7.271  1.00  0.00     0.188 C 
ATOM     20  O   UNL     1       1.651   5.654  -8.456  1.00  0.00    -0.289 OA
BRANCH  19  21
ATOM     21  C   UNL     1       0.295   6.469  -6.724  1.00  0.00     0.058 A 
ATOM     22  C   UNL     1      -0.839   6.730  -7.504  1.00  0.00     0.018 A 
ATOM     23  C   UNL     1       0.430   7.089  -5.477  1.00  0.00     0.137 A 
ATOM     24  C   UNL     1      -1.842   7.570  -7.013  1.00  0.00     0.040 A 
ATOM     25  C   UNL     1      -0.567   7.926  -4.985  1.00  0.00     0.079 A 
ATOM     26  F   UNL     1       1.526   6.902  -4.729  1.00  0.00    -0.206 F 
ATOM     27  C   UNL     1      -1.698   8.155  -5.757  1.00  0.00     0.126 A 
ATOM     28  F   UNL     1      -2.663   8.958  -5.292  1.00  0.00    -0.207 F 
ENDBRANCH  19  21
ENDBRANCH  18  19
ENDBRANCH  13  17
ENDBRANCH   7   8
ENDBRANCH   6   7
ENDBRANCH   4   6
ENDBRANCH   1   2
BRANCH   1  29
ATOM     29  C   UNL     1       2.392   0.465   3.528  1.00  0.00     0.042 C 
BRANCH  29  30
ATOM     30  C   UNL     1       3.867   0.715   3.820  1.00  0.00     0.118 C 
BRANCH  30  31
ATOM     31  N   UNL     1       4.279   2.110   3.748  1.00  0.00    -0.352 N 
ATOM     32  C   UNL     1       5.051   2.851   4.615  1.00  0.00     0.251 C 
ATOM     33  H   UNL     1       3.956   2.599   2.957  1.00  0.00     0.163 HD
ATOM     34  O   UNL     1       5.246   4.042   4.381  1.00  0.00    -0.269 OA
BRANCH  32  35
ATOM     35  C   UNL     1       5.612   2.248   5.851  1.00  0.00     0.039 A 
ATOM     36  C   UNL     1       5.577   2.996   7.032  1.00  0.00     0.014 A 
ATOM     37  C   UNL     1       6.164   0.965   5.866  1.00  0.00     0.014 A 
ATOM     38  C   UNL     1       6.011   2.428   8.234  1.00  0.00     0.010 A 
ATOM     39  C   UNL     1       6.514   0.369   7.078  1.00  0.00     0.010 A 
ATOM     40  C   UNL     1       6.439   1.091   8.278  1.00  0.00    -0.014 A 
BRANCH  40  41
ATOM     41  C   UNL     1       6.787   0.439   9.570  1.00  0.00     0.031 A 
ATOM     42  C   UNL     1       8.179  -0.077   9.823  1.00  0.00     0.074 A 
ATOM     43  C   UNL     1       5.829   0.261  10.503  1.00  0.00     0.049 A 
ATOM     44  N   UNL     1       8.655  -0.685  10.880  1.00  0.00    -0.248 NA
ATOM     45  C   UNL     1       9.157   0.082   8.735  1.00  0.00     0.031 C 
ATOM     46  C   UNL     1       4.422   0.643  10.357  1.00  0.00     0.029 A 
ATOM     47  N   UNL     1       5.890  -0.289  11.760  1.00  0.00    -0.354 N 
ATOM     48  C   UNL     1       9.977  -0.993  10.581  1.00  0.00     0.074 A 
ATOM     49  C   UNL     1      10.213  -0.554   9.222  1.00  0.00     0.031 C 
ATOM     50  C   UNL     1       3.764   0.349  11.490  1.00  0.00     0.029 A 
ATOM     51  C   UNL     1       4.691  -0.265  12.434  1.00  0.00     0.049 A 
ATOM     52  H   UNL     1       6.715  -0.665  12.143  1.00  0.00     0.167 HD
ATOM     53  C   UNL     1      10.919  -1.564  11.371  1.00  0.00     0.037 A 
ATOM     54  C   UNL     1       4.375  -0.681  13.675  1.00  0.00     0.037 A 
ATOM     55  C   UNL     1      10.695  -1.969  12.735  1.00  0.00     0.049 A 
ATOM     56  C   UNL     1       5.449  -1.263  14.553  1.00  0.00     0.074 A 
ATOM     57  C   UNL     1      11.602  -2.498  13.638  1.00  0.00     0.029 A 
ATOM     58  N   UNL     1       9.478  -1.885  13.397  1.00  0.00    -0.354 N 
ATOM     59  N   UNL     1       6.712  -1.481  14.275  1.00  0.00    -0.248 NA
ATOM     60  C   UNL     1       5.058  -1.639  15.918  1.00  0.00     0.031 C 
ATOM     61  C   UNL     1      10.927  -2.759  14.836  1.00  0.00     0.029 A 
ATOM     62  C   UNL     1       9.609  -2.359  14.692  1.00  0.00     0.049 A 
ATOM     63  H   UNL     1       8.645  -1.540  13.003  1.00  0.00     0.167 HD
ATOM     64  C   UNL     1       7.272  -1.998  15.438  1.00  0.00     0.074 A 
ATOM     65  C   UNL     1       6.214  -2.045  16.426  1.00  0.00     0.031 C 
ATOM     66  C   UNL     1       8.547  -2.398  15.666  1.00  0.00     0.037 A 
BRANCH  53  67
ATOM     67  C   UNL     1      12.287  -1.770  10.781  1.00  0.00     0.058 A 
ATOM     68  C   UNL     1      13.145  -0.688  10.523  1.00  0.00     0.135 A 
ATOM     69  C   UNL     1      12.759  -3.061  10.494  1.00  0.00     0.135 A 
ATOM     70  F   UNL     1      12.740   0.569  10.765  1.00  0.00    -0.206 F 
ATOM     71  C   UNL     1      14.408  -0.875   9.971  1.00  0.00     0.059 A 
ATOM     72  C   UNL     1      14.029  -3.273   9.966  1.00  0.00     0.059 A 
ATOM     73  F   UNL     1      11.982  -4.131  10.723  1.00  0.00    -0.206 F 
ATOM     74  C   UNL     1      14.840  -2.172   9.691  1.00  0.00     0.060 A 
BRANCH  74  75
ATOM     75  S   UNL     1      16.480  -2.401   8.972  1.00  0.00     0.124 S 
ATOM     76  O   UNL     1      16.249  -1.992   7.589  1.00  0.00    -0.237 OA
ATOM     77  O   UNL     1      17.302  -1.496   9.769  1.00  0.00    -0.237 OA
ATOM     78  O   UNL     1      16.743  -3.822   9.171  1.00  0.00    -0.744 OA
ENDBRANCH  74  75
ENDBRANCH  53  67
BRANCH  54  79
ATOM     79  C   UNL     1       2.987  -0.516  14.182  1.00  0.00     0.058 A 
ATOM     80  C   UNL     1       2.686   0.455  15.148  1.00  0.00     0.135 A 
ATOM     81  C   UNL     1       1.935  -1.313  13.704  1.00  0.00     0.135 A 
ATOM     82  F   UNL     1       3.659   1.237  15.639  1.00  0.00    -0.206 F 
ATOM     83  C   UNL     1       1.394   0.621  15.638  1.00  0.00     0.059 A 
ATOM     84  C   UNL     1       0.631  -1.151  14.162  1.00  0.00     0.059 A 
ATOM     85  F   UNL     1       2.169  -2.244  12.767  1.00  0.00    -0.206 F 
ATOM     86  C   UNL     1       0.373  -0.188  15.137  1.00  0.00     0.060 A 
BRANCH  86  87
ATOM     87  S   UNL     1      -1.310   0.067  15.742  1.00  0.00     0.124 S 
ATOM     88  O   UNL     1      -1.248  -0.563  17.055  1.00  0.00    -0.237 OA
ATOM     89  O   UNL     1      -1.424   1.522  15.736  1.00  0.00    -0.237 OA
ATOM     90  O   UNL     1      -2.129  -0.621  14.748  1.00  0.00    -0.744 OA
ENDBRANCH  86  87
ENDBRANCH  54  79
BRANCH  66  91
ATOM     91  C   UNL     1       8.872  -2.891  17.049  1.00  0.00     0.058 A 
ATOM     92  C   UNL     1       8.425  -4.140  17.509  1.00  0.00     0.135 A 
ATOM     93  C   UNL     1       9.650  -2.111  17.918  1.00  0.00     0.135 A 
ATOM     94  F   UNL     1       7.675  -4.923  16.718  1.00  0.00    -0.206 F 
ATOM     95  C   UNL     1       8.707  -4.581  18.798  1.00  0.00     0.059 A 
ATOM     96  C   UNL     1       9.965  -2.543  19.202  1.00  0.00     0.059 A 
ATOM     97  F   UNL     1      10.113  -0.914  17.522  1.00  0.00    -0.206 F 
ATOM     98  C   UNL     1       9.472  -3.772  19.640  1.00  0.00     0.060 A 
BRANCH  98  99
ATOM     99  S   UNL     1       9.834  -4.351  21.312  1.00  0.00     0.124 S 
ATOM    100  O   UNL     1       8.574  -4.076  21.995  1.00  0.00    -0.237 OA
ATOM    101  O   UNL     1      10.144  -5.761  21.098  1.00  0.00    -0.237 OA
ATOM    102  O   UNL     1      10.964  -3.522  21.719  1.00  0.00    -0.744 OA
ENDBRANCH  98  99
ENDBRANCH  66  91
ENDBRANCH  40  41
ENDBRANCH  32  35
ENDBRANCH  30  31
ENDBRANCH  29  30
ENDBRANCH   1  29
TORSDOF 19
