REMARK SMILES O=C(NCCCNC(=O)[C@H]1CCCN(C(=O)C2CCN(S(=O)(=O)c3ccccc3)CC2)C1)c1ccc(-c2c3nc(c(-c4c(F)cc(S(=O)(=O)[O-])cc4F)c4ccc([nH]4)c(-c4c(F)cc(S(=O)(=O)[O-])cc4F)c4nc(c(-c5c(F)cc(S(=O)(=O)[O-])cc5F)c5ccc2[nH]5)C=C4)C=C3)cc1
REMARK SMILES IDX 5 1 4 2 3 3 1 4 2 5 33 7 34 8 98 9 35 10 97 11 36 12 37 13
REMARK SMILES IDX 38 14 91 15 39 16 96 17 90 18 92 19 40 20 95 21 89 22 88 23
REMARK SMILES IDX 41 25 75 26 54 27 74 28 55 29 58 30 73 31 93 32 56 33 57 34
REMARK SMILES IDX 72 36 94 37 59 38 42 39 43 40 52 41 44 42 45 43 51 44 53 45
REMARK SMILES IDX 46 46 47 47 48 48 49 49 50 50 76 51 77 52 86 53 78 54 79 55
REMARK SMILES IDX 85 56 87 57 80 58 81 59 82 60 83 61 84 62 60 63 61 64 70 65
REMARK SMILES IDX 62 66 63 67 69 68 71 69 64 70 65 71 66 72 67 73 68 74 6 75
REMARK SMILES IDX 7 76 8 77 9 79 10 80 11 81 32 82 12 83 14 84 13 85 15 86
REMARK SMILES IDX 16 87 17 88 18 89 31 90 19 91 30 92 20 93 21 94 22 95 23 96
REMARK SMILES IDX 24 97 25 98 29 99 26 100 28 101 27 102
REMARK H PARENT 3 6 92 24 58 35 7 78
REMARK Flexibility Score: inf
ROOT
ATOM      1  C   UNL     1       9.853  -3.495   7.113  1.00  0.00     0.042 C 
ENDROOT
BRANCH   1   2
ATOM      2  C   UNL     1      10.214  -4.170   8.434  1.00  0.00     0.118 C 
BRANCH   2   3
ATOM      3  N   UNL     1      11.311  -5.111   8.264  1.00  0.00    -0.352 N 
ATOM      4  O   UNL     1      13.457  -5.685   7.968  1.00  0.00    -0.269 OA
ATOM      5  C   UNL     1      12.645  -4.960   8.537  1.00  0.00     0.251 C 
ATOM      6  H   UNL     1      11.056  -5.988   7.898  1.00  0.00     0.163 HD
BRANCH   5   7
ATOM      7  C   UNL     1      13.104  -3.964   9.528  1.00  0.00     0.039 A 
ATOM      8  C   UNL     1      12.389  -3.754  10.712  1.00  0.00     0.014 A 
ATOM      9  C   UNL     1      14.331  -3.324   9.328  1.00  0.00     0.014 A 
ATOM     10  C   UNL     1      12.860  -2.851  11.660  1.00  0.00     0.010 A 
ATOM     11  C   UNL     1      14.836  -2.470  10.310  1.00  0.00     0.010 A 
ATOM     12  C   UNL     1      14.102  -2.227  11.482  1.00  0.00    -0.014 A 
BRANCH  12  13
ATOM     13  C   UNL     1      14.673  -1.393  12.565  1.00  0.00     0.031 A 
ATOM     14  C   UNL     1      14.868   0.080  12.372  1.00  0.00     0.074 A 
ATOM     15  C   UNL     1      15.047  -1.990  13.712  1.00  0.00     0.049 A 
ATOM     16  N   UNL     1      15.426   0.948  13.175  1.00  0.00    -0.248 NA
ATOM     17  C   UNL     1      14.384   0.651  11.107  1.00  0.00     0.031 C 
ATOM     18  C   UNL     1      14.912  -3.422  13.997  1.00  0.00     0.029 A 
ATOM     19  N   UNL     1      15.624  -1.479  14.845  1.00  0.00    -0.354 N 
ATOM     20  C   UNL     1      15.387   2.164  12.504  1.00  0.00     0.074 A 
ATOM     21  C   UNL     1      14.762   1.917  11.222  1.00  0.00     0.031 C 
ATOM     22  C   UNL     1      15.385  -3.672  15.226  1.00  0.00     0.029 A 
ATOM     23  C   UNL     1      15.907  -2.433  15.794  1.00  0.00     0.049 A 
ATOM     24  H   UNL     1      15.819  -0.522  14.968  1.00  0.00     0.167 HD
ATOM     25  C   UNL     1      15.834   3.371  12.925  1.00  0.00     0.037 A 
ATOM     26  C   UNL     1      16.544  -2.331  16.975  1.00  0.00     0.037 A 
ATOM     27  C   UNL     1      16.447   3.598  14.208  1.00  0.00     0.049 A 
ATOM     28  C   UNL     1      17.037  -0.987  17.420  1.00  0.00     0.074 A 
ATOM     29  C   UNL     1      16.904   4.788  14.746  1.00  0.00     0.029 A 
ATOM     30  N   UNL     1      16.698   2.610  15.150  1.00  0.00    -0.354 N 
ATOM     31  N   UNL     1      16.963   0.161  16.790  1.00  0.00    -0.248 NA
ATOM     32  C   UNL     1      17.698  -0.917  18.729  1.00  0.00     0.031 C 
ATOM     33  C   UNL     1      17.464   4.513  15.999  1.00  0.00     0.029 A 
ATOM     34  C   UNL     1      17.319   3.158  16.260  1.00  0.00     0.049 A 
ATOM     35  H   UNL     1      16.468   1.658  15.045  1.00  0.00     0.167 HD
ATOM     36  C   UNL     1      17.553   1.096  17.630  1.00  0.00     0.074 A 
ATOM     37  C   UNL     1      17.976   0.378  18.818  1.00  0.00     0.031 C 
ATOM     38  C   UNL     1      17.724   2.426  17.436  1.00  0.00     0.037 A 
BRANCH  25  39
ATOM     39  C   UNL     1      15.705   4.523  11.968  1.00  0.00     0.058 A 
ATOM     40  C   UNL     1      14.461   5.102  11.668  1.00  0.00     0.135 A 
ATOM     41  C   UNL     1      16.841   5.047  11.330  1.00  0.00     0.135 A 
ATOM     42  F   UNL     1      13.341   4.631  12.238  1.00  0.00    -0.206 F 
ATOM     43  C   UNL     1      14.343   6.127  10.733  1.00  0.00     0.059 A 
ATOM     44  C   UNL     1      16.749   6.087  10.410  1.00  0.00     0.059 A 
ATOM     45  F   UNL     1      18.055   4.533  11.583  1.00  0.00    -0.206 F 
ATOM     46  C   UNL     1      15.492   6.604  10.100  1.00  0.00     0.060 A 
BRANCH  46  47
ATOM     47  S   UNL     1      15.322   7.897   8.852  1.00  0.00     0.124 S 
ATOM     48  O   UNL     1      14.830   7.132   7.710  1.00  0.00    -0.237 OA
ATOM     49  O   UNL     1      14.359   8.805   9.466  1.00  0.00    -0.237 OA
ATOM     50  O   UNL     1      16.677   8.421   8.720  1.00  0.00    -0.744 OA
ENDBRANCH  46  47
ENDBRANCH  25  39
BRANCH  26  51
ATOM     51  C   UNL     1      16.742  -3.555  17.793  1.00  0.00     0.058 A 
ATOM     52  C   UNL     1      15.962  -3.799  18.930  1.00  0.00     0.135 A 
ATOM     53  C   UNL     1      17.643  -4.554  17.388  1.00  0.00     0.135 A 
ATOM     54  F   UNL     1      15.090  -2.872  19.356  1.00  0.00    -0.206 F 
ATOM     55  C   UNL     1      16.054  -4.997  19.631  1.00  0.00     0.059 A 
ATOM     56  C   UNL     1      17.738  -5.768  18.059  1.00  0.00     0.059 A 
ATOM     57  F   UNL     1      18.398  -4.374  16.293  1.00  0.00    -0.206 F 
ATOM     58  C   UNL     1      16.936  -5.981  19.180  1.00  0.00     0.060 A 
BRANCH  58  59
ATOM     59  S   UNL     1      16.964  -7.577  20.027  1.00  0.00     0.124 S 
ATOM     60  O   UNL     1      17.703  -7.252  21.241  1.00  0.00    -0.237 OA
ATOM     61  O   UNL     1      15.542  -7.858  20.201  1.00  0.00    -0.237 OA
ATOM     62  O   UNL     1      17.654  -8.447  19.079  1.00  0.00    -0.744 OA
ENDBRANCH  58  59
ENDBRANCH  26  51
BRANCH  38  63
ATOM     63  C   UNL     1      18.372   3.208  18.541  1.00  0.00     0.058 A 
ATOM     64  C   UNL     1      19.759   3.185  18.741  1.00  0.00     0.135 A 
ATOM     65  C   UNL     1      17.602   4.064  19.345  1.00  0.00     0.135 A 
ATOM     66  F   UNL     1      20.535   2.375  18.003  1.00  0.00    -0.206 F 
ATOM     67  C   UNL     1      20.365   3.988  19.702  1.00  0.00     0.059 A 
ATOM     68  C   UNL     1      18.188   4.889  20.298  1.00  0.00     0.059 A 
ATOM     69  F   UNL     1      16.270   4.124  19.186  1.00  0.00    -0.206 F 
ATOM     70  C   UNL     1      19.571   4.843  20.470  1.00  0.00     0.060 A 
BRANCH  70  71
ATOM     71  S   UNL     1      20.375   5.938  21.659  1.00  0.00     0.124 S 
ATOM     72  O   UNL     1      20.690   5.014  22.744  1.00  0.00    -0.237 OA
ATOM     73  O   UNL     1      21.518   6.440  20.902  1.00  0.00    -0.237 OA
ATOM     74  O   UNL     1      19.345   6.929  21.957  1.00  0.00    -0.744 OA
ENDBRANCH  70  71
ENDBRANCH  38  63
ENDBRANCH  12  13
ENDBRANCH   5   7
ENDBRANCH   2   3
ENDBRANCH   1   2
BRANCH   1  75
ATOM     75  C   UNL     1       9.398  -4.482   6.040  1.00  0.00     0.117 C 
BRANCH  75  76
ATOM     76  N   UNL     1       8.076  -5.021   6.307  1.00  0.00    -0.356 N 
ATOM     77  C   UNL     1       6.822  -4.672   5.944  1.00  0.00     0.224 C 
ATOM     78  H   UNL     1       8.099  -5.821   6.880  1.00  0.00     0.163 HD
ATOM     79  O   UNL     1       5.928  -5.434   6.339  1.00  0.00    -0.275 OA
BRANCH  77  80
ATOM     80  C   UNL     1       6.429  -3.430   5.142  1.00  0.00     0.098 C 
ATOM     81  C   UNL     1       5.442  -2.621   6.005  1.00  0.00     0.017 C 
ATOM     82  C   UNL     1       7.537  -2.554   4.560  1.00  0.00     0.133 C 
ATOM     83  C   UNL     1       5.019  -1.337   5.311  1.00  0.00     0.022 C 
ATOM     84  N   UNL     1       7.078  -1.280   3.998  1.00  0.00    -0.342 N 
ATOM     85  C   UNL     1       6.249  -0.533   4.919  1.00  0.00     0.119 C 
BRANCH  84  86
ATOM     86  C   UNL     1       7.722  -0.791   2.873  1.00  0.00     0.225 C 
ATOM     87  O   UNL     1       8.679  -1.425   2.404  1.00  0.00    -0.275 OA
BRANCH  86  88
ATOM     88  C   UNL     1       7.298   0.483   2.103  1.00  0.00     0.081 C 
ATOM     89  C   UNL     1       7.675   1.843   2.663  1.00  0.00     0.030 C 
ATOM     90  C   UNL     1       5.913   0.504   1.488  1.00  0.00     0.030 C 
ATOM     91  C   UNL     1       6.613   2.569   3.470  1.00  0.00     0.103 C 
ATOM     92  C   UNL     1       4.835   1.087   2.375  1.00  0.00     0.103 C 
ATOM     93  N   UNL     1       5.179   2.366   3.044  1.00  0.00    -0.198 NA
BRANCH  93  94
ATOM     94  S   UNL     1       4.141   2.821   4.378  1.00  0.00     0.243 S 
ATOM     95  O   UNL     1       4.426   1.916   5.481  1.00  0.00    -0.207 OA
ATOM     96  O   UNL     1       4.286   4.245   4.553  1.00  0.00    -0.207 OA
BRANCH  94  97
ATOM     97  C   UNL     1       2.462   2.477   3.904  1.00  0.00     0.082 A 
ATOM     98  C   UNL     1       1.560   3.530   3.749  1.00  0.00     0.022 A 
ATOM     99  C   UNL     1       1.999   1.153   3.911  1.00  0.00     0.022 A 
ATOM    100  C   UNL     1       0.204   3.251   3.558  1.00  0.00     0.001 A 
ATOM    101  C   UNL     1       0.653   0.879   3.679  1.00  0.00     0.001 A 
ATOM    102  C   UNL     1      -0.245   1.929   3.508  1.00  0.00     0.000 A 
ENDBRANCH  94  97
ENDBRANCH  93  94
ENDBRANCH  86  88
ENDBRANCH  84  86
ENDBRANCH  77  80
ENDBRANCH  75  76
ENDBRANCH   1  75
TORSDOF 17
