REMARK SMILES Cc1c(NS(=O)(=O)c2ncn(C)c2Cl)cccc1C(=O)NCCCNC(=O)c1ccc(-c2c3nc(c(-c4c(F)cc(S(=O)(=O)[O-])cc4F)c4ccc([nH]4)c(-c4c(F)cc(S(=O)(=O)[O-])cc4F)c4nc(c(-c5c(F)cc(S(=O)(=O)[O-])cc5F)c5ccc2[nH]5)C=C4)C=C3)cc1
REMARK SMILES IDX 23 1 22 2 21 3 19 4 20 5 18 7 1 8 2 9 3 10 15 11 17 12 16 13
REMARK SMILES IDX 4 14 5 16 6 17 7 18 8 19 9 20 13 21 10 22 11 23 14 24 12 25
REMARK SMILES IDX 24 26 25 27 26 28 27 30 28 31 29 32 93 33 30 34 92 35 31 36
REMARK SMILES IDX 32 37 33 38 86 39 34 40 91 41 85 42 87 43 35 44 90 45 84 46
REMARK SMILES IDX 83 47 36 49 70 50 49 51 69 52 50 53 53 54 68 55 88 56 51 57
REMARK SMILES IDX 52 58 67 60 89 61 54 62 37 63 38 64 47 65 39 66 40 67 46 68
REMARK SMILES IDX 48 69 41 70 42 71 43 72 44 73 45 74 71 75 72 76 81 77 73 78
REMARK SMILES IDX 74 79 80 80 82 81 75 82 76 83 77 84 78 85 79 86 55 87 56 88
REMARK SMILES IDX 65 89 57 90 58 91 64 92 66 93 59 94 60 95 61 96 62 97 63 98
REMARK H PARENT 21 6 4 15 25 29 87 48 53 59
REMARK Flexibility Score: inf
ROOT
ATOM      1  C   UNL     1       4.669  -0.101   0.446  1.00  0.00     0.042 C 
ENDROOT
BRANCH   1   2
ATOM      2  C   UNL     1       3.339   0.483   1.183  1.00  0.00     0.118 C 
BRANCH   2   3
ATOM      3  N   UNL     1       2.530   1.533   0.520  1.00  0.00    -0.352 N 
ATOM      4  C   UNL     1       1.249   1.741   0.056  1.00  0.00     0.251 C 
ATOM      5  O   UNL     1       0.859   2.890  -0.173  1.00  0.00    -0.269 OA
ATOM      6  H   UNL     1       3.081   2.333   0.360  1.00  0.00     0.163 HD
BRANCH   4   7
ATOM      7  C   UNL     1       0.267   0.656  -0.202  1.00  0.00     0.044 A 
ATOM      8  C   UNL     1       1.959  -0.924  -1.215  1.00  0.00     0.047 C 
ATOM      9  C   UNL     1       0.623  -0.643  -0.590  1.00  0.00    -0.014 A 
ATOM     10  C   UNL     1      -0.357  -1.643  -0.633  1.00  0.00     0.053 A 
ATOM     11  C   UNL     1      -1.676  -1.241  -0.823  1.00  0.00     0.027 A 
ATOM     12  C   UNL     1      -1.097   1.014  -0.245  1.00  0.00     0.014 A 
ATOM     13  C   UNL     1      -2.058   0.084  -0.628  1.00  0.00     0.003 A 
BRANCH  10  14
ATOM     14  N   UNL     1       0.040  -3.023  -0.761  1.00  0.00    -0.278 N 
ATOM     15  H   UNL     1       0.704  -3.277  -1.443  1.00  0.00     0.180 HD
BRANCH  14  16
ATOM     16  S   UNL     1      -0.628  -4.225   0.258  1.00  0.00     0.282 S 
ATOM     17  O   UNL     1      -0.360  -5.490  -0.388  1.00  0.00    -0.199 OA
ATOM     18  O   UNL     1      -0.149  -3.987   1.609  1.00  0.00    -0.199 OA
BRANCH  16  19
ATOM     19  C   UNL     1      -2.358  -4.110   0.346  1.00  0.00     0.213 A 
ATOM     20  N   UNL     1      -3.211  -4.756  -0.545  1.00  0.00    -0.222 NA
ATOM     21  C   UNL     1      -3.080  -3.227   1.119  1.00  0.00     0.149 A 
ATOM     22  C   UNL     1      -4.378  -4.173  -0.387  1.00  0.00     0.202 A 
ATOM     23  N   UNL     1      -4.304  -3.143   0.514  1.00  0.00    -0.324 N 
ATOM     24  Cl  UNL     1      -2.650  -2.164   2.377  1.00  0.00    -0.061 Cl
ATOM     25  C   UNL     1      -5.202  -2.012   0.487  1.00  0.00     0.152 C 
ENDBRANCH  16  19
ENDBRANCH  14  16
ENDBRANCH  10  14
ENDBRANCH   4   7
ENDBRANCH   2   3
ENDBRANCH   1   2
BRANCH   1  26
ATOM     26  C   UNL     1       6.074   0.567   0.789  1.00  0.00     0.118 C 
BRANCH  26  27
ATOM     27  N   UNL     1       7.445   0.241   0.098  1.00  0.00    -0.352 N 
ATOM     28  C   UNL     1       8.661   0.949  -0.289  1.00  0.00     0.251 C 
ATOM     29  H   UNL     1       7.501  -0.712  -0.143  1.00  0.00     0.163 HD
ATOM     30  O   UNL     1       9.678   0.511   0.279  1.00  0.00    -0.269 OA
BRANCH  28  31
ATOM     31  C   UNL     1       8.981   2.117  -1.308  1.00  0.00     0.039 A 
ATOM     32  C   UNL     1       9.936   3.134  -0.989  1.00  0.00     0.014 A 
ATOM     33  C   UNL     1       8.363   2.346  -2.527  1.00  0.00     0.014 A 
ATOM     34  C   UNL     1       9.761   4.493  -1.468  1.00  0.00     0.010 A 
ATOM     35  C   UNL     1       8.199   3.680  -3.016  1.00  0.00     0.010 A 
ATOM     36  C   UNL     1       8.692   4.796  -2.324  1.00  0.00    -0.014 A 
BRANCH  36  37
ATOM     37  C   UNL     1       7.947   6.126  -2.369  1.00  0.00     0.031 A 
ATOM     38  C   UNL     1       8.161   7.087  -3.448  1.00  0.00     0.074 A 
ATOM     39  C   UNL     1       6.907   6.556  -1.588  1.00  0.00     0.049 A 
ATOM     40  N   UNL     1       8.345   8.358  -3.277  1.00  0.00    -0.248 NA
ATOM     41  C   UNL     1       8.037   6.666  -4.829  1.00  0.00     0.031 C 
ATOM     42  C   UNL     1       5.988   7.709  -1.665  1.00  0.00     0.029 A 
ATOM     43  N   UNL     1       6.348   5.932  -0.496  1.00  0.00    -0.354 N 
ATOM     44  C   UNL     1       8.028   8.938  -4.487  1.00  0.00     0.074 A 
ATOM     45  C   UNL     1       8.045   7.848  -5.447  1.00  0.00     0.031 C 
ATOM     46  C   UNL     1       5.325   7.849  -0.493  1.00  0.00     0.029 A 
ATOM     47  C   UNL     1       5.810   6.832   0.418  1.00  0.00     0.049 A 
ATOM     48  H   UNL     1       6.332   4.955  -0.375  1.00  0.00     0.167 HD
ATOM     49  C   UNL     1       7.490  10.195  -4.571  1.00  0.00     0.037 A 
ATOM     50  C   UNL     1       6.372   6.930   1.667  1.00  0.00     0.037 A 
ATOM     51  C   UNL     1       7.041  10.705  -3.260  1.00  0.00     0.049 A 
ATOM     52  C   UNL     1       7.133   8.223   1.762  1.00  0.00     0.074 A 
ATOM     53  C   UNL     1       5.792  10.973  -2.710  1.00  0.00     0.029 A 
ATOM     54  N   UNL     1       7.916  10.749  -2.188  1.00  0.00    -0.354 N 
ATOM     55  N   UNL     1       6.929   9.226   0.959  1.00  0.00    -0.248 NA
ATOM     56  C   UNL     1       8.248   8.463   2.676  1.00  0.00     0.031 C 
ATOM     57  C   UNL     1       5.942  11.203  -1.311  1.00  0.00     0.029 A 
ATOM     58  C   UNL     1       7.284  11.091  -1.003  1.00  0.00     0.049 A 
ATOM     59  H   UNL     1       8.880  10.558  -2.260  1.00  0.00     0.167 HD
ATOM     60  C   UNL     1       7.940  10.127   1.090  1.00  0.00     0.074 A 
ATOM     61  C   UNL     1       8.709   9.643   2.225  1.00  0.00     0.031 C 
ATOM     62  C   UNL     1       8.085  11.164   0.215  1.00  0.00     0.037 A 
BRANCH  49  63
ATOM     63  C   UNL     1       7.092  10.828  -5.899  1.00  0.00     0.058 A 
ATOM     64  C   UNL     1       6.175  11.897  -5.977  1.00  0.00     0.135 A 
ATOM     65  C   UNL     1       7.641  10.450  -7.145  1.00  0.00     0.135 A 
ATOM     66  F   UNL     1       5.686  12.488  -4.879  1.00  0.00    -0.206 F 
ATOM     67  C   UNL     1       5.749  12.450  -7.188  1.00  0.00     0.059 A 
ATOM     68  C   UNL     1       7.175  10.928  -8.372  1.00  0.00     0.059 A 
ATOM     69  F   UNL     1       8.719   9.655  -7.221  1.00  0.00    -0.206 F 
ATOM     70  C   UNL     1       6.229  11.938  -8.385  1.00  0.00     0.060 A 
BRANCH  70  71
ATOM     71  S   UNL     1       5.688  12.674  -9.937  1.00  0.00     0.124 S 
ATOM     72  O   UNL     1       4.235  12.564  -9.846  1.00  0.00    -0.237 OA
ATOM     73  O   UNL     1       6.230  14.025  -9.835  1.00  0.00    -0.237 OA
ATOM     74  O   UNL     1       6.310  11.828 -10.953  1.00  0.00    -0.744 OA
ENDBRANCH  70  71
ENDBRANCH  49  63
BRANCH  50  75
ATOM     75  C   UNL     1       6.820   5.606   2.331  1.00  0.00     0.058 A 
ATOM     76  C   UNL     1       5.758   4.726   2.599  1.00  0.00     0.135 A 
ATOM     77  C   UNL     1       7.854   4.984   1.657  1.00  0.00     0.135 A 
ATOM     78  F   UNL     1       5.053   4.855   3.730  1.00  0.00    -0.206 F 
ATOM     79  C   UNL     1       5.380   3.747   1.681  1.00  0.00     0.059 A 
ATOM     80  C   UNL     1       7.500   3.997   0.732  1.00  0.00     0.059 A 
ATOM     81  F   UNL     1       9.054   5.580   1.549  1.00  0.00    -0.206 F 
ATOM     82  C   UNL     1       6.193   3.567   0.579  1.00  0.00     0.060 A 
BRANCH  82  83
ATOM     83  S   UNL     1       5.361   3.065  -1.144  1.00  0.00     0.124 S 
ATOM     84  O   UNL     1       3.987   2.973  -0.701  1.00  0.00    -0.237 OA
ATOM     85  O   UNL     1       5.558   4.176  -2.052  1.00  0.00    -0.237 OA
ATOM     86  O   UNL     1       5.934   1.806  -1.578  1.00  0.00    -0.744 OA
ENDBRANCH  82  83
ENDBRANCH  50  75
BRANCH  62  87
ATOM     87  C   UNL     1       9.038  12.307   0.422  1.00  0.00     0.058 A 
ATOM     88  C   UNL     1       9.360  12.796   1.699  1.00  0.00     0.135 A 
ATOM     89  C   UNL     1       9.554  13.051  -0.664  1.00  0.00     0.135 A 
ATOM     90  F   UNL     1       8.802  12.280   2.805  1.00  0.00    -0.206 F 
ATOM     91  C   UNL     1      10.235  13.863   1.888  1.00  0.00     0.059 A 
ATOM     92  C   UNL     1      10.389  14.147  -0.500  1.00  0.00     0.059 A 
ATOM     93  F   UNL     1       9.273  12.751  -1.938  1.00  0.00    -0.206 F 
ATOM     94  C   UNL     1      10.757  14.522   0.779  1.00  0.00     0.060 A 
BRANCH  94  95
ATOM     95  S   UNL     1      11.889  15.894   1.023  1.00  0.00     0.124 S 
ATOM     96  O   UNL     1      11.245  16.644   2.098  1.00  0.00    -0.237 OA
ATOM     97  O   UNL     1      13.117  15.194   1.387  1.00  0.00    -0.237 OA
ATOM     98  O   UNL     1      11.905  16.560  -0.275  1.00  0.00    -0.744 OA
ENDBRANCH  94  95
ENDBRANCH  62  87
ENDBRANCH  36  37
ENDBRANCH  28  31
ENDBRANCH  26  27
ENDBRANCH   1  26
TORSDOF 16
