REMARK SMILES CCOc1ccc2[nH]c(C)c/c(=N\c3cccc(C(=O)NCCCNC(=O)c4ccc(-c5c6nc(c(-c7c(F)cc(S(=O)(=O)[O-])cc7F)c7ccc([nH]7)c(-c7c(F)cc(S(=O)(=O)[O-])cc7F)c7nc(c(-c8c(F)cc(S(=O)(=O)[O-])cc8F)c8ccc5[nH]8)C=C7)C=C6)cc4)c3)c2c1
REMARK SMILES IDX 23 1 22 2 21 3 19 4 20 5 18 7 14 8 15 9 94 10 16 11 17 12
REMARK SMILES IDX 13 13 4 14 5 15 96 16 6 17 95 18 7 19 12 20 8 21 11 22 9 23
REMARK SMILES IDX 10 25 3 26 2 27 1 28 24 29 25 30 26 31 27 33 28 34 29 35
REMARK SMILES IDX 93 36 30 37 92 38 31 39 32 40 33 41 86 42 34 43 91 44 85 45
REMARK SMILES IDX 87 46 35 47 90 48 84 49 83 50 36 52 70 53 49 54 69 55 50 56
REMARK SMILES IDX 53 57 68 58 88 59 51 60 52 61 67 63 89 64 54 65 37 66 38 67
REMARK SMILES IDX 47 68 39 69 40 70 46 71 48 72 41 73 42 74 43 75 44 76 45 77
REMARK SMILES IDX 71 78 72 79 81 80 73 81 74 82 80 83 82 84 75 85 76 86 77 87
REMARK SMILES IDX 78 88 79 89 55 90 56 91 65 92 57 93 58 94 64 95 66 96 59 97
REMARK SMILES IDX 60 98 61 99 62 100 63 101
REMARK H PARENT 21 6 8 24 25 32 87 51 53 62
REMARK Flexibility Score: inf
ROOT
ATOM      1  C   UNL     1       4.704   6.663   4.817  1.00  0.00     0.042 C 
ENDROOT
BRANCH   1   2
ATOM      2  C   UNL     1       3.965   7.665   3.943  1.00  0.00     0.118 C 
BRANCH   2   3
ATOM      3  N   UNL     1       4.679   8.923   3.762  1.00  0.00    -0.352 N 
ATOM      4  C   UNL     1       5.188   9.623   2.697  1.00  0.00     0.251 C 
ATOM      5  O   UNL     1       5.730  10.700   2.967  1.00  0.00    -0.269 OA
ATOM      6  H   UNL     1       4.836   9.385   4.617  1.00  0.00     0.163 HD
BRANCH   4   7
ATOM      7  C   UNL     1       5.179   9.177   1.274  1.00  0.00     0.041 A 
ATOM      8  C   UNL     1       4.587   7.656  -0.528  1.00  0.00     0.064 A 
ATOM      9  C   UNL     1       5.402   8.357  -1.415  1.00  0.00     0.028 A 
ATOM     10  C   UNL     1       4.393   8.150   0.763  1.00  0.00     0.042 A 
ATOM     11  C   UNL     1       6.133   9.453  -0.960  1.00  0.00     0.003 A 
ATOM     12  C   UNL     1       6.050   9.833   0.384  1.00  0.00     0.014 A 
BRANCH   8  13
ATOM     13  N   UNL     1       4.023   6.402  -0.822  1.00  0.00    -0.248 NA
ATOM     14  C   UNL     1       2.352   2.450  -0.943  1.00  0.00     0.120 A 
ATOM     15  C   UNL     1       3.190   1.406  -1.331  1.00  0.00     0.048 A 
ATOM     16  C   UNL     1       2.850   3.751  -0.836  1.00  0.00     0.059 A 
ATOM     17  C   UNL     1       4.548   1.636  -1.534  1.00  0.00     0.030 A 
ATOM     18  C   UNL     1       4.216   3.987  -1.053  1.00  0.00     0.027 A 
ATOM     19  C   UNL     1       5.076   2.919  -1.378  1.00  0.00     0.048 A 
ATOM     20  C   UNL     1       4.808   5.359  -0.900  1.00  0.00     0.075 A 
ATOM     21  N   UNL     1       6.452   3.129  -1.526  1.00  0.00    -0.359 N 
ATOM     22  C   UNL     1       6.314   5.398  -0.840  1.00  0.00     0.050 A 
ATOM     23  C   UNL     1       7.037   4.326  -1.201  1.00  0.00     0.014 A 
ATOM     24  H   UNL     1       7.014   2.399  -1.871  1.00  0.00     0.166 HD
ATOM     25  C   UNL     1       8.537   4.394  -1.268  1.00  0.00     0.064 C 
BRANCH  14  26
ATOM     26  O   UNL     1       1.012   2.242  -0.762  1.00  0.00    -0.494 OA
BRANCH  26  27
ATOM     27  C   UNL     1       0.710   1.448   0.398  1.00  0.00     0.226 C 
ATOM     28  C   UNL     1       0.640  -0.041   0.094  1.00  0.00     0.049 C 
ENDBRANCH  26  27
ENDBRANCH  14  26
ENDBRANCH   8  13
ENDBRANCH   4   7
ENDBRANCH   2   3
ENDBRANCH   1   2
BRANCH   1  29
ATOM     29  C   UNL     1       4.849   7.095   6.267  1.00  0.00     0.118 C 
BRANCH  29  30
ATOM     30  N   UNL     1       3.571   7.206   6.962  1.00  0.00    -0.352 N 
ATOM     31  C   UNL     1       2.893   6.339   7.790  1.00  0.00     0.251 C 
ATOM     32  H   UNL     1       3.107   8.061   6.811  1.00  0.00     0.163 HD
ATOM     33  O   UNL     1       1.736   6.601   8.101  1.00  0.00    -0.269 OA
BRANCH  31  34
ATOM     34  C   UNL     1       3.519   5.088   8.278  1.00  0.00     0.039 A 
ATOM     35  C   UNL     1       4.864   5.038   8.634  1.00  0.00     0.014 A 
ATOM     36  C   UNL     1       2.731   3.939   8.421  1.00  0.00     0.014 A 
ATOM     37  C   UNL     1       5.466   3.817   8.912  1.00  0.00     0.010 A 
ATOM     38  C   UNL     1       3.314   2.732   8.826  1.00  0.00     0.010 A 
ATOM     39  C   UNL     1       4.700   2.646   9.019  1.00  0.00    -0.014 A 
BRANCH  39  40
ATOM     40  C   UNL     1       5.379   1.359   9.337  1.00  0.00     0.031 A 
ATOM     41  C   UNL     1       5.346   0.207   8.367  1.00  0.00     0.074 A 
ATOM     42  C   UNL     1       6.098   1.258  10.473  1.00  0.00     0.049 A 
ATOM     43  N   UNL     1       5.921  -0.966   8.460  1.00  0.00    -0.248 NA
ATOM     44  C   UNL     1       4.564   0.391   7.135  1.00  0.00     0.031 C 
ATOM     45  C   UNL     1       6.221   2.310  11.486  1.00  0.00     0.029 A 
ATOM     46  N   UNL     1       6.896   0.248  10.948  1.00  0.00    -0.354 N 
ATOM     47  C   UNL     1       5.561  -1.662   7.312  1.00  0.00     0.074 A 
ATOM     48  C   UNL     1       4.683  -0.796   6.555  1.00  0.00     0.031 C 
ATOM     49  C   UNL     1       7.106   1.925  12.415  1.00  0.00     0.029 A 
ATOM     50  C   UNL     1       7.557   0.571  12.110  1.00  0.00     0.049 A 
ATOM     51  H   UNL     1       6.986  -0.624  10.501  1.00  0.00     0.167 HD
ATOM     52  C   UNL     1       5.940  -2.901   6.914  1.00  0.00     0.037 A 
ATOM     53  C   UNL     1       8.425  -0.140  12.855  1.00  0.00     0.037 A 
ATOM     54  C   UNL     1       6.824  -3.756   7.665  1.00  0.00     0.049 A 
ATOM     55  C   UNL     1       8.787  -1.531  12.426  1.00  0.00     0.074 A 
ATOM     56  C   UNL     1       7.263  -5.030   7.352  1.00  0.00     0.029 A 
ATOM     57  N   UNL     1       7.407  -3.421   8.880  1.00  0.00    -0.354 N 
ATOM     58  N   UNL     1       8.418  -2.179  11.347  1.00  0.00    -0.248 NA
ATOM     59  C   UNL     1       9.667  -2.293  13.320  1.00  0.00     0.031 C 
ATOM     60  C   UNL     1       8.080  -5.481   8.394  1.00  0.00     0.029 A 
ATOM     61  C   UNL     1       8.188  -4.471   9.337  1.00  0.00     0.049 A 
ATOM     62  H   UNL     1       7.284  -2.564   9.348  1.00  0.00     0.167 HD
ATOM     63  C   UNL     1       9.026  -3.426  11.428  1.00  0.00     0.074 A 
ATOM     64  C   UNL     1       9.800  -3.433  12.654  1.00  0.00     0.031 C 
ATOM     65  C   UNL     1       8.946  -4.468  10.565  1.00  0.00     0.037 A 
BRANCH  52  66
ATOM     66  C   UNL     1       5.383  -3.409   5.611  1.00  0.00     0.058 A 
ATOM     67  C   UNL     1       5.794  -2.877   4.378  1.00  0.00     0.135 A 
ATOM     68  C   UNL     1       4.428  -4.439   5.591  1.00  0.00     0.135 A 
ATOM     69  F   UNL     1       6.695  -1.883   4.337  1.00  0.00    -0.206 F 
ATOM     70  C   UNL     1       5.246  -3.316   3.176  1.00  0.00     0.059 A 
ATOM     71  C   UNL     1       3.885  -4.912   4.398  1.00  0.00     0.059 A 
ATOM     72  F   UNL     1       4.002  -4.988   6.739  1.00  0.00    -0.206 F 
ATOM     73  C   UNL     1       4.285  -4.327   3.198  1.00  0.00     0.060 A 
BRANCH  73  74
ATOM     74  S   UNL     1       3.552  -4.847   1.631  1.00  0.00     0.124 S 
ATOM     75  O   UNL     1       2.719  -3.694   1.304  1.00  0.00    -0.237 OA
ATOM     76  O   UNL     1       4.726  -5.036   0.785  1.00  0.00    -0.237 OA
ATOM     77  O   UNL     1       2.829  -6.066   1.980  1.00  0.00    -0.744 OA
ENDBRANCH  73  74
ENDBRANCH  52  66
BRANCH  53  78
ATOM     78  C   UNL     1       9.015   0.479  14.071  1.00  0.00     0.058 A 
ATOM     79  C   UNL     1      10.356   0.885  14.089  1.00  0.00     0.135 A 
ATOM     80  C   UNL     1       8.229   0.757  15.201  1.00  0.00     0.135 A 
ATOM     81  F   UNL     1      11.148   0.633  13.036  1.00  0.00    -0.206 F 
ATOM     82  C   UNL     1      10.895   1.563  15.178  1.00  0.00     0.059 A 
ATOM     83  C   UNL     1       8.739   1.455  16.291  1.00  0.00     0.059 A 
ATOM     84  F   UNL     1       6.936   0.399  15.225  1.00  0.00    -0.206 F 
ATOM     85  C   UNL     1      10.073   1.857  16.268  1.00  0.00     0.060 A 
BRANCH  85  86
ATOM     86  S   UNL     1      10.756   2.834  17.625  1.00  0.00     0.124 S 
ATOM     87  O   UNL     1      11.671   1.882  18.243  1.00  0.00    -0.237 OA
ATOM     88  O   UNL     1      11.376   3.949  16.915  1.00  0.00    -0.237 OA
ATOM     89  O   UNL     1       9.578   3.182  18.414  1.00  0.00    -0.744 OA
ENDBRANCH  85  86
ENDBRANCH  53  78
BRANCH  65  90
ATOM     90  C   UNL     1       9.721  -5.710  10.907  1.00  0.00     0.058 A 
ATOM     91  C   UNL     1       9.289  -6.588  11.912  1.00  0.00     0.135 A 
ATOM     92  C   UNL     1      10.867  -6.059  10.175  1.00  0.00     0.135 A 
ATOM     93  F   UNL     1       8.204  -6.295  12.646  1.00  0.00    -0.206 F 
ATOM     94  C   UNL     1       9.972  -7.769  12.186  1.00  0.00     0.059 A 
ATOM     95  C   UNL     1      11.552  -7.245  10.416  1.00  0.00     0.059 A 
ATOM     96  F   UNL     1      11.317  -5.255   9.199  1.00  0.00    -0.206 F 
ATOM     97  C   UNL     1      11.099  -8.091  11.428  1.00  0.00     0.060 A 
BRANCH  97  98
ATOM     98  S   UNL     1      11.944  -9.652  11.760  1.00  0.00     0.124 S 
ATOM     99  O   UNL     1      12.582  -9.375  13.042  1.00  0.00    -0.237 OA
ATOM    100  O   UNL     1      10.837 -10.603  11.795  1.00  0.00    -0.237 OA
ATOM    101  O   UNL     1      12.851  -9.797  10.625  1.00  0.00    -0.744 OA
ENDBRANCH  97  98
ENDBRANCH  65  90
ENDBRANCH  39  40
ENDBRANCH  31  34
ENDBRANCH  29  30
ENDBRANCH   1  29
TORSDOF 16
