REMARK SMILES O=C(CO/N=C\c1ccccc1)Nc1ccccc1C(=O)NCCCNC(=O)c1ccc(-c2c3nc(c(-c4c(F)cc(S(=O)(=O)[O-])cc4F)c4ccc([nH]4)c(-c4c(F)cc(S(=O)(=O)[O-])cc4F)c4nc(c(-c5c(F)cc(S(=O)(=O)[O-])cc5F)c5ccc2[nH]5)C=C4)C=C3)cc1
REMARK SMILES IDX 23 1 22 2 20 3 21 4 19 6 14 7 15 8 16 9 18 10 17 11 13 12
REMARK SMILES IDX 1 13 2 14 3 16 4 17 5 18 6 19 7 20 8 21 12 22 9 23 11 24
REMARK SMILES IDX 10 25 24 26 25 27 26 28 27 29 28 31 29 32 30 33 94 34 31 35
REMARK SMILES IDX 93 36 32 37 33 38 34 39 87 40 35 41 92 42 86 43 88 44 36 45
REMARK SMILES IDX 91 46 85 47 84 48 37 50 71 51 50 52 70 53 51 54 54 55 69 56
REMARK SMILES IDX 89 57 52 58 53 59 68 61 90 62 55 63 38 64 39 65 48 66 40 67
REMARK SMILES IDX 41 68 47 69 49 70 42 71 43 72 44 73 45 74 46 75 72 76 73 77
REMARK SMILES IDX 82 78 74 79 75 80 81 81 83 82 76 83 77 84 78 85 79 86 80 87
REMARK SMILES IDX 56 88 57 89 66 90 58 91 59 92 65 93 67 94 60 95 61 96 62 97
REMARK SMILES IDX 63 98 64 99
REMARK H PARENT 22 5 13 15 26 30 88 49 54 60
REMARK Flexibility Score: inf
ROOT
ATOM      1  C   UNL     1       2.742   1.758  -0.032  1.00  0.00     0.118 C 
ENDROOT
BRANCH   1   2
ATOM      2  N   UNL     1       1.380   2.178  -0.258  1.00  0.00    -0.352 N 
ATOM      3  C   UNL     1       0.510   1.765  -1.246  1.00  0.00     0.253 C 
ATOM      4  O   UNL     1      -0.652   2.173  -1.202  1.00  0.00    -0.269 OA
ATOM      5  H   UNL     1       1.026   2.846   0.374  1.00  0.00     0.163 HD
BRANCH   3   6
ATOM      6  C   UNL     1       0.978   1.022  -2.456  1.00  0.00     0.063 A 
ATOM      7  C   UNL     1       1.849  -0.085  -2.529  1.00  0.00     0.054 A 
ATOM      8  C   UNL     1       2.384  -0.430  -3.787  1.00  0.00     0.027 A 
ATOM      9  C   UNL     1       1.980   0.213  -4.960  1.00  0.00     0.002 A 
ATOM     10  C   UNL     1       0.553   1.636  -3.659  1.00  0.00     0.016 A 
ATOM     11  C   UNL     1       1.038   1.228  -4.900  1.00  0.00     0.001 A 
BRANCH   7  12
ATOM     12  N   UNL     1       2.271  -0.925  -1.470  1.00  0.00    -0.322 N 
ATOM     13  O   UNL     1       0.416  -0.889  -0.081  1.00  0.00    -0.271 OA
ATOM     14  C   UNL     1       1.578  -1.212  -0.306  1.00  0.00     0.265 C 
ATOM     15  H   UNL     1       3.152  -1.351  -1.572  1.00  0.00     0.170 HD
BRANCH  14  16
ATOM     16  C   UNL     1       2.447  -1.881   0.768  1.00  0.00     0.363 C 
BRANCH  16  17
ATOM     17  O   UNL     1       3.548  -2.620   0.260  1.00  0.00    -0.386 OA
BRANCH  17  18
ATOM     18  N   UNL     1       3.240  -3.983   0.308  1.00  0.00    -0.094 NA
ATOM     19  C   UNL     1       4.292  -4.714   0.523  1.00  0.00     0.162 C 
BRANCH  19  20
ATOM     20  C   UNL     1       5.673  -4.270   0.774  1.00  0.00    -0.004 A 
ATOM     21  C   UNL     1       6.682  -4.807  -0.029  1.00  0.00     0.010 A 
ATOM     22  C   UNL     1       5.983  -3.410   1.831  1.00  0.00     0.010 A 
ATOM     23  C   UNL     1       8.011  -4.458   0.209  1.00  0.00     0.001 A 
ATOM     24  C   UNL     1       7.317  -3.078   2.074  1.00  0.00     0.001 A 
ATOM     25  C   UNL     1       8.328  -3.598   1.261  1.00  0.00     0.000 A 
ENDBRANCH  19  20
ENDBRANCH  17  18
ENDBRANCH  16  17
ENDBRANCH  14  16
ENDBRANCH   7  12
ENDBRANCH   3   6
ENDBRANCH   1   2
BRANCH   1  26
ATOM     26  C   UNL     1       3.565   2.612   0.909  1.00  0.00     0.042 C 
BRANCH  26  27
ATOM     27  C   UNL     1       3.070   2.637   2.353  1.00  0.00     0.118 C 
BRANCH  27  28
ATOM     28  N   UNL     1       2.971   1.324   2.996  1.00  0.00    -0.352 N 
ATOM     29  C   UNL     1       3.760   0.667   3.916  1.00  0.00     0.251 C 
ATOM     30  H   UNL     1       2.182   0.807   2.715  1.00  0.00     0.163 HD
ATOM     31  O   UNL     1       3.524  -0.517   4.163  1.00  0.00    -0.269 OA
BRANCH  29  32
ATOM     32  C   UNL     1       4.903   1.336   4.579  1.00  0.00     0.039 A 
ATOM     33  C   UNL     1       6.050   0.601   4.906  1.00  0.00     0.014 A 
ATOM     34  C   UNL     1       4.857   2.690   4.893  1.00  0.00     0.014 A 
ATOM     35  C   UNL     1       7.178   1.254   5.421  1.00  0.00     0.010 A 
ATOM     36  C   UNL     1       6.017   3.358   5.258  1.00  0.00     0.010 A 
ATOM     37  C   UNL     1       7.195   2.652   5.534  1.00  0.00    -0.014 A 
BRANCH  37  38
ATOM     38  C   UNL     1       8.401   3.423   5.945  1.00  0.00     0.031 A 
ATOM     39  C   UNL     1       8.309   4.395   7.096  1.00  0.00     0.074 A 
ATOM     40  C   UNL     1       9.529   3.360   5.207  1.00  0.00     0.049 A 
ATOM     41  N   UNL     1       9.154   5.320   7.471  1.00  0.00    -0.248 NA
ATOM     42  C   UNL     1       7.070   4.360   7.891  1.00  0.00     0.031 C 
ATOM     43  C   UNL     1       9.733   2.510   4.032  1.00  0.00     0.029 A 
ATOM     44  N   UNL     1      10.713   4.044   5.326  1.00  0.00    -0.354 N 
ATOM     45  C   UNL     1       8.526   6.007   8.506  1.00  0.00     0.074 A 
ATOM     46  C   UNL     1       7.206   5.435   8.651  1.00  0.00     0.031 C 
ATOM     47  C   UNL     1      10.976   2.696   3.561  1.00  0.00     0.029 A 
ATOM     48  C   UNL     1      11.641   3.717   4.364  1.00  0.00     0.049 A 
ATOM     49  H   UNL     1      10.883   4.708   6.033  1.00  0.00     0.167 HD
ATOM     50  C   UNL     1       9.013   7.002   9.286  1.00  0.00     0.037 A 
ATOM     51  C   UNL     1      12.883   4.191   4.148  1.00  0.00     0.037 A 
ATOM     52  C   UNL     1      10.351   7.519   9.179  1.00  0.00     0.049 A 
ATOM     53  C   UNL     1      13.425   5.261   5.054  1.00  0.00     0.074 A 
ATOM     54  C   UNL     1      10.975   8.471   9.966  1.00  0.00     0.029 A 
ATOM     55  N   UNL     1      11.280   7.113   8.231  1.00  0.00    -0.354 N 
ATOM     56  N   UNL     1      12.834   5.871   6.054  1.00  0.00    -0.248 NA
ATOM     57  C   UNL     1      14.803   5.705   4.807  1.00  0.00     0.031 C 
ATOM     58  C   UNL     1      12.272   8.660   9.476  1.00  0.00     0.029 A 
ATOM     59  C   UNL     1      12.470   7.796   8.410  1.00  0.00     0.049 A 
ATOM     60  H   UNL     1      11.116   6.438   7.533  1.00  0.00     0.167 HD
ATOM     61  C   UNL     1      13.777   6.748   6.576  1.00  0.00     0.074 A 
ATOM     62  C   UNL     1      14.980   6.586   5.784  1.00  0.00     0.031 C 
ATOM     63  C   UNL     1      13.661   7.608   7.618  1.00  0.00     0.037 A 
BRANCH  50  64
ATOM     64  C   UNL     1       8.091   7.577  10.330  1.00  0.00     0.058 A 
ATOM     65  C   UNL     1       7.665   6.821  11.436  1.00  0.00     0.135 A 
ATOM     66  C   UNL     1       7.614   8.893  10.219  1.00  0.00     0.135 A 
ATOM     67  F   UNL     1       8.079   5.553  11.587  1.00  0.00    -0.206 F 
ATOM     68  C   UNL     1       6.755   7.326  12.358  1.00  0.00     0.059 A 
ATOM     69  C   UNL     1       6.730   9.432  11.150  1.00  0.00     0.059 A 
ATOM     70  F   UNL     1       7.991   9.665   9.188  1.00  0.00    -0.206 F 
ATOM     71  C   UNL     1       6.286   8.631  12.202  1.00  0.00     0.060 A 
BRANCH  71  72
ATOM     72  S   UNL     1       5.080   9.261  13.388  1.00  0.00     0.124 S 
ATOM     73  O   UNL     1       3.864   8.582  12.951  1.00  0.00    -0.237 OA
ATOM     74  O   UNL     1       5.631   8.815  14.663  1.00  0.00    -0.237 OA
ATOM     75  O   UNL     1       5.109  10.704  13.166  1.00  0.00    -0.744 OA
ENDBRANCH  71  72
ENDBRANCH  50  64
BRANCH  51  76
ATOM     76  C   UNL     1      13.716   3.611   3.061  1.00  0.00     0.058 A 
ATOM     77  C   UNL     1      14.789   2.760   3.366  1.00  0.00     0.135 A 
ATOM     78  C   UNL     1      13.439   3.853   1.706  1.00  0.00     0.135 A 
ATOM     79  F   UNL     1      15.096   2.503   4.646  1.00  0.00    -0.206 F 
ATOM     80  C   UNL     1      15.560   2.171   2.370  1.00  0.00     0.059 A 
ATOM     81  C   UNL     1      14.182   3.257   0.691  1.00  0.00     0.059 A 
ATOM     82  F   UNL     1      12.412   4.644   1.361  1.00  0.00    -0.206 F 
ATOM     83  C   UNL     1      15.244   2.420   1.034  1.00  0.00     0.060 A 
BRANCH  83  84
ATOM     84  S   UNL     1      16.203   1.585  -0.249  1.00  0.00     0.124 S 
ATOM     85  O   UNL     1      17.470   2.304  -0.185  1.00  0.00    -0.237 OA
ATOM     86  O   UNL     1      16.225   0.208   0.233  1.00  0.00    -0.237 OA
ATOM     87  O   UNL     1      15.411   1.805  -1.456  1.00  0.00    -0.744 OA
ENDBRANCH  83  84
ENDBRANCH  51  76
BRANCH  63  88
ATOM     88  C   UNL     1      14.877   8.406   7.994  1.00  0.00     0.058 A 
ATOM     89  C   UNL     1      15.319   9.489   7.219  1.00  0.00     0.135 A 
ATOM     90  C   UNL     1      15.574   8.115   9.178  1.00  0.00     0.135 A 
ATOM     91  F   UNL     1      14.690   9.803   6.076  1.00  0.00    -0.206 F 
ATOM     92  C   UNL     1      16.424  10.245   7.595  1.00  0.00     0.059 A 
ATOM     93  C   UNL     1      16.666   8.873   9.586  1.00  0.00     0.059 A 
ATOM     94  F   UNL     1      15.184   7.095   9.959  1.00  0.00    -0.206 F 
ATOM     95  C   UNL     1      17.091   9.930   8.781  1.00  0.00     0.060 A 
BRANCH  95  96
ATOM     96  S   UNL     1      18.502  10.941   9.277  1.00  0.00     0.124 S 
ATOM     97  O   UNL     1      19.535  10.472   8.360  1.00  0.00    -0.237 OA
ATOM     98  O   UNL     1      18.013  12.296   9.042  1.00  0.00    -0.237 OA
ATOM     99  O   UNL     1      18.697  10.586  10.680  1.00  0.00    -0.744 OA
ENDBRANCH  95  96
ENDBRANCH  63  88
ENDBRANCH  37  38
ENDBRANCH  29  32
ENDBRANCH  27  28
ENDBRANCH  26  27
ENDBRANCH   1  26
TORSDOF 18
