REMARK SMILES O=C(NCCCNC(=O)c1cccc(S(=O)(=O)Oc2ccccc2)c1)c1ccc(-c2c3nc(c(-c4c(F)cc(S(=O)(=O)[O-])cc4F)c4ccc([nH]4)c(-c4c(F)cc(S(=O)(=O)[O-])cc4F)c4nc(c(-c5c(F)cc(S(=O)(=O)[O-])cc5F)c5ccc2[nH]5)C=C4)C=C3)cc1
REMARK SMILES IDX 5 1 4 2 3 3 1 4 2 5 26 7 27 8 91 9 28 10 90 11 29 12 30 13
REMARK SMILES IDX 31 14 84 15 32 16 89 17 83 18 85 19 33 20 88 21 82 22 81 23
REMARK SMILES IDX 34 25 68 26 47 27 67 28 48 29 51 30 66 31 86 32 49 33 50 34
REMARK SMILES IDX 65 36 87 37 52 38 35 39 36 40 45 41 37 42 38 43 44 44 46 45
REMARK SMILES IDX 39 46 40 47 41 48 42 49 43 50 69 51 70 52 79 53 71 54 72 55
REMARK SMILES IDX 78 56 80 57 73 58 74 59 75 60 76 61 77 62 53 63 54 64 63 65
REMARK SMILES IDX 55 66 56 67 62 68 64 69 57 70 58 71 59 72 60 73 61 74 6 75
REMARK SMILES IDX 7 76 8 77 9 79 10 80 11 81 25 82 12 83 14 84 13 85 15 86
REMARK SMILES IDX 16 87 17 88 18 89 19 90 20 91 24 92 21 93 23 94 22 95
REMARK H PARENT 3 6 85 24 51 35 7 78
REMARK Flexibility Score: inf
ROOT
ATOM      1  C   UNL     1       4.882  -2.545   0.433  1.00  0.00     0.042 C 
ENDROOT
BRANCH   1   2
ATOM      2  C   UNL     1       4.532  -1.366  -0.465  1.00  0.00     0.118 C 
BRANCH   2   3
ATOM      3  N   UNL     1       3.100  -1.107  -0.542  1.00  0.00    -0.352 N 
ATOM      4  O   UNL     1       1.135  -0.092  -0.144  1.00  0.00    -0.269 OA
ATOM      5  C   UNL     1       2.362  -0.029  -0.111  1.00  0.00     0.251 C 
ATOM      6  H   UNL     1       2.575  -1.820  -0.973  1.00  0.00     0.163 HD
BRANCH   5   7
ATOM      7  C   UNL     1       3.027   1.184   0.417  1.00  0.00     0.039 A 
ATOM      8  C   UNL     1       4.167   1.707  -0.196  1.00  0.00     0.014 A 
ATOM      9  C   UNL     1       2.490   1.821   1.540  1.00  0.00     0.014 A 
ATOM     10  C   UNL     1       4.867   2.743   0.414  1.00  0.00     0.010 A 
ATOM     11  C   UNL     1       3.142   2.928   2.095  1.00  0.00     0.010 A 
ATOM     12  C   UNL     1       4.364   3.369   1.565  1.00  0.00    -0.014 A 
BRANCH  12  13
ATOM     13  C   UNL     1       5.124   4.492   2.175  1.00  0.00     0.031 A 
ATOM     14  C   UNL     1       5.699   4.379   3.563  1.00  0.00     0.074 A 
ATOM     15  C   UNL     1       5.335   5.608   1.449  1.00  0.00     0.049 A 
ATOM     16  N   UNL     1       6.426   5.243   4.226  1.00  0.00    -0.248 NA
ATOM     17  C   UNL     1       5.413   3.143   4.308  1.00  0.00     0.031 C 
ATOM     18  C   UNL     1       4.819   5.842   0.098  1.00  0.00     0.029 A 
ATOM     19  N   UNL     1       6.056   6.740   1.729  1.00  0.00    -0.354 N 
ATOM     20  C   UNL     1       6.660   4.672   5.472  1.00  0.00     0.074 A 
ATOM     21  C   UNL     1       5.979   3.394   5.480  1.00  0.00     0.031 C 
ATOM     22  C   UNL     1       5.291   7.012  -0.357  1.00  0.00     0.029 A 
ATOM     23  C   UNL     1       6.093   7.638   0.689  1.00  0.00     0.049 A 
ATOM     24  H   UNL     1       6.505   6.895   2.591  1.00  0.00     0.167 HD
ATOM     25  C   UNL     1       7.381   5.163   6.510  1.00  0.00     0.037 A 
ATOM     26  C   UNL     1       6.701   8.835   0.585  1.00  0.00     0.037 A 
ATOM     27  C   UNL     1       8.080   6.423   6.486  1.00  0.00     0.049 A 
ATOM     28  C   UNL     1       7.500   9.353   1.744  1.00  0.00     0.074 A 
ATOM     29  C   UNL     1       8.871   6.988   7.472  1.00  0.00     0.029 A 
ATOM     30  N   UNL     1       8.074   7.314   5.422  1.00  0.00    -0.354 N 
ATOM     31  N   UNL     1       7.731   8.786   2.904  1.00  0.00    -0.248 NA
ATOM     32  C   UNL     1       8.119  10.675   1.583  1.00  0.00     0.031 C 
ATOM     33  C   UNL     1       9.314   8.236   7.018  1.00  0.00     0.029 A 
ATOM     34  C   UNL     1       8.833   8.431   5.733  1.00  0.00     0.049 A 
ATOM     35  H   UNL     1       7.599   7.173   4.571  1.00  0.00     0.167 HD
ATOM     36  C   UNL     1       8.540   9.672   3.604  1.00  0.00     0.074 A 
ATOM     37  C   UNL     1       8.766  10.809   2.733  1.00  0.00     0.031 C 
ATOM     38  C   UNL     1       9.051   9.553   4.854  1.00  0.00     0.037 A 
BRANCH  25  39
ATOM     39  C   UNL     1       7.427   4.345   7.771  1.00  0.00     0.058 A 
ATOM     40  C   UNL     1       8.165   3.154   7.857  1.00  0.00     0.135 A 
ATOM     41  C   UNL     1       6.732   4.767   8.917  1.00  0.00     0.135 A 
ATOM     42  F   UNL     1       8.837   2.696   6.789  1.00  0.00    -0.206 F 
ATOM     43  C   UNL     1       8.182   2.391   9.021  1.00  0.00     0.059 A 
ATOM     44  C   UNL     1       6.754   4.033  10.099  1.00  0.00     0.059 A 
ATOM     45  F   UNL     1       6.014   5.901   8.892  1.00  0.00    -0.206 F 
ATOM     46  C   UNL     1       7.466   2.834  10.135  1.00  0.00     0.060 A 
BRANCH  46  47
ATOM     47  S   UNL     1       7.472   1.822  11.630  1.00  0.00     0.124 S 
ATOM     48  O   UNL     1       6.548   0.755  11.260  1.00  0.00    -0.237 OA
ATOM     49  O   UNL     1       8.875   1.434  11.743  1.00  0.00    -0.237 OA
ATOM     50  O   UNL     1       6.994   2.738  12.662  1.00  0.00    -0.744 OA
ENDBRANCH  46  47
ENDBRANCH  25  39
BRANCH  26  51
ATOM     51  C   UNL     1       6.590   9.604  -0.681  1.00  0.00     0.058 A 
ATOM     52  C   UNL     1       7.686   9.724  -1.547  1.00  0.00     0.135 A 
ATOM     53  C   UNL     1       5.376  10.191  -1.072  1.00  0.00     0.135 A 
ATOM     54  F   UNL     1       8.867   9.183  -1.213  1.00  0.00    -0.206 F 
ATOM     55  C   UNL     1       7.584  10.399  -2.759  1.00  0.00     0.059 A 
ATOM     56  C   UNL     1       5.243  10.850  -2.289  1.00  0.00     0.059 A 
ATOM     57  F   UNL     1       4.295  10.087  -0.284  1.00  0.00    -0.206 F 
ATOM     58  C   UNL     1       6.356  10.953  -3.124  1.00  0.00     0.060 A 
BRANCH  58  59
ATOM     59  S   UNL     1       6.211  11.760  -4.733  1.00  0.00     0.124 S 
ATOM     60  O   UNL     1       6.885  13.029  -4.485  1.00  0.00    -0.237 OA
ATOM     61  O   UNL     1       6.911  10.826  -5.610  1.00  0.00    -0.237 OA
ATOM     62  O   UNL     1       4.768  11.838  -4.939  1.00  0.00    -0.744 OA
ENDBRANCH  58  59
ENDBRANCH  26  51
BRANCH  38  63
ATOM     63  C   UNL     1       9.933  10.667   5.341  1.00  0.00     0.058 A 
ATOM     64  C   UNL     1       9.407  11.908   5.731  1.00  0.00     0.135 A 
ATOM     65  C   UNL     1      11.321  10.480   5.443  1.00  0.00     0.135 A 
ATOM     66  F   UNL     1       8.088  12.140   5.644  1.00  0.00    -0.206 F 
ATOM     67  C   UNL     1      10.230  12.936   6.180  1.00  0.00     0.059 A 
ATOM     68  C   UNL     1      12.160  11.485   5.911  1.00  0.00     0.059 A 
ATOM     69  F   UNL     1      11.872   9.307   5.090  1.00  0.00    -0.206 F 
ATOM     70  C   UNL     1      11.606  12.716   6.264  1.00  0.00     0.060 A 
BRANCH  70  71
ATOM     71  S   UNL     1      12.666  14.048   6.866  1.00  0.00     0.124 S 
ATOM     72  O   UNL     1      12.748  14.910   5.692  1.00  0.00    -0.237 OA
ATOM     73  O   UNL     1      11.899  14.578   7.989  1.00  0.00    -0.237 OA
ATOM     74  O   UNL     1      13.901  13.359   7.229  1.00  0.00    -0.744 OA
ENDBRANCH  70  71
ENDBRANCH  38  63
ENDBRANCH  12  13
ENDBRANCH   5   7
ENDBRANCH   2   3
ENDBRANCH   1   2
BRANCH   1  75
ATOM     75  C   UNL     1       4.343  -3.887  -0.041  1.00  0.00     0.118 C 
BRANCH  75  76
ATOM     76  N   UNL     1       4.852  -4.268  -1.353  1.00  0.00    -0.352 N 
ATOM     77  C   UNL     1       5.637  -5.327  -1.731  1.00  0.00     0.251 C 
ATOM     78  H   UNL     1       4.590  -3.667  -2.087  1.00  0.00     0.163 HD
ATOM     79  O   UNL     1       6.099  -5.375  -2.867  1.00  0.00    -0.269 OA
BRANCH  77  80
ATOM     80  C   UNL     1       5.934  -6.420  -0.781  1.00  0.00     0.041 A 
ATOM     81  C   UNL     1       7.249  -6.890  -0.683  1.00  0.00     0.014 A 
ATOM     82  C   UNL     1       4.920  -7.005  -0.020  1.00  0.00     0.037 A 
ATOM     83  C   UNL     1       7.563  -7.904   0.226  1.00  0.00     0.002 A 
ATOM     84  C   UNL     1       5.250  -7.990   0.911  1.00  0.00     0.106 A 
ATOM     85  C   UNL     1       6.567  -8.442   1.042  1.00  0.00     0.024 A 
BRANCH  84  86
ATOM     86  S   UNL     1       4.001  -8.606   2.023  1.00  0.00     0.339 S 
ATOM     87  O   UNL     1       3.499  -9.820   1.424  1.00  0.00    -0.181 OA
ATOM     88  O   UNL     1       4.613  -8.598   3.344  1.00  0.00    -0.181 OA
BRANCH  86  89
ATOM     89  O   UNL     1       2.845  -7.449   1.968  1.00  0.00    -0.379 OA
BRANCH  89  90
ATOM     90  C   UNL     1       1.664  -7.623   2.637  1.00  0.00     0.142 A 
ATOM     91  C   UNL     1       0.486  -7.436   1.911  1.00  0.00     0.048 A 
ATOM     92  C   UNL     1       1.609  -7.872   4.007  1.00  0.00     0.048 A 
ATOM     93  C   UNL     1      -0.750  -7.533   2.551  1.00  0.00     0.004 A 
ATOM     94  C   UNL     1       0.372  -7.968   4.645  1.00  0.00     0.004 A 
ATOM     95  C   UNL     1      -0.807  -7.802   3.918  1.00  0.00     0.000 A 
ENDBRANCH  89  90
ENDBRANCH  86  89
ENDBRANCH  84  86
ENDBRANCH  77  80
ENDBRANCH  75  76
ENDBRANCH   1  75
TORSDOF 16
