REMARK SMILES CCOC(=O)c1c(NC(=O)[C@H]2[C@@H]3CC[C@@H](C3)[C@@H]2C(=O)NCCCNC(=O)c2ccc(-c3c4nc(c(-c5c(F)cc(S(=O)(=O)[O-])cc5F)c5ccc([nH]5)c(-c5c(F)cc(S(=O)(=O)[O-])cc5F)c5nc(c(-c6c(F)cc(S(=O)(=O)[O-])cc6F)c6ccc3[nH]6)C=C5)C=C4)cc2)sc2c1CCCC2
REMARK SMILES IDX 21 1 20 2 18 3 19 4 17 6 11 7 12 8 13 9 16 10 15 11 14 12
REMARK SMILES IDX 9 13 8 14 10 16 7 17 6 18 95 19 93 20 94 21 96 22 99 23
REMARK SMILES IDX 97 24 98 25 4 26 5 27 3 28 2 29 1 30 22 31 23 32 24 33 25 34
REMARK SMILES IDX 26 36 27 37 28 38 92 39 29 40 91 41 30 42 31 43 32 44 85 45
REMARK SMILES IDX 33 46 90 47 84 48 86 49 34 50 89 51 83 52 82 53 35 55 69 56
REMARK SMILES IDX 48 57 68 58 49 59 52 60 67 61 87 62 50 63 51 64 66 66 88 67
REMARK SMILES IDX 53 68 36 69 37 70 46 71 38 72 39 73 45 74 47 75 40 76 41 77
REMARK SMILES IDX 42 78 43 79 44 80 70 81 71 82 80 83 72 84 73 85 79 86 81 87
REMARK SMILES IDX 74 88 75 89 76 90 77 91 78 92 54 93 55 94 64 95 56 96 57 97
REMARK SMILES IDX 63 98 65 99 58 100 59 101 60 102 61 103 62 104
REMARK H PARENT 20 5 8 15 24 35 86 54 52 65
REMARK Flexibility Score: inf
ROOT
ATOM      1  C   UNL     1       2.080  -3.911   1.608  1.00  0.00     0.117 C 
ENDROOT
BRANCH   1   2
ATOM      2  N   UNL     1       2.949  -3.132   2.468  1.00  0.00    -0.356 N 
ATOM      3  C   UNL     1       3.716  -2.044   2.281  1.00  0.00     0.224 C 
ATOM      4  O   UNL     1       4.233  -1.591   3.312  1.00  0.00    -0.275 OA
ATOM      5  H   UNL     1       2.984  -3.474   3.390  1.00  0.00     0.163 HD
BRANCH   3   6
ATOM      6  C   UNL     1       4.025  -1.353   0.967  1.00  0.00     0.094 C 
ATOM      7  C   UNL     1       3.391   0.038   0.756  1.00  0.00     0.094 C 
ATOM      8  C   UNL     1       3.413   0.158  -0.814  1.00  0.00     0.002 C 
ATOM      9  C   UNL     1       2.149  -0.506  -1.354  1.00  0.00     0.005 C 
ATOM     10  C   UNL     1       4.453  -0.880  -1.264  1.00  0.00     0.009 C 
ATOM     11  C   UNL     1       3.835  -2.000  -0.416  1.00  0.00     0.002 C 
ATOM     12  C   UNL     1       2.368  -1.960  -0.931  1.00  0.00     0.005 C 
BRANCH   7  13
ATOM     13  C   UNL     1       4.155   1.179   1.396  1.00  0.00     0.229 C 
ATOM     14  N   UNL     1       3.949   1.613   2.666  1.00  0.00    -0.317 N 
ATOM     15  H   UNL     1       4.522   2.379   2.898  1.00  0.00     0.170 HD
ATOM     16  O   UNL     1       5.052   1.754   0.763  1.00  0.00    -0.274 OA
BRANCH  14  17
ATOM     17  C   UNL     1       3.129   1.237   3.706  1.00  0.00     0.110 A 
ATOM     18  C   UNL     1       1.968   0.519   3.946  1.00  0.00     0.098 A 
ATOM     19  C   UNL     1       1.823   0.249   5.364  1.00  0.00    -0.017 A 
ATOM     20  S   UNL     1       3.781   1.877   5.166  1.00  0.00    -0.122 S 
ATOM     21  C   UNL     1       2.718   0.974   6.122  1.00  0.00     0.011 A 
ATOM     22  C   UNL     1       0.818  -0.669   6.002  1.00  0.00     0.038 C 
ATOM     23  C   UNL     1       2.743   1.030   7.617  1.00  0.00     0.047 C 
ATOM     24  C   UNL     1       0.608  -0.348   7.488  1.00  0.00     0.005 C 
ATOM     25  C   UNL     1       1.940  -0.133   8.218  1.00  0.00     0.006 C 
BRANCH  18  26
ATOM     26  C   UNL     1       0.975   0.080   2.982  1.00  0.00     0.341 C 
ATOM     27  O   UNL     1       0.501  -1.051   2.963  1.00  0.00    -0.246 OA
BRANCH  26  28
ATOM     28  O   UNL     1       0.546   1.108   2.192  1.00  0.00    -0.462 OA
BRANCH  28  29
ATOM     29  C   UNL     1      -0.543   0.776   1.323  1.00  0.00     0.230 C 
ATOM     30  C   UNL     1      -0.611   1.827   0.232  1.00  0.00     0.049 C 
ENDBRANCH  28  29
ENDBRANCH  26  28
ENDBRANCH  18  26
ENDBRANCH  14  17
ENDBRANCH   7  13
ENDBRANCH   3   6
ENDBRANCH   1   2
BRANCH   1  31
ATOM     31  C   UNL     1       1.848  -5.329   2.115  1.00  0.00     0.042 C 
BRANCH  31  32
ATOM     32  C   UNL     1       1.147  -5.398   3.467  1.00  0.00     0.118 C 
BRANCH  32  33
ATOM     33  N   UNL     1      -0.288  -5.164   3.400  1.00  0.00    -0.352 N 
ATOM     34  C   UNL     1      -1.352  -6.017   3.213  1.00  0.00     0.251 C 
ATOM     35  H   UNL     1      -0.546  -4.220   3.510  1.00  0.00     0.163 HD
ATOM     36  O   UNL     1      -2.481  -5.542   3.098  1.00  0.00    -0.269 OA
BRANCH  34  37
ATOM     37  C   UNL     1      -1.163  -7.484   3.084  1.00  0.00     0.039 A 
ATOM     38  C   UNL     1      -1.945  -8.184   2.158  1.00  0.00     0.014 A 
ATOM     39  C   UNL     1      -0.250  -8.189   3.865  1.00  0.00     0.014 A 
ATOM     40  C   UNL     1      -1.735  -9.553   1.950  1.00  0.00     0.010 A 
ATOM     41  C   UNL     1       0.045  -9.519   3.572  1.00  0.00     0.010 A 
ATOM     42  C   UNL     1      -0.693 -10.222   2.610  1.00  0.00    -0.014 A 
BRANCH  42  43
ATOM     43  C   UNL     1      -0.352 -11.644   2.322  1.00  0.00     0.031 A 
ATOM     44  C   UNL     1      -0.323 -12.661   3.438  1.00  0.00     0.074 A 
ATOM     45  C   UNL     1       0.036 -12.006   1.081  1.00  0.00     0.049 A 
ATOM     46  N   UNL     1       0.110 -13.896   3.422  1.00  0.00    -0.248 NA
ATOM     47  C   UNL     1      -0.803 -12.214   4.756  1.00  0.00     0.031 C 
ATOM     48  C   UNL     1       0.119 -11.114  -0.078  1.00  0.00     0.029 A 
ATOM     49  N   UNL     1       0.450 -13.220   0.590  1.00  0.00    -0.354 N 
ATOM     50  C   UNL     1       0.002 -14.353   4.731  1.00  0.00     0.074 A 
ATOM     51  C   UNL     1      -0.494 -13.249   5.523  1.00  0.00     0.031 C 
ATOM     52  C   UNL     1       0.525 -11.815  -1.149  1.00  0.00     0.029 A 
ATOM     53  C   UNL     1       0.777 -13.194  -0.746  1.00  0.00     0.049 A 
ATOM     54  H   UNL     1       0.507 -14.033   1.142  1.00  0.00     0.167 HD
ATOM     55  C   UNL     1       0.266 -15.586   5.227  1.00  0.00     0.037 A 
ATOM     56  C   UNL     1       1.237 -14.167  -1.557  1.00  0.00     0.037 A 
ATOM     57  C   UNL     1       0.687 -16.705   4.426  1.00  0.00     0.049 A 
ATOM     58  C   UNL     1       1.464 -15.544  -0.998  1.00  0.00     0.074 A 
ATOM     59  C   UNL     1       0.893 -18.016   4.818  1.00  0.00     0.029 A 
ATOM     60  N   UNL     1       0.949 -16.649   3.065  1.00  0.00    -0.354 N 
ATOM     61  N   UNL     1       1.310 -15.968   0.233  1.00  0.00    -0.248 NA
ATOM     62  C   UNL     1       1.926 -16.575  -1.938  1.00  0.00     0.031 C 
ATOM     63  C   UNL     1       1.302 -18.749   3.697  1.00  0.00     0.029 A 
ATOM     64  C   UNL     1       1.320 -17.900   2.603  1.00  0.00     0.049 A 
ATOM     65  H   UNL     1       0.881 -15.838   2.510  1.00  0.00     0.167 HD
ATOM     66  C   UNL     1       1.639 -17.319   0.212  1.00  0.00     0.074 A 
ATOM     67  C   UNL     1       1.986 -17.645  -1.156  1.00  0.00     0.031 C 
ATOM     68  C   UNL     1       1.654 -18.208   1.235  1.00  0.00     0.037 A 
BRANCH  55  69
ATOM     69  C   UNL     1       0.085 -15.794   6.706  1.00  0.00     0.058 A 
ATOM     70  C   UNL     1      -1.190 -15.819   7.295  1.00  0.00     0.135 A 
ATOM     71  C   UNL     1       1.196 -15.988   7.543  1.00  0.00     0.135 A 
ATOM     72  F   UNL     1      -2.285 -15.626   6.544  1.00  0.00    -0.206 F 
ATOM     73  C   UNL     1      -1.355 -15.987   8.666  1.00  0.00     0.059 A 
ATOM     74  C   UNL     1       1.053 -16.186   8.914  1.00  0.00     0.059 A 
ATOM     75  F   UNL     1       2.437 -15.977   7.032  1.00  0.00    -0.206 F 
ATOM     76  C   UNL     1      -0.227 -16.163   9.468  1.00  0.00     0.060 A 
BRANCH  76  77
ATOM     77  S   UNL     1      -0.455 -16.368  11.248  1.00  0.00     0.124 S 
ATOM     78  O   UNL     1      -0.725 -14.995  11.664  1.00  0.00    -0.237 OA
ATOM     79  O   UNL     1      -1.589 -17.284  11.317  1.00  0.00    -0.237 OA
ATOM     80  O   UNL     1       0.821 -16.919  11.692  1.00  0.00    -0.744 OA
ENDBRANCH  76  77
ENDBRANCH  55  69
BRANCH  56  81
ATOM     81  C   UNL     1       1.485 -13.880  -2.994  1.00  0.00     0.058 A 
ATOM     82  C   UNL     1       0.616 -14.370  -3.981  1.00  0.00     0.135 A 
ATOM     83  C   UNL     1       2.574 -13.100  -3.410  1.00  0.00     0.135 A 
ATOM     84  F   UNL     1      -0.436 -15.126  -3.631  1.00  0.00    -0.206 F 
ATOM     85  C   UNL     1       0.825 -14.109  -5.330  1.00  0.00     0.059 A 
ATOM     86  C   UNL     1       2.792 -12.807  -4.753  1.00  0.00     0.059 A 
ATOM     87  F   UNL     1       3.423 -12.592  -2.502  1.00  0.00    -0.206 F 
ATOM     88  C   UNL     1       1.916 -13.324  -5.707  1.00  0.00     0.060 A 
BRANCH  88  89
ATOM     89  S   UNL     1       2.147 -12.944  -7.457  1.00  0.00     0.124 S 
ATOM     90  O   UNL     1       2.687 -14.201  -7.962  1.00  0.00    -0.237 OA
ATOM     91  O   UNL     1       0.791 -12.614  -7.884  1.00  0.00    -0.237 OA
ATOM     92  O   UNL     1       3.078 -11.819  -7.434  1.00  0.00    -0.744 OA
ENDBRANCH  88  89
ENDBRANCH  56  81
BRANCH  68  93
ATOM     93  C   UNL     1       2.035 -19.624   0.912  1.00  0.00     0.058 A 
ATOM     94  C   UNL     1       3.369 -19.988   0.675  1.00  0.00     0.135 A 
ATOM     95  C   UNL     1       1.061 -20.636   0.891  1.00  0.00     0.135 A 
ATOM     96  F   UNL     1       4.334 -19.055   0.676  1.00  0.00    -0.206 F 
ATOM     97  C   UNL     1       3.724 -21.307   0.412  1.00  0.00     0.059 A 
ATOM     98  C   UNL     1       1.397 -21.964   0.652  1.00  0.00     0.059 A 
ATOM     99  F   UNL     1      -0.228 -20.338   1.121  1.00  0.00    -0.206 F 
ATOM    100  C   UNL     1       2.731 -22.288   0.404  1.00  0.00     0.060 A 
BRANCH 100 101
ATOM    101  S   UNL     1       3.208 -24.003   0.102  1.00  0.00     0.124 S 
ATOM    102  O   UNL     1       3.410 -24.001  -1.343  1.00  0.00    -0.237 OA
ATOM    103  O   UNL     1       4.415 -24.142   0.911  1.00  0.00    -0.237 OA
ATOM    104  O   UNL     1       2.054 -24.763   0.575  1.00  0.00    -0.744 OA
ENDBRANCH 100 101
ENDBRANCH  68  93
ENDBRANCH  42  43
ENDBRANCH  34  37
ENDBRANCH  32  33
ENDBRANCH  31  32
ENDBRANCH   1  31
TORSDOF 18
