REMARK SMILES C[C@H](c1ccc(C(=O)NCCCNC(=O)c2ccc(-c3c4nc(c(-c5c(F)cc(S(=O)(=O)[O-])cc5F)c5ccc([nH]5)c(-c5c(F)cc(S(=O)(=O)[O-])cc5F)c5nc(c(-c6c(F)cc(S(=O)(=O)[O-])cc6F)c6ccc3[nH]6)C=C5)C=C4)cc2)o1)[NH+]1Cc2ccccc2C1
REMARK SMILES IDX 11 1 10 2 9 3 7 4 8 5 6 7 3 8 4 9 82 10 5 11 2 12 1 13 83 14
REMARK SMILES IDX 84 15 91 16 85 18 90 19 86 20 89 21 87 22 88 23 12 24 13 25
REMARK SMILES IDX 14 26 15 28 16 29 17 30 81 31 18 32 80 33 19 34 20 35 21 36
REMARK SMILES IDX 74 37 22 38 79 39 73 40 75 41 23 42 78 43 72 44 71 45 24 47
REMARK SMILES IDX 58 48 37 49 57 50 38 51 41 52 56 53 76 54 39 55 40 56 55 58
REMARK SMILES IDX 77 59 42 60 25 61 26 62 35 63 27 64 28 65 34 66 36 67 29 68
REMARK SMILES IDX 30 69 31 70 32 71 33 72 59 73 60 74 69 75 61 76 62 77 68 78
REMARK SMILES IDX 70 79 63 80 64 81 65 82 66 83 67 84 43 85 44 86 53 87 45 88
REMARK SMILES IDX 46 89 52 90 54 91 47 92 48 93 49 94 50 95 51 96
REMARK H PARENT 9 6 83 17 13 27 75 46 41 57
REMARK Flexibility Score: inf
ROOT
ATOM      1  C   UNL     1       3.023  -0.972   5.307  1.00  0.00     0.042 C 
ENDROOT
BRANCH   1   2
ATOM      2  C   UNL     1       2.064   0.160   4.943  1.00  0.00     0.118 C 
BRANCH   2   3
ATOM      3  N   UNL     1       2.677   1.152   4.083  1.00  0.00    -0.349 N 
ATOM      4  C   UNL     1       2.556   1.345   2.724  1.00  0.00     0.287 C 
ATOM      5  O   UNL     1       3.030   2.395   2.285  1.00  0.00    -0.266 OA
ATOM      6  H   UNL     1       3.272   1.788   4.542  1.00  0.00     0.163 HD
BRANCH   4   7
ATOM      7  C   UNL     1       1.913   0.352   1.883  1.00  0.00     0.191 A 
ATOM      8  C   UNL     1       0.990  -0.317  -0.019  1.00  0.00     0.162 A 
ATOM      9  C   UNL     1       1.110  -1.438   0.776  1.00  0.00     0.053 A 
ATOM     10  O   UNL     1       1.468   0.770   0.651  1.00  0.00    -0.450 OA
ATOM     11  C   UNL     1       1.687  -1.009   1.991  1.00  0.00     0.057 A 
BRANCH   8  12
ATOM     12  C   UNL     1       0.639  -0.118  -1.473  1.00  0.00     0.248 C 
ATOM     13  C   UNL     1       1.742  -0.843  -2.284  1.00  0.00     0.084 C 
BRANCH  12  14
ATOM     14  N   UNL     1      -0.801  -0.304  -1.860  1.00  0.00    -0.319 N 
ATOM     15  C   UNL     1      -1.603  -1.183  -0.962  1.00  0.00     0.300 C 
ATOM     16  C   UNL     1      -0.958  -0.979  -3.182  1.00  0.00     0.300 C 
ATOM     17  H   UNL     1      -1.132   0.661  -1.833  1.00  0.00     0.349 HD
ATOM     18  C   UNL     1      -1.417  -2.560  -1.516  1.00  0.00     0.015 A 
ATOM     19  C   UNL     1      -1.012  -2.439  -2.848  1.00  0.00     0.015 A 
ATOM     20  C   UNL     1      -1.553  -3.794  -0.911  1.00  0.00     0.010 A 
ATOM     21  C   UNL     1      -0.695  -3.549  -3.605  1.00  0.00     0.010 A 
ATOM     22  C   UNL     1      -1.223  -4.924  -1.661  1.00  0.00     0.001 A 
ATOM     23  C   UNL     1      -0.790  -4.802  -2.994  1.00  0.00     0.001 A 
ENDBRANCH  12  14
ENDBRANCH   8  12
ENDBRANCH   4   7
ENDBRANCH   2   3
ENDBRANCH   1   2
BRANCH   1  24
ATOM     24  C   UNL     1       4.078  -0.581   6.338  1.00  0.00     0.118 C 
BRANCH  24  25
ATOM     25  N   UNL     1       3.491  -0.285   7.637  1.00  0.00    -0.352 N 
ATOM     26  C   UNL     1       3.681  -0.882   8.858  1.00  0.00     0.251 C 
ATOM     27  H   UNL     1       2.854   0.465   7.640  1.00  0.00     0.163 HD
ATOM     28  O   UNL     1       2.905  -0.619   9.773  1.00  0.00    -0.269 OA
BRANCH  26  29
ATOM     29  C   UNL     1       4.795  -1.830   9.085  1.00  0.00     0.039 A 
ATOM     30  C   UNL     1       4.573  -2.942   9.903  1.00  0.00     0.014 A 
ATOM     31  C   UNL     1       6.069  -1.599   8.559  1.00  0.00     0.014 A 
ATOM     32  C   UNL     1       5.611  -3.844  10.155  1.00  0.00     0.010 A 
ATOM     33  C   UNL     1       7.087  -2.531   8.758  1.00  0.00     0.010 A 
ATOM     34  C   UNL     1       6.870  -3.658   9.565  1.00  0.00    -0.014 A 
BRANCH  34  35
ATOM     35  C   UNL     1       7.974  -4.627   9.784  1.00  0.00     0.031 A 
ATOM     36  C   UNL     1       9.216  -4.205  10.521  1.00  0.00     0.074 A 
ATOM     37  C   UNL     1       7.885  -5.865   9.261  1.00  0.00     0.049 A 
ATOM     38  N   UNL     1      10.318  -4.878  10.737  1.00  0.00    -0.248 NA
ATOM     39  C   UNL     1       9.233  -2.837  11.065  1.00  0.00     0.031 C 
ATOM     40  C   UNL     1       6.753  -6.375   8.485  1.00  0.00     0.029 A 
ATOM     41  N   UNL     1       8.769  -6.914   9.287  1.00  0.00    -0.354 N 
ATOM     42  C   UNL     1      11.165  -4.012  11.418  1.00  0.00     0.074 A 
ATOM     43  C   UNL     1      10.465  -2.752  11.546  1.00  0.00     0.031 C 
ATOM     44  C   UNL     1       7.006  -7.641   8.118  1.00  0.00     0.029 A 
ATOM     45  C   UNL     1       8.328  -8.023   8.604  1.00  0.00     0.049 A 
ATOM     46  H   UNL     1       9.636  -6.876   9.750  1.00  0.00     0.167 HD
ATOM     47  C   UNL     1      12.406  -4.251  11.906  1.00  0.00     0.037 A 
ATOM     48  C   UNL     1       8.926  -9.210   8.386  1.00  0.00     0.037 A 
ATOM     49  C   UNL     1      13.083  -5.517  11.806  1.00  0.00     0.049 A 
ATOM     50  C   UNL     1      10.290  -9.463   8.963  1.00  0.00     0.074 A 
ATOM     51  C   UNL     1      14.313  -5.880  12.326  1.00  0.00     0.029 A 
ATOM     52  N   UNL     1      12.586  -6.630  11.143  1.00  0.00    -0.354 N 
ATOM     53  N   UNL     1      11.053  -8.651   9.655  1.00  0.00    -0.248 NA
ATOM     54  C   UNL     1      10.873 -10.793   8.738  1.00  0.00     0.031 C 
ATOM     55  C   UNL     1      14.573  -7.204  11.951  1.00  0.00     0.029 A 
ATOM     56  C   UNL     1      13.489  -7.676  11.229  1.00  0.00     0.049 A 
ATOM     57  H   UNL     1      11.718  -6.670  10.680  1.00  0.00     0.167 HD
ATOM     58  C   UNL     1      12.197  -9.377   9.965  1.00  0.00     0.074 A 
ATOM     59  C   UNL     1      12.021 -10.698   9.396  1.00  0.00     0.031 C 
ATOM     60  C   UNL     1      13.294  -8.986  10.659  1.00  0.00     0.037 A 
BRANCH  47  61
ATOM     61  C   UNL     1      13.110  -3.117  12.599  1.00  0.00     0.058 A 
ATOM     62  C   UNL     1      12.709  -2.665  13.866  1.00  0.00     0.135 A 
ATOM     63  C   UNL     1      14.215  -2.490  12.000  1.00  0.00     0.135 A 
ATOM     64  F   UNL     1      11.650  -3.220  14.477  1.00  0.00    -0.206 F 
ATOM     65  C   UNL     1      13.356  -1.610  14.501  1.00  0.00     0.059 A 
ATOM     66  C   UNL     1      14.893  -1.449  12.629  1.00  0.00     0.059 A 
ATOM     67  F   UNL     1      14.642  -2.883  10.790  1.00  0.00    -0.206 F 
ATOM     68  C   UNL     1      14.445  -1.005  13.872  1.00  0.00     0.060 A 
BRANCH  68  69
ATOM     69  S   UNL     1      15.272   0.367  14.705  1.00  0.00     0.124 S 
ATOM     70  O   UNL     1      14.326   1.456  14.479  1.00  0.00    -0.237 OA
ATOM     71  O   UNL     1      15.369  -0.112  16.080  1.00  0.00    -0.237 OA
ATOM     72  O   UNL     1      16.541   0.480  13.993  1.00  0.00    -0.744 OA
ENDBRANCH  68  69
ENDBRANCH  47  61
BRANCH  48  73
ATOM     73  C   UNL     1       8.220 -10.257   7.601  1.00  0.00     0.058 A 
ATOM     74  C   UNL     1       7.678 -11.385   8.232  1.00  0.00     0.135 A 
ATOM     75  C   UNL     1       8.048 -10.134   6.214  1.00  0.00     0.135 A 
ATOM     76  F   UNL     1       7.822 -11.547   9.556  1.00  0.00    -0.206 F 
ATOM     77  C   UNL     1       6.995 -12.362   7.515  1.00  0.00     0.059 A 
ATOM     78  C   UNL     1       7.352 -11.087   5.478  1.00  0.00     0.059 A 
ATOM     79  F   UNL     1       8.534  -9.062   5.568  1.00  0.00    -0.206 F 
ATOM     80  C   UNL     1       6.835 -12.202   6.137  1.00  0.00     0.060 A 
BRANCH  80  81
ATOM     81  S   UNL     1       5.891 -13.442   5.223  1.00  0.00     0.124 S 
ATOM     82  O   UNL     1       6.853 -14.533   5.129  1.00  0.00    -0.237 OA
ATOM     83  O   UNL     1       4.748 -13.670   6.102  1.00  0.00    -0.237 OA
ATOM     84  O   UNL     1       5.578 -12.764   3.968  1.00  0.00    -0.744 OA
ENDBRANCH  80  81
ENDBRANCH  48  73
BRANCH  60  85
ATOM     85  C   UNL     1      14.379 -10.005  10.863  1.00  0.00     0.058 A 
ATOM     86  C   UNL     1      15.249 -10.368   9.824  1.00  0.00     0.135 A 
ATOM     87  C   UNL     1      14.579 -10.587  12.124  1.00  0.00     0.135 A 
ATOM     88  F   UNL     1      15.093  -9.844   8.598  1.00  0.00    -0.206 F 
ATOM     89  C   UNL     1      16.270 -11.291  10.023  1.00  0.00     0.059 A 
ATOM     90  C   UNL     1      15.608 -11.495  12.352  1.00  0.00     0.059 A 
ATOM     91  F   UNL     1      13.779 -10.265  13.153  1.00  0.00    -0.206 F 
ATOM     92  C   UNL     1      16.442 -11.849  11.291  1.00  0.00     0.060 A 
BRANCH  92  93
ATOM     93  S   UNL     1      17.792 -13.020  11.549  1.00  0.00     0.124 S 
ATOM     94  O   UNL     1      17.250 -14.230  10.940  1.00  0.00    -0.237 OA
ATOM     95  O   UNL     1      18.897 -12.390  10.833  1.00  0.00    -0.237 OA
ATOM     96  O   UNL     1      17.935 -13.057  13.002  1.00  0.00    -0.744 OA
ENDBRANCH  92  93
ENDBRANCH  60  85
ENDBRANCH  34  35
ENDBRANCH  26  29
ENDBRANCH  24  25
ENDBRANCH   1  24
TORSDOF 15
