REMARK SMILES Cc1cc(C(=O)N[C@@H](C)C(=O)NCCCNC(=O)c2ccc(-c3c4nc(c(-c5c(F)cc(S(=O)(=O)[O-])cc5F)c5ccc([nH]5)c(-c5c(F)cc(S(=O)(=O)[O-])cc5F)c5nc(c(-c6c(F)cc(S(=O)(=O)[O-])cc6F)c6ccc3[nH]6)C=C5)C=C4)cc2)cc(C)c1OC(F)F
REMARK SMILES IDX 13 1 12 2 10 3 11 4 8 6 9 7 7 8 5 9 6 10 4 12 1 13 2 14 3 15
REMARK SMILES IDX 88 16 86 17 85 18 87 19 89 20 90 21 91 22 92 23 14 24 15 25
REMARK SMILES IDX 16 26 17 27 18 29 19 30 20 31 84 32 21 33 83 34 22 35 23 36
REMARK SMILES IDX 24 37 77 38 25 39 82 40 76 41 78 42 26 43 81 44 75 45 74 46
REMARK SMILES IDX 27 48 61 49 40 50 60 51 41 52 44 53 59 54 79 55 42 56 43 57
REMARK SMILES IDX 58 59 80 60 45 61 28 62 29 63 38 64 30 65 31 66 37 67 39 68
REMARK SMILES IDX 32 69 33 70 34 71 35 72 36 73 62 74 63 75 72 76 64 77 65 78
REMARK SMILES IDX 71 79 73 80 66 81 67 82 68 83 69 84 70 85 46 86 47 87 56 88
REMARK SMILES IDX 48 89 49 90 55 91 57 92 50 93 51 94 52 95 53 96 54 97
REMARK H PARENT 12 5 7 11 16 28 78 47 44 58
REMARK Flexibility Score: inf
ROOT
ATOM      1  C   UNL     1      -6.766  -0.572  -0.348  1.00  0.00     0.117 C 
ENDROOT
BRANCH   1   2
ATOM      2  N   UNL     1      -5.852  -1.470  -1.033  1.00  0.00    -0.354 N 
ATOM      3  C   UNL     1      -4.600  -1.893  -0.696  1.00  0.00     0.242 C 
ATOM      4  O   UNL     1      -4.063  -2.729  -1.429  1.00  0.00    -0.273 OA
ATOM      5  H   UNL     1      -6.193  -1.833  -1.882  1.00  0.00     0.163 HD
BRANCH   3   6
ATOM      6  C   UNL     1      -3.857  -1.340   0.537  1.00  0.00     0.168 C 
ATOM      7  C   UNL     1      -4.544  -1.643   1.862  1.00  0.00     0.041 C 
BRANCH   6   8
ATOM      8  N   UNL     1      -3.562   0.074   0.310  1.00  0.00    -0.341 N 
ATOM      9  C   UNL     1      -2.438   0.729  -0.141  1.00  0.00     0.251 C 
ATOM     10  O   UNL     1      -2.545   1.933  -0.376  1.00  0.00    -0.269 OA
ATOM     11  H   UNL     1      -4.313   0.675   0.520  1.00  0.00     0.164 HD
BRANCH   9  12
ATOM     12  C   UNL     1      -1.093   0.094  -0.250  1.00  0.00     0.040 A 
ATOM     13  C   UNL     1       2.406   1.436   0.213  1.00  0.00     0.048 C 
ATOM     14  C   UNL     1       1.354   0.379   0.027  1.00  0.00    -0.008 A 
ATOM     15  C   UNL     1       0.033   0.899  -0.037  1.00  0.00     0.021 A 
ATOM     16  C   UNL     1       1.518  -1.015  -0.026  1.00  0.00     0.131 A 
ATOM     17  C   UNL     1       0.390  -1.821  -0.323  1.00  0.00    -0.008 A 
ATOM     18  C   UNL     1      -0.875  -1.244  -0.522  1.00  0.00     0.021 A 
ATOM     19  C   UNL     1       0.441  -3.330  -0.336  1.00  0.00     0.048 C 
BRANCH  16  20
ATOM     20  O   UNL     1       2.620  -1.767   0.249  1.00  0.00    -0.434 OA
BRANCH  20  21
ATOM     21  C   UNL     1       3.945  -1.319   0.068  1.00  0.00     0.542 C 
ATOM     22  F   UNL     1       4.072  -0.623  -1.083  1.00  0.00    -0.167 F 
ATOM     23  F   UNL     1       4.312  -0.546   1.115  1.00  0.00    -0.167 F 
ENDBRANCH  20  21
ENDBRANCH  16  20
ENDBRANCH   9  12
ENDBRANCH   6   8
ENDBRANCH   3   6
ENDBRANCH   1   2
BRANCH   1  24
ATOM     24  C   UNL     1      -7.263   0.568  -1.223  1.00  0.00     0.042 C 
BRANCH  24  25
ATOM     25  C   UNL     1      -8.077   0.131  -2.434  1.00  0.00     0.118 C 
BRANCH  25  26
ATOM     26  N   UNL     1      -9.287  -0.596  -2.072  1.00  0.00    -0.352 N 
ATOM     27  C   UNL     1     -10.611  -0.228  -2.151  1.00  0.00     0.251 C 
ATOM     28  H   UNL     1      -9.132  -1.500  -1.714  1.00  0.00     0.163 HD
ATOM     29  O   UNL     1     -11.462  -0.923  -1.610  1.00  0.00    -0.269 OA
BRANCH  27  30
ATOM     30  C   UNL     1     -11.003   1.014  -2.855  1.00  0.00     0.039 A 
ATOM     31  C   UNL     1     -11.956   1.852  -2.269  1.00  0.00     0.014 A 
ATOM     32  C   UNL     1     -10.438   1.354  -4.086  1.00  0.00     0.014 A 
ATOM     33  C   UNL     1     -12.264   3.076  -2.869  1.00  0.00     0.010 A 
ATOM     34  C   UNL     1     -10.681   2.609  -4.637  1.00  0.00     0.010 A 
ATOM     35  C   UNL     1     -11.586   3.490  -4.027  1.00  0.00    -0.014 A 
BRANCH  35  36
ATOM     36  C   UNL     1     -11.770   4.853  -4.591  1.00  0.00     0.031 A 
ATOM     37  C   UNL     1     -12.304   5.033  -5.987  1.00  0.00     0.074 A 
ATOM     38  C   UNL     1     -11.364   5.923  -3.877  1.00  0.00     0.049 A 
ATOM     39  N   UNL     1     -12.423   6.131  -6.688  1.00  0.00    -0.248 NA
ATOM     40  C   UNL     1     -12.739   3.819  -6.697  1.00  0.00     0.031 C 
ATOM     41  C   UNL     1     -10.781   5.873  -2.532  1.00  0.00     0.029 A 
ATOM     42  N   UNL     1     -11.356   7.261  -4.186  1.00  0.00    -0.354 N 
ATOM     43  C   UNL     1     -12.927   5.741  -7.923  1.00  0.00     0.074 A 
ATOM     44  C   UNL     1     -13.056   4.301  -7.891  1.00  0.00     0.031 C 
ATOM     45  C   UNL     1     -10.482   7.119  -2.132  1.00  0.00     0.029 A 
ATOM     46  C   UNL     1     -10.803   8.053  -3.205  1.00  0.00     0.049 A 
ATOM     47  H   UNL     1     -11.712   7.621  -5.031  1.00  0.00     0.167 HD
ATOM     48  C   UNL     1     -13.264   6.517  -8.980  1.00  0.00     0.037 A 
ATOM     49  C   UNL     1     -10.556   9.378  -3.181  1.00  0.00     0.037 A 
ATOM     50  C   UNL     1     -13.159   7.954  -8.992  1.00  0.00     0.049 A 
ATOM     51  C   UNL     1     -10.932  10.213  -4.376  1.00  0.00     0.074 A 
ATOM     52  C   UNL     1     -13.551   8.834  -9.987  1.00  0.00     0.029 A 
ATOM     53  N   UNL     1     -12.619   8.721  -7.971  1.00  0.00    -0.354 N 
ATOM     54  N   UNL     1     -11.486   9.835  -5.504  1.00  0.00    -0.248 NA
ATOM     55  C   UNL     1     -10.652  11.653  -4.297  1.00  0.00     0.031 C 
ATOM     56  C   UNL     1     -13.196  10.127  -9.592  1.00  0.00     0.029 A 
ATOM     57  C   UNL     1     -12.636  10.060  -8.326  1.00  0.00     0.049 A 
ATOM     58  H   UNL     1     -12.274   8.367  -7.120  1.00  0.00     0.167 HD
ATOM     59  C   UNL     1     -11.641  10.994  -6.257  1.00  0.00     0.074 A 
ATOM     60  C   UNL     1     -11.145  12.087  -5.449  1.00  0.00     0.031 C 
ATOM     61  C   UNL     1     -12.145  11.139  -7.508  1.00  0.00     0.037 A 
BRANCH  48  62
ATOM     62  C   UNL     1     -13.788   5.844 -10.219  1.00  0.00     0.058 A 
ATOM     63  C   UNL     1     -15.068   5.272 -10.263  1.00  0.00     0.135 A 
ATOM     64  C   UNL     1     -13.035   5.855 -11.405  1.00  0.00     0.135 A 
ATOM     65  F   UNL     1     -15.824   5.219  -9.154  1.00  0.00    -0.206 F 
ATOM     66  C   UNL     1     -15.583   4.730 -11.436  1.00  0.00     0.059 A 
ATOM     67  C   UNL     1     -13.540   5.343 -12.597  1.00  0.00     0.059 A 
ATOM     68  F   UNL     1     -11.802   6.386 -11.418  1.00  0.00    -0.206 F 
ATOM     69  C   UNL     1     -14.815   4.779 -12.601  1.00  0.00     0.060 A 
BRANCH  69  70
ATOM     70  S   UNL     1     -15.521   4.120 -14.126  1.00  0.00     0.124 S 
ATOM     71  O   UNL     1     -15.515   2.686 -13.854  1.00  0.00    -0.237 OA
ATOM     72  O   UNL     1     -16.836   4.753 -14.157  1.00  0.00    -0.237 OA
ATOM     73  O   UNL     1     -14.589   4.567 -15.156  1.00  0.00    -0.744 OA
ENDBRANCH  69  70
ENDBRANCH  48  62
BRANCH  49  74
ATOM     74  C   UNL     1      -9.904  10.002  -1.996  1.00  0.00     0.058 A 
ATOM     75  C   UNL     1     -10.598  10.907  -1.180  1.00  0.00     0.135 A 
ATOM     76  C   UNL     1      -8.566   9.727  -1.672  1.00  0.00     0.135 A 
ATOM     77  F   UNL     1     -11.878  11.208  -1.449  1.00  0.00    -0.206 F 
ATOM     78  C   UNL     1      -9.982  11.544  -0.107  1.00  0.00     0.059 A 
ATOM     79  C   UNL     1      -7.937  10.326  -0.586  1.00  0.00     0.059 A 
ATOM     80  F   UNL     1      -7.861   8.854  -2.409  1.00  0.00    -0.206 F 
ATOM     81  C   UNL     1      -8.648  11.249   0.179  1.00  0.00     0.060 A 
BRANCH  81  82
ATOM     82  S   UNL     1      -7.861  12.073   1.580  1.00  0.00     0.124 S 
ATOM     83  O   UNL     1      -7.683  13.425   1.062  1.00  0.00    -0.237 OA
ATOM     84  O   UNL     1      -8.862  11.918   2.630  1.00  0.00    -0.237 OA
ATOM     85  O   UNL     1      -6.635  11.305   1.775  1.00  0.00    -0.744 OA
ENDBRANCH  81  82
ENDBRANCH  49  74
BRANCH  61  86
ATOM     86  C   UNL     1     -12.212  12.533  -8.070  1.00  0.00     0.058 A 
ATOM     87  C   UNL     1     -11.057  13.225  -8.465  1.00  0.00     0.135 A 
ATOM     88  C   UNL     1     -13.452  13.163  -8.264  1.00  0.00     0.135 A 
ATOM     89  F   UNL     1      -9.845  12.671  -8.295  1.00  0.00    -0.206 F 
ATOM     90  C   UNL     1     -11.126  14.503  -9.009  1.00  0.00     0.059 A 
ATOM     91  C   UNL     1     -13.547  14.428  -8.836  1.00  0.00     0.059 A 
ATOM     92  F   UNL     1     -14.589  12.542  -7.913  1.00  0.00    -0.206 F 
ATOM     93  C   UNL     1     -12.377  15.095  -9.194  1.00  0.00     0.060 A 
BRANCH  93  94
ATOM     94  S   UNL     1     -12.454  16.739  -9.935  1.00  0.00     0.124 S 
ATOM     95  O   UNL     1     -11.960  17.576  -8.846  1.00  0.00    -0.237 OA
ATOM     96  O   UNL     1     -11.565  16.605 -11.085  1.00  0.00    -0.237 OA
ATOM     97  O   UNL     1     -13.868  16.901 -10.259  1.00  0.00    -0.744 OA
ENDBRANCH  93  94
ENDBRANCH  61  86
ENDBRANCH  35  36
ENDBRANCH  27  30
ENDBRANCH  25  26
ENDBRANCH  24  25
ENDBRANCH   1  24
TORSDOF 17
