REMARK SMILES C#CC[N@H+](CC(=O)NCCCNC(=O)c1ccc(-c2c3nc(c(-c4c(F)cc(S(=O)(=O)[O-])cc4F)c4ccc([nH]4)c(-c4c(F)cc(S(=O)(=O)[O-])cc4F)c4nc(c(-c5c(F)cc(S(=O)(=O)[O-])cc5F)c5ccc2[nH]5)C=C4)C=C3)cc1)[C@H]1CCO[C@@H](C(C)C)C1
REMARK SMILES IDX 10 1 9 2 8 3 6 4 7 5 5 7 4 8 3 10 2 11 1 12 81 13 82 14
REMARK SMILES IDX 89 15 83 16 85 17 84 18 86 19 87 20 88 21 11 22 12 23 13 24
REMARK SMILES IDX 14 26 15 27 16 28 80 29 17 30 79 31 18 32 19 33 20 34 73 35
REMARK SMILES IDX 21 36 78 37 72 38 74 39 22 40 77 41 71 42 70 43 23 45 57 46
REMARK SMILES IDX 36 47 56 48 37 49 40 50 55 51 75 52 38 53 39 54 54 56 76 57
REMARK SMILES IDX 41 58 24 59 25 60 34 61 26 62 27 63 33 64 35 65 28 66 29 67
REMARK SMILES IDX 30 68 31 69 32 70 58 71 59 72 68 73 60 74 61 75 67 76 69 77
REMARK SMILES IDX 62 78 63 79 64 80 65 81 66 82 42 83 43 84 52 85 44 86 45 87
REMARK SMILES IDX 51 88 53 89 46 90 47 91 48 92 49 93 50 94
REMARK H PARENT 8 6 4 9 12 25 74 44 40 55
REMARK Flexibility Score: inf
ROOT
ATOM      1  C   UNL     1       2.018  -1.550   4.946  1.00  0.00     0.042 C 
ENDROOT
BRANCH   1   2
ATOM      2  C   UNL     1       1.217  -2.833   4.791  1.00  0.00     0.118 C 
BRANCH   2   3
ATOM      3  N   UNL     1       0.004  -2.747   5.594  1.00  0.00    -0.351 N 
ATOM      4  C   UNL     1      -1.205  -2.195   5.242  1.00  0.00     0.275 C 
ATOM      5  O   UNL     1      -1.949  -1.773   6.124  1.00  0.00    -0.269 OA
ATOM      6  H   UNL     1       0.056  -3.131   6.499  1.00  0.00     0.163 HD
BRANCH   4   7
ATOM      7  C   UNL     1      -1.633  -2.366   3.805  1.00  0.00     0.364 C 
BRANCH   7   8
ATOM      8  N   UNL     1      -1.729  -1.271   2.841  1.00  0.00    -0.314 N 
ATOM      9  H   UNL     1      -2.502  -0.637   3.042  1.00  0.00     0.349 HD
BRANCH   8  10
ATOM     10  C   UNL     1      -0.539  -0.423   2.936  1.00  0.00     0.354 C 
BRANCH  10  11
ATOM     11  C   UNL     1      -0.518   0.840   2.191  1.00  0.00    -0.047 C 
ATOM     12  C   UNL     1      -0.293   1.919   1.724  1.00  0.00     0.010 C 
ENDBRANCH  10  11
ENDBRANCH   8  10
BRANCH   8  13
ATOM     13  C   UNL     1      -2.033  -1.853   1.481  1.00  0.00     0.190 C 
ATOM     14  C   UNL     1      -0.866  -2.166   0.521  1.00  0.00     0.093 C 
ATOM     15  C   UNL     1      -2.981  -3.117   1.459  1.00  0.00     0.097 C 
ATOM     16  C   UNL     1      -0.256  -3.542   0.736  1.00  0.00     0.166 C 
ATOM     17  C   UNL     1      -2.329  -4.542   1.478  1.00  0.00     0.126 C 
ATOM     18  O   UNL     1      -1.218  -4.579   0.574  1.00  0.00    -0.377 OA
BRANCH  17  19
ATOM     19  C   UNL     1      -1.994  -5.280   2.824  1.00  0.00     0.012 C 
ATOM     20  C   UNL     1      -3.195  -5.437   3.764  1.00  0.00     0.010 C 
ATOM     21  C   UNL     1      -1.329  -6.650   2.630  1.00  0.00     0.010 C 
ENDBRANCH  17  19
ENDBRANCH   8  13
ENDBRANCH   7   8
ENDBRANCH   4   7
ENDBRANCH   2   3
ENDBRANCH   1   2
BRANCH   1  22
ATOM     22  C   UNL     1       2.492  -1.360   6.371  1.00  0.00     0.118 C 
BRANCH  22  23
ATOM     23  N   UNL     1       3.688  -2.138   6.622  1.00  0.00    -0.352 N 
ATOM     24  C   UNL     1       4.963  -1.672   6.821  1.00  0.00     0.251 C 
ATOM     25  H   UNL     1       3.573  -3.116   6.654  1.00  0.00     0.163 HD
ATOM     26  O   UNL     1       5.916  -2.434   6.701  1.00  0.00    -0.269 OA
BRANCH  24  27
ATOM     27  C   UNL     1       5.168  -0.244   7.152  1.00  0.00     0.039 A 
ATOM     28  C   UNL     1       6.233   0.439   6.567  1.00  0.00     0.014 A 
ATOM     29  C   UNL     1       4.299   0.423   8.024  1.00  0.00     0.014 A 
ATOM     30  C   UNL     1       6.402   1.798   6.829  1.00  0.00     0.010 A 
ATOM     31  C   UNL     1       4.399   1.800   8.186  1.00  0.00     0.010 A 
ATOM     32  C   UNL     1       5.469   2.499   7.613  1.00  0.00    -0.014 A 
BRANCH  32  33
ATOM     33  C   UNL     1       5.618   3.955   7.863  1.00  0.00     0.031 A 
ATOM     34  C   UNL     1       5.779   4.465   9.273  1.00  0.00     0.074 A 
ATOM     35  C   UNL     1       5.572   4.817   6.827  1.00  0.00     0.049 A 
ATOM     36  N   UNL     1       5.897   5.697   9.692  1.00  0.00    -0.248 NA
ATOM     37  C   UNL     1       5.787   3.465  10.356  1.00  0.00     0.031 C 
ATOM     38  C   UNL     1       5.365   4.444   5.425  1.00  0.00     0.029 A 
ATOM     39  N   UNL     1       5.689   6.184   6.789  1.00  0.00    -0.354 N 
ATOM     40  C   UNL     1       5.971   5.622  11.078  1.00  0.00     0.074 A 
ATOM     41  C   UNL     1       5.840   4.230  11.437  1.00  0.00     0.031 C 
ATOM     42  C   UNL     1       5.395   5.549   4.664  1.00  0.00     0.029 A 
ATOM     43  C   UNL     1       5.569   6.715   5.525  1.00  0.00     0.049 A 
ATOM     44  H   UNL     1       5.844   6.733   7.591  1.00  0.00     0.167 HD
ATOM     45  C   UNL     1       6.151   6.625  11.969  1.00  0.00     0.037 A 
ATOM     46  C   UNL     1       5.574   7.996   5.108  1.00  0.00     0.037 A 
ATOM     47  C   UNL     1       6.313   8.006  11.598  1.00  0.00     0.049 A 
ATOM     48  C   UNL     1       5.775   9.090   6.124  1.00  0.00     0.074 A 
ATOM     49  C   UNL     1       6.585   9.086  12.419  1.00  0.00     0.029 A 
ATOM     50  N   UNL     1       6.202   8.502  10.308  1.00  0.00    -0.354 N 
ATOM     51  N   UNL     1       5.942   8.989   7.422  1.00  0.00    -0.248 NA
ATOM     52  C   UNL     1       5.796  10.471   5.623  1.00  0.00     0.031 C 
ATOM     53  C   UNL     1       6.558  10.244  11.639  1.00  0.00     0.029 A 
ATOM     54  C   UNL     1       6.356   9.878  10.318  1.00  0.00     0.049 A 
ATOM     55  H   UNL     1       6.039   7.957   9.504  1.00  0.00     0.167 HD
ATOM     56  C   UNL     1       6.117  10.289   7.885  1.00  0.00     0.074 A 
ATOM     57  C   UNL     1       6.058  11.155   6.727  1.00  0.00     0.031 C 
ATOM     58  C   UNL     1       6.307  10.727   9.154  1.00  0.00     0.037 A 
BRANCH  45  59
ATOM     59  C   UNL     1       6.176   6.287  13.435  1.00  0.00     0.058 A 
ATOM     60  C   UNL     1       7.243   5.590  14.023  1.00  0.00     0.135 A 
ATOM     61  C   UNL     1       5.158   6.760  14.281  1.00  0.00     0.135 A 
ATOM     62  F   UNL     1       8.232   5.097  13.261  1.00  0.00    -0.206 F 
ATOM     63  C   UNL     1       7.300   5.374  15.396  1.00  0.00     0.059 A 
ATOM     64  C   UNL     1       5.211   6.583  15.660  1.00  0.00     0.059 A 
ATOM     65  F   UNL     1       4.110   7.425  13.771  1.00  0.00    -0.206 F 
ATOM     66  C   UNL     1       6.287   5.887  16.208  1.00  0.00     0.060 A 
BRANCH  66  67
ATOM     67  S   UNL     1       6.413   5.654  17.993  1.00  0.00     0.124 S 
ATOM     68  O   UNL     1       6.211   4.214  18.116  1.00  0.00    -0.237 OA
ATOM     69  O   UNL     1       7.764   6.131  18.272  1.00  0.00    -0.237 OA
ATOM     70  O   UNL     1       5.336   6.484  18.524  1.00  0.00    -0.744 OA
ENDBRANCH  66  67
ENDBRANCH  45  59
BRANCH  46  71
ATOM     71  C   UNL     1       5.359   8.322   3.670  1.00  0.00     0.058 A 
ATOM     72  C   UNL     1       6.359   8.932   2.897  1.00  0.00     0.135 A 
ATOM     73  C   UNL     1       4.128   8.057   3.047  1.00  0.00     0.135 A 
ATOM     74  F   UNL     1       7.553   9.210   3.442  1.00  0.00    -0.206 F 
ATOM     75  C   UNL     1       6.134   9.304   1.575  1.00  0.00     0.059 A 
ATOM     76  C   UNL     1       3.893   8.384   1.716  1.00  0.00     0.059 A 
ATOM     77  F   UNL     1       3.142   7.457   3.732  1.00  0.00    -0.206 F 
ATOM     78  C   UNL     1       4.896   9.027   0.994  1.00  0.00     0.060 A 
BRANCH  78  79
ATOM     79  S   UNL     1       4.616   9.506  -0.724  1.00  0.00     0.124 S 
ATOM     80  O   UNL     1       4.553  10.959  -0.617  1.00  0.00    -0.237 OA
ATOM     81  O   UNL     1       5.797   8.963  -1.387  1.00  0.00    -0.237 OA
ATOM     82  O   UNL     1       3.358   8.842  -1.056  1.00  0.00    -0.744 OA
ENDBRANCH  78  79
ENDBRANCH  46  71
BRANCH  58  83
ATOM     83  C   UNL     1       6.513  12.204   9.359  1.00  0.00     0.058 A 
ATOM     84  C   UNL     1       5.478  13.134   9.173  1.00  0.00     0.135 A 
ATOM     85  C   UNL     1       7.755  12.688   9.805  1.00  0.00     0.135 A 
ATOM     86  F   UNL     1       4.272  12.727   8.744  1.00  0.00    -0.206 F 
ATOM     87  C   UNL     1       5.675  14.493   9.392  1.00  0.00     0.059 A 
ATOM     88  C   UNL     1       7.962  14.038  10.068  1.00  0.00     0.059 A 
ATOM     89  F   UNL     1       8.777  11.843  10.010  1.00  0.00    -0.206 F 
ATOM     90  C   UNL     1       6.919  14.935   9.846  1.00  0.00     0.060 A 
BRANCH  90  91
ATOM     91  S   UNL     1       7.148  16.697  10.159  1.00  0.00     0.124 S 
ATOM     92  O   UNL     1       7.128  17.242   8.805  1.00  0.00    -0.237 OA
ATOM     93  O   UNL     1       5.991  17.017  10.989  1.00  0.00    -0.237 OA
ATOM     94  O   UNL     1       8.438  16.758  10.840  1.00  0.00    -0.744 OA
ENDBRANCH  90  91
ENDBRANCH  58  83
ENDBRANCH  32  33
ENDBRANCH  24  27
ENDBRANCH  22  23
ENDBRANCH   1  22
TORSDOF 18
