REMARK SMILES O=C(C[N@@H+](Cc1nc(-c2ccco2)no1)CC(F)(F)F)NCCCNC(=O)c1ccc(-c2c3nc(c(-c4c(F)cc(S(=O)(=O)[O-])cc4F)c4ccc([nH]4)c(-c4c(F)cc(S(=O)(=O)[O-])cc4F)c4nc(c(-c5c(F)cc(S(=O)(=O)[O-])cc5F)c5ccc2[nH]5)C=C4)C=C3)cc1
REMARK SMILES IDX 22 1 21 2 1 3 2 4 3 6 4 7 5 9 6 10 7 11 15 12 8 13 14 14
REMARK SMILES IDX 9 15 10 16 13 17 11 18 12 19 16 20 17 21 18 22 19 23 20 24
REMARK SMILES IDX 23 25 24 26 25 27 26 28 27 30 28 31 29 32 93 33 30 34 92 35
REMARK SMILES IDX 31 36 32 37 33 38 86 39 34 40 91 41 85 42 87 43 35 44 90 45
REMARK SMILES IDX 84 46 83 47 36 49 70 50 49 51 69 52 50 53 53 54 68 55 88 56
REMARK SMILES IDX 51 57 52 58 67 60 89 61 54 62 37 63 38 64 47 65 39 66 40 67
REMARK SMILES IDX 46 68 48 69 41 70 42 71 43 72 44 73 45 74 71 75 72 76 81 77
REMARK SMILES IDX 73 78 74 79 80 80 82 81 75 82 76 83 77 84 78 85 79 86 55 87
REMARK SMILES IDX 56 88 65 89 57 90 58 91 64 92 66 93 59 94 60 95 61 96 62 97
REMARK SMILES IDX 63 98
REMARK H PARENT 21 5 4 8 25 29 87 48 53 59
REMARK Flexibility Score: inf
ROOT
ATOM      1  C   UNL     1       2.209   2.027   1.418  1.00  0.00     0.118 C 
ENDROOT
BRANCH   1   2
ATOM      2  N   UNL     1       2.795   0.938   0.662  1.00  0.00    -0.351 N 
ATOM      3  O   UNL     1       0.800  -0.079   0.155  1.00  0.00    -0.269 OA
ATOM      4  C   UNL     1       2.022  -0.021   0.045  1.00  0.00     0.275 C 
ATOM      5  H   UNL     1       3.775   0.882   0.587  1.00  0.00     0.163 HD
BRANCH   4   6
ATOM      6  C   UNL     1       2.803  -1.029  -0.802  1.00  0.00     0.364 C 
BRANCH   6   7
ATOM      7  N   UNL     1       3.748  -0.382  -1.750  1.00  0.00    -0.312 N 
ATOM      8  H   UNL     1       4.420   0.130  -1.179  1.00  0.00     0.349 HD
BRANCH   7   9
ATOM      9  C   UNL     1       4.508  -1.400  -2.529  1.00  0.00     0.364 C 
BRANCH   9  10
ATOM     10  C   UNL     1       3.684  -2.363  -3.316  1.00  0.00     0.282 A 
ATOM     11  N   UNL     1       3.014  -2.163  -4.425  1.00  0.00    -0.183 NA
ATOM     12  O   UNL     1       3.436  -3.578  -2.747  1.00  0.00    -0.333 OA
ATOM     13  C   UNL     1       2.183  -3.259  -4.463  1.00  0.00     0.238 A 
ATOM     14  N   UNL     1       2.435  -4.176  -3.518  1.00  0.00    -0.053 NA
BRANCH  13  15
ATOM     15  C   UNL     1       1.023  -3.332  -5.396  1.00  0.00     0.174 A 
ATOM     16  C   UNL     1       0.729  -2.403  -6.378  1.00  0.00     0.054 A 
ATOM     17  O   UNL     1       0.040  -4.284  -5.367  1.00  0.00    -0.461 OA
ATOM     18  C   UNL     1      -0.509  -2.784  -6.947  1.00  0.00     0.043 A 
ATOM     19  C   UNL     1      -0.893  -3.928  -6.288  1.00  0.00     0.196 A 
ENDBRANCH  13  15
ENDBRANCH   9  10
ENDBRANCH   7   9
BRANCH   7  20
ATOM     20  C   UNL     1       3.130   0.676  -2.609  1.00  0.00     0.380 C 
BRANCH  20  21
ATOM     21  C   UNL     1       1.857   0.494  -3.476  1.00  0.00     0.438 C 
ATOM     22  F   UNL     1       1.081  -0.530  -3.073  1.00  0.00    -0.165 F 
ATOM     23  F   UNL     1       1.101   1.618  -3.429  1.00  0.00    -0.165 F 
ATOM     24  F   UNL     1       2.175   0.304  -4.777  1.00  0.00    -0.165 F 
ENDBRANCH  20  21
ENDBRANCH   7  20
ENDBRANCH   6   7
ENDBRANCH   4   6
ENDBRANCH   1   2
BRANCH   1  25
ATOM     25  C   UNL     1       2.458   1.917   2.917  1.00  0.00     0.042 C 
BRANCH  25  26
ATOM     26  C   UNL     1       3.920   2.063   3.331  1.00  0.00     0.118 C 
BRANCH  26  27
ATOM     27  N   UNL     1       4.481   3.365   2.998  1.00  0.00    -0.352 N 
ATOM     28  C   UNL     1       5.172   4.265   3.770  1.00  0.00     0.251 C 
ATOM     29  H   UNL     1       4.341   3.646   2.065  1.00  0.00     0.163 HD
ATOM     30  O   UNL     1       5.433   5.370   3.294  1.00  0.00    -0.269 OA
BRANCH  28  31
ATOM     31  C   UNL     1       5.587   3.945   5.156  1.00  0.00     0.039 A 
ATOM     32  C   UNL     1       5.523   4.958   6.119  1.00  0.00     0.014 A 
ATOM     33  C   UNL     1       6.079   2.687   5.512  1.00  0.00     0.014 A 
ATOM     34  C   UNL     1       5.896   4.695   7.440  1.00  0.00     0.010 A 
ATOM     35  C   UNL     1       6.383   2.404   6.845  1.00  0.00     0.010 A 
ATOM     36  C   UNL     1       6.298   3.405   7.824  1.00  0.00    -0.014 A 
BRANCH  36  37
ATOM     37  C   UNL     1       6.625   3.097   9.243  1.00  0.00     0.031 A 
ATOM     38  C   UNL     1       8.018   2.687   9.639  1.00  0.00     0.074 A 
ATOM     39  C   UNL     1       5.650   3.145  10.173  1.00  0.00     0.049 A 
ATOM     40  N   UNL     1       8.478   2.356  10.819  1.00  0.00    -0.248 NA
ATOM     41  C   UNL     1       9.022   2.615   8.566  1.00  0.00     0.031 C 
ATOM     42  C   UNL     1       4.247   3.475   9.912  1.00  0.00     0.029 A 
ATOM     43  N   UNL     1       5.687   2.910  11.525  1.00  0.00    -0.354 N 
ATOM     44  C   UNL     1       9.815   2.027  10.630  1.00  0.00     0.074 A 
ATOM     45  C   UNL     1      10.081   2.150   9.213  1.00  0.00     0.031 C 
ATOM     46  C   UNL     1       3.565   3.448  11.068  1.00  0.00     0.029 A 
ATOM     47  C   UNL     1       4.470   3.067  12.147  1.00  0.00     0.049 A 
ATOM     48  H   UNL     1       6.508   2.653  12.005  1.00  0.00     0.167 HD
ATOM     49  C   UNL     1      10.744   1.679  11.555  1.00  0.00     0.037 A 
ATOM     50  C   UNL     1       4.121   2.921  13.440  1.00  0.00     0.037 A 
ATOM     51  C   UNL     1      10.483   1.583  12.968  1.00  0.00     0.049 A 
ATOM     52  C   UNL     1       5.173   2.549  14.450  1.00  0.00     0.074 A 
ATOM     53  C   UNL     1      11.372   1.294  13.990  1.00  0.00     0.029 A 
ATOM     54  N   UNL     1       9.244   1.773  13.562  1.00  0.00    -0.354 N 
ATOM     55  N   UNL     1       6.447   2.306  14.260  1.00  0.00    -0.248 NA
ATOM     56  C   UNL     1       4.740   2.441  15.850  1.00  0.00     0.031 C 
ATOM     57  C   UNL     1      10.663   1.272  15.196  1.00  0.00     0.029 A 
ATOM     58  C   UNL     1       9.341   1.592  14.932  1.00  0.00     0.049 A 
ATOM     59  H   UNL     1       8.417   2.003  13.080  1.00  0.00     0.167 HD
ATOM     60  C   UNL     1       6.975   2.042  15.520  1.00  0.00     0.074 A 
ATOM     61  C   UNL     1       5.884   2.169  16.464  1.00  0.00     0.031 C 
ATOM     62  C   UNL     1       8.248   1.725  15.863  1.00  0.00     0.037 A 
BRANCH  49  63
ATOM     63  C   UNL     1      12.136   1.382  11.066  1.00  0.00     0.058 A 
ATOM     64  C   UNL     1      12.979   2.397  10.586  1.00  0.00     0.135 A 
ATOM     65  C   UNL     1      12.648   0.075  11.112  1.00  0.00     0.135 A 
ATOM     66  F   UNL     1      12.538   3.663  10.507  1.00  0.00    -0.206 F 
ATOM     67  C   UNL     1      14.268   2.123  10.139  1.00  0.00     0.059 A 
ATOM     68  C   UNL     1      13.944  -0.218  10.696  1.00  0.00     0.059 A 
ATOM     69  F   UNL     1      11.886  -0.934  11.564  1.00  0.00    -0.206 F 
ATOM     70  C   UNL     1      14.740   0.811  10.195  1.00  0.00     0.060 A 
BRANCH  70  71
ATOM     71  S   UNL     1      16.414   0.470   9.610  1.00  0.00     0.124 S 
ATOM     72  O   UNL     1      16.241   0.571   8.164  1.00  0.00    -0.237 OA
ATOM     73  O   UNL     1      17.187   1.543  10.230  1.00  0.00    -0.237 OA
ATOM     74  O   UNL     1      16.686  -0.869  10.118  1.00  0.00    -0.744 OA
ENDBRANCH  70  71
ENDBRANCH  49  63
BRANCH  50  75
ATOM     75  C   UNL     1       2.714   3.159  13.860  1.00  0.00     0.058 A 
ATOM     76  C   UNL     1       2.369   4.291  14.614  1.00  0.00     0.135 A 
ATOM     77  C   UNL     1       1.688   2.271  13.505  1.00  0.00     0.135 A 
ATOM     78  F   UNL     1       3.317   5.166  14.982  1.00  0.00    -0.206 F 
ATOM     79  C   UNL     1       1.059   4.526  15.017  1.00  0.00     0.059 A 
ATOM     80  C   UNL     1       0.365   2.498  13.875  1.00  0.00     0.059 A 
ATOM     81  F   UNL     1       1.964   1.183  12.769  1.00  0.00    -0.206 F 
ATOM     82  C   UNL     1       0.063   3.623  14.641  1.00  0.00     0.060 A 
BRANCH  82  83
ATOM     83  S   UNL     1      -1.643   3.962  15.128  1.00  0.00     0.124 S 
ATOM     84  O   UNL     1      -1.614   3.629  16.547  1.00  0.00    -0.237 OA
ATOM     85  O   UNL     1      -1.778   5.380  14.806  1.00  0.00    -0.237 OA
ATOM     86  O   UNL     1      -2.418   3.059  14.282  1.00  0.00    -0.744 OA
ENDBRANCH  82  83
ENDBRANCH  50  75
BRANCH  62  87
ATOM     87  C   UNL     1       8.539   1.524  17.325  1.00  0.00     0.058 A 
ATOM     88  C   UNL     1       8.095   0.387  18.017  1.00  0.00     0.135 A 
ATOM     89  C   UNL     1       9.300   2.468  18.034  1.00  0.00     0.135 A 
ATOM     90  F   UNL     1       7.358  -0.542  17.387  1.00  0.00    -0.206 F 
ATOM     91  C   UNL     1       8.369   0.206  19.369  1.00  0.00     0.059 A 
ATOM     92  C   UNL     1       9.610   2.294  19.379  1.00  0.00     0.059 A 
ATOM     93  F   UNL     1       9.759   3.568  17.416  1.00  0.00    -0.206 F 
ATOM     94  C   UNL     1       9.126   1.167  20.042  1.00  0.00     0.060 A 
BRANCH  94  95
ATOM     95  S   UNL     1       9.493   0.913  21.792  1.00  0.00     0.124 S 
ATOM     96  O   UNL     1       8.213   1.242  22.410  1.00  0.00    -0.237 OA
ATOM     97  O   UNL     1       9.873  -0.496  21.832  1.00  0.00    -0.237 OA
ATOM     98  O   UNL     1      10.577   1.855  22.052  1.00  0.00    -0.744 OA
ENDBRANCH  94  95
ENDBRANCH  62  87
ENDBRANCH  36  37
ENDBRANCH  28  31
ENDBRANCH  26  27
ENDBRANCH  25  26
ENDBRANCH   1  25
TORSDOF 19
