REMARK SMILES C=C(C)COc1ccc2nc(C)n(-c3cccc(C(=O)NCCCNC(=O)c4ccc(-c5c6nc(c(-c7c(F)cc(S(=O)(=O)[O-])cc7F)c7ccc([nH]7)c(-c7c(F)cc(S(=O)(=O)[O-])cc7F)c7nc(c(-c8c(F)cc(S(=O)(=O)[O-])cc8F)c8ccc5[nH]8)C=C7)C=C6)cc4)c3)c(=O)c2c1
REMARK SMILES IDX 22 1 21 2 19 3 20 4 18 6 14 7 15 8 94 9 16 10 17 11 13 12
REMARK SMILES IDX 6 13 7 14 98 15 8 16 97 17 9 18 95 19 10 20 96 21 11 22
REMARK SMILES IDX 12 23 5 24 4 25 2 26 1 27 3 28 23 29 24 30 25 31 26 32 27 34
REMARK SMILES IDX 28 35 29 36 93 37 30 38 92 39 31 40 32 41 33 42 86 43 34 44
REMARK SMILES IDX 91 45 85 46 87 47 35 48 90 49 84 50 83 51 36 53 70 54 49 55
REMARK SMILES IDX 69 56 50 57 53 58 68 59 88 60 51 61 52 62 67 64 89 65 54 66
REMARK SMILES IDX 37 67 38 68 47 69 39 70 40 71 46 72 48 73 41 74 42 75 43 76
REMARK SMILES IDX 44 77 45 78 71 79 72 80 81 81 73 82 74 83 80 84 82 85 75 86
REMARK SMILES IDX 76 87 77 88 78 89 79 90 55 91 56 92 65 93 57 94 58 95 64 96
REMARK SMILES IDX 66 97 59 98 60 99 61 100 62 101 63 102
REMARK H PARENT 21 5 25 33 87 52 53 63
REMARK Flexibility Score: inf
ROOT
ATOM      1  C   UNL     1      -0.730  -3.956   8.967  1.00  0.00     0.118 C 
ENDROOT
BRANCH   1   2
ATOM      2  N   UNL     1      -0.288  -4.792  10.082  1.00  0.00    -0.352 N 
ATOM      3  C   UNL     1       0.489  -5.926  10.166  1.00  0.00     0.251 C 
ATOM      4  O   UNL     1       0.682  -6.415  11.279  1.00  0.00    -0.269 OA
ATOM      5  H   UNL     1      -0.614  -4.478  10.957  1.00  0.00     0.163 HD
BRANCH   3   6
ATOM      6  C   UNL     1       1.043  -6.618   8.973  1.00  0.00     0.041 A 
ATOM      7  C   UNL     1       1.522  -6.651   6.596  1.00  0.00     0.051 A 
ATOM      8  C   UNL     1       1.719  -8.034   6.662  1.00  0.00     0.027 A 
ATOM      9  C   UNL     1       1.349  -5.946   7.793  1.00  0.00     0.040 A 
ATOM     10  C   UNL     1       1.595  -8.709   7.879  1.00  0.00     0.003 A 
ATOM     11  C   UNL     1       1.207  -8.008   9.021  1.00  0.00     0.014 A 
BRANCH   7  12
ATOM     12  N   UNL     1       1.295  -5.960   5.356  1.00  0.00    -0.264 N 
ATOM     13  C   UNL     1       1.502  -1.937   2.625  1.00  0.00     0.120 A 
ATOM     14  C   UNL     1       0.649  -2.563   1.717  1.00  0.00     0.049 A 
ATOM     15  C   UNL     1       1.946  -2.627   3.752  1.00  0.00     0.062 A 
ATOM     16  C   UNL     1       0.194  -3.857   1.962  1.00  0.00     0.033 A 
ATOM     17  C   UNL     1       1.487  -3.932   3.983  1.00  0.00     0.070 A 
ATOM     18  C   UNL     1       0.610  -4.546   3.098  1.00  0.00     0.078 A 
ATOM     19  C   UNL     1       1.889  -4.696   5.179  1.00  0.00     0.266 A 
ATOM     20  N   UNL     1       0.083  -5.812   3.327  1.00  0.00    -0.234 NA
ATOM     21  O   UNL     1       2.712  -4.184   5.939  1.00  0.00    -0.268 OA
ATOM     22  C   UNL     1       0.385  -6.437   4.419  1.00  0.00     0.113 A 
ATOM     23  C   UNL     1      -0.398  -7.717   4.644  1.00  0.00     0.088 C 
BRANCH  13  24
ATOM     24  O   UNL     1       1.990  -0.675   2.407  1.00  0.00    -0.489 OA
BRANCH  24  25
ATOM     25  C   UNL     1       0.957   0.328   2.410  1.00  0.00     0.260 C 
BRANCH  25  26
ATOM     26  C   UNL     1       0.356   0.561   1.040  1.00  0.00    -0.043 C 
ATOM     27  C   UNL     1       1.083   0.557  -0.092  1.00  0.00     0.011 C 
ATOM     28  C   UNL     1      -1.138   0.732   1.011  1.00  0.00     0.042 C 
ENDBRANCH  25  26
ENDBRANCH  24  25
ENDBRANCH  13  24
ENDBRANCH   7  12
ENDBRANCH   3   6
ENDBRANCH   1   2
BRANCH   1  29
ATOM     29  C   UNL     1      -2.232  -3.724   8.909  1.00  0.00     0.042 C 
BRANCH  29  30
ATOM     30  C   UNL     1      -2.820  -3.029  10.124  1.00  0.00     0.118 C 
BRANCH  30  31
ATOM     31  N   UNL     1      -2.407  -1.637  10.258  1.00  0.00    -0.352 N 
ATOM     32  C   UNL     1      -3.034  -0.454   9.931  1.00  0.00     0.251 C 
ATOM     33  H   UNL     1      -1.514  -1.521  10.656  1.00  0.00     0.163 HD
ATOM     34  O   UNL     1      -2.408   0.595  10.029  1.00  0.00    -0.269 OA
BRANCH  32  35
ATOM     35  C   UNL     1      -4.426  -0.433   9.419  1.00  0.00     0.039 A 
ATOM     36  C   UNL     1      -5.407  -1.278   9.928  1.00  0.00     0.014 A 
ATOM     37  C   UNL     1      -4.765   0.472   8.405  1.00  0.00     0.014 A 
ATOM     38  C   UNL     1      -6.632  -1.393   9.279  1.00  0.00     0.010 A 
ATOM     39  C   UNL     1      -6.044   0.445   7.834  1.00  0.00     0.010 A 
ATOM     40  C   UNL     1      -6.969  -0.536   8.219  1.00  0.00    -0.014 A 
BRANCH  40  41
ATOM     41  C   UNL     1      -8.280  -0.705   7.532  1.00  0.00     0.031 A 
ATOM     42  C   UNL     1      -8.344  -1.050   6.065  1.00  0.00     0.074 A 
ATOM     43  C   UNL     1      -9.419  -0.630   8.251  1.00  0.00     0.049 A 
ATOM     44  N   UNL     1      -9.395  -1.258   5.312  1.00  0.00    -0.248 NA
ATOM     45  C   UNL     1      -7.065  -1.172   5.346  1.00  0.00     0.031 C 
ATOM     46  C   UNL     1      -9.495  -0.316   9.680  1.00  0.00     0.029 A 
ATOM     47  N   UNL     1     -10.726  -0.848   7.893  1.00  0.00    -0.354 N 
ATOM     48  C   UNL     1      -8.909  -1.509   4.034  1.00  0.00     0.074 A 
ATOM     49  C   UNL     1      -7.468  -1.401   4.103  1.00  0.00     0.031 C 
ATOM     50  C   UNL     1     -10.765  -0.437  10.092  1.00  0.00     0.029 A 
ATOM     51  C   UNL     1     -11.607  -0.762   8.946  1.00  0.00     0.049 A 
ATOM     52  H   UNL     1     -11.007  -1.047   6.971  1.00  0.00     0.167 HD
ATOM     53  C   UNL     1      -9.597  -1.817   2.908  1.00  0.00     0.037 A 
ATOM     54  C   UNL     1     -12.945  -0.914   8.989  1.00  0.00     0.037 A 
ATOM     55  C   UNL     1     -11.029  -1.960   2.846  1.00  0.00     0.049 A 
ATOM     56  C   UNL     1     -13.687  -1.225   7.723  1.00  0.00     0.074 A 
ATOM     57  C   UNL     1     -11.815  -2.283   1.754  1.00  0.00     0.029 A 
ATOM     58  N   UNL     1     -11.889  -1.799   3.923  1.00  0.00    -0.354 N 
ATOM     59  N   UNL     1     -13.208  -1.437   6.520  1.00  0.00    -0.248 NA
ATOM     60  C   UNL     1     -15.152  -1.299   7.812  1.00  0.00     0.031 C 
ATOM     61  C   UNL     1     -13.153  -2.283   2.162  1.00  0.00     0.029 A 
ATOM     62  C   UNL     1     -13.198  -2.000   3.518  1.00  0.00     0.049 A 
ATOM     63  H   UNL     1     -11.609  -1.575   4.840  1.00  0.00     0.167 HD
ATOM     64  C   UNL     1     -14.312  -1.670   5.709  1.00  0.00     0.074 A 
ATOM     65  C   UNL     1     -15.481  -1.597   6.562  1.00  0.00     0.031 C 
ATOM     66  C   UNL     1     -14.352  -1.914   4.377  1.00  0.00     0.037 A 
BRANCH  53  67
ATOM     67  C   UNL     1      -8.812  -2.014   1.639  1.00  0.00     0.058 A 
ATOM     68  C   UNL     1      -8.035  -3.163   1.423  1.00  0.00     0.135 A 
ATOM     69  C   UNL     1      -8.871  -1.060   0.609  1.00  0.00     0.135 A 
ATOM     70  F   UNL     1      -7.930  -4.098   2.380  1.00  0.00    -0.206 F 
ATOM     71  C   UNL     1      -7.326  -3.349   0.240  1.00  0.00     0.059 A 
ATOM     72  C   UNL     1      -8.189  -1.237  -0.591  1.00  0.00     0.059 A 
ATOM     73  F   UNL     1      -9.599   0.057   0.764  1.00  0.00    -0.206 F 
ATOM     74  C   UNL     1      -7.408  -2.379  -0.761  1.00  0.00     0.060 A 
BRANCH  74  75
ATOM     75  S   UNL     1      -6.476  -2.633  -2.286  1.00  0.00     0.124 S 
ATOM     76  O   UNL     1      -5.108  -2.401  -1.832  1.00  0.00    -0.237 OA
ATOM     77  O   UNL     1      -6.804  -4.014  -2.626  1.00  0.00    -0.237 OA
ATOM     78  O   UNL     1      -7.017  -1.622  -3.189  1.00  0.00    -0.744 OA
ENDBRANCH  74  75
ENDBRANCH  53  67
BRANCH  54  79
ATOM     79  C   UNL     1     -13.659  -0.766  10.284  1.00  0.00     0.058 A 
ATOM     80  C   UNL     1     -14.211  -1.879  10.934  1.00  0.00     0.135 A 
ATOM     81  C   UNL     1     -13.758   0.481  10.921  1.00  0.00     0.135 A 
ATOM     82  F   UNL     1     -14.149  -3.090  10.361  1.00  0.00    -0.206 F 
ATOM     83  C   UNL     1     -14.833  -1.762  12.173  1.00  0.00     0.059 A 
ATOM     84  C   UNL     1     -14.352   0.619  12.170  1.00  0.00     0.059 A 
ATOM     85  F   UNL     1     -13.233   1.574  10.344  1.00  0.00    -0.206 F 
ATOM     86  C   UNL     1     -14.890  -0.509  12.787  1.00  0.00     0.060 A 
BRANCH  86  87
ATOM     87  S   UNL     1     -15.626  -0.383  14.432  1.00  0.00     0.124 S 
ATOM     88  O   UNL     1     -17.045  -0.528  14.130  1.00  0.00    -0.237 OA
ATOM     89  O   UNL     1     -15.004  -1.503  15.132  1.00  0.00    -0.237 OA
ATOM     90  O   UNL     1     -15.207   0.940  14.886  1.00  0.00    -0.744 OA
ENDBRANCH  86  87
ENDBRANCH  54  79
BRANCH  66  91
ATOM     91  C   UNL     1     -15.703  -2.121   3.755  1.00  0.00     0.058 A 
ATOM     92  C   UNL     1     -16.568  -1.043   3.516  1.00  0.00     0.135 A 
ATOM     93  C   UNL     1     -16.112  -3.399   3.341  1.00  0.00     0.135 A 
ATOM     94  F   UNL     1     -16.226   0.197   3.901  1.00  0.00    -0.206 F 
ATOM     95  C   UNL     1     -17.801  -1.226   2.899  1.00  0.00     0.059 A 
ATOM     96  C   UNL     1     -17.331  -3.602   2.703  1.00  0.00     0.059 A 
ATOM     97  F   UNL     1     -15.316  -4.461   3.541  1.00  0.00    -0.206 F 
ATOM     98  C   UNL     1     -18.172  -2.510   2.493  1.00  0.00     0.060 A 
BRANCH  98  99
ATOM     99  S   UNL     1     -19.757  -2.725   1.655  1.00  0.00     0.124 S 
ATOM    100  O   UNL     1     -20.697  -2.571   2.761  1.00  0.00    -0.237 OA
ATOM    101  O   UNL     1     -19.744  -1.641   0.678  1.00  0.00    -0.237 OA
ATOM    102  O   UNL     1     -19.663  -4.069   1.093  1.00  0.00    -0.744 OA
ENDBRANCH  98  99
ENDBRANCH  66  91
ENDBRANCH  40  41
ENDBRANCH  32  35
ENDBRANCH  30  31
ENDBRANCH  29  30
ENDBRANCH   1  29
TORSDOF 17
