REMARK SMILES CC(C)(Oc1ccc(Cl)cc1)C(=O)N1CCC[C@H](C(=O)NCCCNC(=O)c2ccc(-c3c4nc(c(-c5c(F)cc(S(=O)(=O)[O-])cc5F)c5ccc([nH]5)c(-c5c(F)cc(S(=O)(=O)[O-])cc5F)c5nc(c(-c6c(F)cc(S(=O)(=O)[O-])cc6F)c6ccc3[nH]6)C=C5)C=C4)cc2)C1
REMARK SMILES IDX 22 1 21 2 19 3 20 4 18 6 14 7 15 8 94 9 16 10 17 11 12 12
REMARK SMILES IDX 13 13 2 14 1 15 3 16 4 17 5 18 6 19 11 20 7 21 10 22 8 23
REMARK SMILES IDX 9 24 23 25 24 26 25 27 26 28 27 30 28 31 29 32 93 33 30 34
REMARK SMILES IDX 92 35 31 36 32 37 33 38 86 39 34 40 91 41 85 42 87 43 35 44
REMARK SMILES IDX 90 45 84 46 83 47 36 49 70 50 49 51 69 52 50 53 53 54 68 55
REMARK SMILES IDX 88 56 51 57 52 58 67 60 89 61 54 62 37 63 38 64 47 65 39 66
REMARK SMILES IDX 40 67 46 68 48 69 41 70 42 71 43 72 44 73 45 74 71 75 72 76
REMARK SMILES IDX 81 77 73 78 74 79 80 80 82 81 75 82 76 83 77 84 78 85 79 86
REMARK SMILES IDX 55 87 56 88 65 89 57 90 58 91 64 92 66 93 59 94 60 95 61 96
REMARK SMILES IDX 62 97 63 98
REMARK H PARENT 21 5 25 29 87 48 53 59
REMARK Flexibility Score: inf
ROOT
ATOM      1  C   UNL     1       0.778   4.178   2.247  1.00  0.00     0.117 C 
ENDROOT
BRANCH   1   2
ATOM      2  N   UNL     1      -0.618   4.431   2.507  1.00  0.00    -0.356 N 
ATOM      3  C   UNL     1      -1.639   4.710   1.657  1.00  0.00     0.224 C 
ATOM      4  O   UNL     1      -2.777   4.680   2.143  1.00  0.00    -0.275 OA
ATOM      5  H   UNL     1      -0.873   4.394   3.457  1.00  0.00     0.163 HD
BRANCH   3   6
ATOM      6  C   UNL     1      -1.472   5.059   0.170  1.00  0.00     0.098 C 
ATOM      7  N   UNL     1       0.356   3.753  -0.950  1.00  0.00    -0.338 N 
ATOM      8  C   UNL     1       1.060   4.978  -1.346  1.00  0.00     0.119 C 
ATOM      9  C   UNL     1      -1.080   3.886  -0.734  1.00  0.00     0.133 C 
ATOM     10  C   UNL     1       0.739   6.205  -0.494  1.00  0.00     0.022 C 
ATOM     11  C   UNL     1      -0.730   6.359  -0.128  1.00  0.00     0.017 C 
BRANCH   7  12
ATOM     12  C   UNL     1       1.102   2.598  -0.690  1.00  0.00     0.266 C 
ATOM     13  O   UNL     1       2.289   2.714  -0.355  1.00  0.00    -0.270 OA
BRANCH  12  14
ATOM     14  C   UNL     1       0.523   1.167  -1.024  1.00  0.00     0.181 C 
ATOM     15  C   UNL     1       1.336   0.131  -0.219  1.00  0.00     0.067 C 
ATOM     16  C   UNL     1       0.813   1.023  -2.531  1.00  0.00     0.067 C 
BRANCH  14  17
ATOM     17  O   UNL     1      -0.860   1.010  -0.677  1.00  0.00    -0.478 OA
BRANCH  17  18
ATOM     18  C   UNL     1      -1.623   0.115  -1.369  1.00  0.00     0.121 A 
ATOM     19  C   UNL     1      -1.451  -1.264  -1.261  1.00  0.00     0.048 A 
ATOM     20  C   UNL     1      -2.687   0.624  -2.117  1.00  0.00     0.048 A 
ATOM     21  C   UNL     1      -2.292  -2.132  -1.964  1.00  0.00     0.024 A 
ATOM     22  C   UNL     1      -3.537  -0.241  -2.811  1.00  0.00     0.024 A 
ATOM     23  C   UNL     1      -3.328  -1.617  -2.740  1.00  0.00     0.041 A 
ATOM     24  Cl  UNL     1      -4.367  -2.687  -3.598  1.00  0.00    -0.084 Cl
ENDBRANCH  17  18
ENDBRANCH  14  17
ENDBRANCH  12  14
ENDBRANCH   7  12
ENDBRANCH   3   6
ENDBRANCH   1   2
BRANCH   1  25
ATOM     25  C   UNL     1       1.715   5.230   2.804  1.00  0.00     0.042 C 
BRANCH  25  26
ATOM     26  C   UNL     1       2.309   4.842   4.138  1.00  0.00     0.118 C 
BRANCH  26  27
ATOM     27  N   UNL     1       3.202   3.691   4.044  1.00  0.00    -0.352 N 
ATOM     28  C   UNL     1       4.497   3.534   4.476  1.00  0.00     0.251 C 
ATOM     29  H   UNL     1       2.815   2.901   3.601  1.00  0.00     0.163 HD
ATOM     30  O   UNL     1       5.112   2.510   4.185  1.00  0.00    -0.269 OA
BRANCH  28  31
ATOM     31  C   UNL     1       5.157   4.599   5.259  1.00  0.00     0.039 A 
ATOM     32  C   UNL     1       6.518   4.847   5.063  1.00  0.00     0.014 A 
ATOM     33  C   UNL     1       4.438   5.358   6.183  1.00  0.00     0.014 A 
ATOM     34  C   UNL     1       7.139   5.879   5.768  1.00  0.00     0.010 A 
ATOM     35  C   UNL     1       5.016   6.476   6.761  1.00  0.00     0.010 A 
ATOM     36  C   UNL     1       6.386   6.716   6.607  1.00  0.00    -0.014 A 
BRANCH  36  37
ATOM     37  C   UNL     1       7.018   7.788   7.412  1.00  0.00     0.031 A 
ATOM     38  C   UNL     1       6.907   7.745   8.916  1.00  0.00     0.074 A 
ATOM     39  C   UNL     1       7.628   8.819   6.800  1.00  0.00     0.049 A 
ATOM     40  N   UNL     1       7.332   8.607   9.803  1.00  0.00    -0.248 NA
ATOM     41  C   UNL     1       6.173   6.608   9.498  1.00  0.00     0.031 C 
ATOM     42  C   UNL     1       7.727   9.006   5.350  1.00  0.00     0.029 A 
ATOM     43  N   UNL     1       8.277   9.908   7.321  1.00  0.00    -0.354 N 
ATOM     44  C   UNL     1       6.889   8.131  11.032  1.00  0.00     0.074 A 
ATOM     45  C   UNL     1       6.089   6.958  10.770  1.00  0.00     0.031 C 
ATOM     46  C   UNL     1       8.428  10.123   5.099  1.00  0.00     0.029 A 
ATOM     47  C   UNL     1       8.798  10.747   6.366  1.00  0.00     0.049 A 
ATOM     48  H   UNL     1       8.361  10.073   8.287  1.00  0.00     0.167 HD
ATOM     49  C   UNL     1       7.157   8.603  12.273  1.00  0.00     0.037 A 
ATOM     50  C   UNL     1       9.501  11.888   6.500  1.00  0.00     0.037 A 
ATOM     51  C   UNL     1       7.993   9.746  12.518  1.00  0.00     0.049 A 
ATOM     52  C   UNL     1       9.842  12.367   7.884  1.00  0.00     0.074 A 
ATOM     53  C   UNL     1       8.398  10.276  13.729  1.00  0.00     0.029 A 
ATOM     54  N   UNL     1       8.556  10.537  11.525  1.00  0.00    -0.354 N 
ATOM     55  N   UNL     1       9.482  11.865   9.043  1.00  0.00    -0.248 NA
ATOM     56  C   UNL     1      10.705  13.550   7.982  1.00  0.00     0.031 C 
ATOM     57  C   UNL     1       9.167  11.415  13.468  1.00  0.00     0.029 A 
ATOM     58  C   UNL     1       9.293  11.560  12.094  1.00  0.00     0.049 A 
ATOM     59  H   UNL     1       8.446  10.391  10.557  1.00  0.00     0.167 HD
ATOM     60  C   UNL     1      10.098  12.652  10.009  1.00  0.00     0.074 A 
ATOM     61  C   UNL     1      10.861  13.658   9.294  1.00  0.00     0.031 C 
ATOM     62  C   UNL     1      10.045  12.550  11.361  1.00  0.00     0.037 A 
BRANCH  49  63
ATOM     63  C   UNL     1       6.532   7.878  13.438  1.00  0.00     0.058 A 
ATOM     64  C   UNL     1       6.875   6.553  13.763  1.00  0.00     0.135 A 
ATOM     65  C   UNL     1       5.552   8.505  14.223  1.00  0.00     0.135 A 
ATOM     66  F   UNL     1       7.795   5.895  13.040  1.00  0.00    -0.206 F 
ATOM     67  C   UNL     1       6.225   5.859  14.778  1.00  0.00     0.059 A 
ATOM     68  C   UNL     1       4.915   7.842  15.269  1.00  0.00     0.059 A 
ATOM     69  F   UNL     1       5.184   9.770  13.964  1.00  0.00    -0.206 F 
ATOM     70  C   UNL     1       5.239   6.510  15.520  1.00  0.00     0.060 A 
BRANCH  70  71
ATOM     71  S   UNL     1       4.376   5.585  16.807  1.00  0.00     0.124 S 
ATOM     72  O   UNL     1       3.510   4.719  16.012  1.00  0.00    -0.237 OA
ATOM     73  O   UNL     1       5.473   4.917  17.502  1.00  0.00    -0.237 OA
ATOM     74  O   UNL     1       3.694   6.623  17.572  1.00  0.00    -0.744 OA
ENDBRANCH  70  71
ENDBRANCH  49  63
BRANCH  50  75
ATOM     75  C   UNL     1       9.968  12.605   5.285  1.00  0.00     0.058 A 
ATOM     76  C   UNL     1      11.317  12.578   4.901  1.00  0.00     0.135 A 
ATOM     77  C   UNL     1       9.062  13.269   4.442  1.00  0.00     0.135 A 
ATOM     78  F   UNL     1      12.221  11.958   5.674  1.00  0.00    -0.206 F 
ATOM     79  C   UNL     1      11.753  13.182   3.726  1.00  0.00     0.059 A 
ATOM     80  C   UNL     1       9.470  13.860   3.250  1.00  0.00     0.059 A 
ATOM     81  F   UNL     1       7.758  13.306   4.754  1.00  0.00    -0.206 F 
ATOM     82  C   UNL     1      10.819  13.812   2.901  1.00  0.00     0.060 A 
BRANCH  82  83
ATOM     83  S   UNL     1      11.382  14.511   1.333  1.00  0.00     0.124 S 
ATOM     84  O   UNL     1      12.135  15.676   1.783  1.00  0.00    -0.237 OA
ATOM     85  O   UNL     1      12.171  13.416   0.777  1.00  0.00    -0.237 OA
ATOM     86  O   UNL     1      10.137  14.797   0.627  1.00  0.00    -0.744 OA
ENDBRANCH  82  83
ENDBRANCH  50  75
BRANCH  62  87
ATOM     87  C   UNL     1      10.871  13.523  12.157  1.00  0.00     0.058 A 
ATOM     88  C   UNL     1      10.540  14.884  12.244  1.00  0.00     0.135 A 
ATOM     89  C   UNL     1      11.993  13.072  12.872  1.00  0.00     0.135 A 
ATOM     90  F   UNL     1       9.478  15.366  11.580  1.00  0.00    -0.206 F 
ATOM     91  C   UNL     1      11.318  15.773  12.979  1.00  0.00     0.059 A 
ATOM     92  C   UNL     1      12.765  13.937  13.640  1.00  0.00     0.059 A 
ATOM     93  F   UNL     1      12.343  11.777  12.837  1.00  0.00    -0.206 F 
ATOM     94  C   UNL     1      12.430  15.290  13.671  1.00  0.00     0.060 A 
BRANCH  94  95
ATOM     95  S   UNL     1      13.430  16.451  14.623  1.00  0.00     0.124 S 
ATOM     96  O   UNL     1      14.140  17.162  13.564  1.00  0.00    -0.237 OA
ATOM     97  O   UNL     1      12.418  17.223  15.337  1.00  0.00    -0.237 OA
ATOM     98  O   UNL     1      14.255  15.585  15.459  1.00  0.00    -0.744 OA
ENDBRANCH  94  95
ENDBRANCH  62  87
ENDBRANCH  36  37
ENDBRANCH  28  31
ENDBRANCH  26  27
ENDBRANCH  25  26
ENDBRANCH   1  25
TORSDOF 17
