REMARK SMILES O=C(CCc1cc2n(n1)CCCN(S(=O)(=O)CCC(F)(F)F)C2)NCCCNC(=O)c1ccc(-c2c3nc(c(-c4c(F)cc(S(=O)(=O)[O-])cc4F)c4ccc([nH]4)c(-c4c(F)cc(S(=O)(=O)[O-])cc4F)c4nc(c(-c5c(F)cc(S(=O)(=O)[O-])cc5F)c5ccc2[nH]5)C=C4)C=C3)cc1
REMARK SMILES IDX 1 1 2 2 24 3 3 5 4 6 5 7 6 8 9 9 7 10 8 11 23 12 13 13 12 14
REMARK SMILES IDX 14 16 15 17 16 18 17 19 18 20 19 21 20 22 21 23 22 24 10 25
REMARK SMILES IDX 11 26 25 28 26 29 27 30 28 31 29 32 30 34 31 35 32 36 96 37
REMARK SMILES IDX 33 38 95 39 34 40 35 41 36 42 89 43 37 44 94 45 88 46 90 47
REMARK SMILES IDX 38 48 93 49 87 50 86 51 39 53 73 54 52 55 72 56 53 57 56 58
REMARK SMILES IDX 71 59 91 60 54 61 55 62 70 64 92 65 57 66 40 67 41 68 50 69
REMARK SMILES IDX 42 70 43 71 49 72 51 73 44 74 45 75 46 76 47 77 48 78 74 79
REMARK SMILES IDX 75 80 84 81 76 82 77 83 83 84 85 85 78 86 79 87 80 88 81 89
REMARK SMILES IDX 82 90 58 91 59 92 68 93 60 94 61 95 67 96 69 97 62 98 63 99
REMARK SMILES IDX 64 100 65 101 66 102
REMARK H PARENT 24 4 28 33 90 52 56 63
REMARK Flexibility Score: 90.00
ROOT
ATOM      1  O   UNL     1       0.696  -0.676  -0.030  1.00  0.00    -0.275 OA
ATOM      2  C   UNL     1       1.871  -0.314  -0.034  1.00  0.00     0.220 C 
ATOM      3  N   UNL     1       2.371   0.621  -0.912  1.00  0.00    -0.356 N 
ATOM      4  H   UNL     1       3.286   0.951  -0.757  1.00  0.00     0.163 HD
ENDROOT
BRANCH   2   5
ATOM      5  C   UNL     1       2.891  -0.882   0.954  1.00  0.00     0.106 C 
BRANCH   5   6
ATOM      6  C   UNL     1       3.783  -1.989   0.359  1.00  0.00     0.068 C 
BRANCH   6   7
ATOM      7  C   UNL     1       4.878  -1.516  -0.552  1.00  0.00     0.063 A 
ATOM      8  C   UNL     1       5.968  -2.223  -1.129  1.00  0.00     0.050 A 
ATOM      9  N   UNL     1       4.877  -0.254  -0.970  1.00  0.00    -0.178 NA
ATOM     10  C   UNL     1       6.602  -1.329  -1.986  1.00  0.00     0.054 A 
ATOM     11  N   UNL     1       5.864  -0.186  -1.868  1.00  0.00    -0.268 N 
BRANCH  10  12
ATOM     12  C   UNL     1       7.767  -1.514  -2.936  1.00  0.00     0.157 C 
BRANCH  12  13
ATOM     13  N   UNL     1       8.821  -0.451  -2.926  1.00  0.00    -0.196 NA
BRANCH  13  14
ATOM     14  C   UNL     1       8.490   0.735  -2.163  1.00  0.00     0.104 CG0
ATOM     15  G   UNL     1       7.403   1.489  -2.883  1.00  0.00     0.000 G0
ENDBRANCH  13  14
BRANCH  13  16
ATOM     16  S   UNL     1      10.411  -0.998  -2.798  1.00  0.00     0.214 S 
ATOM     17  O   UNL     1      10.553  -1.473  -1.440  1.00  0.00    -0.212 OA
ATOM     18  O   UNL     1      10.630  -1.899  -3.913  1.00  0.00    -0.212 OA
BRANCH  16  19
ATOM     19  C   UNL     1      11.509   0.428  -2.994  1.00  0.00     0.163 C 
BRANCH  19  20
ATOM     20  C   UNL     1      11.630   1.024  -4.388  1.00  0.00     0.133 C 
BRANCH  20  21
ATOM     21  C   UNL     1      10.421   1.773  -4.881  1.00  0.00     0.390 C 
ATOM     22  F   UNL     1       9.990   2.679  -3.978  1.00  0.00    -0.171 F 
ATOM     23  F   UNL     1      10.706   2.449  -6.018  1.00  0.00    -0.171 F 
ATOM     24  F   UNL     1       9.399   0.947  -5.171  1.00  0.00    -0.171 F 
ENDBRANCH  20  21
ENDBRANCH  19  20
ENDBRANCH  16  19
ENDBRANCH  13  16
ENDBRANCH  12  13
ENDBRANCH  10  12
BRANCH  11  25
ATOM     25  C   UNL     1       6.006   1.084  -2.522  1.00  0.00     0.146 C 
BRANCH  25  26
ATOM     26  C   UNL     1       7.403   1.489  -2.883  1.00  0.00     0.040 CG0
ATOM     27  G   UNL     1       8.490   0.735  -2.163  1.00  0.00     0.000 G0
ENDBRANCH  25  26
ENDBRANCH  11  25
ENDBRANCH   6   7
ENDBRANCH   5   6
ENDBRANCH   2   5
BRANCH   3  28
ATOM     28  C   UNL     1       1.643   1.153  -2.050  1.00  0.00     0.117 C 
BRANCH  28  29
ATOM     29  C   UNL     1       1.599   2.679  -2.114  1.00  0.00     0.042 C 
BRANCH  29  30
ATOM     30  C   UNL     1       2.949   3.371  -2.248  1.00  0.00     0.118 C 
BRANCH  30  31
ATOM     31  N   UNL     1       3.542   3.460  -3.576  1.00  0.00    -0.352 N 
ATOM     32  C   UNL     1       4.722   4.067  -3.997  1.00  0.00     0.251 C 
ATOM     33  H   UNL     1       3.025   3.021  -4.290  1.00  0.00     0.163 HD
ATOM     34  O   UNL     1       4.954   4.085  -5.205  1.00  0.00    -0.269 OA
BRANCH  32  35
ATOM     35  C   UNL     1       5.771   4.568  -3.044  1.00  0.00     0.039 A 
ATOM     36  C   UNL     1       7.081   4.823  -3.504  1.00  0.00     0.014 A 
ATOM     37  C   UNL     1       5.556   4.611  -1.675  1.00  0.00     0.014 A 
ATOM     38  C   UNL     1       8.149   4.957  -2.590  1.00  0.00     0.010 A 
ATOM     39  C   UNL     1       6.609   4.567  -0.787  1.00  0.00     0.010 A 
ATOM     40  C   UNL     1       7.916   4.739  -1.228  1.00  0.00    -0.014 A 
BRANCH  40  41
ATOM     41  C   UNL     1       8.893   4.984  -0.158  1.00  0.00     0.031 A 
ATOM     42  C   UNL     1       8.843   6.399   0.267  1.00  0.00     0.074 A 
ATOM     43  C   UNL     1       9.447   4.052   0.649  1.00  0.00     0.049 A 
ATOM     44  N   UNL     1       9.603   7.365  -0.132  1.00  0.00    -0.248 NA
ATOM     45  C   UNL     1       7.648   6.850   1.010  1.00  0.00     0.031 C 
ATOM     46  C   UNL     1       9.249   2.618   0.558  1.00  0.00     0.029 A 
ATOM     47  N   UNL     1      10.225   4.161   1.769  1.00  0.00    -0.354 N 
ATOM     48  C   UNL     1       9.142   8.454   0.596  1.00  0.00     0.074 A 
ATOM     49  C   UNL     1       7.769   8.173   0.900  1.00  0.00     0.031 C 
ATOM     50  C   UNL     1       9.747   1.981   1.636  1.00  0.00     0.029 A 
ATOM     51  C   UNL     1      10.398   2.964   2.476  1.00  0.00     0.049 A 
ATOM     52  H   UNL     1      10.629   5.012   2.056  1.00  0.00     0.167 HD
ATOM     53  C   UNL     1      10.007   9.207   1.331  1.00  0.00     0.037 A 
ATOM     54  C   UNL     1      11.045   2.765   3.653  1.00  0.00     0.037 A 
ATOM     55  C   UNL     1      11.372   8.865   1.014  1.00  0.00     0.049 A 
ATOM     56  C   UNL     1      12.008   3.879   3.796  1.00  0.00     0.074 A 
ATOM     57  C   UNL     1      12.217   9.024  -0.063  1.00  0.00     0.029 A 
ATOM     58  N   UNL     1      11.897   7.871   1.801  1.00  0.00    -0.354 N 
ATOM     59  N   UNL     1      13.017   4.051   2.985  1.00  0.00    -0.248 NA
ATOM     60  C   UNL     1      11.646   5.043   4.599  1.00  0.00     0.031 C 
ATOM     61  C   UNL     1      13.202   8.000   0.041  1.00  0.00     0.029 A 
ATOM     62  C   UNL     1      12.963   7.260   1.195  1.00  0.00     0.049 A 
ATOM     63  H   UNL     1      11.551   7.628   2.691  1.00  0.00     0.167 HD
ATOM     64  C   UNL     1      13.105   5.421   2.848  1.00  0.00     0.074 A 
ATOM     65  C   UNL     1      12.375   5.976   3.980  1.00  0.00     0.031 C 
ATOM     66  C   UNL     1      13.454   5.979   1.655  1.00  0.00     0.037 A 
BRANCH  53  67
ATOM     67  C   UNL     1       9.668   9.880   2.647  1.00  0.00     0.058 A 
ATOM     68  C   UNL     1      10.554  10.852   3.148  1.00  0.00     0.135 A 
ATOM     69  C   UNL     1       8.662   9.459   3.551  1.00  0.00     0.135 A 
ATOM     70  F   UNL     1      11.561  11.309   2.386  1.00  0.00    -0.206 F 
ATOM     71  C   UNL     1      10.473  11.338   4.454  1.00  0.00     0.059 A 
ATOM     72  C   UNL     1       8.523   9.976   4.831  1.00  0.00     0.059 A 
ATOM     73  F   UNL     1       7.819   8.455   3.291  1.00  0.00    -0.206 F 
ATOM     74  C   UNL     1       9.454  10.888   5.289  1.00  0.00     0.060 A 
BRANCH  74  75
ATOM     75  S   UNL     1       9.377  11.454   6.994  1.00  0.00     0.124 S 
ATOM     76  O   UNL     1      10.546  10.798   7.569  1.00  0.00    -0.237 OA
ATOM     77  O   UNL     1       9.463  12.901   6.835  1.00  0.00    -0.237 OA
ATOM     78  O   UNL     1       8.083  10.955   7.453  1.00  0.00    -0.744 OA
ENDBRANCH  74  75
ENDBRANCH  53  67
BRANCH  54  79
ATOM     79  C   UNL     1      10.812   1.766   4.731  1.00  0.00     0.058 A 
ATOM     80  C   UNL     1      11.785   1.504   5.713  1.00  0.00     0.135 A 
ATOM     81  C   UNL     1       9.519   1.268   4.994  1.00  0.00     0.135 A 
ATOM     82  F   UNL     1      13.044   1.936   5.548  1.00  0.00    -0.206 F 
ATOM     83  C   UNL     1      11.479   0.862   6.919  1.00  0.00     0.059 A 
ATOM     84  C   UNL     1       9.191   0.620   6.187  1.00  0.00     0.059 A 
ATOM     85  F   UNL     1       8.513   1.488   4.134  1.00  0.00    -0.206 F 
ATOM     86  C   UNL     1      10.169   0.453   7.162  1.00  0.00     0.060 A 
BRANCH  86  87
ATOM     87  S   UNL     1       9.724  -0.156   8.809  1.00  0.00     0.124 S 
ATOM     88  O   UNL     1      10.388  -1.454   8.844  1.00  0.00    -0.237 OA
ATOM     89  O   UNL     1      10.287   0.871   9.679  1.00  0.00    -0.237 OA
ATOM     90  O   UNL     1       8.264  -0.201   8.769  1.00  0.00    -0.744 OA
ENDBRANCH  86  87
ENDBRANCH  54  79
BRANCH  66  91
ATOM     91  C   UNL     1      14.298   5.156   0.728  1.00  0.00     0.058 A 
ATOM     92  C   UNL     1      13.856   4.036   0.004  1.00  0.00     0.135 A 
ATOM     93  C   UNL     1      15.617   5.584   0.514  1.00  0.00     0.135 A 
ATOM     94  F   UNL     1      12.590   3.605   0.097  1.00  0.00    -0.206 F 
ATOM     95  C   UNL     1      14.701   3.360  -0.877  1.00  0.00     0.059 A 
ATOM     96  C   UNL     1      16.466   4.944  -0.380  1.00  0.00     0.059 A 
ATOM     97  F   UNL     1      16.080   6.672   1.151  1.00  0.00    -0.206 F 
ATOM     98  C   UNL     1      16.004   3.824  -1.066  1.00  0.00     0.060 A 
BRANCH  98  99
ATOM     99  S   UNL     1      17.060   3.005  -2.279  1.00  0.00     0.124 S 
ATOM    100  O   UNL     1      17.404   1.763  -1.595  1.00  0.00    -0.237 OA
ATOM    101  O   UNL     1      16.167   2.866  -3.427  1.00  0.00    -0.237 OA
ATOM    102  O   UNL     1      18.161   3.946  -2.464  1.00  0.00    -0.744 OA
ENDBRANCH  98  99
ENDBRANCH  66  91
ENDBRANCH  40  41
ENDBRANCH  32  35
ENDBRANCH  30  31
ENDBRANCH  29  30
ENDBRANCH  28  29
ENDBRANCH   3  28
TORSDOF 19
