REMARK SMILES O=C(NCCCNC(=O)[C@@H]1[C@H](C(=O)Nc2ccccc2OC(F)F)[C@@H]2C=C[C@H]1C2)c1ccc(-c2c3nc(c(-c4c(F)cc(S(=O)(=O)[O-])cc4F)c4ccc([nH]4)c(-c4c(F)cc(S(=O)(=O)[O-])cc4F)c4nc(c(-c5c(F)cc(S(=O)(=O)[O-])cc5F)c5ccc2[nH]5)C=C4)C=C3)cc1
REMARK SMILES IDX 5 1 4 2 3 3 1 4 2 5 30 7 31 8 95 9 32 10 94 11 33 12 34 13
REMARK SMILES IDX 35 14 88 15 36 16 93 17 87 18 89 19 37 20 92 21 86 22 85 23
REMARK SMILES IDX 38 25 72 26 51 27 71 28 52 29 55 30 70 31 90 32 53 33 54 34
REMARK SMILES IDX 69 36 91 37 56 38 39 39 40 40 49 41 41 42 42 43 48 44 50 45
REMARK SMILES IDX 43 46 44 47 45 48 46 49 47 50 73 51 74 52 83 53 75 54 76 55
REMARK SMILES IDX 82 56 84 57 77 58 78 59 79 60 80 61 81 62 57 63 58 64 67 65
REMARK SMILES IDX 59 66 60 67 66 68 68 69 61 70 62 71 63 72 64 73 65 74 6 75
REMARK SMILES IDX 7 76 8 77 9 79 10 80 11 81 28 82 25 83 27 84 29 85 26 86
REMARK SMILES IDX 12 87 13 88 14 89 15 91 16 92 20 93 17 94 19 95 18 96 21 97
REMARK SMILES IDX 22 98 23 99 24 100
REMARK H PARENT 3 6 89 24 55 35 7 78 14 90
REMARK Flexibility Score: inf
ROOT
ATOM      1  C   UNL     1       4.932  -1.922   1.277  1.00  0.00     0.042 C 
ENDROOT
BRANCH   1   2
ATOM      2  C   UNL     1       4.600  -1.159  -0.002  1.00  0.00     0.118 C 
BRANCH   2   3
ATOM      3  N   UNL     1       3.170  -0.994  -0.213  1.00  0.00    -0.352 N 
ATOM      4  O   UNL     1       1.172   0.051  -0.158  1.00  0.00    -0.269 OA
ATOM      5  C   UNL     1       2.395   0.137  -0.090  1.00  0.00     0.251 C 
ATOM      6  H   UNL     1       2.687  -1.808  -0.484  1.00  0.00     0.163 HD
BRANCH   5   7
ATOM      7  C   UNL     1       3.041   1.444   0.159  1.00  0.00     0.039 A 
ATOM      8  C   UNL     1       4.139   1.846  -0.602  1.00  0.00     0.014 A 
ATOM      9  C   UNL     1       2.558   2.264   1.181  1.00  0.00     0.014 A 
ATOM     10  C   UNL     1       4.863   2.970  -0.224  1.00  0.00     0.010 A 
ATOM     11  C   UNL     1       3.227   3.452   1.491  1.00  0.00     0.010 A 
ATOM     12  C   UNL     1       4.411   3.794   0.820  1.00  0.00    -0.014 A 
BRANCH  12  13
ATOM     13  C   UNL     1       5.170   5.029   1.152  1.00  0.00     0.031 A 
ATOM     14  C   UNL     1       5.809   5.217   2.502  1.00  0.00     0.074 A 
ATOM     15  C   UNL     1       5.309   5.975   0.202  1.00  0.00     0.049 A 
ATOM     16  N   UNL     1       6.515   6.226   2.945  1.00  0.00    -0.248 NA
ATOM     17  C   UNL     1       5.625   4.139   3.486  1.00  0.00     0.031 C 
ATOM     18  C   UNL     1       4.730   5.905  -1.143  1.00  0.00     0.029 A 
ATOM     19  N   UNL     1       5.993   7.162   0.205  1.00  0.00    -0.354 N 
ATOM     20  C   UNL     1       6.837   5.922   4.263  1.00  0.00     0.074 A 
ATOM     21  C   UNL     1       6.228   4.641   4.555  1.00  0.00     0.031 C 
ATOM     22  C   UNL     1       5.133   6.968  -1.852  1.00  0.00     0.029 A 
ATOM     23  C   UNL     1       5.935   7.832  -0.994  1.00  0.00     0.049 A 
ATOM     24  H   UNL     1       6.480   7.503   0.990  1.00  0.00     0.167 HD
ATOM     25  C   UNL     1       7.574   6.642   5.145  1.00  0.00     0.037 A 
ATOM     26  C   UNL     1       6.452   9.019  -1.363  1.00  0.00     0.037 A 
ATOM     27  C   UNL     1       8.187   7.910   4.836  1.00  0.00     0.049 A 
ATOM     28  C   UNL     1       7.247   9.806  -0.364  1.00  0.00     0.074 A 
ATOM     29  C   UNL     1       8.980   8.704   5.647  1.00  0.00     0.029 A 
ATOM     30  N   UNL     1       8.073   8.574   3.622  1.00  0.00    -0.354 N 
ATOM     31  N   UNL     1       7.555   9.493   0.872  1.00  0.00    -0.248 NA
ATOM     32  C   UNL     1       7.759  11.109  -0.806  1.00  0.00     0.031 C 
ATOM     33  C   UNL     1       9.305   9.868   4.941  1.00  0.00     0.029 A 
ATOM     34  C   UNL     1       8.759   9.777   3.670  1.00  0.00     0.049 A 
ATOM     35  H   UNL     1       7.576   8.239   2.841  1.00  0.00     0.167 HD
ATOM     36  C   UNL     1       8.310  10.555   1.354  1.00  0.00     0.074 A 
ATOM     37  C   UNL     1       8.425  11.510   0.269  1.00  0.00     0.031 C 
ATOM     38  C   UNL     1       8.860  10.721   2.583  1.00  0.00     0.037 A 
BRANCH  25  39
ATOM     39  C   UNL     1       7.728   6.091   6.539  1.00  0.00     0.058 A 
ATOM     40  C   UNL     1       8.508   4.955   6.810  1.00  0.00     0.135 A 
ATOM     41  C   UNL     1       7.094   6.719   7.625  1.00  0.00     0.135 A 
ATOM     42  F   UNL     1       9.129   4.308   5.811  1.00  0.00    -0.206 F 
ATOM     43  C   UNL     1       8.618   4.436   8.097  1.00  0.00     0.059 A 
ATOM     44  C   UNL     1       7.213   6.233   8.925  1.00  0.00     0.059 A 
ATOM     45  F   UNL     1       6.341   7.812   7.428  1.00  0.00    -0.206 F 
ATOM     46  C   UNL     1       7.959   5.077   9.147  1.00  0.00     0.060 A 
BRANCH  46  47
ATOM     47  S   UNL     1       8.078   4.371  10.805  1.00  0.00     0.124 S 
ATOM     48  O   UNL     1       7.205   3.207  10.686  1.00  0.00    -0.237 OA
ATOM     49  O   UNL     1       9.504   4.083  10.921  1.00  0.00    -0.237 OA
ATOM     50  O   UNL     1       7.585   5.440  11.667  1.00  0.00    -0.744 OA
ENDBRANCH  46  47
ENDBRANCH  25  39
BRANCH  26  51
ATOM     51  C   UNL     1       6.229   9.513  -2.746  1.00  0.00     0.058 A 
ATOM     52  C   UNL     1       7.275   9.546  -3.678  1.00  0.00     0.135 A 
ATOM     53  C   UNL     1       4.950   9.896  -3.182  1.00  0.00     0.135 A 
ATOM     54  F   UNL     1       8.515   9.194  -3.306  1.00  0.00    -0.206 F 
ATOM     55  C   UNL     1       7.063   9.938  -4.995  1.00  0.00     0.059 A 
ATOM     56  C   UNL     1       4.708  10.265  -4.500  1.00  0.00     0.059 A 
ATOM     57  F   UNL     1       3.912   9.863  -2.332  1.00  0.00    -0.206 F 
ATOM     58  C   UNL     1       5.773  10.286  -5.399  1.00  0.00     0.060 A 
BRANCH  58  59
ATOM     59  S   UNL     1       5.492  10.709  -7.132  1.00  0.00     0.124 S 
ATOM     60  O   UNL     1       6.094  12.035  -7.212  1.00  0.00    -0.237 OA
ATOM     61  O   UNL     1       6.204   9.641  -7.827  1.00  0.00    -0.237 OA
ATOM     62  O   UNL     1       4.038  10.666  -7.256  1.00  0.00    -0.744 OA
ENDBRANCH  58  59
ENDBRANCH  26  51
BRANCH  38  63
ATOM     63  C   UNL     1       9.659  11.973   2.809  1.00  0.00     0.058 A 
ATOM     64  C   UNL     1       9.043  13.227   2.947  1.00  0.00     0.135 A 
ATOM     65  C   UNL     1      11.057  11.912   2.923  1.00  0.00     0.135 A 
ATOM     66  F   UNL     1       7.710  13.341   2.837  1.00  0.00    -0.206 F 
ATOM     67  C   UNL     1       9.788  14.382   3.164  1.00  0.00     0.059 A 
ATOM     68  C   UNL     1      11.820  13.050   3.166  1.00  0.00     0.059 A 
ATOM     69  F   UNL     1      11.694  10.736   2.807  1.00  0.00    -0.206 F 
ATOM     70  C   UNL     1      11.177  14.282   3.273  1.00  0.00     0.060 A 
BRANCH  70  71
ATOM     71  S   UNL     1      12.132  15.783   3.581  1.00  0.00     0.124 S 
ATOM     72  O   UNL     1      12.095  16.428   2.273  1.00  0.00    -0.237 OA
ATOM     73  O   UNL     1      11.358  16.436   4.633  1.00  0.00    -0.237 OA
ATOM     74  O   UNL     1      13.436  15.275   3.996  1.00  0.00    -0.744 OA
ENDBRANCH  70  71
ENDBRANCH  38  63
ENDBRANCH  12  13
ENDBRANCH   5   7
ENDBRANCH   2   3
ENDBRANCH   1   2
BRANCH   1  75
ATOM     75  C   UNL     1       4.675  -3.426   1.198  1.00  0.00     0.117 C 
BRANCH  75  76
ATOM     76  N   UNL     1       5.526  -4.028   0.189  1.00  0.00    -0.356 N 
ATOM     77  C   UNL     1       6.315  -5.121   0.161  1.00  0.00     0.224 C 
ATOM     78  H   UNL     1       5.527  -3.531  -0.660  1.00  0.00     0.163 HD
ATOM     79  O   UNL     1       7.247  -5.089  -0.651  1.00  0.00    -0.275 OA
BRANCH  77  80
ATOM     80  C   UNL     1       6.199  -6.290   1.089  1.00  0.00     0.098 C 
ATOM     81  C   UNL     1       6.296  -7.723   0.456  1.00  0.00     0.099 C 
ATOM     82  C   UNL     1       5.089  -6.461   2.141  1.00  0.00     0.025 C 
ATOM     83  C   UNL     1       5.305  -8.541   1.337  1.00  0.00     0.025 C 
ATOM     84  C   UNL     1       3.775  -6.835   1.508  1.00  0.00    -0.027 C 
ATOM     85  C   UNL     1       5.474  -7.850   2.691  1.00  0.00     0.017 C 
ATOM     86  C   UNL     1       3.890  -8.097   1.073  1.00  0.00    -0.027 C 
BRANCH  81  87
ATOM     87  C   UNL     1       6.268  -8.212  -1.006  1.00  0.00     0.229 C 
ATOM     88  O   UNL     1       7.154  -9.023  -1.339  1.00  0.00    -0.274 OA
ATOM     89  N   UNL     1       5.266  -8.092  -1.919  1.00  0.00    -0.323 N 
ATOM     90  H   UNL     1       5.346  -8.727  -2.667  1.00  0.00     0.170 HD
BRANCH  89  91
ATOM     91  C   UNL     1       4.150  -7.263  -2.022  1.00  0.00     0.084 A 
ATOM     92  C   UNL     1       2.900  -7.898  -2.084  1.00  0.00     0.030 A 
ATOM     93  C   UNL     1       4.204  -5.878  -2.159  1.00  0.00     0.149 A 
ATOM     94  C   UNL     1       1.720  -7.154  -2.022  1.00  0.00     0.002 A 
ATOM     95  C   UNL     1       3.021  -5.134  -2.042  1.00  0.00     0.049 A 
ATOM     96  C   UNL     1       1.784  -5.768  -1.946  1.00  0.00     0.004 A 
BRANCH  93  97
ATOM     97  O   UNL     1       5.301  -5.121  -2.446  1.00  0.00    -0.433 OA
BRANCH  97  98
ATOM     98  C   UNL     1       6.248  -5.616  -3.396  1.00  0.00     0.542 C 
ATOM     99  F   UNL     1       7.114  -6.482  -2.831  1.00  0.00    -0.167 F 
ATOM    100  F   UNL     1       5.617  -6.255  -4.411  1.00  0.00    -0.167 F 
ENDBRANCH  97  98
ENDBRANCH  93  97
ENDBRANCH  89  91
ENDBRANCH  81  87
ENDBRANCH  77  80
ENDBRANCH  75  76
ENDBRANCH   1  75
TORSDOF 17
