REMARK SMILES CCCC[C@H](C(=O)NCCCNC(=O)c1ccc(-c2c3nc(c(-c4c(F)cc(S(=O)(=O)[O-])cc4F)c4ccc([nH]4)c(-c4c(F)cc(S(=O)(=O)[O-])cc4F)c4nc(c(-c5c(F)cc(S(=O)(=O)[O-])cc5F)c5ccc2[nH]5)C=C4)C=C3)cc1)N1C(=O)/C(=C/c2cccc(Br)c2)SC1=S
REMARK SMILES IDX 10 1 9 2 8 3 6 4 7 5 5 7 4 8 3 9 2 10 1 11 81 12 82 13 94 14
REMARK SMILES IDX 83 15 84 16 93 17 95 18 85 19 86 20 87 21 92 22 88 23 90 24
REMARK SMILES IDX 89 25 91 26 11 27 12 28 13 29 14 31 15 32 16 33 80 34 17 35
REMARK SMILES IDX 79 36 18 37 19 38 20 39 73 40 21 41 78 42 72 43 74 44 22 45
REMARK SMILES IDX 77 46 71 47 70 48 23 50 57 51 36 52 56 53 37 54 40 55 55 56
REMARK SMILES IDX 75 57 38 58 39 59 54 61 76 62 41 63 24 64 25 65 34 66 26 67
REMARK SMILES IDX 27 68 33 69 35 70 28 71 29 72 30 73 31 74 32 75 58 76 59 77
REMARK SMILES IDX 68 78 60 79 61 80 67 81 69 82 62 83 63 84 64 85 65 86 66 87
REMARK SMILES IDX 42 88 43 89 52 90 44 91 45 92 51 93 53 94 46 95 47 96 48 97
REMARK SMILES IDX 49 98 50 99
REMARK H PARENT 8 6 12 30 74 49 40 60
REMARK Flexibility Score: inf
ROOT
ATOM      1  C   UNL     1       0.781  -1.082   0.076  1.00  0.00     0.042 C 
ENDROOT
BRANCH   1   2
ATOM      2  C   UNL     1       0.352   0.370  -0.051  1.00  0.00     0.117 C 
BRANCH   2   3
ATOM      3  N   UNL     1       0.911   1.032  -1.221  1.00  0.00    -0.354 N 
ATOM      4  C   UNL     1       0.299   1.688  -2.248  1.00  0.00     0.243 C 
ATOM      5  O   UNL     1       1.017   2.153  -3.137  1.00  0.00    -0.273 OA
ATOM      6  H   UNL     1       1.893   1.000  -1.281  1.00  0.00     0.163 HD
BRANCH   4   7
ATOM      7  C   UNL     1      -1.233   1.826  -2.300  1.00  0.00     0.181 C 
BRANCH   7   8
ATOM      8  C   UNL     1      -1.697   3.237  -1.891  1.00  0.00     0.036 C 
BRANCH   8   9
ATOM      9  C   UNL     1      -1.766   3.555  -0.391  1.00  0.00     0.002 C 
BRANCH   9  10
ATOM     10  C   UNL     1      -0.456   3.805   0.360  1.00  0.00    -0.003 C 
ATOM     11  C   UNL     1       0.547   4.714  -0.329  1.00  0.00     0.004 C 
ENDBRANCH   9  10
ENDBRANCH   8   9
ENDBRANCH   7   8
BRANCH   7  12
ATOM     12  N   UNL     1      -1.620   1.377  -3.672  1.00  0.00    -0.280 N 
ATOM     13  C   UNL     1      -1.657  -0.004  -3.862  1.00  0.00     0.266 C 
ATOM     14  C   UNL     1      -1.788   2.135  -4.817  1.00  0.00     0.149 C 
ATOM     15  O   UNL     1      -1.460  -0.848  -2.997  1.00  0.00    -0.268 OA
ATOM     16  C   UNL     1      -1.932  -0.342  -5.284  1.00  0.00     0.081 C 
ATOM     17  S   UNL     1      -2.242   1.093  -6.164  1.00  0.00    -0.054 SA
ATOM     18  S   UNL     1      -1.670   3.777  -5.086  1.00  0.00    -0.052 S 
ATOM     19  C   UNL     1      -1.917  -1.598  -5.755  1.00  0.00     0.029 C 
BRANCH  19  20
ATOM     20  C   UNL     1      -2.190  -1.985  -7.149  1.00  0.00    -0.023 A 
ATOM     21  C   UNL     1      -3.244  -2.866  -7.419  1.00  0.00     0.008 A 
ATOM     22  C   UNL     1      -1.428  -1.486  -8.215  1.00  0.00     0.023 A 
ATOM     23  C   UNL     1      -3.565  -3.205  -8.737  1.00  0.00     0.002 A 
ATOM     24  C   UNL     1      -1.762  -1.818  -9.528  1.00  0.00     0.018 A 
ATOM     25  C   UNL     1      -2.830  -2.671  -9.795  1.00  0.00     0.016 A 
ATOM     26  Br  UNL     1      -0.769  -1.083 -10.961  1.00  0.00    -0.051 Br
ENDBRANCH  19  20
ENDBRANCH   7  12
ENDBRANCH   4   7
ENDBRANCH   2   3
ENDBRANCH   1   2
BRANCH   1  27
ATOM     27  C   UNL     1       2.278  -1.269   0.298  1.00  0.00     0.118 C 
BRANCH  27  28
ATOM     28  N   UNL     1       2.773  -0.616   1.506  1.00  0.00    -0.352 N 
ATOM     29  C   UNL     1       3.400  -1.141   2.611  1.00  0.00     0.251 C 
ATOM     30  H   UNL     1       2.635   0.359   1.534  1.00  0.00     0.163 HD
ATOM     31  O   UNL     1       3.599  -0.426   3.590  1.00  0.00    -0.269 OA
BRANCH  29  32
ATOM     32  C   UNL     1       3.809  -2.562   2.634  1.00  0.00     0.039 A 
ATOM     33  C   UNL     1       3.590  -3.312   3.793  1.00  0.00     0.014 A 
ATOM     34  C   UNL     1       4.404  -3.156   1.520  1.00  0.00     0.014 A 
ATOM     35  C   UNL     1       3.884  -4.678   3.799  1.00  0.00     0.010 A 
ATOM     36  C   UNL     1       4.612  -4.531   1.497  1.00  0.00     0.010 A 
ATOM     37  C   UNL     1       4.352  -5.309   2.635  1.00  0.00    -0.014 A 
BRANCH  37  38
ATOM     38  C   UNL     1       4.565  -6.778   2.575  1.00  0.00     0.031 A 
ATOM     39  C   UNL     1       5.936  -7.331   2.294  1.00  0.00     0.074 A 
ATOM     40  C   UNL     1       3.509  -7.609   2.685  1.00  0.00     0.049 A 
ATOM     41  N   UNL     1       6.301  -8.571   2.097  1.00  0.00    -0.248 NA
ATOM     42  C   UNL     1       7.036  -6.358   2.187  1.00  0.00     0.031 C 
ATOM     43  C   UNL     1       2.121  -7.192   2.899  1.00  0.00     0.029 A 
ATOM     44  N   UNL     1       3.434  -8.977   2.615  1.00  0.00    -0.354 N 
ATOM     45  C   UNL     1       7.662  -8.526   1.819  1.00  0.00     0.074 A 
ATOM     46  C   UNL     1       8.048  -7.132   1.825  1.00  0.00     0.031 C 
ATOM     47  C   UNL     1       1.338  -8.281   2.962  1.00  0.00     0.029 A 
ATOM     48  C   UNL     1       2.158  -9.470   2.754  1.00  0.00     0.049 A 
ATOM     49  H   UNL     1       4.221  -9.553   2.477  1.00  0.00     0.167 HD
ATOM     50  C   UNL     1       8.518  -9.554   1.603  1.00  0.00     0.037 A 
ATOM     51  C   UNL     1       1.697 -10.735   2.708  1.00  0.00     0.037 A 
ATOM     52  C   UNL     1       8.134 -10.941   1.637  1.00  0.00     0.049 A 
ATOM     53  C   UNL     1       2.669 -11.861   2.489  1.00  0.00     0.074 A 
ATOM     54  C   UNL     1       8.938 -12.059   1.501  1.00  0.00     0.029 A 
ATOM     55  N   UNL     1       6.839 -11.400   1.821  1.00  0.00    -0.354 N 
ATOM     56  N   UNL     1       3.965 -11.804   2.293  1.00  0.00    -0.248 NA
ATOM     57  C   UNL     1       2.120 -13.224   2.491  1.00  0.00     0.031 C 
ATOM     58  C   UNL     1       8.123 -13.194   1.566  1.00  0.00     0.029 A 
ATOM     59  C   UNL     1       6.818 -12.785   1.787  1.00  0.00     0.049 A 
ATOM     60  H   UNL     1       6.050 -10.827   1.957  1.00  0.00     0.167 HD
ATOM     61  C   UNL     1       4.390 -13.122   2.173  1.00  0.00     0.074 A 
ATOM     62  C   UNL     1       3.215 -13.955   2.330  1.00  0.00     0.031 C 
ATOM     63  C   UNL     1       5.640 -13.599   1.953  1.00  0.00     0.037 A 
BRANCH  50  64
ATOM     64  C   UNL     1       9.956  -9.216   1.320  1.00  0.00     0.058 A 
ATOM     65  C   UNL     1      10.802  -8.704   2.317  1.00  0.00     0.135 A 
ATOM     66  C   UNL     1      10.504  -9.435   0.046  1.00  0.00     0.135 A 
ATOM     67  F   UNL     1      10.326  -8.460   3.548  1.00  0.00    -0.206 F 
ATOM     68  C   UNL     1      12.131  -8.392   2.053  1.00  0.00     0.059 A 
ATOM     69  C   UNL     1      11.839  -9.156  -0.233  1.00  0.00     0.059 A 
ATOM     70  F   UNL     1       9.740  -9.922  -0.944  1.00  0.00    -0.206 F 
ATOM     71  C   UNL     1      12.641  -8.620   0.774  1.00  0.00     0.060 A 
BRANCH  71  72
ATOM     72  S   UNL     1      14.369  -8.213   0.450  1.00  0.00     0.124 S 
ATOM     73  O   UNL     1      14.318  -6.755   0.393  1.00  0.00    -0.237 OA
ATOM     74  O   UNL     1      15.048  -8.778   1.612  1.00  0.00    -0.237 OA
ATOM     75  O   UNL     1      14.643  -8.882  -0.819  1.00  0.00    -0.744 OA
ENDBRANCH  71  72
ENDBRANCH  50  64
BRANCH  51  76
ATOM     76  C   UNL     1       0.247 -11.004   2.899  1.00  0.00     0.058 A 
ATOM     77  C   UNL     1      -0.226 -11.601   4.076  1.00  0.00     0.135 A 
ATOM     78  C   UNL     1      -0.696 -10.652   1.920  1.00  0.00     0.135 A 
ATOM     79  F   UNL     1       0.637 -11.960   5.039  1.00  0.00    -0.206 F 
ATOM     80  C   UNL     1      -1.579 -11.854   4.273  1.00  0.00     0.059 A 
ATOM     81  C   UNL     1      -2.057 -10.873   2.103  1.00  0.00     0.059 A 
ATOM     82  F   UNL     1      -0.296 -10.061   0.783  1.00  0.00    -0.206 F 
ATOM     83  C   UNL     1      -2.488 -11.484   3.280  1.00  0.00     0.060 A 
BRANCH  83  84
ATOM     84  S   UNL     1      -4.249 -11.768   3.568  1.00  0.00     0.124 S 
ATOM     85  O   UNL     1      -4.347 -13.211   3.385  1.00  0.00    -0.237 OA
ATOM     86  O   UNL     1      -4.419 -11.284   4.934  1.00  0.00    -0.237 OA
ATOM     87  O   UNL     1      -4.891 -10.955   2.539  1.00  0.00    -0.744 OA
ENDBRANCH  83  84
ENDBRANCH  51  76
BRANCH  63  88
ATOM     88  C   UNL     1       5.811 -15.091   1.900  1.00  0.00     0.058 A 
ATOM     89  C   UNL     1       5.379 -15.844   0.798  1.00  0.00     0.135 A 
ATOM     90  C   UNL     1       6.463 -15.768   2.944  1.00  0.00     0.135 A 
ATOM     91  F   UNL     1       4.744 -15.246  -0.222  1.00  0.00    -0.206 F 
ATOM     92  C   UNL     1       5.569 -17.221   0.741  1.00  0.00     0.059 A 
ATOM     93  C   UNL     1       6.687 -17.140   2.896  1.00  0.00     0.059 A 
ATOM     94  F   UNL     1       6.904 -15.092   4.017  1.00  0.00    -0.206 F 
ATOM     95  C   UNL     1       6.226 -17.860   1.794  1.00  0.00     0.060 A 
BRANCH  95  96
ATOM     96  S   UNL     1       6.500 -19.641   1.692  1.00  0.00     0.124 S 
ATOM     97  O   UNL     1       5.165 -20.160   1.976  1.00  0.00    -0.237 OA
ATOM     98  O   UNL     1       6.967 -19.809   0.320  1.00  0.00    -0.237 OA
ATOM     99  O   UNL     1       7.503 -19.890   2.724  1.00  0.00    -0.744 OA
ENDBRANCH  95  96
ENDBRANCH  63  88
ENDBRANCH  37  38
ENDBRANCH  29  32
ENDBRANCH  27  28
ENDBRANCH   1  27
TORSDOF 18
