REMARK SMILES C[C@H](CC(=O)NCCCNC(=O)c1ccc(-c2c3nc(c(-c4c(F)cc(S(=O)(=O)[O-])cc4F)c4ccc([nH]4)c(-c4c(F)cc(S(=O)(=O)[O-])cc4F)c4nc(c(-c5c(F)cc(S(=O)(=O)[O-])cc5F)c5ccc2[nH]5)C=C4)C=C3)cc1)NC(=O)CS[C@H]1CCS(=O)(=O)C1
REMARK SMILES IDX 7 1 6 2 4 3 5 4 3 6 2 7 1 8 79 9 80 10 81 12 82 13 83 14
REMARK SMILES IDX 84 15 85 16 90 17 86 18 87 19 88 20 89 21 8 22 9 23 10 24
REMARK SMILES IDX 11 25 12 27 13 28 14 29 78 30 15 31 77 32 16 33 17 34 18 35
REMARK SMILES IDX 71 36 19 37 76 38 70 39 72 40 20 41 75 42 69 43 68 44 21 46
REMARK SMILES IDX 55 47 34 48 54 49 35 50 38 51 53 52 73 53 36 54 37 55 52 57
REMARK SMILES IDX 74 58 39 59 22 60 23 61 32 62 24 63 25 64 31 65 33 66 26 67
REMARK SMILES IDX 27 68 28 69 29 70 30 71 56 72 57 73 66 74 58 75 59 76 65 77
REMARK SMILES IDX 67 78 60 79 61 80 62 81 63 82 64 83 40 84 41 85 50 86 42 87
REMARK SMILES IDX 43 88 49 89 51 90 44 91 45 92 46 93 47 94 48 95
REMARK H PARENT 6 5 79 11 10 26 72 45 38 56
REMARK Flexibility Score: inf
ROOT
ATOM      1  C   UNL     1      -4.479  -0.830   0.116  1.00  0.00     0.117 C 
ENDROOT
BRANCH   1   2
ATOM      2  N   UNL     1      -3.536  -0.404  -0.902  1.00  0.00    -0.356 N 
ATOM      3  C   UNL     1      -2.267   0.069  -0.712  1.00  0.00     0.222 C 
ATOM      4  O   UNL     1      -1.824   0.899  -1.504  1.00  0.00    -0.275 OA
ATOM      5  H   UNL     1      -3.844  -0.463  -1.835  1.00  0.00     0.163 HD
BRANCH   3   6
ATOM      6  C   UNL     1      -1.391  -0.566   0.347  1.00  0.00     0.124 C 
BRANCH   6   7
ATOM      7  C   UNL     1      -1.260  -0.018   1.781  1.00  0.00     0.088 C 
ATOM      8  C   UNL     1      -0.773   1.426   1.770  1.00  0.00     0.031 C 
BRANCH   7   9
ATOM      9  N   UNL     1      -2.475  -0.137   2.587  1.00  0.00    -0.352 N 
ATOM     10  C   UNL     1      -2.879  -0.955   3.598  1.00  0.00     0.230 C 
ATOM     11  H   UNL     1      -3.159   0.527   2.342  1.00  0.00     0.163 HD
ATOM     12  O   UNL     1      -4.095  -1.041   3.788  1.00  0.00    -0.274 OA
BRANCH  10  13
ATOM     13  C   UNL     1      -1.884  -1.653   4.501  1.00  0.00     0.169 C 
BRANCH  13  14
ATOM     14  S   UNL     1      -2.005  -3.479   4.450  1.00  0.00    -0.148 SA
BRANCH  14  15
ATOM     15  C   UNL     1      -0.963  -3.804   3.011  1.00  0.00     0.063 C 
ATOM     16  C   UNL     1      -0.234  -5.154   3.046  1.00  0.00     0.031 C 
ATOM     17  C   UNL     1      -1.779  -3.881   1.736  1.00  0.00     0.151 C 
ATOM     18  C   UNL     1       0.425  -5.322   1.668  1.00  0.00     0.138 C 
ATOM     19  S   UNL     1      -0.516  -4.297   0.548  1.00  0.00     0.151 S 
ATOM     20  O   UNL     1       0.274  -3.117   0.276  1.00  0.00    -0.229 OA
ATOM     21  O   UNL     1      -1.093  -5.104  -0.507  1.00  0.00    -0.229 OA
ENDBRANCH  14  15
ENDBRANCH  13  14
ENDBRANCH  10  13
ENDBRANCH   7   9
ENDBRANCH   6   7
ENDBRANCH   3   6
ENDBRANCH   1   2
BRANCH   1  22
ATOM     22  C   UNL     1      -5.112   0.401   0.751  1.00  0.00     0.042 C 
BRANCH  22  23
ATOM     23  C   UNL     1      -5.963   1.210  -0.206  1.00  0.00     0.118 C 
BRANCH  23  24
ATOM     24  N   UNL     1      -7.264   0.619  -0.436  1.00  0.00    -0.352 N 
ATOM     25  C   UNL     1      -8.500   1.164  -0.183  1.00  0.00     0.251 C 
ATOM     26  H   UNL     1      -7.263  -0.286  -0.822  1.00  0.00     0.163 HD
ATOM     27  O   UNL     1      -9.503   0.463  -0.264  1.00  0.00    -0.269 OA
BRANCH  25  28
ATOM     28  C   UNL     1      -8.605   2.587   0.216  1.00  0.00     0.039 A 
ATOM     29  C   UNL     1      -9.478   2.937   1.248  1.00  0.00     0.014 A 
ATOM     30  C   UNL     1      -7.829   3.571  -0.405  1.00  0.00     0.014 A 
ATOM     31  C   UNL     1      -9.534   4.263   1.685  1.00  0.00     0.010 A 
ATOM     32  C   UNL     1      -7.796   4.860   0.113  1.00  0.00     0.010 A 
ATOM     33  C   UNL     1      -8.672   5.230   1.142  1.00  0.00    -0.014 A 
BRANCH  33  34
ATOM     34  C   UNL     1      -8.715   6.649   1.583  1.00  0.00     0.031 A 
ATOM     35  C   UNL     1      -9.041   7.726   0.578  1.00  0.00     0.074 A 
ATOM     36  C   UNL     1      -8.425   6.973   2.860  1.00  0.00     0.049 A 
ATOM     37  N   UNL     1      -9.041   9.025   0.729  1.00  0.00    -0.248 NA
ATOM     38  C   UNL     1      -9.383   7.286  -0.787  1.00  0.00     0.031 C 
ATOM     39  C   UNL     1      -8.055   6.025   3.915  1.00  0.00     0.029 A 
ATOM     40  N   UNL     1      -8.389   8.193   3.488  1.00  0.00    -0.354 N 
ATOM     41  C   UNL     1      -9.372   9.550  -0.515  1.00  0.00     0.074 A 
ATOM     42  C   UNL     1      -9.491   8.439  -1.430  1.00  0.00     0.031 C 
ATOM     43  C   UNL     1      -7.859   6.696   5.062  1.00  0.00     0.029 A 
ATOM     44  C   UNL     1      -8.042   8.123   4.818  1.00  0.00     0.049 A 
ATOM     45  H   UNL     1      -8.593   9.040   3.030  1.00  0.00     0.167 HD
ATOM     46  C   UNL     1      -9.599  10.839  -0.858  1.00  0.00     0.037 A 
ATOM     47  C   UNL     1      -7.880   9.100   5.731  1.00  0.00     0.037 A 
ATOM     48  C   UNL     1      -9.518  11.939   0.065  1.00  0.00     0.049 A 
ATOM     49  C   UNL     1      -8.115  10.531   5.315  1.00  0.00     0.074 A 
ATOM     50  C   UNL     1      -9.756  13.281  -0.174  1.00  0.00     0.029 A 
ATOM     51  N   UNL     1      -9.186  11.822   1.406  1.00  0.00    -0.354 N 
ATOM     52  N   UNL     1      -8.469  11.002   4.142  1.00  0.00    -0.248 NA
ATOM     53  C   UNL     1      -7.935  11.563   6.346  1.00  0.00     0.031 C 
ATOM     54  C   UNL     1      -9.530  13.981   1.014  1.00  0.00     0.029 A 
ATOM     55  C   UNL     1      -9.205  13.069   2.005  1.00  0.00     0.049 A 
ATOM     56  H   UNL     1      -8.968  10.978   1.863  1.00  0.00     0.167 HD
ATOM     57  C   UNL     1      -8.596  12.377   4.308  1.00  0.00     0.074 A 
ATOM     58  C   UNL     1      -8.291  12.661   5.695  1.00  0.00     0.031 C 
ATOM     59  C   UNL     1      -8.933  13.323   3.397  1.00  0.00     0.037 A 
BRANCH  46  60
ATOM     60  C   UNL     1      -9.993  11.132  -2.280  1.00  0.00     0.058 A 
ATOM     61  C   UNL     1     -11.251  10.759  -2.782  1.00  0.00     0.135 A 
ATOM     62  C   UNL     1      -9.137  11.851  -3.130  1.00  0.00     0.135 A 
ATOM     63  F   UNL     1     -12.100  10.050  -2.021  1.00  0.00    -0.206 F 
ATOM     64  C   UNL     1     -11.643  11.081  -4.076  1.00  0.00     0.059 A 
ATOM     65  C   UNL     1      -9.521  12.210  -4.419  1.00  0.00     0.059 A 
ATOM     66  F   UNL     1      -7.921  12.226  -2.704  1.00  0.00    -0.206 F 
ATOM     67  C   UNL     1     -10.775  11.816  -4.884  1.00  0.00     0.060 A 
BRANCH  67  68
ATOM     68  S   UNL     1     -11.325  12.269  -6.543  1.00  0.00     0.124 S 
ATOM     69  O   UNL     1     -11.313  10.975  -7.218  1.00  0.00    -0.237 OA
ATOM     70  O   UNL     1     -12.644  12.838  -6.287  1.00  0.00    -0.237 OA
ATOM     71  O   UNL     1     -10.311  13.218  -6.991  1.00  0.00    -0.744 OA
ENDBRANCH  67  68
ENDBRANCH  46  60
BRANCH  47  72
ATOM     72  C   UNL     1      -7.478   8.778   7.129  1.00  0.00     0.058 A 
ATOM     73  C   UNL     1      -8.345   9.018   8.207  1.00  0.00     0.135 A 
ATOM     74  C   UNL     1      -6.203   8.270   7.423  1.00  0.00     0.135 A 
ATOM     75  F   UNL     1      -9.575   9.505   7.982  1.00  0.00    -0.206 F 
ATOM     76  C   UNL     1      -7.947   8.816   9.525  1.00  0.00     0.059 A 
ATOM     77  C   UNL     1      -5.794   8.027   8.731  1.00  0.00     0.059 A 
ATOM     78  F   UNL     1      -5.340   8.000   6.431  1.00  0.00    -0.206 F 
ATOM     79  C   UNL     1      -6.665   8.328   9.777  1.00  0.00     0.060 A 
BRANCH  79  80
ATOM     80  S   UNL     1      -6.148   8.086  11.490  1.00  0.00     0.124 S 
ATOM     81  O   UNL     1      -5.958   9.461  11.935  1.00  0.00    -0.237 OA
ATOM     82  O   UNL     1      -7.293   7.381  12.060  1.00  0.00    -0.237 OA
ATOM     83  O   UNL     1      -4.931   7.290  11.364  1.00  0.00    -0.744 OA
ENDBRANCH  79  80
ENDBRANCH  47  72
BRANCH  59  84
ATOM     84  C   UNL     1      -9.057  14.742   3.878  1.00  0.00     0.058 A 
ATOM     85  C   UNL     1      -7.936  15.510   4.224  1.00  0.00     0.135 A 
ATOM     86  C   UNL     1     -10.318  15.360   3.930  1.00  0.00     0.135 A 
ATOM     87  F   UNL     1      -6.709  14.966   4.196  1.00  0.00    -0.206 F 
ATOM     88  C   UNL     1      -8.061  16.834   4.629  1.00  0.00     0.059 A 
ATOM     89  C   UNL     1     -10.464  16.692   4.301  1.00  0.00     0.059 A 
ATOM     90  F   UNL     1     -11.423  14.673   3.597  1.00  0.00    -0.206 F 
ATOM     91  C   UNL     1      -9.329  17.418   4.659  1.00  0.00     0.060 A 
BRANCH  91  92
ATOM     92  S   UNL     1      -9.471  19.151   5.145  1.00  0.00     0.124 S 
ATOM     93  O   UNL     1      -9.212  19.076   6.579  1.00  0.00    -0.237 OA
ATOM     94  O   UNL     1      -8.428  19.785   4.344  1.00  0.00    -0.237 OA
ATOM     95  O   UNL     1     -10.838  19.499   4.771  1.00  0.00    -0.744 OA
ENDBRANCH  91  92
ENDBRANCH  59  84
ENDBRANCH  33  34
ENDBRANCH  25  28
ENDBRANCH  23  24
ENDBRANCH  22  23
ENDBRANCH   1  22
TORSDOF 18
