REMARK SMILES Cc1nc(CCNc2nccc(-c3cc(C(=O)NCCCNC(=O)c4ccc(-c5c6nc(c(-c7c(F)cc(S(=O)(=O)[O-])cc7F)c7ccc([nH]7)c(-c7c(F)cc(S(=O)(=O)[O-])cc7F)c7nc(c(-c8c(F)cc(S(=O)(=O)[O-])cc8F)c8ccc5[nH]8)C=C7)C=C6)cc4)ccn3)n2)cc(=O)[nH]1
REMARK SMILES IDX 19 1 18 2 16 3 17 4 15 6 13 7 14 8 93 9 92 10 91 11 12 12
REMARK SMILES IDX 8 13 9 14 94 15 10 16 11 17 7 18 6 20 5 21 4 22 1 23 2 24
REMARK SMILES IDX 3 25 98 26 96 27 95 29 97 30 20 31 21 32 22 33 23 34 24 36
REMARK SMILES IDX 25 37 26 38 90 39 27 40 89 41 28 42 29 43 30 44 83 45 31 46
REMARK SMILES IDX 88 47 82 48 84 49 32 50 87 51 81 52 80 53 33 55 67 56 46 57
REMARK SMILES IDX 66 58 47 59 50 60 65 61 85 62 48 63 49 64 64 66 86 67 51 68
REMARK SMILES IDX 34 69 35 70 44 71 36 72 37 73 43 74 45 75 38 76 39 77 40 78
REMARK SMILES IDX 41 79 42 80 68 81 69 82 78 83 70 84 71 85 77 86 79 87 72 88
REMARK SMILES IDX 73 89 74 90 75 91 76 92 52 93 53 94 62 95 54 96 55 97 61 98
REMARK SMILES IDX 63 99 56 100 57 101 58 102 59 103 60 104
REMARK H PARENT 18 5 7 19 98 28 22 35 84 54 50 65
REMARK Flexibility Score: inf
ROOT
ATOM      1  C   UNL     1       3.593  11.072   0.793  1.00  0.00     0.118 C 
ENDROOT
BRANCH   1   2
ATOM      2  N   UNL     1       2.961  11.764   1.904  1.00  0.00    -0.352 N 
ATOM      3  C   UNL     1       2.528  11.349   3.137  1.00  0.00     0.251 C 
ATOM      4  O   UNL     1       2.082  12.202   3.904  1.00  0.00    -0.269 OA
ATOM      5  H   UNL     1       2.814  12.723   1.738  1.00  0.00     0.163 HD
BRANCH   3   6
ATOM      6  C   UNL     1       2.640   9.946   3.614  1.00  0.00     0.043 A 
ATOM      7  C   UNL     1       2.942   7.589   3.322  1.00  0.00     0.090 A 
ATOM      8  C   UNL     1       2.681   8.839   2.776  1.00  0.00     0.044 A 
ATOM      9  N   UNL     1       3.062   7.389   4.658  1.00  0.00    -0.255 NA
ATOM     10  C   UNL     1       2.898   8.457   5.463  1.00  0.00     0.112 A 
ATOM     11  C   UNL     1       2.708   9.742   4.994  1.00  0.00     0.034 A 
BRANCH   7  12
ATOM     12  C   UNL     1       3.201   6.439   2.453  1.00  0.00     0.094 A 
ATOM     13  C   UNL     1       2.492   4.413   1.673  1.00  0.00     0.223 A 
ATOM     14  N   UNL     1       3.617   4.216   0.973  1.00  0.00    -0.222 NA
ATOM     15  N   UNL     1       2.231   5.507   2.389  1.00  0.00    -0.211 NA
ATOM     16  C   UNL     1       4.528   5.201   0.992  1.00  0.00     0.117 A 
ATOM     17  C   UNL     1       4.379   6.341   1.735  1.00  0.00     0.051 A 
BRANCH  13  18
ATOM     18  N   UNL     1       1.604   3.374   1.671  1.00  0.00    -0.354 N 
ATOM     19  H   UNL     1       1.918   2.459   1.851  1.00  0.00     0.163 HD
BRANCH  18  20
ATOM     20  C   UNL     1       0.197   3.619   1.405  1.00  0.00     0.122 C 
BRANCH  20  21
ATOM     21  C   UNL     1      -0.202   3.085   0.017  1.00  0.00     0.077 C 
BRANCH  21  22
ATOM     22  C   UNL     1      -0.101   1.575  -0.086  1.00  0.00     0.050 A 
ATOM     23  C   UNL     1      -2.463  -1.242   0.149  1.00  0.00     0.087 C 
ATOM     24  C   UNL     1      -1.225  -0.407   0.009  1.00  0.00     0.105 A 
ATOM     25  N   UNL     1      -1.267   0.879   0.140  1.00  0.00    -0.240 NA
ATOM     26  N   UNL     1      -0.078  -1.104  -0.244  1.00  0.00    -0.311 N 
ATOM     27  C   UNL     1       1.119  -0.481  -0.415  1.00  0.00     0.251 A 
ATOM     28  H   UNL     1      -0.119  -2.086  -0.306  1.00  0.00     0.171 HD
ATOM     29  C   UNL     1       1.059   0.985  -0.418  1.00  0.00     0.095 A 
ATOM     30  O   UNL     1       2.179  -1.082  -0.524  1.00  0.00    -0.270 OA
ENDBRANCH  21  22
ENDBRANCH  20  21
ENDBRANCH  18  20
ENDBRANCH  13  18
ENDBRANCH   7  12
ENDBRANCH   3   6
ENDBRANCH   1   2
BRANCH   1  31
ATOM     31  C   UNL     1       2.575  10.726  -0.293  1.00  0.00     0.042 C 
BRANCH  31  32
ATOM     32  C   UNL     1       2.178  11.931  -1.142  1.00  0.00     0.118 C 
BRANCH  32  33
ATOM     33  N   UNL     1       3.289  12.405  -1.955  1.00  0.00    -0.352 N 
ATOM     34  C   UNL     1       3.395  12.532  -3.317  1.00  0.00     0.251 C 
ATOM     35  H   UNL     1       4.089  12.676  -1.449  1.00  0.00     0.163 HD
ATOM     36  O   UNL     1       4.504  12.706  -3.815  1.00  0.00    -0.269 OA
BRANCH  34  37
ATOM     37  C   UNL     1       2.195  12.457  -4.177  1.00  0.00     0.039 A 
ATOM     38  C   UNL     1       2.290  11.809  -5.412  1.00  0.00     0.014 A 
ATOM     39  C   UNL     1       0.994  13.063  -3.797  1.00  0.00     0.014 A 
ATOM     40  C   UNL     1       1.169  11.726  -6.240  1.00  0.00     0.010 A 
ATOM     41  C   UNL     1      -0.141  12.913  -4.588  1.00  0.00     0.010 A 
ATOM     42  C   UNL     1      -0.064  12.251  -5.821  1.00  0.00    -0.014 A 
BRANCH  42  43
ATOM     43  C   UNL     1      -1.283  12.115  -6.659  1.00  0.00     0.031 A 
ATOM     44  C   UNL     1      -1.970  13.340  -7.201  1.00  0.00     0.074 A 
ATOM     45  C   UNL     1      -1.806  10.892  -6.875  1.00  0.00     0.049 A 
ATOM     46  N   UNL     1      -3.080  13.429  -7.887  1.00  0.00    -0.248 NA
ATOM     47  C   UNL     1      -1.340  14.639  -6.912  1.00  0.00     0.031 C 
ATOM     48  C   UNL     1      -1.255   9.635  -6.362  1.00  0.00     0.029 A 
ATOM     49  N   UNL     1      -2.922  10.503  -7.571  1.00  0.00    -0.354 N 
ATOM     50  C   UNL     1      -3.289  14.787  -8.099  1.00  0.00     0.074 A 
ATOM     51  C   UNL     1      -2.219  15.488  -7.423  1.00  0.00     0.031 C 
ATOM     52  C   UNL     1      -2.021   8.615  -6.778  1.00  0.00     0.029 A 
ATOM     53  C   UNL     1      -3.141   9.145  -7.550  1.00  0.00     0.049 A 
ATOM     54  H   UNL     1      -3.511  11.136  -8.041  1.00  0.00     0.167 HD
ATOM     55  C   UNL     1      -4.270  15.392  -8.811  1.00  0.00     0.037 A 
ATOM     56  C   UNL     1      -4.136   8.411  -8.083  1.00  0.00     0.037 A 
ATOM     57  C   UNL     1      -5.318  14.682  -9.498  1.00  0.00     0.049 A 
ATOM     58  C   UNL     1      -5.219   9.106  -8.863  1.00  0.00     0.074 A 
ATOM     59  C   UNL     1      -6.327  15.196 -10.293  1.00  0.00     0.029 A 
ATOM     60  N   UNL     1      -5.495  13.306  -9.468  1.00  0.00    -0.354 N 
ATOM     61  N   UNL     1      -5.365  10.387  -9.108  1.00  0.00    -0.248 NA
ATOM     62  C   UNL     1      -6.267   8.258  -9.446  1.00  0.00     0.031 C 
ATOM     63  C   UNL     1      -7.144  14.137 -10.703  1.00  0.00     0.029 A 
ATOM     64  C   UNL     1      -6.611  12.956 -10.212  1.00  0.00     0.049 A 
ATOM     65  H   UNL     1      -4.914  12.672  -8.989  1.00  0.00     0.167 HD
ATOM     66  C   UNL     1      -6.505  10.496  -9.896  1.00  0.00     0.074 A 
ATOM     67  C   UNL     1      -7.001   9.150 -10.098  1.00  0.00     0.031 C 
ATOM     68  C   UNL     1      -7.087  11.608 -10.409  1.00  0.00     0.037 A 
BRANCH  55  69
ATOM     69  C   UNL     1      -4.256  16.896  -8.886  1.00  0.00     0.058 A 
ATOM     70  C   UNL     1      -3.267  17.591  -9.601  1.00  0.00     0.135 A 
ATOM     71  C   UNL     1      -5.265  17.652  -8.267  1.00  0.00     0.135 A 
ATOM     72  F   UNL     1      -2.269  16.921 -10.201  1.00  0.00    -0.206 F 
ATOM     73  C   UNL     1      -3.261  18.980  -9.674  1.00  0.00     0.059 A 
ATOM     74  C   UNL     1      -5.296  19.041  -8.353  1.00  0.00     0.059 A 
ATOM     75  F   UNL     1      -6.237  17.041  -7.570  1.00  0.00    -0.206 F 
ATOM     76  C   UNL     1      -4.280  19.697  -9.046  1.00  0.00     0.060 A 
BRANCH  76  77
ATOM     77  S   UNL     1      -4.259  21.499  -9.156  1.00  0.00     0.124 S 
ATOM     78  O   UNL     1      -3.140  21.830  -8.279  1.00  0.00    -0.237 OA
ATOM     79  O   UNL     1      -4.034  21.721 -10.581  1.00  0.00    -0.237 OA
ATOM     80  O   UNL     1      -5.578  21.886  -8.664  1.00  0.00    -0.744 OA
ENDBRANCH  76  77
ENDBRANCH  55  69
BRANCH  56  81
ATOM     81  C   UNL     1      -4.142   6.932  -7.913  1.00  0.00     0.058 A 
ATOM     82  C   UNL     1      -3.905   6.080  -9.002  1.00  0.00     0.135 A 
ATOM     83  C   UNL     1      -4.368   6.342  -6.659  1.00  0.00     0.135 A 
ATOM     84  F   UNL     1      -3.689   6.595 -10.222  1.00  0.00    -0.206 F 
ATOM     85  C   UNL     1      -3.910   4.696  -8.859  1.00  0.00     0.059 A 
ATOM     86  C   UNL     1      -4.350   4.962  -6.486  1.00  0.00     0.059 A 
ATOM     87  F   UNL     1      -4.581   7.113  -5.581  1.00  0.00    -0.206 F 
ATOM     88  C   UNL     1      -4.130   4.146  -7.595  1.00  0.00     0.060 A 
BRANCH  88  89
ATOM     89  S   UNL     1      -4.088   2.350  -7.414  1.00  0.00     0.124 S 
ATOM     90  O   UNL     1      -5.332   1.959  -8.066  1.00  0.00    -0.237 OA
ATOM     91  O   UNL     1      -2.859   2.001  -8.120  1.00  0.00    -0.237 OA
ATOM     92  O   UNL     1      -4.045   2.159  -5.967  1.00  0.00    -0.744 OA
ENDBRANCH  88  89
ENDBRANCH  56  81
BRANCH  68  93
ATOM     93  C   UNL     1      -8.306  11.419 -11.270  1.00  0.00     0.058 A 
ATOM     94  C   UNL     1      -9.545  11.042 -10.727  1.00  0.00     0.135 A 
ATOM     95  C   UNL     1      -8.245  11.671 -12.650  1.00  0.00     0.135 A 
ATOM     96  F   UNL     1      -9.657  10.783  -9.415  1.00  0.00    -0.206 F 
ATOM     97  C   UNL     1     -10.674  10.898 -11.527  1.00  0.00     0.059 A 
ATOM     98  C   UNL     1      -9.368  11.563 -13.464  1.00  0.00     0.059 A 
ATOM     99  F   UNL     1      -7.087  12.044 -13.219  1.00  0.00    -0.206 F 
ATOM    100  C   UNL     1     -10.576  11.164 -12.894  1.00  0.00     0.060 A 
BRANCH 100 101
ATOM    101  S   UNL     1     -12.057  11.008 -13.914  1.00  0.00     0.124 S 
ATOM    102  O   UNL     1     -12.218   9.559 -13.979  1.00  0.00    -0.237 OA
ATOM    103  O   UNL     1     -13.056  11.722 -13.124  1.00  0.00    -0.237 OA
ATOM    104  O   UNL     1     -11.678  11.655 -15.166  1.00  0.00    -0.744 OA
ENDBRANCH 100 101
ENDBRANCH  68  93
ENDBRANCH  42  43
ENDBRANCH  34  37
ENDBRANCH  32  33
ENDBRANCH  31  32
ENDBRANCH   1  31
TORSDOF 18
