REMARK SMILES O=C(NCCCNC(=O)c1ccc([C@@H]2CC(O)=Nc3c2ncn3-c2cccc(Cl)c2)cc1)c1ccc(-c2c3nc(c(-c4c(F)cc(S(=O)(=O)[O-])cc4F)c4ccc([nH]4)c(-c4c(F)cc(S(=O)(=O)[O-])cc4F)c4nc(c(-c5c(F)cc(S(=O)(=O)[O-])cc5F)c5ccc2[nH]5)C=C4)C=C3)cc1
REMARK SMILES IDX 4 1 3 2 1 3 2 4 33 6 34 7 98 8 35 9 97 10 36 11 37 12 38 13
REMARK SMILES IDX 91 14 39 15 96 16 90 17 92 18 40 19 95 20 89 21 88 22 41 24
REMARK SMILES IDX 75 25 54 26 74 27 55 28 58 29 73 30 93 31 56 32 57 33 72 35
REMARK SMILES IDX 94 36 59 37 42 38 43 39 52 40 44 41 45 42 51 43 53 44 46 45
REMARK SMILES IDX 47 46 48 47 49 48 50 49 76 50 77 51 86 52 78 53 79 54 85 55
REMARK SMILES IDX 87 56 80 57 81 58 82 59 83 60 84 61 60 62 61 63 70 64 62 65
REMARK SMILES IDX 63 66 69 67 71 68 64 69 65 70 66 71 67 72 68 73 5 74 6 75
REMARK SMILES IDX 7 76 8 77 9 79 10 80 11 81 32 82 12 83 31 84 13 85 14 86
REMARK SMILES IDX 15 87 20 88 16 89 19 90 21 91 18 92 23 93 22 94 17 95 24 97
REMARK SMILES IDX 25 98 30 99 26 100 28 101 27 102 29 103
REMARK H PARENT 3 5 92 23 58 34 7 78 17 96
REMARK Flexibility Score: inf
ROOT
ATOM      1  C   UNL     1       4.658   0.836   0.198  1.00  0.00     0.118 C 
ENDROOT
BRANCH   1   2
ATOM      2  N   UNL     1       3.245   0.771   0.514  1.00  0.00    -0.352 N 
ATOM      3  O   UNL     1       1.126   0.224   0.696  1.00  0.00    -0.269 OA
ATOM      4  C   UNL     1       2.166   0.073   0.047  1.00  0.00     0.251 C 
ATOM      5  H   UNL     1       3.001   1.382   1.246  1.00  0.00     0.163 HD
BRANCH   4   6
ATOM      6  C   UNL     1       2.134  -0.804  -1.160  1.00  0.00     0.039 A 
ATOM      7  C   UNL     1       3.213  -1.105  -1.991  1.00  0.00     0.014 A 
ATOM      8  C   UNL     1       0.876  -1.351  -1.487  1.00  0.00     0.014 A 
ATOM      9  C   UNL     1       3.030  -1.893  -3.134  1.00  0.00     0.010 A 
ATOM     10  C   UNL     1       0.691  -2.144  -2.619  1.00  0.00     0.010 A 
ATOM     11  C   UNL     1       1.767  -2.401  -3.462  1.00  0.00    -0.014 A 
BRANCH  11  12
ATOM     12  C   UNL     1       1.645  -3.281  -4.630  1.00  0.00     0.031 A 
ATOM     13  C   UNL     1       2.389  -4.577  -4.560  1.00  0.00     0.074 A 
ATOM     14  C   UNL     1       0.796  -3.087  -5.662  1.00  0.00     0.049 A 
ATOM     15  N   UNL     1       3.327  -5.017  -5.337  1.00  0.00    -0.248 NA
ATOM     16  C   UNL     1       2.068  -5.479  -3.443  1.00  0.00     0.031 C 
ATOM     17  C   UNL     1      -0.270  -2.091  -5.784  1.00  0.00     0.029 A 
ATOM     18  N   UNL     1       0.659  -3.829  -6.801  1.00  0.00    -0.354 N 
ATOM     19  C   UNL     1       3.599  -6.322  -4.921  1.00  0.00     0.074 A 
ATOM     20  C   UNL     1       2.873  -6.513  -3.691  1.00  0.00     0.031 C 
ATOM     21  C   UNL     1      -1.066  -2.416  -6.829  1.00  0.00     0.029 A 
ATOM     22  C   UNL     1      -0.489  -3.551  -7.531  1.00  0.00     0.049 A 
ATOM     23  H   UNL     1       1.318  -4.505  -7.081  1.00  0.00     0.167 HD
ATOM     24  C   UNL     1       4.276  -7.218  -5.695  1.00  0.00     0.037 A 
ATOM     25  C   UNL     1      -0.958  -4.234  -8.605  1.00  0.00     0.037 A 
ATOM     26  C   UNL     1       4.994  -6.575  -6.760  1.00  0.00     0.049 A 
ATOM     27  C   UNL     1       0.173  -4.997  -9.189  1.00  0.00     0.074 A 
ATOM     28  C   UNL     1       5.997  -5.627  -6.827  1.00  0.00     0.029 A 
ATOM     29  N   UNL     1       4.494  -6.669  -8.035  1.00  0.00    -0.354 N 
ATOM     30  N   UNL     1       1.202  -4.460  -9.784  1.00  0.00    -0.248 NA
ATOM     31  C   UNL     1       0.335  -6.388  -8.799  1.00  0.00     0.031 C 
ATOM     32  C   UNL     1       5.709  -4.863  -7.995  1.00  0.00     0.029 A 
ATOM     33  C   UNL     1       4.568  -5.413  -8.581  1.00  0.00     0.049 A 
ATOM     34  H   UNL     1       4.149  -7.481  -8.472  1.00  0.00     0.167 HD
ATOM     35  C   UNL     1       2.264  -5.299  -9.485  1.00  0.00     0.074 A 
ATOM     36  C   UNL     1       1.650  -6.521  -8.979  1.00  0.00     0.031 C 
ATOM     37  C   UNL     1       3.545  -4.832  -9.423  1.00  0.00     0.037 A 
BRANCH  24  38
ATOM     38  C   UNL     1       4.070  -8.714  -5.660  1.00  0.00     0.058 A 
ATOM     39  C   UNL     1       4.990  -9.569  -6.306  1.00  0.00     0.135 A 
ATOM     40  C   UNL     1       2.861  -9.319  -5.252  1.00  0.00     0.135 A 
ATOM     41  F   UNL     1       6.165  -9.098  -6.751  1.00  0.00    -0.206 F 
ATOM     42  C   UNL     1       4.703 -10.908  -6.580  1.00  0.00     0.059 A 
ATOM     43  C   UNL     1       2.577 -10.664  -5.468  1.00  0.00     0.059 A 
ATOM     44  F   UNL     1       1.864  -8.607  -4.712  1.00  0.00    -0.206 F 
ATOM     45  C   UNL     1       3.484 -11.441  -6.172  1.00  0.00     0.060 A 
BRANCH  45  46
ATOM     46  S   UNL     1       3.060 -13.132  -6.630  1.00  0.00     0.124 S 
ATOM     47  O   UNL     1       2.821 -12.991  -8.062  1.00  0.00    -0.237 OA
ATOM     48  O   UNL     1       4.264 -13.864  -6.252  1.00  0.00    -0.237 OA
ATOM     49  O   UNL     1       1.882 -13.414  -5.816  1.00  0.00    -0.744 OA
ENDBRANCH  45  46
ENDBRANCH  24  38
BRANCH  25  50
ATOM     50  C   UNL     1      -2.369  -4.501  -8.987  1.00  0.00     0.058 A 
ATOM     51  C   UNL     1      -2.704  -4.973 -10.269  1.00  0.00     0.135 A 
ATOM     52  C   UNL     1      -3.385  -4.577  -8.013  1.00  0.00     0.135 A 
ATOM     53  F   UNL     1      -1.791  -4.961 -11.252  1.00  0.00    -0.206 F 
ATOM     54  C   UNL     1      -3.953  -5.532 -10.556  1.00  0.00     0.059 A 
ATOM     55  C   UNL     1      -4.641  -5.119  -8.278  1.00  0.00     0.059 A 
ATOM     56  F   UNL     1      -3.152  -4.211  -6.743  1.00  0.00    -0.206 F 
ATOM     57  C   UNL     1      -4.910  -5.620  -9.545  1.00  0.00     0.060 A 
BRANCH  57  58
ATOM     58  S   UNL     1      -6.456  -6.505  -9.860  1.00  0.00     0.124 S 
ATOM     59  O   UNL     1      -7.145  -5.593 -10.767  1.00  0.00    -0.237 OA
ATOM     60  O   UNL     1      -5.983  -7.753 -10.448  1.00  0.00    -0.237 OA
ATOM     61  O   UNL     1      -7.049  -6.632  -8.531  1.00  0.00    -0.744 OA
ENDBRANCH  57  58
ENDBRANCH  25  50
BRANCH  37  62
ATOM     62  C   UNL     1       3.852  -3.481 -10.013  1.00  0.00     0.058 A 
ATOM     63  C   UNL     1       3.322  -2.273  -9.526  1.00  0.00     0.135 A 
ATOM     64  C   UNL     1       4.865  -3.392 -10.982  1.00  0.00     0.135 A 
ATOM     65  F   UNL     1       2.424  -2.263  -8.531  1.00  0.00    -0.206 F 
ATOM     66  C   UNL     1       3.767  -1.037  -9.993  1.00  0.00     0.059 A 
ATOM     67  C   UNL     1       5.348  -2.167 -11.438  1.00  0.00     0.059 A 
ATOM     68  F   UNL     1       5.450  -4.509 -11.446  1.00  0.00    -0.206 F 
ATOM     69  C   UNL     1       4.791  -0.992 -10.939  1.00  0.00     0.060 A 
BRANCH  69  70
ATOM     70  S   UNL     1       5.460   0.617 -11.416  1.00  0.00     0.124 S 
ATOM     71  O   UNL     1       4.392   1.160 -12.247  1.00  0.00    -0.237 OA
ATOM     72  O   UNL     1       5.648   1.274 -10.124  1.00  0.00    -0.237 OA
ATOM     73  O   UNL     1       6.694   0.278 -12.119  1.00  0.00    -0.744 OA
ENDBRANCH  69  70
ENDBRANCH  37  62
ENDBRANCH  11  12
ENDBRANCH   4   6
ENDBRANCH   1   2
BRANCH   1  74
ATOM     74  C   UNL     1       5.013   1.821  -0.913  1.00  0.00     0.042 C 
BRANCH  74  75
ATOM     75  C   UNL     1       4.480   3.240  -0.721  1.00  0.00     0.118 C 
BRANCH  75  76
ATOM     76  N   UNL     1       5.036   3.923   0.439  1.00  0.00    -0.352 N 
ATOM     77  C   UNL     1       5.793   5.072   0.510  1.00  0.00     0.251 C 
ATOM     78  H   UNL     1       4.841   3.499   1.306  1.00  0.00     0.163 HD
ATOM     79  O   UNL     1       6.239   5.453   1.580  1.00  0.00    -0.269 OA
BRANCH  77  80
ATOM     80  C   UNL     1       6.098   5.831  -0.724  1.00  0.00     0.039 A 
ATOM     81  C   UNL     1       7.436   6.098  -1.018  1.00  0.00     0.014 A 
ATOM     82  C   UNL     1       5.087   6.271  -1.580  1.00  0.00     0.014 A 
ATOM     83  C   UNL     1       7.766   6.720  -2.223  1.00  0.00     0.005 A 
ATOM     84  C   UNL     1       5.419   6.882  -2.791  1.00  0.00     0.005 A 
ATOM     85  C   UNL     1       6.765   7.090  -3.141  1.00  0.00    -0.038 A 
BRANCH  85  86
ATOM     86  C   UNL     1       7.173   7.680  -4.481  1.00  0.00     0.081 C 
ATOM     87  C   UNL     1       6.540   9.059  -4.754  1.00  0.00     0.111 C 
ATOM     88  C   UNL     1       6.785   6.687  -5.515  1.00  0.00     0.093 A 
ATOM     89  C   UNL     1       5.491   9.082  -5.853  1.00  0.00     0.188 C 
ATOM     90  C   UNL     1       5.916   7.007  -6.535  1.00  0.00     0.164 A 
ATOM     91  N   UNL     1       7.181   5.380  -5.575  1.00  0.00    -0.238 NA
ATOM     92  N   UNL     1       5.227   8.160  -6.719  1.00  0.00    -0.198 NA
ATOM     93  N   UNL     1       5.777   5.842  -7.275  1.00  0.00    -0.283 N 
ATOM     94  C   UNL     1       6.526   4.888  -6.610  1.00  0.00     0.206 A 
BRANCH  89  95
ATOM     95  O   UNL     1       4.808  10.243  -5.928  1.00  0.00    -0.496 OA
ATOM     96  H   UNL     1       4.980  10.928  -5.313  1.00  0.00     0.294 HD
ENDBRANCH  89  95
BRANCH  93  97
ATOM     97  C   UNL     1       5.034   5.658  -8.466  1.00  0.00     0.050 A 
ATOM     98  C   UNL     1       4.409   4.434  -8.729  1.00  0.00     0.027 A 
ATOM     99  C   UNL     1       4.952   6.701  -9.399  1.00  0.00     0.047 A 
ATOM    100  C   UNL     1       3.674   4.271  -9.906  1.00  0.00     0.004 A 
ATOM    101  C   UNL     1       4.251   6.510 -10.589  1.00  0.00     0.043 A 
ATOM    102  C   UNL     1       3.597   5.306 -10.839  1.00  0.00     0.020 A 
ATOM    103  Cl  UNL     1       4.221   7.765 -11.769  1.00  0.00    -0.084 Cl
ENDBRANCH  93  97
ENDBRANCH  85  86
ENDBRANCH  77  80
ENDBRANCH  75  76
ENDBRANCH  74  75
ENDBRANCH   1  74
TORSDOF 16
