REMARK SMILES O=C(NCCCNC(=O)c1cc(N2C(=O)C[C@H](Nc3ccccc3O)C2=O)ccc1O)c1ccc(-c2c3nc(c(-c4c(F)cc(S(=O)(=O)[O-])cc4F)c4ccc([nH]4)c(-c4c(F)cc(S(=O)(=O)[O-])cc4F)c4nc(c(-c5c(F)cc(S(=O)(=O)[O-])cc5F)c5ccc2[nH]5)C=C4)C=C3)cc1
REMARK SMILES IDX 5 1 4 2 3 3 1 4 2 5 32 7 33 8 97 9 34 10 96 11 35 12 36 13
REMARK SMILES IDX 37 14 90 15 38 16 95 17 89 18 91 19 39 20 94 21 88 22 87 23
REMARK SMILES IDX 40 25 74 26 53 27 73 28 54 29 57 30 72 31 92 32 55 33 56 34
REMARK SMILES IDX 71 36 93 37 58 38 41 39 42 40 51 41 43 42 44 43 50 44 52 45
REMARK SMILES IDX 45 46 46 47 47 48 48 49 49 50 75 51 76 52 85 53 77 54 78 55
REMARK SMILES IDX 84 56 86 57 79 58 80 59 81 60 82 61 83 62 59 63 60 64 69 65
REMARK SMILES IDX 61 66 62 67 68 68 70 69 63 70 64 71 65 72 66 73 67 74 6 75
REMARK SMILES IDX 7 76 8 77 9 79 10 80 11 81 30 82 12 83 29 84 28 85 31 86
REMARK SMILES IDX 13 88 14 89 26 90 15 91 16 92 17 93 27 94 18 95 19 97 20 98
REMARK SMILES IDX 24 99 21 100 23 101 22 102 25 103
REMARK H PARENT 3 6 91 24 57 35 7 78 31 87 18 96 25 104
REMARK Flexibility Score: inf
ROOT
ATOM      1  C   UNL     1       4.939   2.359  -0.159  1.00  0.00     0.042 C 
ENDROOT
BRANCH   1   2
ATOM      2  C   UNL     1       4.566   1.107   0.620  1.00  0.00     0.118 C 
BRANCH   2   3
ATOM      3  N   UNL     1       3.132   0.845   0.596  1.00  0.00    -0.352 N 
ATOM      4  O   UNL     1       1.208  -0.087  -0.112  1.00  0.00    -0.269 OA
ATOM      5  C   UNL     1       2.432  -0.162  -0.023  1.00  0.00     0.251 C 
ATOM      6  H   UNL     1       2.581   1.487   1.099  1.00  0.00     0.163 HD
BRANCH   5   7
ATOM      7  C   UNL     1       3.150  -1.325  -0.589  1.00  0.00     0.039 A 
ATOM      8  C   UNL     1       4.214  -1.905   0.104  1.00  0.00     0.014 A 
ATOM      9  C   UNL     1       2.733  -1.865  -1.809  1.00  0.00     0.014 A 
ATOM     10  C   UNL     1       4.953  -2.920  -0.486  1.00  0.00     0.010 A 
ATOM     11  C   UNL     1       3.413  -2.960  -2.353  1.00  0.00     0.010 A 
ATOM     12  C   UNL     1       4.540  -3.484  -1.703  1.00  0.00    -0.014 A 
BRANCH  12  13
ATOM     13  C   UNL     1       5.237  -4.696  -2.199  1.00  0.00     0.031 A 
ATOM     14  C   UNL     1       6.001  -4.692  -3.491  1.00  0.00     0.074 A 
ATOM     15  C   UNL     1       5.183  -5.808  -1.436  1.00  0.00     0.049 A 
ATOM     16  N   UNL     1       6.668  -5.669  -4.049  1.00  0.00    -0.248 NA
ATOM     17  C   UNL     1       6.016  -3.440  -4.265  1.00  0.00     0.031 C 
ATOM     18  C   UNL     1       4.445  -5.927  -0.173  1.00  0.00     0.029 A 
ATOM     19  N   UNL     1       5.764  -7.038  -1.593  1.00  0.00    -0.354 N 
ATOM     20  C   UNL     1       7.163  -5.163  -5.245  1.00  0.00     0.074 A 
ATOM     21  C   UNL     1       6.710  -3.792  -5.341  1.00  0.00     0.031 C 
ATOM     22  C   UNL     1       4.653  -7.143   0.348  1.00  0.00     0.029 A 
ATOM     23  C   UNL     1       5.479  -7.914  -0.572  1.00  0.00     0.049 A 
ATOM     24  H   UNL     1       6.332  -7.273  -2.362  1.00  0.00     0.167 HD
ATOM     25  C   UNL     1       7.926  -5.791  -6.171  1.00  0.00     0.037 A 
ATOM     26  C   UNL     1       5.817  -9.205  -0.404  1.00  0.00     0.037 A 
ATOM     27  C   UNL     1       8.395  -7.149  -6.045  1.00  0.00     0.049 A 
ATOM     28  C   UNL     1       6.659  -9.871  -1.452  1.00  0.00     0.074 A 
ATOM     29  C   UNL     1       9.229  -7.852  -6.897  1.00  0.00     0.029 A 
ATOM     30  N   UNL     1       8.066  -8.011  -5.009  1.00  0.00    -0.354 N 
ATOM     31  N   UNL     1       7.159  -9.359  -2.551  1.00  0.00    -0.248 NA
ATOM     32  C   UNL     1       6.974 -11.290  -1.246  1.00  0.00     0.031 C 
ATOM     33  C   UNL     1       9.369  -9.152  -6.401  1.00  0.00     0.029 A 
ATOM     34  C   UNL     1       8.656  -9.248  -5.217  1.00  0.00     0.049 A 
ATOM     35  H   UNL     1       7.498  -7.779  -4.239  1.00  0.00     0.167 HD
ATOM     36  C   UNL     1       7.850 -10.393  -3.168  1.00  0.00     0.074 A 
ATOM     37  C   UNL     1       7.730 -11.550  -2.304  1.00  0.00     0.031 C 
ATOM     38  C   UNL     1       8.517 -10.388  -4.348  1.00  0.00     0.037 A 
BRANCH  25  39
ATOM     39  C   UNL     1       8.307  -5.037  -7.414  1.00  0.00     0.058 A 
ATOM     40  C   UNL     1       9.306  -4.052  -7.404  1.00  0.00     0.135 A 
ATOM     41  C   UNL     1       7.739  -5.382  -8.652  1.00  0.00     0.135 A 
ATOM     42  F   UNL     1       9.872  -3.675  -6.247  1.00  0.00    -0.206 F 
ATOM     43  C   UNL     1       9.729  -3.436  -8.578  1.00  0.00     0.059 A 
ATOM     44  C   UNL     1       8.161  -4.792  -9.841  1.00  0.00     0.059 A 
ATOM     45  F   UNL     1       6.778  -6.317  -8.717  1.00  0.00    -0.206 F 
ATOM     46  C   UNL     1       9.156  -3.818  -9.793  1.00  0.00     0.060 A 
BRANCH  46  47
ATOM     47  S   UNL     1       9.756  -3.047 -11.312  1.00  0.00     0.124 S 
ATOM     48  O   UNL     1       9.185  -1.708 -11.204  1.00  0.00    -0.237 OA
ATOM     49  O   UNL     1      11.204  -3.132 -11.155  1.00  0.00    -0.237 OA
ATOM     50  O   UNL     1       9.193  -3.885 -12.366  1.00  0.00    -0.744 OA
ENDBRANCH  46  47
ENDBRANCH  25  39
BRANCH  26  51
ATOM     51  C   UNL     1       5.323  -9.955   0.779  1.00  0.00     0.058 A 
ATOM     52  C   UNL     1       6.198 -10.382   1.787  1.00  0.00     0.135 A 
ATOM     53  C   UNL     1       3.959 -10.256   0.923  1.00  0.00     0.135 A 
ATOM     54  F   UNL     1       7.510 -10.119   1.693  1.00  0.00    -0.206 F 
ATOM     55  C   UNL     1       5.742 -11.104   2.886  1.00  0.00     0.059 A 
ATOM     56  C   UNL     1       3.476 -10.950   2.025  1.00  0.00     0.059 A 
ATOM     57  F   UNL     1       3.078  -9.850  -0.005  1.00  0.00    -0.206 F 
ATOM     58  C   UNL     1       4.379 -11.386   2.994  1.00  0.00     0.060 A 
BRANCH  58  59
ATOM     59  S   UNL     1       3.789 -12.305   4.431  1.00  0.00     0.124 S 
ATOM     60  O   UNL     1       4.166 -13.669   4.079  1.00  0.00    -0.237 OA
ATOM     61  O   UNL     1       4.543 -11.694   5.521  1.00  0.00    -0.237 OA
ATOM     62  O   UNL     1       2.356 -12.027   4.438  1.00  0.00    -0.744 OA
ENDBRANCH  58  59
ENDBRANCH  26  51
BRANCH  38  63
ATOM     63  C   UNL     1       9.169 -11.675  -4.763  1.00  0.00     0.058 A 
ATOM     64  C   UNL     1       8.411 -12.756  -5.237  1.00  0.00     0.135 A 
ATOM     65  C   UNL     1      10.564 -11.818  -4.713  1.00  0.00     0.135 A 
ATOM     66  F   UNL     1       7.072 -12.671  -5.293  1.00  0.00    -0.206 F 
ATOM     67  C   UNL     1       9.013 -13.948  -5.626  1.00  0.00     0.059 A 
ATOM     68  C   UNL     1      11.189 -12.991  -5.120  1.00  0.00     0.059 A 
ATOM     69  F   UNL     1      11.332 -10.809  -4.273  1.00  0.00    -0.206 F 
ATOM     70  C   UNL     1      10.403 -14.056  -5.563  1.00  0.00     0.060 A 
BRANCH  70  71
ATOM     71  S   UNL     1      11.177 -15.597  -6.094  1.00  0.00     0.124 S 
ATOM     72  O   UNL     1      10.898 -16.471  -4.959  1.00  0.00    -0.237 OA
ATOM     73  O   UNL     1      10.454 -15.905  -7.324  1.00  0.00    -0.237 OA
ATOM     74  O   UNL     1      12.578 -15.229  -6.274  1.00  0.00    -0.744 OA
ENDBRANCH  70  71
ENDBRANCH  38  63
ENDBRANCH  12  13
ENDBRANCH   5   7
ENDBRANCH   2   3
ENDBRANCH   1   2
BRANCH   1  75
ATOM     75  C   UNL     1       4.394   3.636   0.457  1.00  0.00     0.118 C 
BRANCH  75  76
ATOM     76  N   UNL     1       4.969   3.889   1.767  1.00  0.00    -0.352 N 
ATOM     77  C   UNL     1       5.790   4.914   2.153  1.00  0.00     0.255 C 
ATOM     78  H   UNL     1       4.737   3.239   2.469  1.00  0.00     0.163 HD
ATOM     79  O   UNL     1       6.306   4.913   3.268  1.00  0.00    -0.269 OA
BRANCH  77  80
ATOM     80  C   UNL     1       6.099   6.009   1.216  1.00  0.00     0.083 A 
ATOM     81  C   UNL     1       7.450   6.247   0.930  1.00  0.00     0.044 A 
ATOM     82  C   UNL     1       5.110   6.844   0.690  1.00  0.00     0.128 A 
ATOM     83  C   UNL     1       7.826   7.339   0.137  1.00  0.00     0.053 A 
ATOM     84  C   UNL     1       5.468   7.906  -0.134  1.00  0.00     0.049 A 
ATOM     85  C   UNL     1       6.820   8.162  -0.390  1.00  0.00     0.031 A 
BRANCH  82  86
ATOM     86  O   UNL     1       3.792   6.630   0.980  1.00  0.00    -0.507 OA
ATOM     87  H   UNL     1       3.544   5.916   1.534  1.00  0.00     0.293 HD
ENDBRANCH  82  86
BRANCH  83  88
ATOM     88  N   UNL     1       9.198   7.622  -0.086  1.00  0.00    -0.249 N 
ATOM     89  C   UNL     1       9.721   8.886  -0.184  1.00  0.00     0.236 C 
ATOM     90  C   UNL     1      10.157   6.650  -0.253  1.00  0.00     0.256 C 
ATOM     91  O   UNL     1       9.129   9.957  -0.126  1.00  0.00    -0.274 OA
ATOM     92  C   UNL     1      11.213   8.804  -0.286  1.00  0.00     0.136 C 
ATOM     93  C   UNL     1      11.518   7.321  -0.394  1.00  0.00     0.179 C 
ATOM     94  O   UNL     1       9.958   5.447  -0.383  1.00  0.00    -0.272 OA
BRANCH  93  95
ATOM     95  N   UNL     1      12.133   7.042  -1.701  1.00  0.00    -0.370 N 
ATOM     96  H   UNL     1      11.650   7.200  -2.545  1.00  0.00     0.161 HD
BRANCH  95  97
ATOM     97  C   UNL     1      13.444   6.539  -1.683  1.00  0.00     0.077 A 
ATOM     98  C   UNL     1      14.451   7.231  -2.361  1.00  0.00     0.029 A 
ATOM     99  C   UNL     1      13.755   5.282  -1.137  1.00  0.00     0.138 A 
ATOM    100  C   UNL     1      15.740   6.698  -2.460  1.00  0.00     0.002 A 
ATOM    101  C   UNL     1      15.035   4.740  -1.236  1.00  0.00     0.048 A 
ATOM    102  C   UNL     1      16.031   5.455  -1.899  1.00  0.00     0.004 A 
BRANCH  99 103
ATOM    103  O   UNL     1      12.767   4.575  -0.510  1.00  0.00    -0.506 OA
ATOM    104  H   UNL     1      11.905   4.936  -0.441  1.00  0.00     0.293 HD
ENDBRANCH  99 103
ENDBRANCH  95  97
ENDBRANCH  93  95
ENDBRANCH  83  88
ENDBRANCH  77  80
ENDBRANCH  75  76
ENDBRANCH   1  75
TORSDOF 18
