REMARK SMILES CC(=O)N(C)n1cnn(CC(=O)NCCCNC(=O)c2ccc(-c3c4nc(c(-c5c(F)cc(S(=O)(=O)[O-])cc5F)c5ccc([nH]5)c(-c5c(F)cc(S(=O)(=O)[O-])cc5F)c5nc(c(-c6c(F)cc(S(=O)(=O)[O-])cc6F)c6ccc3[nH]6)C=C5)C=C4)cc2)c1=S
REMARK SMILES IDX 15 1 14 2 13 3 11 4 12 5 10 7 9 8 6 9 7 10 86 11 8 12 87 13
REMARK SMILES IDX 4 14 5 15 2 16 1 17 3 18 16 19 17 20 18 21 19 23 20 24 21 25
REMARK SMILES IDX 85 26 22 27 84 28 23 29 24 30 25 31 78 32 26 33 83 34 77 35
REMARK SMILES IDX 79 36 27 37 82 38 76 39 75 40 28 42 62 43 41 44 61 45 42 46
REMARK SMILES IDX 45 47 60 48 80 49 43 50 44 51 59 53 81 54 46 55 29 56 30 57
REMARK SMILES IDX 39 58 31 59 32 60 38 61 40 62 33 63 34 64 35 65 36 66 37 67
REMARK SMILES IDX 63 68 64 69 73 70 65 71 66 72 72 73 74 74 67 75 68 76 69 77
REMARK SMILES IDX 70 78 71 79 47 80 48 81 57 82 49 83 50 84 56 85 58 86 51 87
REMARK SMILES IDX 52 88 53 89 54 90 55 91
REMARK H PARENT 13 6 17 22 79 41 45 52
REMARK Flexibility Score: inf
ROOT
ATOM      1  C   UNL     1       1.918   2.655   5.105  1.00  0.00     0.042 C 
ENDROOT
BRANCH   1   2
ATOM      2  C   UNL     1       2.382   2.064   6.437  1.00  0.00     0.117 C 
BRANCH   2   3
ATOM      3  N   UNL     1       1.341   2.027   7.444  1.00  0.00    -0.354 N 
ATOM      4  C   UNL     1       0.602   0.971   7.895  1.00  0.00     0.241 C 
ATOM      5  O   UNL     1      -0.041   1.140   8.937  1.00  0.00    -0.273 OA
ATOM      6  H   UNL     1       1.136   2.892   7.866  1.00  0.00     0.163 HD
BRANCH   4   7
ATOM      7  C   UNL     1       0.720  -0.423   7.272  1.00  0.00     0.247 C 
BRANCH   7   8
ATOM      8  N   UNL     1       0.479  -0.480   5.835  1.00  0.00    -0.227 N 
ATOM      9  N   UNL     1       0.554  -0.718   3.638  1.00  0.00    -0.211 N 
ATOM     10  C   UNL     1      -0.657  -0.281   4.053  1.00  0.00     0.247 A 
ATOM     11  C   UNL     1       1.327  -0.880   4.779  1.00  0.00     0.217 A 
ATOM     12  N   UNL     1      -0.767  -0.138   5.335  1.00  0.00    -0.158 NA
ATOM     13  S   UNL     1       2.888  -1.455   4.909  1.00  0.00    -0.037 S 
BRANCH   9  14
ATOM     14  N   UNL     1       0.925  -0.835   2.290  1.00  0.00    -0.250 N 
ATOM     15  C   UNL     1       1.498  -2.115   1.911  1.00  0.00     0.176 C 
BRANCH  14  16
ATOM     16  C   UNL     1       0.729   0.263   1.466  1.00  0.00     0.238 C 
ATOM     17  C   UNL     1       1.091   0.088   0.012  1.00  0.00     0.116 C 
ATOM     18  O   UNL     1       0.270   1.333   1.866  1.00  0.00    -0.273 OA
ENDBRANCH  14  16
ENDBRANCH   9  14
ENDBRANCH   7   8
ENDBRANCH   4   7
ENDBRANCH   2   3
ENDBRANCH   1   2
BRANCH   1  19
ATOM     19  C   UNL     1       1.748   4.168   5.171  1.00  0.00     0.118 C 
BRANCH  19  20
ATOM     20  N   UNL     1       3.026   4.864   5.303  1.00  0.00    -0.352 N 
ATOM     21  C   UNL     1       3.274   6.220   5.339  1.00  0.00     0.251 C 
ATOM     22  H   UNL     1       3.818   4.285   5.377  1.00  0.00     0.163 HD
ATOM     23  O   UNL     1       4.402   6.634   5.114  1.00  0.00    -0.269 OA
BRANCH  21  24
ATOM     24  C   UNL     1       2.175   7.165   5.633  1.00  0.00     0.039 A 
ATOM     25  C   UNL     1       2.113   8.383   4.950  1.00  0.00     0.014 A 
ATOM     26  C   UNL     1       1.216   6.850   6.597  1.00  0.00     0.014 A 
ATOM     27  C   UNL     1       1.036   9.236   5.178  1.00  0.00     0.010 A 
ATOM     28  C   UNL     1       0.102   7.652   6.760  1.00  0.00     0.010 A 
ATOM     29  C   UNL     1       0.010   8.851   6.060  1.00  0.00    -0.014 A 
BRANCH  29  30
ATOM     30  C   UNL     1      -1.257   9.591   6.055  1.00  0.00     0.031 A 
ATOM     31  C   UNL     1      -1.863   9.669   4.694  1.00  0.00     0.074 A 
ATOM     32  C   UNL     1      -1.939   9.970   7.160  1.00  0.00     0.049 A 
ATOM     33  N   UNL     1      -1.974  10.710   3.938  1.00  0.00    -0.248 NA
ATOM     34  C   UNL     1      -2.207   8.409   4.008  1.00  0.00     0.031 C 
ATOM     35  C   UNL     1      -1.604   9.656   8.554  1.00  0.00     0.029 A 
ATOM     36  N   UNL     1      -3.135  10.623   7.283  1.00  0.00    -0.354 N 
ATOM     37  C   UNL     1      -2.660  10.280   2.802  1.00  0.00     0.074 A 
ATOM     38  C   UNL     1      -2.558   8.849   2.797  1.00  0.00     0.031 C 
ATOM     39  C   UNL     1      -2.670   9.906   9.346  1.00  0.00     0.029 A 
ATOM     40  C   UNL     1      -3.707  10.546   8.556  1.00  0.00     0.049 A 
ATOM     41  H   UNL     1      -3.557  11.107   6.537  1.00  0.00     0.167 HD
ATOM     42  C   UNL     1      -3.515  11.124   2.157  1.00  0.00     0.037 A 
ATOM     43  C   UNL     1      -4.942  10.966   8.938  1.00  0.00     0.037 A 
ATOM     44  C   UNL     1      -3.306  12.476   2.614  1.00  0.00     0.049 A 
ATOM     45  C   UNL     1      -5.391  11.962   7.938  1.00  0.00     0.074 A 
ATOM     46  C   UNL     1      -2.325  13.435   2.498  1.00  0.00     0.029 A 
ATOM     47  N   UNL     1      -4.097  12.820   3.678  1.00  0.00    -0.354 N 
ATOM     48  N   UNL     1      -4.839  13.134   7.791  1.00  0.00    -0.248 NA
ATOM     49  C   UNL     1      -6.253  11.535   6.843  1.00  0.00     0.031 C 
ATOM     50  C   UNL     1      -2.434  14.247   3.666  1.00  0.00     0.029 A 
ATOM     51  C   UNL     1      -3.513  13.800   4.428  1.00  0.00     0.049 A 
ATOM     52  H   UNL     1      -4.973  12.415   3.875  1.00  0.00     0.167 HD
ATOM     53  C   UNL     1      -4.916  13.377   6.434  1.00  0.00     0.074 A 
ATOM     54  C   UNL     1      -5.941  12.468   5.940  1.00  0.00     0.031 C 
ATOM     55  C   UNL     1      -3.911  14.043   5.797  1.00  0.00     0.037 A 
BRANCH  42  56
ATOM     56  C   UNL     1      -4.853  10.727   1.542  1.00  0.00     0.058 A 
ATOM     57  C   UNL     1      -5.650  11.736   0.949  1.00  0.00     0.135 A 
ATOM     58  C   UNL     1      -5.522   9.507   1.782  1.00  0.00     0.135 A 
ATOM     59  F   UNL     1      -5.129  12.939   0.659  1.00  0.00    -0.206 F 
ATOM     60  C   UNL     1      -7.016  11.576   0.705  1.00  0.00     0.059 A 
ATOM     61  C   UNL     1      -6.872   9.312   1.504  1.00  0.00     0.059 A 
ATOM     62  F   UNL     1      -4.934   8.464   2.375  1.00  0.00    -0.206 F 
ATOM     63  C   UNL     1      -7.622  10.361   1.002  1.00  0.00     0.060 A 
BRANCH  63  64
ATOM     64  S   UNL     1      -9.395  10.166   0.753  1.00  0.00     0.124 S 
ATOM     65  O   UNL     1      -9.934  11.041   1.788  1.00  0.00    -0.237 OA
ATOM     66  O   UNL     1      -9.557  10.624  -0.623  1.00  0.00    -0.237 OA
ATOM     67  O   UNL     1      -9.606   8.736   0.959  1.00  0.00    -0.744 OA
ENDBRANCH  63  64
ENDBRANCH  42  56
BRANCH  43  68
ATOM     68  C   UNL     1      -5.866  10.464   9.993  1.00  0.00     0.058 A 
ATOM     69  C   UNL     1      -6.986  11.218  10.401  1.00  0.00     0.135 A 
ATOM     70  C   UNL     1      -5.852   9.116  10.395  1.00  0.00     0.135 A 
ATOM     71  F   UNL     1      -7.089  12.513  10.066  1.00  0.00    -0.206 F 
ATOM     72  C   UNL     1      -8.062  10.650  11.092  1.00  0.00     0.059 A 
ATOM     73  C   UNL     1      -6.911   8.529  11.092  1.00  0.00     0.059 A 
ATOM     74  F   UNL     1      -4.849   8.302  10.034  1.00  0.00    -0.206 F 
ATOM     75  C   UNL     1      -8.029   9.294  11.408  1.00  0.00     0.060 A 
BRANCH  75  76
ATOM     76  S   UNL     1      -9.506   8.509  12.104  1.00  0.00     0.124 S 
ATOM     77  O   UNL     1      -9.538   9.065  13.452  1.00  0.00    -0.237 OA
ATOM     78  O   UNL     1     -10.556   8.969  11.200  1.00  0.00    -0.237 OA
ATOM     79  O   UNL     1      -9.201   7.083  12.023  1.00  0.00    -0.744 OA
ENDBRANCH  75  76
ENDBRANCH  43  68
BRANCH  55  80
ATOM     80  C   UNL     1      -3.089  15.003   6.604  1.00  0.00     0.058 A 
ATOM     81  C   UNL     1      -2.227  14.660   7.658  1.00  0.00     0.135 A 
ATOM     82  C   UNL     1      -3.130  16.350   6.212  1.00  0.00     0.135 A 
ATOM     83  F   UNL     1      -2.068  13.383   8.038  1.00  0.00    -0.206 F 
ATOM     84  C   UNL     1      -1.466  15.629   8.317  1.00  0.00     0.059 A 
ATOM     85  C   UNL     1      -2.355  17.322   6.828  1.00  0.00     0.059 A 
ATOM     86  F   UNL     1      -3.904  16.728   5.181  1.00  0.00    -0.206 F 
ATOM     87  C   UNL     1      -1.537  16.957   7.893  1.00  0.00     0.060 A 
BRANCH  87  88
ATOM     88  S   UNL     1      -0.515  18.204   8.702  1.00  0.00     0.124 S 
ATOM     89  O   UNL     1      -1.159  18.331  10.004  1.00  0.00    -0.237 OA
ATOM     90  O   UNL     1       0.805  17.580   8.704  1.00  0.00    -0.237 OA
ATOM     91  O   UNL     1      -0.641  19.369   7.828  1.00  0.00    -0.744 OA
ENDBRANCH  87  88
ENDBRANCH  55  80
ENDBRANCH  29  30
ENDBRANCH  21  24
ENDBRANCH  19  20
ENDBRANCH   1  19
TORSDOF 16
