REMARK SMILES CCOc1ccc(-c2cc(Cl)cc3c2O[C@H](C(F)(F)F)C(C(=O)NCCCNC(=O)c2ccc(-c4c5nc(c(-c6c(F)cc(S(=O)(=O)[O-])cc6F)c6ccc([nH]6)c(-c6c(F)cc(S(=O)(=O)[O-])cc6F)c6nc(c(-c7c(F)cc(S(=O)(=O)[O-])cc7F)c7ccc4[nH]7)C=C6)C=C5)cc2)=C3)cc1
REMARK SMILES IDX 26 1 25 2 24 3 22 4 23 5 21 7 8 8 9 9 14 10 10 11 13 12
REMARK SMILES IDX 15 13 11 14 12 15 97 16 16 17 7 18 4 19 5 20 99 21 6 22
REMARK SMILES IDX 98 23 3 24 2 25 1 26 17 27 18 28 19 29 20 30 27 31 28 32
REMARK SMILES IDX 29 33 30 35 31 36 32 37 96 38 33 39 95 40 34 41 35 42 36 43
REMARK SMILES IDX 89 44 37 45 94 46 88 47 90 48 38 49 93 50 87 51 86 52 39 54
REMARK SMILES IDX 73 55 52 56 72 57 53 58 56 59 71 60 91 61 54 62 55 63 70 65
REMARK SMILES IDX 92 66 57 67 40 68 41 69 50 70 42 71 43 72 49 73 51 74 44 75
REMARK SMILES IDX 45 76 46 77 47 78 48 79 74 80 75 81 84 82 76 83 77 84 83 85
REMARK SMILES IDX 85 86 78 87 79 88 80 89 81 90 82 91 58 92 59 93 68 94 60 95
REMARK SMILES IDX 61 96 67 97 69 98 62 99 63 100 64 101 65 102 66 103
REMARK H PARENT 24 6 28 34 90 53 56 64
REMARK Flexibility Score: inf
ROOT
ATOM      1  C   UNL     1      13.709   3.908  -5.918  1.00  0.00     0.042 C 
ENDROOT
BRANCH   1   2
ATOM      2  C   UNL     1      13.148   2.922  -4.892  1.00  0.00     0.118 C 
BRANCH   2   3
ATOM      3  N   UNL     1      12.434   3.641  -3.855  1.00  0.00    -0.352 N 
ATOM      4  C   UNL     1      11.117   3.535  -3.548  1.00  0.00     0.251 C 
ATOM      5  O   UNL     1      10.482   4.528  -3.215  1.00  0.00    -0.270 OA
ATOM      6  H   UNL     1      12.961   4.274  -3.316  1.00  0.00     0.163 HD
BRANCH   4   7
ATOM      7  C   UNL     1      10.538   2.160  -3.499  1.00  0.00     0.067 C 
ATOM      8  C   UNL     1       6.980   2.994  -1.703  1.00  0.00     0.026 A 
ATOM      9  C   UNL     1       7.218   3.829  -0.585  1.00  0.00     0.033 A 
ATOM     10  C   UNL     1       8.101   2.372  -2.275  1.00  0.00     0.135 A 
ATOM     11  C   UNL     1       8.472   3.922   0.018  1.00  0.00     0.042 A 
ATOM     12  C   UNL     1       9.339   2.392  -1.590  1.00  0.00     0.019 A 
ATOM     13  O   UNL     1       8.053   1.748  -3.511  1.00  0.00    -0.475 OA
ATOM     14  Cl  UNL     1       8.690   4.960   1.371  1.00  0.00    -0.084 Cl
ATOM     15  C   UNL     1       9.528   3.157  -0.444  1.00  0.00     0.032 A 
ATOM     16  C   UNL     1      10.484   1.704  -2.231  1.00  0.00     0.025 C 
ATOM     17  C   UNL     1       9.270   1.991  -4.331  1.00  0.00     0.314 C 
BRANCH   8  18
ATOM     18  C   UNL     1       5.560   2.700  -2.005  1.00  0.00    -0.014 A 
ATOM     19  C   UNL     1       2.820   2.147  -1.613  1.00  0.00     0.119 A 
ATOM     20  C   UNL     1       3.234   3.450  -1.872  1.00  0.00     0.047 A 
ATOM     21  C   UNL     1       3.738   1.104  -1.684  1.00  0.00     0.047 A 
ATOM     22  C   UNL     1       4.595   3.724  -2.072  1.00  0.00     0.013 A 
ATOM     23  C   UNL     1       5.097   1.379  -1.881  1.00  0.00     0.013 A 
BRANCH  19  24
ATOM     24  O   UNL     1       1.496   1.925  -1.357  1.00  0.00    -0.494 OA
BRANCH  24  25
ATOM     25  C   UNL     1       1.244   1.442  -0.027  1.00  0.00     0.226 C 
ATOM     26  C   UNL     1       1.002  -0.059  -0.029  1.00  0.00     0.049 C 
ENDBRANCH  24  25
ENDBRANCH  19  24
ENDBRANCH   8  18
BRANCH  17  27
ATOM     27  C   UNL     1       9.487   0.859  -5.358  1.00  0.00     0.429 C 
ATOM     28  F   UNL     1       8.689  -0.210  -5.131  1.00  0.00    -0.167 F 
ATOM     29  F   UNL     1       9.246   1.286  -6.620  1.00  0.00    -0.167 F 
ATOM     30  F   UNL     1      10.763   0.389  -5.352  1.00  0.00    -0.167 F 
ENDBRANCH  17  27
ENDBRANCH   4   7
ENDBRANCH   2   3
ENDBRANCH   1   2
BRANCH   1  31
ATOM     31  C   UNL     1      14.744   4.884  -5.360  1.00  0.00     0.118 C 
BRANCH  31  32
ATOM     32  N   UNL     1      15.951   4.230  -4.878  1.00  0.00    -0.352 N 
ATOM     33  C   UNL     1      17.261   4.582  -5.104  1.00  0.00     0.251 C 
ATOM     34  H   UNL     1      15.812   3.432  -4.318  1.00  0.00     0.163 HD
ATOM     35  O   UNL     1      18.173   3.851  -4.729  1.00  0.00    -0.269 OA
BRANCH  33  36
ATOM     36  C   UNL     1      17.553   5.832  -5.834  1.00  0.00     0.039 A 
ATOM     37  C   UNL     1      18.398   5.788  -6.945  1.00  0.00     0.014 A 
ATOM     38  C   UNL     1      16.942   7.030  -5.455  1.00  0.00     0.014 A 
ATOM     39  C   UNL     1      18.567   6.934  -7.727  1.00  0.00     0.010 A 
ATOM     40  C   UNL     1      17.053   8.147  -6.276  1.00  0.00     0.010 A 
ATOM     41  C   UNL     1      17.860   8.110  -7.424  1.00  0.00    -0.014 A 
BRANCH  41  42
ATOM     42  C   UNL     1      17.928   9.307  -8.301  1.00  0.00     0.031 A 
ATOM     43  C   UNL     1      18.458  10.607  -7.763  1.00  0.00     0.074 A 
ATOM     44  C   UNL     1      17.412   9.254  -9.546  1.00  0.00     0.049 A 
ATOM     45  N   UNL     1      18.481  11.788  -8.326  1.00  0.00    -0.248 NA
ATOM     46  C   UNL     1      18.997  10.583  -6.394  1.00  0.00     0.031 C 
ATOM     47  C   UNL     1      16.808   8.070 -10.161  1.00  0.00     0.029 A 
ATOM     48  N   UNL     1      17.289  10.226 -10.507  1.00  0.00    -0.354 N 
ATOM     49  C   UNL     1      19.003  12.652  -7.370  1.00  0.00     0.074 A 
ATOM     50  C   UNL     1      19.240  11.866  -6.178  1.00  0.00     0.031 C 
ATOM     51  C   UNL     1      16.388   8.383 -11.397  1.00  0.00     0.029 A 
ATOM     52  C   UNL     1      16.656   9.795 -11.649  1.00  0.00     0.049 A 
ATOM     53  H   UNL     1      17.623  11.145 -10.390  1.00  0.00     0.167 HD
ATOM     54  C   UNL     1      19.277  13.974  -7.481  1.00  0.00     0.037 A 
ATOM     55  C   UNL     1      16.316  10.463 -12.769  1.00  0.00     0.037 A 
ATOM     56  C   UNL     1      19.071  14.740  -8.683  1.00  0.00     0.049 A 
ATOM     57  C   UNL     1      16.666  11.919 -12.892  1.00  0.00     0.074 A 
ATOM     58  C   UNL     1      19.396  16.062  -8.928  1.00  0.00     0.029 A 
ATOM     59  N   UNL     1      18.482  14.253  -9.841  1.00  0.00    -0.354 N 
ATOM     60  N   UNL     1      17.233  12.705 -12.007  1.00  0.00    -0.248 NA
ATOM     61  C   UNL     1      16.343  12.579 -14.164  1.00  0.00     0.031 C 
ATOM     62  C   UNL     1      18.967  16.386 -10.220  1.00  0.00     0.029 A 
ATOM     63  C   UNL     1      18.416  15.253 -10.797  1.00  0.00     0.049 A 
ATOM     64  H   UNL     1      18.158  13.332  -9.966  1.00  0.00     0.167 HD
ATOM     65  C   UNL     1      17.353  13.947 -12.621  1.00  0.00     0.074 A 
ATOM     66  C   UNL     1      16.808  13.804 -13.957  1.00  0.00     0.031 C 
ATOM     67  C   UNL     1      17.870  15.098 -12.124  1.00  0.00     0.037 A 
BRANCH  54  68
ATOM     68  C   UNL     1      19.820  14.671  -6.263  1.00  0.00     0.058 A 
ATOM     69  C   UNL     1      21.105  14.400  -5.766  1.00  0.00     0.135 A 
ATOM     70  C   UNL     1      19.039  15.613  -5.575  1.00  0.00     0.135 A 
ATOM     71  F   UNL     1      21.891  13.499  -6.377  1.00  0.00    -0.206 F 
ATOM     72  C   UNL     1      21.576  14.996  -4.601  1.00  0.00     0.059 A 
ATOM     73  C   UNL     1      19.502  16.246  -4.424  1.00  0.00     0.059 A 
ATOM     74  F   UNL     1      17.805  15.916  -6.008  1.00  0.00    -0.206 F 
ATOM     75  C   UNL     1      20.762  15.911  -3.931  1.00  0.00     0.060 A 
BRANCH  75  76
ATOM     76  S   UNL     1      21.369  16.648  -2.399  1.00  0.00     0.124 S 
ATOM     77  O   UNL     1      21.199  15.543  -1.460  1.00  0.00    -0.237 OA
ATOM     78  O   UNL     1      22.748  16.985  -2.736  1.00  0.00    -0.237 OA
ATOM     79  O   UNL     1      20.480  17.787  -2.195  1.00  0.00    -0.744 OA
ENDBRANCH  75  76
ENDBRANCH  54  68
BRANCH  55  80
ATOM     80  C   UNL     1      15.628   9.737 -13.869  1.00  0.00     0.058 A 
ATOM     81  C   UNL     1      16.316   9.384 -15.039  1.00  0.00     0.135 A 
ATOM     82  C   UNL     1      14.293   9.323 -13.743  1.00  0.00     0.135 A 
ATOM     83  F   UNL     1      17.592   9.765 -15.207  1.00  0.00    -0.206 F 
ATOM     84  C   UNL     1      15.709   8.639 -16.044  1.00  0.00     0.059 A 
ATOM     85  C   UNL     1      13.670   8.559 -14.726  1.00  0.00     0.059 A 
ATOM     86  F   UNL     1      13.598   9.622 -12.635  1.00  0.00    -0.206 F 
ATOM     87  C   UNL     1      14.387   8.221 -15.873  1.00  0.00     0.060 A 
BRANCH  87  88
ATOM     88  S   UNL     1      13.642   7.167 -17.137  1.00  0.00     0.124 S 
ATOM     89  O   UNL     1      13.413   8.120 -18.217  1.00  0.00    -0.237 OA
ATOM     90  O   UNL     1      14.691   6.179 -17.369  1.00  0.00    -0.237 OA
ATOM     91  O   UNL     1      12.444   6.654 -16.481  1.00  0.00    -0.744 OA
ENDBRANCH  87  88
ENDBRANCH  55  80
BRANCH  67  92
ATOM     92  C   UNL     1      17.901  16.294 -13.034  1.00  0.00     0.058 A 
ATOM     93  C   UNL     1      16.737  17.014 -13.346  1.00  0.00     0.135 A 
ATOM     94  C   UNL     1      19.120  16.762 -13.549  1.00  0.00     0.135 A 
ATOM     95  F   UNL     1      15.545  16.604 -12.885  1.00  0.00    -0.206 F 
ATOM     96  C   UNL     1      16.779  18.148 -14.150  1.00  0.00     0.059 A 
ATOM     97  C   UNL     1      19.189  17.908 -14.335  1.00  0.00     0.059 A 
ATOM     98  F   UNL     1      20.264  16.115 -13.274  1.00  0.00    -0.206 F 
ATOM     99  C   UNL     1      18.011  18.589 -14.638  1.00  0.00     0.060 A 
BRANCH  99 100
ATOM    100  S   UNL     1      18.059  20.086 -15.647  1.00  0.00     0.124 S 
ATOM    101  O   UNL     1      17.524  19.603 -16.916  1.00  0.00    -0.237 OA
ATOM    102  O   UNL     1      17.195  20.995 -14.900  1.00  0.00    -0.237 OA
ATOM    103  O   UNL     1      19.474  20.444 -15.656  1.00  0.00    -0.744 OA
ENDBRANCH  99 100
ENDBRANCH  67  92
ENDBRANCH  41  42
ENDBRANCH  33  36
ENDBRANCH  31  32
ENDBRANCH   1  31
TORSDOF 17
