REMARK SMILES CC1(C)CCCC[C@@]1(C(=O)NCCCNC(=O)c1ccc(-c2c3nc(c(-c4c(F)cc(S(=O)(=O)[O-])cc4F)c4ccc([nH]4)c(-c4c(F)cc(S(=O)(=O)[O-])cc4F)c4nc(c(-c5c(F)cc(S(=O)(=O)[O-])cc5F)c5ccc2[nH]5)C=C4)C=C3)cc1)[NH+]1CC[NH2+]CC1
REMARK SMILES IDX 14 1 13 2 12 3 11 4 9 5 10 6 8 8 1 9 2 10 3 11 4 12 5 13
REMARK SMILES IDX 7 14 6 15 84 16 85 17 89 18 86 20 88 21 87 22 15 25 16 26
REMARK SMILES IDX 17 28 18 29 19 30 83 31 20 32 82 33 21 34 22 35 23 36 76 37
REMARK SMILES IDX 24 38 81 39 75 40 77 41 25 42 80 43 74 44 73 45 26 47 60 48
REMARK SMILES IDX 39 49 59 50 40 51 43 52 58 53 78 54 41 55 42 56 57 58 79 59
REMARK SMILES IDX 44 60 27 61 28 62 37 63 29 64 30 65 36 66 38 67 31 68 32 69
REMARK SMILES IDX 33 70 34 71 35 72 61 73 62 74 71 75 63 76 64 77 70 78 72 79
REMARK SMILES IDX 65 80 66 81 67 82 68 83 69 84 45 85 46 86 55 87 47 88 48 89
REMARK SMILES IDX 54 90 56 91 49 92 50 93 51 94 52 95 53 96
REMARK H PARENT 11 7 84 19 87 23 87 24 15 27 77 46 43 57
REMARK Flexibility Score: inf
ROOT
ATOM      1  C   UNL     1       0.528   7.498  -1.734  1.00  0.00     0.118 C 
ENDROOT
BRANCH   1   2
ATOM      2  C   UNL     1       1.420   6.577  -0.922  1.00  0.00     0.042 C 
BRANCH   2   3
ATOM      3  C   UNL     1       0.803   5.224  -0.622  1.00  0.00     0.118 C 
BRANCH   3   4
ATOM      4  N   UNL     1       0.659   4.370  -1.781  1.00  0.00    -0.351 N 
ATOM      5  C   UNL     1       0.765   3.041  -2.026  1.00  0.00     0.281 C 
ATOM      6  O   UNL     1       0.407   2.765  -3.185  1.00  0.00    -0.268 OA
ATOM      7  H   UNL     1       0.426   4.880  -2.590  1.00  0.00     0.163 HD
BRANCH   5   8
ATOM      8  C   UNL     1       1.413   1.900  -1.072  1.00  0.00     0.182 C 
ATOM      9  C   UNL     1       0.733  -0.541  -0.154  1.00  0.00     0.018 C 
ATOM     10  C   UNL     1       0.293   0.721  -0.955  1.00  0.00     0.029 C 
ATOM     11  C   UNL     1      -0.197   0.173  -2.317  1.00  0.00     0.018 C 
ATOM     12  C   UNL     1      -0.938   1.311  -0.205  1.00  0.00     0.013 C 
ATOM     13  C   UNL     1      -0.607   1.692   1.232  1.00  0.00     0.001 C 
ATOM     14  C   UNL     1       1.750   2.342   0.386  1.00  0.00     0.080 C 
ATOM     15  C   UNL     1       0.565   2.652   1.319  1.00  0.00     0.007 C 
BRANCH   8  16
ATOM     16  N   UNL     1       2.684   1.479  -1.819  1.00  0.00    -0.313 N 
ATOM     17  C   UNL     1       3.529   0.440  -1.202  1.00  0.00     0.325 C 
ATOM     18  C   UNL     1       3.549   2.623  -2.223  1.00  0.00     0.325 C 
ATOM     19  H   UNL     1       2.265   1.041  -2.639  1.00  0.00     0.349 HD
ATOM     20  C   UNL     1       4.787   0.068  -2.026  1.00  0.00     0.322 C 
ATOM     21  C   UNL     1       4.803   2.211  -3.032  1.00  0.00     0.322 C 
ATOM     22  N   UNL     1       5.637   1.223  -2.335  1.00  0.00    -0.337 N 
ATOM     23  H   UNL     1       6.411   0.935  -2.934  1.00  0.00     0.346 HD
ATOM     24  H   UNL     1       6.027   1.621  -1.480  1.00  0.00     0.346 HD
ENDBRANCH   8  16
ENDBRANCH   5   8
ENDBRANCH   3   4
ENDBRANCH   2   3
ENDBRANCH   1   2
BRANCH   1  25
ATOM     25  N   UNL     1      -0.676   7.909  -1.020  1.00  0.00    -0.352 N 
ATOM     26  C   UNL     1      -0.963   9.027  -0.266  1.00  0.00     0.251 C 
ATOM     27  H   UNL     1      -1.422   7.269  -1.088  1.00  0.00     0.163 HD
ATOM     28  O   UNL     1      -1.994   9.054   0.393  1.00  0.00    -0.269 OA
BRANCH  26  29
ATOM     29  C   UNL     1      -0.024  10.172  -0.218  1.00  0.00     0.039 A 
ATOM     30  C   UNL     1       0.147  10.873   0.981  1.00  0.00     0.014 A 
ATOM     31  C   UNL     1       0.680  10.575  -1.349  1.00  0.00     0.014 A 
ATOM     32  C   UNL     1       1.090  11.904   1.058  1.00  0.00     0.010 A 
ATOM     33  C   UNL     1       1.713  11.495  -1.236  1.00  0.00     0.010 A 
ATOM     34  C   UNL     1       1.921  12.188  -0.037  1.00  0.00    -0.014 A 
BRANCH  34  35
ATOM     35  C   UNL     1       2.992  13.219   0.019  1.00  0.00     0.031 A 
ATOM     36  C   UNL     1       2.991  14.351  -0.979  1.00  0.00     0.074 A 
ATOM     37  C   UNL     1       4.010  13.088   0.893  1.00  0.00     0.049 A 
ATOM     38  N   UNL     1       3.904  15.262  -1.198  1.00  0.00    -0.248 NA
ATOM     39  C   UNL     1       1.832  14.441  -1.885  1.00  0.00     0.031 C 
ATOM     40  C   UNL     1       4.161  12.003   1.867  1.00  0.00     0.029 A 
ATOM     41  N   UNL     1       5.123  13.866   1.096  1.00  0.00    -0.354 N 
ATOM     42  C   UNL     1       3.446  16.004  -2.282  1.00  0.00     0.074 A 
ATOM     43  C   UNL     1       2.211  15.395  -2.720  1.00  0.00     0.031 C 
ATOM     44  C   UNL     1       5.280  12.202   2.582  1.00  0.00     0.029 A 
ATOM     45  C   UNL     1       5.952  13.399   2.090  1.00  0.00     0.049 A 
ATOM     46  H   UNL     1       5.311  14.681   0.577  1.00  0.00     0.167 HD
ATOM     47  C   UNL     1       3.985  17.113  -2.841  1.00  0.00     0.037 A 
ATOM     48  C   UNL     1       7.125  13.879   2.548  1.00  0.00     0.037 A 
ATOM     49  C   UNL     1       5.183  17.748  -2.361  1.00  0.00     0.049 A 
ATOM     50  C   UNL     1       7.689  15.131   1.932  1.00  0.00     0.074 A 
ATOM     51  C   UNL     1       5.774  18.917  -2.804  1.00  0.00     0.029 A 
ATOM     52  N   UNL     1       5.966  17.271  -1.319  1.00  0.00    -0.354 N 
ATOM     53  N   UNL     1       7.210  15.853   0.947  1.00  0.00    -0.248 NA
ATOM     54  C   UNL     1       8.949  15.638   2.492  1.00  0.00     0.031 C 
ATOM     55  C   UNL     1       6.937  19.128  -2.055  1.00  0.00     0.029 A 
ATOM     56  C   UNL     1       7.043  18.115  -1.114  1.00  0.00     0.049 A 
ATOM     57  H   UNL     1       5.782  16.453  -0.803  1.00  0.00     0.167 HD
ATOM     58  C   UNL     1       8.094  16.914   0.788  1.00  0.00     0.074 A 
ATOM     59  C   UNL     1       9.130  16.746   1.787  1.00  0.00     0.031 C 
ATOM     60  C   UNL     1       8.056  17.935  -0.104  1.00  0.00     0.037 A 
BRANCH  47  61
ATOM     61  C   UNL     1       3.269  17.723  -4.017  1.00  0.00     0.058 A 
ATOM     62  C   UNL     1       2.021  18.350  -3.877  1.00  0.00     0.135 A 
ATOM     63  C   UNL     1       3.850  17.704  -5.296  1.00  0.00     0.135 A 
ATOM     64  F   UNL     1       1.410  18.382  -2.681  1.00  0.00    -0.206 F 
ATOM     65  C   UNL     1       1.357  18.906  -4.965  1.00  0.00     0.059 A 
ATOM     66  C   UNL     1       3.219  18.283  -6.394  1.00  0.00     0.059 A 
ATOM     67  F   UNL     1       5.041  17.117  -5.490  1.00  0.00    -0.206 F 
ATOM     68  C   UNL     1       1.965  18.868  -6.221  1.00  0.00     0.060 A 
BRANCH  68  69
ATOM     69  S   UNL     1       1.094  19.603  -7.621  1.00  0.00     0.124 S 
ATOM     70  O   UNL     1       0.034  18.625  -7.849  1.00  0.00    -0.237 OA
ATOM     71  O   UNL     1       0.663  20.888  -7.080  1.00  0.00    -0.237 OA
ATOM     72  O   UNL     1       2.117  19.674  -8.659  1.00  0.00    -0.744 OA
ENDBRANCH  68  69
ENDBRANCH  47  61
BRANCH  48  73
ATOM     73  C   UNL     1       7.828  13.193   3.666  1.00  0.00     0.058 A 
ATOM     74  C   UNL     1       7.904  13.782   4.937  1.00  0.00     0.135 A 
ATOM     75  C   UNL     1       8.428  11.936   3.493  1.00  0.00     0.135 A 
ATOM     76  F   UNL     1       7.350  14.985   5.152  1.00  0.00    -0.206 F 
ATOM     77  C   UNL     1       8.567  13.162   5.991  1.00  0.00     0.059 A 
ATOM     78  C   UNL     1       9.074  11.284   4.539  1.00  0.00     0.059 A 
ATOM     79  F   UNL     1       8.367  11.319   2.303  1.00  0.00    -0.206 F 
ATOM     80  C   UNL     1       9.149  11.911   5.782  1.00  0.00     0.060 A 
BRANCH  80  81
ATOM     81  S   UNL     1       9.970  11.095   7.169  1.00  0.00     0.124 S 
ATOM     82  O   UNL     1      11.191  11.882   7.291  1.00  0.00    -0.237 OA
ATOM     83  O   UNL     1       8.994  11.259   8.242  1.00  0.00    -0.237 OA
ATOM     84  O   UNL     1      10.144   9.725   6.696  1.00  0.00    -0.744 OA
ENDBRANCH  80  81
ENDBRANCH  48  73
BRANCH  60  85
ATOM     85  C   UNL     1       9.141  18.970  -0.018  1.00  0.00     0.058 A 
ATOM     86  C   UNL     1      10.453  18.700  -0.436  1.00  0.00     0.135 A 
ATOM     87  C   UNL     1       8.849  20.267   0.435  1.00  0.00     0.135 A 
ATOM     88  F   UNL     1      10.784  17.474  -0.872  1.00  0.00    -0.206 F 
ATOM     89  C   UNL     1      11.444  19.674  -0.387  1.00  0.00     0.059 A 
ATOM     90  C   UNL     1       9.817  21.264   0.466  1.00  0.00     0.059 A 
ATOM     91  F   UNL     1       7.606  20.580   0.836  1.00  0.00    -0.206 F 
ATOM     92  C   UNL     1      11.115  20.954   0.063  1.00  0.00     0.060 A 
BRANCH  92  93
ATOM     93  S   UNL     1      12.403  22.219   0.087  1.00  0.00     0.124 S 
ATOM     94  O   UNL     1      13.203  21.801   1.233  1.00  0.00    -0.237 OA
ATOM     95  O   UNL     1      13.030  22.051  -1.220  1.00  0.00    -0.237 OA
ATOM     96  O   UNL     1      11.656  23.461   0.262  1.00  0.00    -0.744 OA
ENDBRANCH  92  93
ENDBRANCH  60  85
ENDBRANCH  34  35
ENDBRANCH  26  29
ENDBRANCH   1  25
TORSDOF 14
