REMARK SMILES Cc1cc(C(=O)Nc2ccn(C)n2)sc1/C=C/C(=O)NCCCNC(=O)c1ccc(-c2c3nc(c(-c4c(F)cc(S(=O)(=O)[O-])cc4F)c4ccc([nH]4)c(-c4c(F)cc(S(=O)(=O)[O-])cc4F)c4nc(c(-c5c(F)cc(S(=O)(=O)[O-])cc5F)c5ccc2[nH]5)C=C4)C=C3)cc1
REMARK SMILES IDX 22 1 21 2 20 3 18 4 19 5 17 7 16 8 15 9 1 10 2 11 3 12 4 13
REMARK SMILES IDX 14 14 5 15 6 16 7 17 8 19 9 20 13 21 10 22 11 23 12 24 23 25
REMARK SMILES IDX 24 26 25 27 26 29 27 30 28 31 92 32 29 33 91 34 30 35 31 36
REMARK SMILES IDX 32 37 85 38 33 39 90 40 84 41 86 42 34 43 89 44 83 45 82 46
REMARK SMILES IDX 35 48 69 49 48 50 68 51 49 52 52 53 67 54 87 55 50 56 51 57
REMARK SMILES IDX 66 59 88 60 53 61 36 62 37 63 46 64 38 65 39 66 45 67 47 68
REMARK SMILES IDX 40 69 41 70 42 71 43 72 44 73 70 74 71 75 80 76 72 77 73 78
REMARK SMILES IDX 79 79 81 80 74 81 75 82 76 83 77 84 78 85 54 86 55 87 64 88
REMARK SMILES IDX 56 89 57 90 63 91 65 92 58 93 59 94 60 95 61 96 62 97
REMARK H PARENT 20 6 7 18 24 28 86 47 52 58
REMARK Flexibility Score: inf
ROOT
ATOM      1  C   UNL     1       3.162  -4.683   0.648  1.00  0.00     0.042 C 
ENDROOT
BRANCH   1   2
ATOM      2  C   UNL     1       2.235  -4.774  -0.561  1.00  0.00     0.118 C 
BRANCH   2   3
ATOM      3  N   UNL     1       0.930  -5.293  -0.188  1.00  0.00    -0.352 N 
ATOM      4  C   UNL     1      -0.277  -4.671  -0.131  1.00  0.00     0.244 C 
ATOM      5  O   UNL     1      -1.293  -5.323   0.098  1.00  0.00    -0.270 OA
ATOM      6  H   UNL     1       0.919  -6.245   0.062  1.00  0.00     0.163 HD
BRANCH   4   7
ATOM      7  C   UNL     1      -0.395  -3.230  -0.435  1.00  0.00     0.072 C 
ATOM      8  C   UNL     1       0.408  -2.292   0.089  1.00  0.00     0.025 C 
BRANCH   8   9
ATOM      9  C   UNL     1       0.264  -0.890  -0.139  1.00  0.00     0.031 A 
ATOM     10  C   UNL     1       2.634  -0.024   0.388  1.00  0.00     0.046 C 
ATOM     11  C   UNL     1       1.174   0.136   0.106  1.00  0.00    -0.032 A 
ATOM     12  C   UNL     1       0.507   1.412   0.121  1.00  0.00     0.029 A 
ATOM     13  C   UNL     1      -0.838   1.329  -0.197  1.00  0.00     0.093 A 
ATOM     14  S   UNL     1      -1.136  -0.214  -0.867  1.00  0.00    -0.130 S 
BRANCH  13  15
ATOM     15  C   UNL     1      -1.815   2.415  -0.216  1.00  0.00     0.266 C 
ATOM     16  O   UNL     1      -1.456   3.595  -0.256  1.00  0.00    -0.268 OA
ATOM     17  N   UNL     1      -3.171   2.174  -0.286  1.00  0.00    -0.304 N 
ATOM     18  H   UNL     1      -3.708   2.926  -0.626  1.00  0.00     0.171 HD
BRANCH  17  19
ATOM     19  C   UNL     1      -3.889   1.053   0.041  1.00  0.00     0.154 A 
ATOM     20  C   UNL     1      -3.644   0.081   1.040  1.00  0.00     0.068 A 
ATOM     21  N   UNL     1      -5.002   0.772  -0.641  1.00  0.00    -0.155 NA
ATOM     22  C   UNL     1      -4.568  -0.912   0.806  1.00  0.00     0.110 A 
ATOM     23  N   UNL     1      -5.297  -0.485  -0.262  1.00  0.00    -0.274 N 
ATOM     24  C   UNL     1      -6.224  -1.263  -1.048  1.00  0.00     0.173 C 
ENDBRANCH  17  19
ENDBRANCH  13  15
ENDBRANCH   8   9
ENDBRANCH   4   7
ENDBRANCH   2   3
ENDBRANCH   1   2
BRANCH   1  25
ATOM     25  C   UNL     1       3.742  -6.034   1.056  1.00  0.00     0.118 C 
BRANCH  25  26
ATOM     26  N   UNL     1       4.660  -6.548   0.049  1.00  0.00    -0.352 N 
ATOM     27  C   UNL     1       5.986  -6.884   0.153  1.00  0.00     0.251 C 
ATOM     28  H   UNL     1       4.269  -6.673  -0.845  1.00  0.00     0.163 HD
ATOM     29  O   UNL     1       6.641  -7.056  -0.871  1.00  0.00    -0.269 OA
BRANCH  27  30
ATOM     30  C   UNL     1       6.625  -7.035   1.478  1.00  0.00     0.039 A 
ATOM     31  C   UNL     1       7.939  -6.587   1.645  1.00  0.00     0.014 A 
ATOM     32  C   UNL     1       5.961  -7.663   2.536  1.00  0.00     0.014 A 
ATOM     33  C   UNL     1       8.568  -6.728   2.884  1.00  0.00     0.010 A 
ATOM     34  C   UNL     1       6.564  -7.740   3.789  1.00  0.00     0.010 A 
ATOM     35  C   UNL     1       7.877  -7.283   3.973  1.00  0.00    -0.014 A 
BRANCH  35  36
ATOM     36  C   UNL     1       8.515  -7.400   5.308  1.00  0.00     0.031 A 
ATOM     37  C   UNL     1       8.773  -8.756   5.908  1.00  0.00     0.074 A 
ATOM     38  C   UNL     1       8.807  -6.283   6.003  1.00  0.00     0.049 A 
ATOM     39  N   UNL     1       9.252  -9.059   7.087  1.00  0.00    -0.248 NA
ATOM     40  C   UNL     1       8.419  -9.924   5.086  1.00  0.00     0.031 C 
ATOM     41  C   UNL     1       8.559  -4.914   5.545  1.00  0.00     0.029 A 
ATOM     42  N   UNL     1       9.363  -6.121   7.246  1.00  0.00    -0.354 N 
ATOM     43  C   UNL     1       9.245 -10.447   7.154  1.00  0.00     0.074 A 
ATOM     44  C   UNL     1       8.667 -10.926   5.917  1.00  0.00     0.031 C 
ATOM     45  C   UNL     1       8.978  -4.053   6.486  1.00  0.00     0.029 A 
ATOM     46  C   UNL     1       9.490  -4.806   7.627  1.00  0.00     0.049 A 
ATOM     47  H   UNL     1       9.645  -6.875   7.813  1.00  0.00     0.167 HD
ATOM     48  C   UNL     1       9.699 -11.250   8.146  1.00  0.00     0.037 A 
ATOM     49  C   UNL     1       9.959  -4.268   8.769  1.00  0.00     0.037 A 
ATOM     50  C   UNL     1      10.297 -10.765   9.364  1.00  0.00     0.049 A 
ATOM     51  C   UNL     1      10.469  -5.178   9.851  1.00  0.00     0.074 A 
ATOM     52  C   UNL     1      10.837 -11.495  10.408  1.00  0.00     0.029 A 
ATOM     53  N   UNL     1      10.436  -9.426   9.699  1.00  0.00    -0.354 N 
ATOM     54  N   UNL     1      10.505  -6.489   9.875  1.00  0.00    -0.248 NA
ATOM     55  C   UNL     1      11.010  -4.538  11.058  1.00  0.00     0.031 C 
ATOM     56  C   UNL     1      11.269 -10.598  11.392  1.00  0.00     0.029 A 
ATOM     57  C   UNL     1      11.039  -9.308  10.941  1.00  0.00     0.049 A 
ATOM     58  H   UNL     1      10.148  -8.671   9.138  1.00  0.00     0.167 HD
ATOM     59  C   UNL     1      11.093  -6.831  11.088  1.00  0.00     0.074 A 
ATOM     60  C   UNL     1      11.409  -5.588  11.762  1.00  0.00     0.031 C 
ATOM     61  C   UNL     1      11.350  -8.062  11.596  1.00  0.00     0.037 A 
BRANCH  48  62
ATOM     62  C   UNL     1       9.573 -12.737   7.953  1.00  0.00     0.058 A 
ATOM     63  C   UNL     1      10.359 -13.426   7.014  1.00  0.00     0.135 A 
ATOM     64  C   UNL     1       8.679 -13.488   8.733  1.00  0.00     0.135 A 
ATOM     65  F   UNL     1      11.220 -12.757   6.231  1.00  0.00    -0.206 F 
ATOM     66  C   UNL     1      10.239 -14.800   6.833  1.00  0.00     0.059 A 
ATOM     67  C   UNL     1       8.563 -14.868   8.588  1.00  0.00     0.059 A 
ATOM     68  F   UNL     1       7.904 -12.881   9.646  1.00  0.00    -0.206 F 
ATOM     69  C   UNL     1       9.336 -15.512   7.624  1.00  0.00     0.060 A 
BRANCH  69  70
ATOM     70  S   UNL     1       9.192 -17.295   7.376  1.00  0.00     0.124 S 
ATOM     71  O   UNL     1       8.460 -17.354   6.115  1.00  0.00    -0.237 OA
ATOM     72  O   UNL     1      10.588 -17.717   7.318  1.00  0.00    -0.237 OA
ATOM     73  O   UNL     1       8.454 -17.743   8.552  1.00  0.00    -0.744 OA
ENDBRANCH  69  70
ENDBRANCH  48  62
BRANCH  49  74
ATOM     74  C   UNL     1       9.989  -2.790   8.931  1.00  0.00     0.058 A 
ATOM     75  C   UNL     1      11.202  -2.087   8.904  1.00  0.00     0.135 A 
ATOM     76  C   UNL     1       8.807  -2.050   9.086  1.00  0.00     0.135 A 
ATOM     77  F   UNL     1      12.359  -2.752   8.762  1.00  0.00    -0.206 F 
ATOM     78  C   UNL     1      11.246  -0.704   9.038  1.00  0.00     0.059 A 
ATOM     79  C   UNL     1       8.822  -0.664   9.198  1.00  0.00     0.059 A 
ATOM     80  F   UNL     1       7.619  -2.675   9.098  1.00  0.00    -0.206 F 
ATOM     81  C   UNL     1      10.049   0.000   9.181  1.00  0.00     0.060 A 
BRANCH  81  82
ATOM     82  S   UNL     1      10.111   1.802   9.294  1.00  0.00     0.124 S 
ATOM     83  O   UNL     1      10.609   1.993  10.651  1.00  0.00    -0.237 OA
ATOM     84  O   UNL     1      11.035   2.145   8.218  1.00  0.00    -0.237 OA
ATOM     85  O   UNL     1       8.724   2.198   9.068  1.00  0.00    -0.744 OA
ENDBRANCH  81  82
ENDBRANCH  49  74
BRANCH  61  86
ATOM     86  C   UNL     1      12.032  -8.127  12.933  1.00  0.00     0.058 A 
ATOM     87  C   UNL     1      11.353  -7.820  14.123  1.00  0.00     0.135 A 
ATOM     88  C   UNL     1      13.368  -8.547  13.029  1.00  0.00     0.135 A 
ATOM     89  F   UNL     1      10.076  -7.407  14.085  1.00  0.00    -0.206 F 
ATOM     90  C   UNL     1      11.983  -7.905  15.360  1.00  0.00     0.059 A 
ATOM     91  C   UNL     1      14.010  -8.664  14.258  1.00  0.00     0.059 A 
ATOM     92  F   UNL     1      14.059  -8.862  11.922  1.00  0.00    -0.206 F 
ATOM     93  C   UNL     1      13.312  -8.329  15.417  1.00  0.00     0.060 A 
BRANCH  93  94
ATOM     94  S   UNL     1      14.109  -8.465  17.031  1.00  0.00     0.124 S 
ATOM     95  O   UNL     1      14.355  -7.064  17.356  1.00  0.00    -0.237 OA
ATOM     96  O   UNL     1      13.086  -9.131  17.831  1.00  0.00    -0.237 OA
ATOM     97  O   UNL     1      15.299  -9.264  16.756  1.00  0.00    -0.744 OA
ENDBRANCH  93  94
ENDBRANCH  61  86
ENDBRANCH  35  36
ENDBRANCH  27  30
ENDBRANCH  25  26
ENDBRANCH   1  25
TORSDOF 16
