REMARK SMILES Cc1cccc(CC(=O)N2CCC3(CCC(=O)N([C@H](C)C(=O)NCCCNC(=O)c4ccc(-c5c6nc(c(-c7c(F)cc(S(=O)(=O)[O-])cc7F)c7ccc([nH]7)c(-c7c(F)cc(S(=O)(=O)[O-])cc7F)c7nc(c(-c8c(F)cc(S(=O)(=O)[O-])cc8F)c8ccc5[nH]8)C=C7)C=C6)cc4)C3)CC2)c1
REMARK SMILES IDX 25 1 24 2 23 3 21 4 22 5 19 7 20 8 18 9 8 10 9 11 10 12
REMARK SMILES IDX 11 13 98 14 12 15 97 16 13 17 14 18 96 19 15 20 16 21 17 22
REMARK SMILES IDX 7 23 6 24 1 25 2 26 3 27 99 28 4 29 5 30 26 31 27 32 28 33
REMARK SMILES IDX 29 35 30 36 31 37 95 38 32 39 94 40 33 41 34 42 35 43 88 44
REMARK SMILES IDX 36 45 93 46 87 47 89 48 37 49 92 50 86 51 85 52 38 54 72 55
REMARK SMILES IDX 51 56 71 57 52 58 55 59 70 60 90 61 53 62 54 63 69 65 91 66
REMARK SMILES IDX 56 67 39 68 40 69 49 70 41 71 42 72 48 73 50 74 43 75 44 76
REMARK SMILES IDX 45 77 46 78 47 79 73 80 74 81 83 82 75 83 76 84 82 85 84 86
REMARK SMILES IDX 77 87 78 88 79 89 80 90 81 91 57 92 58 93 67 94 59 95 60 96
REMARK SMILES IDX 66 97 68 98 61 99 62 100 63 101 64 102 65 103
REMARK H PARENT 23 6 27 34 89 53 55 64
REMARK Flexibility Score: inf
ROOT
ATOM      1  C   UNL     1      -1.709   4.433  -8.732  1.00  0.00     0.042 C 
ENDROOT
BRANCH   1   2
ATOM      2  C   UNL     1      -1.100   5.815  -8.835  1.00  0.00     0.117 C 
BRANCH   2   3
ATOM      3  N   UNL     1      -1.488   6.694  -7.741  1.00  0.00    -0.354 N 
ATOM      4  C   UNL     1      -0.717   7.290  -6.780  1.00  0.00     0.242 C 
ATOM      5  O   UNL     1      -1.252   8.108  -6.024  1.00  0.00    -0.273 OA
ATOM      6  H   UNL     1      -2.451   6.889  -7.683  1.00  0.00     0.163 HD
BRANCH   4   7
ATOM      7  C   UNL     1       0.764   6.887  -6.556  1.00  0.00     0.171 C 
ATOM      8  C   UNL     1       0.892   5.399  -6.218  1.00  0.00     0.042 C 
BRANCH   7   9
ATOM      9  N   UNL     1       1.780   7.318  -7.537  1.00  0.00    -0.330 N 
ATOM     10  C   UNL     1       7.947   5.240  -6.975  1.00  0.00     0.226 C 
ATOM     11  O   UNL     1       8.143   4.044  -6.724  1.00  0.00    -0.275 OA
ATOM     12  N   UNL     1       6.848   5.634  -7.722  1.00  0.00    -0.342 N 
ATOM     13  C   UNL     1       5.700   4.739  -7.864  1.00  0.00     0.120 C 
ATOM     14  C   UNL     1       6.684   6.894  -8.427  1.00  0.00     0.120 C 
ATOM     15  C   UNL     1       4.417   5.440  -7.380  1.00  0.00     0.030 C 
ATOM     16  C   UNL     1       5.541   7.667  -7.799  1.00  0.00     0.030 C 
ATOM     17  C   UNL     1       4.215   6.880  -7.946  1.00  0.00    -0.008 C 
ATOM     18  C   UNL     1       3.840   6.867  -9.455  1.00  0.00     0.019 C 
ATOM     19  C   UNL     1       3.133   7.620  -7.120  1.00  0.00     0.127 C 
ATOM     20  C   UNL     1       2.384   6.561  -9.721  1.00  0.00     0.101 C 
ATOM     21  C   UNL     1       1.507   7.451  -8.881  1.00  0.00     0.223 C 
ATOM     22  O   UNL     1       0.587   8.111  -9.339  1.00  0.00    -0.275 OA
BRANCH  10  23
ATOM     23  C   UNL     1       8.810   6.277  -6.250  1.00  0.00     0.135 C 
BRANCH  23  24
ATOM     24  C   UNL     1       9.385   7.431  -7.029  1.00  0.00    -0.038 A 
ATOM     25  C   UNL     1       8.868  11.208  -7.247  1.00  0.00     0.044 C 
ATOM     26  C   UNL     1       9.381   9.824  -7.518  1.00  0.00    -0.051 A 
ATOM     27  C   UNL     1      10.212   9.585  -8.618  1.00  0.00     0.003 A 
ATOM     28  C   UNL     1       8.994   8.746  -6.714  1.00  0.00     0.007 A 
ATOM     29  C   UNL     1      10.651   8.290  -8.906  1.00  0.00     0.001 A 
ATOM     30  C   UNL     1      10.243   7.216  -8.115  1.00  0.00     0.004 A 
ENDBRANCH  23  24
ENDBRANCH  10  23
ENDBRANCH   7   9
ENDBRANCH   4   7
ENDBRANCH   2   3
ENDBRANCH   1   2
BRANCH   1  31
ATOM     31  C   UNL     1      -2.984   4.323  -9.543  1.00  0.00     0.118 C 
BRANCH  31  32
ATOM     32  N   UNL     1      -2.780   3.775 -10.883  1.00  0.00    -0.352 N 
ATOM     33  C   UNL     1      -3.766   3.386 -11.778  1.00  0.00     0.251 C 
ATOM     34  H   UNL     1      -1.847   3.671 -11.180  1.00  0.00     0.163 HD
ATOM     35  O   UNL     1      -3.515   2.826 -12.831  1.00  0.00    -0.269 OA
BRANCH  33  36
ATOM     36  C   UNL     1      -5.151   3.748 -11.412  1.00  0.00     0.039 A 
ATOM     37  C   UNL     1      -5.704   4.867 -12.040  1.00  0.00     0.014 A 
ATOM     38  C   UNL     1      -5.675   3.247 -10.223  1.00  0.00     0.014 A 
ATOM     39  C   UNL     1      -6.661   5.617 -11.362  1.00  0.00     0.010 A 
ATOM     40  C   UNL     1      -6.548   4.050  -9.512  1.00  0.00     0.010 A 
ATOM     41  C   UNL     1      -6.998   5.266 -10.057  1.00  0.00    -0.014 A 
BRANCH  41  42
ATOM     42  C   UNL     1      -7.716   6.153  -9.143  1.00  0.00     0.031 A 
ATOM     43  C   UNL     1      -9.056   5.768  -8.639  1.00  0.00     0.074 A 
ATOM     44  C   UNL     1      -7.137   7.285  -8.675  1.00  0.00     0.049 A 
ATOM     45  N   UNL     1      -9.829   6.559  -7.975  1.00  0.00    -0.248 NA
ATOM     46  C   UNL     1      -9.671   4.466  -8.906  1.00  0.00     0.031 C 
ATOM     47  C   UNL     1      -7.538   8.062  -7.503  1.00  0.00     0.029 A 
ATOM     48  N   UNL     1      -6.207   8.104  -9.325  1.00  0.00    -0.354 N 
ATOM     49  C   UNL     1     -10.852   5.803  -7.467  1.00  0.00     0.074 A 
ATOM     50  C   UNL     1     -10.787   4.550  -8.175  1.00  0.00     0.031 C 
ATOM     51  C   UNL     1      -7.095   9.319  -7.639  1.00  0.00     0.029 A 
ATOM     52  C   UNL     1      -6.513   9.436  -8.961  1.00  0.00     0.049 A 
ATOM     53  H   UNL     1      -5.480   7.809  -9.921  1.00  0.00     0.167 HD
ATOM     54  C   UNL     1     -11.554   6.271  -6.402  1.00  0.00     0.037 A 
ATOM     55  C   UNL     1      -6.891  10.352  -9.902  1.00  0.00     0.037 A 
ATOM     56  C   UNL     1     -11.401   7.715  -6.249  1.00  0.00     0.049 A 
ATOM     57  C   UNL     1      -8.315  10.856  -9.761  1.00  0.00     0.074 A 
ATOM     58  C   UNL     1     -10.801   8.570  -5.344  1.00  0.00     0.029 A 
ATOM     59  N   UNL     1     -11.776   8.505  -7.324  1.00  0.00    -0.354 N 
ATOM     60  N   UNL     1      -9.117  10.562  -8.773  1.00  0.00    -0.248 NA
ATOM     61  C   UNL     1      -8.975  11.674 -10.783  1.00  0.00     0.031 C 
ATOM     62  C   UNL     1     -10.719   9.865  -5.955  1.00  0.00     0.029 A 
ATOM     63  C   UNL     1     -11.309   9.797  -7.205  1.00  0.00     0.049 A 
ATOM     64  H   UNL     1     -12.313   8.182  -8.084  1.00  0.00     0.167 HD
ATOM     65  C   UNL     1     -10.378  11.008  -9.071  1.00  0.00     0.074 A 
ATOM     66  C   UNL     1     -10.233  11.741 -10.314  1.00  0.00     0.031 C 
ATOM     67  C   UNL     1     -11.482  10.695  -8.336  1.00  0.00     0.037 A 
BRANCH  54  68
ATOM     68  C   UNL     1     -12.297   5.377  -5.441  1.00  0.00     0.058 A 
ATOM     69  C   UNL     1     -13.216   5.916  -4.519  1.00  0.00     0.135 A 
ATOM     70  C   UNL     1     -12.040   3.994  -5.289  1.00  0.00     0.135 A 
ATOM     71  F   UNL     1     -13.515   7.224  -4.531  1.00  0.00    -0.206 F 
ATOM     72  C   UNL     1     -13.836   5.142  -3.531  1.00  0.00     0.059 A 
ATOM     73  C   UNL     1     -12.688   3.193  -4.352  1.00  0.00     0.059 A 
ATOM     74  F   UNL     1     -11.089   3.365  -5.992  1.00  0.00    -0.206 F 
ATOM     75  C   UNL     1     -13.565   3.779  -3.456  1.00  0.00     0.060 A 
BRANCH  75  76
ATOM     76  S   UNL     1     -14.325   2.775  -2.166  1.00  0.00     0.124 S 
ATOM     77  O   UNL     1     -13.524   3.135  -1.001  1.00  0.00    -0.237 OA
ATOM     78  O   UNL     1     -15.704   3.250  -2.163  1.00  0.00    -0.237 OA
ATOM     79  O   UNL     1     -14.143   1.409  -2.651  1.00  0.00    -0.744 OA
ENDBRANCH  75  76
ENDBRANCH  54  68
BRANCH  55  80
ATOM     80  C   UNL     1      -6.142  10.184 -11.178  1.00  0.00     0.058 A 
ATOM     81  C   UNL     1      -4.754  10.430 -11.148  1.00  0.00     0.135 A 
ATOM     82  C   UNL     1      -6.640   9.389 -12.217  1.00  0.00     0.135 A 
ATOM     83  F   UNL     1      -4.232  11.210 -10.187  1.00  0.00    -0.206 F 
ATOM     84  C   UNL     1      -3.877   9.760 -11.993  1.00  0.00     0.059 A 
ATOM     85  C   UNL     1      -5.779   8.723 -13.090  1.00  0.00     0.059 A 
ATOM     86  F   UNL     1      -7.952   9.124 -12.298  1.00  0.00    -0.206 F 
ATOM     87  C   UNL     1      -4.400   8.853 -12.912  1.00  0.00     0.060 A 
BRANCH  87  88
ATOM     88  S   UNL     1      -3.256   7.706 -13.715  1.00  0.00     0.124 S 
ATOM     89  O   UNL     1      -2.335   8.613 -14.392  1.00  0.00    -0.237 OA
ATOM     90  O   UNL     1      -2.712   6.981 -12.569  1.00  0.00    -0.237 OA
ATOM     91  O   UNL     1      -4.125   6.927 -14.590  1.00  0.00    -0.744 OA
ENDBRANCH  87  88
ENDBRANCH  55  80
BRANCH  67  92
ATOM     92  C   UNL     1     -12.847  11.202  -8.694  1.00  0.00     0.058 A 
ATOM     93  C   UNL     1     -13.113  12.577  -8.786  1.00  0.00     0.135 A 
ATOM     94  C   UNL     1     -13.948  10.333  -8.829  1.00  0.00     0.135 A 
ATOM     95  F   UNL     1     -12.119  13.471  -8.665  1.00  0.00    -0.206 F 
ATOM     96  C   UNL     1     -14.403  13.067  -8.990  1.00  0.00     0.059 A 
ATOM     97  C   UNL     1     -15.249  10.800  -8.996  1.00  0.00     0.059 A 
ATOM     98  F   UNL     1     -13.780   9.001  -8.821  1.00  0.00    -0.206 F 
ATOM     99  C   UNL     1     -15.467  12.171  -9.083  1.00  0.00     0.060 A 
BRANCH  99 100
ATOM    100  S   UNL     1     -17.149  12.798  -9.269  1.00  0.00     0.124 S 
ATOM    101  O   UNL     1     -17.099  14.077  -8.567  1.00  0.00    -0.237 OA
ATOM    102  O   UNL     1     -17.270  12.881 -10.721  1.00  0.00    -0.237 OA
ATOM    103  O   UNL     1     -17.961  11.771  -8.625  1.00  0.00    -0.744 OA
ENDBRANCH  99 100
ENDBRANCH  67  92
ENDBRANCH  41  42
ENDBRANCH  33  36
ENDBRANCH  31  32
ENDBRANCH   1  31
TORSDOF 16
