REMARK SMILES Cc1c(CCC(=O)N2CCC(C(=O)NCCCNC(=O)c3ccc(-c4c5nc(c(-c6c(F)cc(S(=O)(=O)[O-])cc6F)c6ccc([nH]6)c(-c6c(F)cc(S(=O)(=O)[O-])cc6F)c6nc(c(-c7c(F)cc(S(=O)(=O)[O-])cc7F)c7ccc4[nH]7)C=C6)C=C5)cc3)CC2)c(=O)oc2cc3oc4c(c3cc12)CCCC4
REMARK SMILES IDX 16 1 15 2 14 3 12 4 13 5 11 7 6 8 7 9 8 10 9 11 88 12 10 13
REMARK SMILES IDX 87 14 5 15 4 16 3 17 1 18 2 19 100 20 89 21 92 22 99 23
REMARK SMILES IDX 90 24 91 25 93 26 98 27 94 28 97 29 95 30 96 31 101 32
REMARK SMILES IDX 104 33 102 34 103 35 17 36 18 37 19 38 20 40 21 41 22 42
REMARK SMILES IDX 86 43 23 44 85 45 24 46 25 47 26 48 79 49 27 50 84 51 78 52
REMARK SMILES IDX 80 53 28 54 83 55 77 56 76 57 29 59 63 60 42 61 62 62 43 63
REMARK SMILES IDX 46 64 61 65 81 66 44 67 45 68 60 70 82 71 47 72 30 73 31 74
REMARK SMILES IDX 40 75 32 76 33 77 39 78 41 79 34 80 35 81 36 82 37 83 38 84
REMARK SMILES IDX 64 85 65 86 74 87 66 88 67 89 73 90 75 91 68 92 69 93 70 94
REMARK SMILES IDX 71 95 72 96 48 97 49 98 58 99 50 100 51 101 57 102 59 103
REMARK SMILES IDX 52 104 53 105 54 106 55 107 56 108
REMARK H PARENT 14 6 18 39 80 58 46 69
REMARK Flexibility Score: inf
ROOT
ATOM      1  C   UNL     1       4.391   3.160   1.397  1.00  0.00     0.042 C 
ENDROOT
BRANCH   1   2
ATOM      2  C   UNL     1       3.635   1.839   1.410  1.00  0.00     0.117 C 
BRANCH   2   3
ATOM      3  N   UNL     1       3.841   1.126   2.655  1.00  0.00    -0.356 N 
ATOM      4  C   UNL     1       2.976   0.578   3.543  1.00  0.00     0.223 C 
ATOM      5  O   UNL     1       3.485   0.110   4.568  1.00  0.00    -0.275 OA
ATOM      6  H   UNL     1       4.788   1.020   2.902  1.00  0.00     0.163 HD
BRANCH   4   7
ATOM      7  C   UNL     1       1.479   0.402   3.294  1.00  0.00     0.082 C 
ATOM      8  C   UNL     1      -1.562   0.790   0.737  1.00  0.00     0.222 C 
ATOM      9  O   UNL     1      -1.487   1.982   0.448  1.00  0.00    -0.275 OA
ATOM     10  N   UNL     1      -1.086   0.306   1.960  1.00  0.00    -0.343 N 
ATOM     11  C   UNL     1      -0.942   1.180   3.146  1.00  0.00     0.120 C 
ATOM     12  C   UNL     1      -0.186  -0.820   1.950  1.00  0.00     0.120 C 
ATOM     13  C   UNL     1       0.524   1.577   3.494  1.00  0.00     0.035 C 
ATOM     14  C   UNL     1       1.207  -0.217   1.940  1.00  0.00     0.035 C 
BRANCH   8  15
ATOM     15  C   UNL     1      -2.231  -0.231  -0.214  1.00  0.00     0.105 C 
BRANCH  15  16
ATOM     16  C   UNL     1      -1.504  -0.595  -1.531  1.00  0.00     0.053 C 
BRANCH  16  17
ATOM     17  C   UNL     1      -0.600  -1.816  -1.437  1.00  0.00     0.042 A 
ATOM     18  C   UNL     1       1.524  -0.458  -1.499  1.00  0.00     0.046 C 
ATOM     19  C   UNL     1       0.731  -1.718  -1.285  1.00  0.00    -0.030 A 
ATOM     20  C   UNL     1       1.406  -2.901  -0.767  1.00  0.00     0.022 A 
ATOM     21  C   UNL     1      -1.204  -3.184  -1.586  1.00  0.00     0.339 A 
ATOM     22  C   UNL     1       0.963  -4.172  -1.091  1.00  0.00     0.142 A 
ATOM     23  C   UNL     1       2.467  -2.775   0.109  1.00  0.00     0.024 A 
ATOM     24  O   UNL     1      -2.410  -3.342  -1.737  1.00  0.00    -0.246 OA
ATOM     25  O   UNL     1      -0.317  -4.279  -1.668  1.00  0.00    -0.422 OA
ATOM     26  C   UNL     1       1.747  -5.324  -0.854  1.00  0.00     0.095 A 
ATOM     27  C   UNL     1       3.158  -3.896   0.536  1.00  0.00     0.025 A 
ATOM     28  C   UNL     1       2.912  -5.098  -0.108  1.00  0.00     0.138 A 
ATOM     29  C   UNL     1       4.313  -4.033   1.319  1.00  0.00     0.001 A 
ATOM     30  O   UNL     1       4.060  -5.862  -0.008  1.00  0.00    -0.461 OA
ATOM     31  C   UNL     1       4.944  -5.087   0.701  1.00  0.00     0.108 A 
ATOM     32  C   UNL     1       5.084  -2.963   2.003  1.00  0.00     0.040 C 
ATOM     33  C   UNL     1       6.380  -4.954   0.310  1.00  0.00     0.076 C 
ATOM     34  C   UNL     1       6.126  -2.415   1.014  1.00  0.00     0.005 C 
ATOM     35  C   UNL     1       6.590  -3.444  -0.065  1.00  0.00     0.008 C 
ENDBRANCH  16  17
ENDBRANCH  15  16
ENDBRANCH   8  15
ENDBRANCH   4   7
ENDBRANCH   2   3
ENDBRANCH   1   2
BRANCH   1  36
ATOM     36  C   UNL     1       5.916   3.006   1.355  1.00  0.00     0.118 C 
BRANCH  36  37
ATOM     37  N   UNL     1       6.566   3.783   0.306  1.00  0.00    -0.352 N 
ATOM     38  C   UNL     1       6.535   5.147   0.070  1.00  0.00     0.251 C 
ATOM     39  H   UNL     1       7.108   3.260  -0.329  1.00  0.00     0.163 HD
ATOM     40  O   UNL     1       7.105   5.633  -0.874  1.00  0.00    -0.269 OA
BRANCH  38  41
ATOM     41  C   UNL     1       5.716   5.973   0.983  1.00  0.00     0.039 A 
ATOM     42  C   UNL     1       5.992   5.974   2.352  1.00  0.00     0.014 A 
ATOM     43  C   UNL     1       4.582   6.610   0.469  1.00  0.00     0.014 A 
ATOM     44  C   UNL     1       5.055   6.499   3.228  1.00  0.00     0.010 A 
ATOM     45  C   UNL     1       3.659   7.167   1.350  1.00  0.00     0.010 A 
ATOM     46  C   UNL     1       3.877   7.071   2.730  1.00  0.00    -0.014 A 
BRANCH  46  47
ATOM     47  C   UNL     1       2.941   7.607   3.724  1.00  0.00     0.031 A 
ATOM     48  C   UNL     1       2.831   9.093   3.702  1.00  0.00     0.074 A 
ATOM     49  C   UNL     1       1.878   6.900   4.158  1.00  0.00     0.049 A 
ATOM     50  N   UNL     1       2.092   9.724   2.839  1.00  0.00    -0.248 NA
ATOM     51  C   UNL     1       3.752   9.954   4.443  1.00  0.00     0.031 C 
ATOM     52  C   UNL     1       1.122   5.944   3.338  1.00  0.00     0.029 A 
ATOM     53  N   UNL     1       1.117   7.054   5.291  1.00  0.00    -0.354 N 
ATOM     54  C   UNL     1       2.477  11.050   2.870  1.00  0.00     0.074 A 
ATOM     55  C   UNL     1       3.502  11.149   3.886  1.00  0.00     0.031 C 
ATOM     56  C   UNL     1      -0.085   5.751   3.908  1.00  0.00     0.029 A 
ATOM     57  C   UNL     1      -0.121   6.425   5.202  1.00  0.00     0.049 A 
ATOM     58  H   UNL     1       1.416   7.557   6.083  1.00  0.00     0.167 HD
ATOM     59  C   UNL     1       1.946  11.991   2.048  1.00  0.00     0.037 A 
ATOM     60  C   UNL     1      -1.245   6.843   5.844  1.00  0.00     0.037 A 
ATOM     61  C   UNL     1       0.903  11.536   1.178  1.00  0.00     0.049 A 
ATOM     62  C   UNL     1      -1.582   8.076   5.040  1.00  0.00     0.074 A 
ATOM     63  C   UNL     1       0.795  11.082  -0.118  1.00  0.00     0.029 A 
ATOM     64  N   UNL     1      -0.363  11.413   1.704  1.00  0.00    -0.354 N 
ATOM     65  N   UNL     1      -2.192   8.087   3.883  1.00  0.00    -0.248 NA
ATOM     66  C   UNL     1      -0.883   9.322   5.366  1.00  0.00     0.031 C 
ATOM     67  C   UNL     1      -0.407  10.309  -0.155  1.00  0.00     0.029 A 
ATOM     68  C   UNL     1      -0.930  10.299   1.137  1.00  0.00     0.049 A 
ATOM     69  H   UNL     1      -0.783  12.012   2.363  1.00  0.00     0.167 HD
ATOM     70  C   UNL     1      -1.709   9.218   3.220  1.00  0.00     0.074 A 
ATOM     71  C   UNL     1      -0.941   9.955   4.202  1.00  0.00     0.031 C 
ATOM     72  C   UNL     1      -1.790   9.395   1.869  1.00  0.00     0.037 A 
BRANCH  59  73
ATOM     73  C   UNL     1       2.273  13.426   2.109  1.00  0.00     0.058 A 
ATOM     74  C   UNL     1       1.377  14.285   2.760  1.00  0.00     0.135 A 
ATOM     75  C   UNL     1       3.325  13.988   1.378  1.00  0.00     0.135 A 
ATOM     76  F   UNL     1       0.356  13.775   3.470  1.00  0.00    -0.206 F 
ATOM     77  C   UNL     1       1.482  15.662   2.644  1.00  0.00     0.059 A 
ATOM     78  C   UNL     1       3.454  15.369   1.251  1.00  0.00     0.059 A 
ATOM     79  F   UNL     1       4.205  13.200   0.740  1.00  0.00    -0.206 F 
ATOM     80  C   UNL     1       2.510  16.195   1.866  1.00  0.00     0.060 A 
BRANCH  80  81
ATOM     81  S   UNL     1       2.548  17.984   1.631  1.00  0.00     0.124 S 
ATOM     82  O   UNL     1       1.300  18.218   0.912  1.00  0.00    -0.237 OA
ATOM     83  O   UNL     1       2.590  18.468   3.007  1.00  0.00    -0.237 OA
ATOM     84  O   UNL     1       3.767  18.200   0.857  1.00  0.00    -0.744 OA
ENDBRANCH  80  81
ENDBRANCH  59  73
BRANCH  60  85
ATOM     85  C   UNL     1      -1.133   6.796   7.338  1.00  0.00     0.058 A 
ATOM     86  C   UNL     1      -0.729   5.574   7.924  1.00  0.00     0.135 A 
ATOM     87  C   UNL     1      -1.341   7.862   8.224  1.00  0.00     0.135 A 
ATOM     88  F   UNL     1      -0.632   4.463   7.173  1.00  0.00    -0.206 F 
ATOM     89  C   UNL     1      -0.384   5.464   9.267  1.00  0.00     0.059 A 
ATOM     90  C   UNL     1      -0.981   7.785   9.572  1.00  0.00     0.059 A 
ATOM     91  F   UNL     1      -1.872   9.018   7.806  1.00  0.00    -0.206 F 
ATOM     92  C   UNL     1      -0.464   6.594  10.073  1.00  0.00     0.060 A 
BRANCH  92  93
ATOM     93  S   UNL     1       0.186   6.494  11.753  1.00  0.00     0.124 S 
ATOM     94  O   UNL     1      -0.696   5.504  12.361  1.00  0.00    -0.237 OA
ATOM     95  O   UNL     1       1.560   6.062  11.514  1.00  0.00    -0.237 OA
ATOM     96  O   UNL     1       0.042   7.857  12.253  1.00  0.00    -0.744 OA
ENDBRANCH  92  93
ENDBRANCH  60  85
BRANCH  72  97
ATOM     97  C   UNL     1      -2.642   8.416   1.134  1.00  0.00     0.058 A 
ATOM     98  C   UNL     1      -4.038   8.494   1.231  1.00  0.00     0.135 A 
ATOM     99  C   UNL     1      -2.096   7.442   0.283  1.00  0.00     0.135 A 
ATOM    100  F   UNL     1      -4.612   9.413   2.026  1.00  0.00    -0.206 F 
ATOM    101  C   UNL     1      -4.865   7.665   0.481  1.00  0.00     0.059 A 
ATOM    102  C   UNL     1      -2.905   6.616  -0.494  1.00  0.00     0.059 A 
ATOM    103  F   UNL     1      -0.764   7.305   0.164  1.00  0.00    -0.206 F 
ATOM    104  C   UNL     1      -4.290   6.741  -0.394  1.00  0.00     0.060 A 
BRANCH 104 105
ATOM    105  S   UNL     1      -5.378   5.778  -1.465  1.00  0.00     0.124 S 
ATOM    106  O   UNL     1      -5.966   4.825  -0.530  1.00  0.00    -0.237 OA
ATOM    107  O   UNL     1      -6.288   6.797  -1.982  1.00  0.00    -0.237 OA
ATOM    108  O   UNL     1      -4.470   5.209  -2.458  1.00  0.00    -0.744 OA
ENDBRANCH 104 105
ENDBRANCH  72  97
ENDBRANCH  46  47
ENDBRANCH  38  41
ENDBRANCH  36  37
ENDBRANCH   1  36
TORSDOF 16
