REMARK SMILES COC(=O)c1cc(F)cc(-c2ccc(C(=O)NCCCNC(=O)c3ccc(-c4c5nc(c(-c6c(F)cc(S(=O)(=O)[O-])cc6F)c6ccc([nH]6)c(-c6c(F)cc(S(=O)(=O)[O-])cc6F)c6nc(c(-c7c(F)cc(S(=O)(=O)[O-])cc7F)c7ccc4[nH]7)C=C6)C=C5)cc3)cc2C)c1
REMARK SMILES IDX 19 1 18 2 17 3 15 4 16 5 14 7 11 8 12 9 91 10 13 11 90 12
REMARK SMILES IDX 92 13 10 14 5 15 6 16 93 17 7 18 8 19 9 20 3 21 4 22 2 23
REMARK SMILES IDX 1 24 20 25 21 26 22 27 23 29 24 30 25 31 89 32 26 33 88 34
REMARK SMILES IDX 27 35 28 36 29 37 82 38 30 39 87 40 81 41 83 42 31 43 86 44
REMARK SMILES IDX 80 45 79 46 32 48 66 49 45 50 65 51 46 52 49 53 64 54 84 55
REMARK SMILES IDX 47 56 48 57 63 59 85 60 50 61 33 62 34 63 43 64 35 65 36 66
REMARK SMILES IDX 42 67 44 68 37 69 38 70 39 71 40 72 41 73 67 74 68 75 77 76
REMARK SMILES IDX 69 77 70 78 76 79 78 80 71 81 72 82 73 83 74 84 75 85 51 86
REMARK SMILES IDX 52 87 61 88 53 89 54 90 60 91 62 92 55 93 56 94 57 95 58 96
REMARK SMILES IDX 59 97
REMARK H PARENT 17 6 21 28 83 47 49 58
REMARK Flexibility Score: inf
ROOT
ATOM      1  C   UNL     1       6.074  10.310  -0.044  1.00  0.00     0.042 C 
ENDROOT
BRANCH   1   2
ATOM      2  C   UNL     1       6.226   9.642   1.327  1.00  0.00     0.118 C 
BRANCH   2   3
ATOM      3  N   UNL     1       5.480  10.355   2.344  1.00  0.00    -0.352 N 
ATOM      4  C   UNL     1       4.251  10.162   2.915  1.00  0.00     0.251 C 
ATOM      5  O   UNL     1       3.933  10.938   3.819  1.00  0.00    -0.269 OA
ATOM      6  H   UNL     1       5.956  11.142   2.697  1.00  0.00     0.163 HD
BRANCH   4   7
ATOM      7  C   UNL     1       3.305   9.068   2.543  1.00  0.00     0.040 A 
ATOM      8  C   UNL     1       1.416   6.989   2.068  1.00  0.00    -0.015 A 
ATOM      9  C   UNL     1       2.443   7.284   1.152  1.00  0.00     0.010 A 
ATOM     10  C   UNL     1       1.307   7.785   3.221  1.00  0.00    -0.042 A 
ATOM     11  C   UNL     1       3.350   8.325   1.368  1.00  0.00     0.014 A 
ATOM     12  C   UNL     1       2.261   8.801   3.446  1.00  0.00     0.018 A 
ATOM     13  C   UNL     1       0.201   7.648   4.232  1.00  0.00     0.045 C 
BRANCH   8  14
ATOM     14  C   UNL     1       0.521   5.870   1.745  1.00  0.00    -0.014 A 
ATOM     15  C   UNL     1       0.223   3.486   1.298  1.00  0.00     0.063 A 
ATOM     16  C   UNL     1      -1.089   3.720   0.884  1.00  0.00     0.055 A 
ATOM     17  C   UNL     1       1.014   4.553   1.745  1.00  0.00     0.024 A 
ATOM     18  C   UNL     1      -1.587   5.018   0.916  1.00  0.00     0.124 A 
ATOM     19  F   UNL     1      -2.844   5.247   0.516  1.00  0.00    -0.207 F 
ATOM     20  C   UNL     1      -0.799   6.088   1.332  1.00  0.00     0.048 A 
BRANCH  15  21
ATOM     21  C   UNL     1       0.836   2.136   1.256  1.00  0.00     0.337 C 
ATOM     22  O   UNL     1       1.755   1.791   1.972  1.00  0.00    -0.246 OA
BRANCH  21  23
ATOM     23  O   UNL     1       0.274   1.409   0.257  1.00  0.00    -0.465 OA
ATOM     24  C   UNL     1       0.901   0.142   0.047  1.00  0.00     0.282 C 
ENDBRANCH  21  23
ENDBRANCH  15  21
ENDBRANCH   8  14
ENDBRANCH   4   7
ENDBRANCH   2   3
ENDBRANCH   1   2
BRANCH   1  25
ATOM     25  C   UNL     1       7.148  11.370  -0.276  1.00  0.00     0.118 C 
BRANCH  25  26
ATOM     26  N   UNL     1       8.461  10.757  -0.398  1.00  0.00    -0.352 N 
ATOM     27  C   UNL     1       9.634  11.204  -0.936  1.00  0.00     0.251 C 
ATOM     28  H   UNL     1       8.514   9.849  -0.021  1.00  0.00     0.163 HD
ATOM     29  O   UNL     1      10.564  10.399  -1.002  1.00  0.00    -0.269 OA
BRANCH  27  30
ATOM     30  C   UNL     1       9.822  12.585  -1.441  1.00  0.00     0.039 A 
ATOM     31  C   UNL     1      10.845  12.789  -2.379  1.00  0.00     0.014 A 
ATOM     32  C   UNL     1       9.105  13.686  -0.967  1.00  0.00     0.014 A 
ATOM     33  C   UNL     1      11.161  14.075  -2.817  1.00  0.00     0.010 A 
ATOM     34  C   UNL     1       9.370  14.963  -1.458  1.00  0.00     0.010 A 
ATOM     35  C   UNL     1      10.425  15.172  -2.355  1.00  0.00    -0.014 A 
BRANCH  35  36
ATOM     36  C   UNL     1      10.781  16.557  -2.735  1.00  0.00     0.031 A 
ATOM     37  C   UNL     1      11.284  17.505  -1.681  1.00  0.00     0.074 A 
ATOM     38  C   UNL     1      10.599  16.967  -4.003  1.00  0.00     0.049 A 
ATOM     39  N   UNL     1      11.542  18.782  -1.774  1.00  0.00    -0.248 NA
ATOM     40  C   UNL     1      11.500  16.947  -0.334  1.00  0.00     0.031 C 
ATOM     41  C   UNL     1      10.104  16.128  -5.096  1.00  0.00     0.029 A 
ATOM     42  N   UNL     1      10.795  18.192  -4.584  1.00  0.00    -0.354 N 
ATOM     43  C   UNL     1      11.932  19.183  -0.500  1.00  0.00     0.074 A 
ATOM     44  C   UNL     1      11.826  18.026   0.360  1.00  0.00     0.031 C 
ATOM     45  C   UNL     1      10.049  16.860  -6.219  1.00  0.00     0.029 A 
ATOM     46  C   UNL     1      10.459  18.228  -5.916  1.00  0.00     0.049 A 
ATOM     47  H   UNL     1      11.143  18.972  -4.094  1.00  0.00     0.167 HD
ATOM     48  C   UNL     1      12.361  20.401  -0.096  1.00  0.00     0.037 A 
ATOM     49  C   UNL     1      10.467  19.254  -6.789  1.00  0.00     0.037 A 
ATOM     50  C   UNL     1      12.482  21.532  -0.978  1.00  0.00     0.049 A 
ATOM     51  C   UNL     1      10.924  20.606  -6.314  1.00  0.00     0.074 A 
ATOM     52  C   UNL     1      12.947  22.802  -0.687  1.00  0.00     0.029 A 
ATOM     53  N   UNL     1      12.139  21.527  -2.323  1.00  0.00    -0.354 N 
ATOM     54  N   UNL     1      11.321  20.964  -5.115  1.00  0.00    -0.248 NA
ATOM     55  C   UNL     1      10.938  21.691  -7.302  1.00  0.00     0.031 C 
ATOM     56  C   UNL     1      12.836  23.579  -1.843  1.00  0.00     0.029 A 
ATOM     57  C   UNL     1      12.361  22.779  -2.871  1.00  0.00     0.049 A 
ATOM     58  H   UNL     1      11.789  20.749  -2.814  1.00  0.00     0.167 HD
ATOM     59  C   UNL     1      11.659  22.308  -5.211  1.00  0.00     0.074 A 
ATOM     60  C   UNL     1      11.422  22.699  -6.586  1.00  0.00     0.031 C 
ATOM     61  C   UNL     1      12.128  23.141  -4.249  1.00  0.00     0.037 A 
BRANCH  48  62
ATOM     62  C   UNL     1      12.733  20.575   1.352  1.00  0.00     0.058 A 
ATOM     63  C   UNL     1      11.972  21.405   2.191  1.00  0.00     0.135 A 
ATOM     64  C   UNL     1      13.872  19.962   1.901  1.00  0.00     0.135 A 
ATOM     65  F   UNL     1      10.870  22.012   1.725  1.00  0.00    -0.206 F 
ATOM     66  C   UNL     1      12.332  21.628   3.517  1.00  0.00     0.059 A 
ATOM     67  C   UNL     1      14.233  20.147   3.232  1.00  0.00     0.059 A 
ATOM     68  F   UNL     1      14.625  19.142   1.151  1.00  0.00    -0.206 F 
ATOM     69  C   UNL     1      13.464  20.993   4.029  1.00  0.00     0.060 A 
BRANCH  69  70
ATOM     70  S   UNL     1      13.893  21.261   5.763  1.00  0.00     0.124 S 
ATOM     71  O   UNL     1      14.324  22.654   5.754  1.00  0.00    -0.237 OA
ATOM     72  O   UNL     1      12.627  20.990   6.436  1.00  0.00    -0.237 OA
ATOM     73  O   UNL     1      14.945  20.278   6.006  1.00  0.00    -0.744 OA
ENDBRANCH  69  70
ENDBRANCH  48  62
BRANCH  49  74
ATOM     74  C   UNL     1      10.063  19.013  -8.198  1.00  0.00     0.058 A 
ATOM     75  C   UNL     1       8.734  18.714  -8.537  1.00  0.00     0.135 A 
ATOM     76  C   UNL     1      11.019  18.997  -9.225  1.00  0.00     0.135 A 
ATOM     77  F   UNL     1       7.784  18.701  -7.590  1.00  0.00    -0.206 F 
ATOM     78  C   UNL     1       8.373  18.373  -9.836  1.00  0.00     0.059 A 
ATOM     79  C   UNL     1      10.677  18.683 -10.538  1.00  0.00     0.059 A 
ATOM     80  F   UNL     1      12.300  19.284  -8.951  1.00  0.00    -0.206 F 
ATOM     81  C   UNL     1       9.354  18.352 -10.828  1.00  0.00     0.060 A 
BRANCH  81  82
ATOM     82  S   UNL     1       8.872  17.865 -12.499  1.00  0.00     0.124 S 
ATOM     83  O   UNL     1       8.532  16.459 -12.306  1.00  0.00    -0.237 OA
ATOM     84  O   UNL     1       7.750  18.760 -12.764  1.00  0.00    -0.237 OA
ATOM     85  O   UNL     1      10.075  18.117 -13.286  1.00  0.00    -0.744 OA
ENDBRANCH  81  82
ENDBRANCH  49  74
BRANCH  61  86
ATOM     86  C   UNL     1      12.450  24.556  -4.640  1.00  0.00     0.058 A 
ATOM     87  C   UNL     1      13.785  24.994  -4.663  1.00  0.00     0.135 A 
ATOM     88  C   UNL     1      11.442  25.504  -4.868  1.00  0.00     0.135 A 
ATOM     89  F   UNL     1      14.786  24.127  -4.446  1.00  0.00    -0.206 F 
ATOM     90  C   UNL     1      14.106  26.331  -4.864  1.00  0.00     0.059 A 
ATOM     91  C   UNL     1      11.743  26.843  -5.099  1.00  0.00     0.059 A 
ATOM     92  F   UNL     1      10.152  25.132  -4.867  1.00  0.00    -0.206 F 
ATOM     93  C   UNL     1      13.077  27.250  -5.072  1.00  0.00     0.060 A 
BRANCH  93  94
ATOM     94  S   UNL     1      13.514  28.986  -5.302  1.00  0.00     0.124 S 
ATOM     95  O   UNL     1      14.002  29.350  -3.976  1.00  0.00    -0.237 OA
ATOM     96  O   UNL     1      14.524  28.911  -6.353  1.00  0.00    -0.237 OA
ATOM     97  O   UNL     1      12.251  29.603  -5.698  1.00  0.00    -0.744 OA
ENDBRANCH  93  94
ENDBRANCH  61  86
ENDBRANCH  35  36
ENDBRANCH  27  30
ENDBRANCH  25  26
ENDBRANCH   1  25
TORSDOF 16
