REMARK SMILES COCCC(=O)N1Cc2ccccc2C[C@H]1C(=O)NCCCNC(=O)c1ccc(-c2c3nc(c(-c4c(F)cc(S(=O)(=O)[O-])cc4F)c4ccc([nH]4)c(-c4c(F)cc(S(=O)(=O)[O-])cc4F)c4nc(c(-c5c(F)cc(S(=O)(=O)[O-])cc5F)c5ccc2[nH]5)C=C4)C=C3)cc1
REMARK SMILES IDX 20 1 19 2 17 3 18 4 16 6 7 7 8 8 9 9 15 10 10 11 14 12 11 13
REMARK SMILES IDX 13 14 12 15 5 16 6 17 4 18 3 19 2 20 1 21 21 22 22 23 23 24
REMARK SMILES IDX 24 25 25 27 26 28 27 29 91 30 28 31 90 32 29 33 30 34 31 35
REMARK SMILES IDX 84 36 32 37 89 38 83 39 85 40 33 41 88 42 82 43 81 44 34 46
REMARK SMILES IDX 68 47 47 48 67 49 48 50 51 51 66 52 86 53 49 54 50 55 65 57
REMARK SMILES IDX 87 58 52 59 35 60 36 61 45 62 37 63 38 64 44 65 46 66 39 67
REMARK SMILES IDX 40 68 41 69 42 70 43 71 69 72 70 73 79 74 71 75 72 76 78 77
REMARK SMILES IDX 80 78 73 79 74 80 75 81 76 82 77 83 53 84 54 85 63 86 55 87
REMARK SMILES IDX 56 88 62 89 64 90 57 91 58 92 59 93 60 94 61 95
REMARK H PARENT 19 5 23 26 85 45 51 56
REMARK Flexibility Score: inf
ROOT
ATOM      1  C   UNL     1      -2.679  -0.390  -0.686  1.00  0.00     0.117 C 
ENDROOT
BRANCH   1   2
ATOM      2  N   UNL     1      -1.916  -0.091   0.509  1.00  0.00    -0.354 N 
ATOM      3  C   UNL     1      -0.644   0.375   0.638  1.00  0.00     0.243 C 
ATOM      4  O   UNL     1      -0.332   0.845   1.736  1.00  0.00    -0.273 OA
ATOM      5  H   UNL     1      -2.390  -0.250   1.357  1.00  0.00     0.163 HD
BRANCH   3   6
ATOM      6  C   UNL     1       0.273   0.530  -0.584  1.00  0.00     0.179 C 
ATOM      7  N   UNL     1       0.375  -0.596  -1.557  1.00  0.00    -0.326 N 
ATOM      8  C   UNL     1       0.299  -0.285  -2.991  1.00  0.00     0.156 C 
ATOM      9  C   UNL     1       0.746   1.103  -3.370  1.00  0.00    -0.025 A 
ATOM     10  C   UNL     1      -0.154   1.887  -1.189  1.00  0.00     0.071 C 
ATOM     11  C   UNL     1       1.288   1.364  -4.634  1.00  0.00     0.006 A 
ATOM     12  C   UNL     1       0.511   2.172  -2.498  1.00  0.00    -0.040 A 
ATOM     13  C   UNL     1       1.597   2.671  -5.015  1.00  0.00     0.000 A 
ATOM     14  C   UNL     1       0.805   3.483  -2.887  1.00  0.00     0.004 A 
ATOM     15  C   UNL     1       1.354   3.730  -4.143  1.00  0.00     0.000 A 
BRANCH   7  16
ATOM     16  C   UNL     1       0.979  -1.815  -1.227  1.00  0.00     0.225 C 
ATOM     17  O   UNL     1       1.691  -2.431  -2.025  1.00  0.00    -0.275 OA
BRANCH  16  18
ATOM     18  C   UNL     1       0.644  -2.476   0.096  1.00  0.00     0.128 C 
BRANCH  18  19
ATOM     19  C   UNL     1       1.791  -2.479   1.086  1.00  0.00     0.169 C 
BRANCH  19  20
ATOM     20  O   UNL     1       1.963  -1.177   1.633  1.00  0.00    -0.384 OA
ATOM     21  C   UNL     1       3.176  -0.564   1.224  1.00  0.00     0.194 C 
ENDBRANCH  19  20
ENDBRANCH  18  19
ENDBRANCH  16  18
ENDBRANCH   7  16
ENDBRANCH   3   6
ENDBRANCH   1   2
BRANCH   1  22
ATOM     22  C   UNL     1      -2.927  -1.875  -0.883  1.00  0.00     0.042 C 
BRANCH  22  23
ATOM     23  C   UNL     1      -3.514  -2.551   0.346  1.00  0.00     0.118 C 
BRANCH  23  24
ATOM     24  N   UNL     1      -4.744  -1.901   0.790  1.00  0.00    -0.352 N 
ATOM     25  C   UNL     1      -6.044  -2.312   0.650  1.00  0.00     0.251 C 
ATOM     26  H   UNL     1      -4.621  -1.044   1.257  1.00  0.00     0.163 HD
ATOM     27  O   UNL     1      -6.963  -1.510   0.808  1.00  0.00    -0.269 OA
BRANCH  25  28
ATOM     28  C   UNL     1      -6.322  -3.716   0.302  1.00  0.00     0.039 A 
ATOM     29  C   UNL     1      -7.293  -4.014  -0.656  1.00  0.00     0.014 A 
ATOM     30  C   UNL     1      -5.602  -4.738   0.924  1.00  0.00     0.014 A 
ATOM     31  C   UNL     1      -7.492  -5.341  -1.038  1.00  0.00     0.010 A 
ATOM     32  C   UNL     1      -5.726  -6.040   0.468  1.00  0.00     0.010 A 
ATOM     33  C   UNL     1      -6.684  -6.359  -0.506  1.00  0.00    -0.014 A 
BRANCH  33  34
ATOM     34  C   UNL     1      -6.827  -7.776  -0.918  1.00  0.00     0.031 A 
ATOM     35  C   UNL     1      -7.179  -8.814   0.112  1.00  0.00     0.074 A 
ATOM     36  C   UNL     1      -6.542  -8.138  -2.184  1.00  0.00     0.049 A 
ATOM     37  N   UNL     1      -7.214 -10.115  -0.003  1.00  0.00    -0.248 NA
ATOM     38  C   UNL     1      -7.493  -8.323   1.465  1.00  0.00     0.031 C 
ATOM     39  C   UNL     1      -6.141  -7.225  -3.257  1.00  0.00     0.029 A 
ATOM     40  N   UNL     1      -6.525  -9.374  -2.777  1.00  0.00    -0.354 N 
ATOM     41  C   UNL     1      -7.526 -10.597   1.263  1.00  0.00     0.074 A 
ATOM     42  C   UNL     1      -7.607  -9.453   2.144  1.00  0.00     0.031 C 
ATOM     43  C   UNL     1      -5.936  -7.930  -4.380  1.00  0.00     0.029 A 
ATOM     44  C   UNL     1      -6.141  -9.347  -4.097  1.00  0.00     0.049 A 
ATOM     45  H   UNL     1      -6.764 -10.203  -2.303  1.00  0.00     0.167 HD
ATOM     46  C   UNL     1      -7.749 -11.875   1.651  1.00  0.00     0.037 A 
ATOM     47  C   UNL     1      -5.959 -10.353  -4.974  1.00  0.00     0.037 A 
ATOM     48  C   UNL     1      -7.690 -13.001   0.756  1.00  0.00     0.049 A 
ATOM     49  C   UNL     1      -6.212 -11.766  -4.525  1.00  0.00     0.074 A 
ATOM     50  C   UNL     1      -7.959 -14.330   1.028  1.00  0.00     0.029 A 
ATOM     51  N   UNL     1      -7.333 -12.929  -0.583  1.00  0.00    -0.354 N 
ATOM     52  N   UNL     1      -6.567 -12.203  -3.339  1.00  0.00    -0.248 NA
ATOM     53  C   UNL     1      -6.049 -12.823  -5.531  1.00  0.00     0.031 C 
ATOM     54  C   UNL     1      -7.712 -15.069  -0.133  1.00  0.00     0.029 A 
ATOM     55  C   UNL     1      -7.352 -14.194  -1.146  1.00  0.00     0.049 A 
ATOM     56  H   UNL     1      -7.100 -12.101  -1.062  1.00  0.00     0.167 HD
ATOM     57  C   UNL     1      -6.701 -13.581  -3.465  1.00  0.00     0.074 A 
ATOM     58  C   UNL     1      -6.394 -13.904  -4.844  1.00  0.00     0.031 C 
ATOM     59  C   UNL     1      -7.051 -14.495  -2.525  1.00  0.00     0.037 A 
BRANCH  46  60
ATOM     60  C   UNL     1      -8.069 -12.116   3.102  1.00  0.00     0.058 A 
ATOM     61  C   UNL     1      -9.264 -11.661   3.685  1.00  0.00     0.135 A 
ATOM     62  C   UNL     1      -7.171 -12.816   3.924  1.00  0.00     0.135 A 
ATOM     63  F   UNL     1     -10.155 -10.972   2.953  1.00  0.00    -0.206 F 
ATOM     64  C   UNL     1      -9.536 -11.851   5.036  1.00  0.00     0.059 A 
ATOM     65  C   UNL     1      -7.438 -13.049   5.270  1.00  0.00     0.059 A 
ATOM     66  F   UNL     1      -6.013 -13.275   3.423  1.00  0.00    -0.206 F 
ATOM     67  C   UNL     1      -8.614 -12.544   5.821  1.00  0.00     0.060 A 
BRANCH  67  68
ATOM     68  S   UNL     1      -8.975 -12.768   7.575  1.00  0.00     0.124 S 
ATOM     69  O   UNL     1      -8.772 -11.417   8.088  1.00  0.00    -0.237 OA
ATOM     70  O   UNL     1     -10.357 -13.236   7.552  1.00  0.00    -0.237 OA
ATOM     71  O   UNL     1      -7.989 -13.756   8.002  1.00  0.00    -0.744 OA
ENDBRANCH  67  68
ENDBRANCH  46  60
BRANCH  47  72
ATOM     72  C   UNL     1      -5.540 -10.048  -6.369  1.00  0.00     0.058 A 
ATOM     73  C   UNL     1      -6.434 -10.198  -7.439  1.00  0.00     0.135 A 
ATOM     74  C   UNL     1      -4.255  -9.558  -6.655  1.00  0.00     0.135 A 
ATOM     75  F   UNL     1      -7.671 -10.667  -7.217  1.00  0.00    -0.206 F 
ATOM     76  C   UNL     1      -6.071  -9.879  -8.743  1.00  0.00     0.059 A 
ATOM     77  C   UNL     1      -3.877  -9.208  -7.947  1.00  0.00     0.059 A 
ATOM     78  F   UNL     1      -3.368  -9.380  -5.664  1.00  0.00    -0.206 F 
ATOM     79  C   UNL     1      -4.791  -9.377  -8.986  1.00  0.00     0.060 A 
BRANCH  79  80
ATOM     80  S   UNL     1      -4.357  -8.898 -10.672  1.00  0.00     0.124 S 
ATOM     81  O   UNL     1      -4.255 -10.195 -11.330  1.00  0.00    -0.237 OA
ATOM     82  O   UNL     1      -5.499  -8.074 -11.058  1.00  0.00    -0.237 OA
ATOM     83  O   UNL     1      -3.101  -8.174 -10.504  1.00  0.00    -0.744 OA
ENDBRANCH  79  80
ENDBRANCH  47  72
BRANCH  59  84
ATOM     84  C   UNL     1      -7.169 -15.930  -2.961  1.00  0.00     0.058 A 
ATOM     85  C   UNL     1      -6.043 -16.710  -3.264  1.00  0.00     0.135 A 
ATOM     86  C   UNL     1      -8.429 -16.550  -3.010  1.00  0.00     0.135 A 
ATOM     87  F   UNL     1      -4.816 -16.165  -3.239  1.00  0.00    -0.206 F 
ATOM     88  C   UNL     1      -6.163 -18.050  -3.619  1.00  0.00     0.059 A 
ATOM     89  C   UNL     1      -8.570 -17.896  -3.331  1.00  0.00     0.059 A 
ATOM     90  F   UNL     1      -9.539 -15.852  -2.719  1.00  0.00    -0.206 F 
ATOM     91  C   UNL     1      -7.431 -18.635  -3.644  1.00  0.00     0.060 A 
BRANCH  91  92
ATOM     92  S   UNL     1      -7.567 -20.386  -4.064  1.00  0.00     0.124 S 
ATOM     93  O   UNL     1      -7.285 -20.368  -5.495  1.00  0.00    -0.237 OA
ATOM     94  O   UNL     1      -6.539 -20.988  -3.221  1.00  0.00    -0.237 OA
ATOM     95  O   UNL     1      -8.941 -20.717  -3.699  1.00  0.00    -0.744 OA
ENDBRANCH  91  92
ENDBRANCH  59  84
ENDBRANCH  33  34
ENDBRANCH  25  28
ENDBRANCH  23  24
ENDBRANCH  22  23
ENDBRANCH   1  22
TORSDOF 17
