REMARK SMILES O=C(NCCCNC(=O)C1(NC(=O)c2ccncc2Cl)CCCCC1)c1ccc(-c2c3nc(c(-c4c(F)cc(S(=O)(=O)[O-])cc4F)c4ccc([nH]4)c(-c4c(F)cc(S(=O)(=O)[O-])cc4F)c4nc(c(-c5c(F)cc(S(=O)(=O)[O-])cc5F)c5ccc2[nH]5)C=C4)C=C3)cc1
REMARK SMILES IDX 4 1 3 2 1 3 2 4 26 6 27 7 91 8 28 9 90 10 29 11 30 12 31 13
REMARK SMILES IDX 84 14 32 15 89 16 83 17 85 18 33 19 88 20 82 21 81 22 34 24
REMARK SMILES IDX 68 25 47 26 67 27 48 28 51 29 66 30 86 31 49 32 50 33 65 35
REMARK SMILES IDX 87 36 52 37 35 38 36 39 45 40 37 41 38 42 44 43 46 44 39 45
REMARK SMILES IDX 40 46 41 47 42 48 43 49 69 50 70 51 79 52 71 53 72 54 78 55
REMARK SMILES IDX 80 56 73 57 74 58 75 59 76 60 77 61 53 62 54 63 63 64 55 65
REMARK SMILES IDX 56 66 62 67 64 68 57 69 58 70 59 71 60 72 61 73 5 74 6 75
REMARK SMILES IDX 7 76 8 77 9 79 10 80 21 81 25 82 22 83 24 84 23 85 11 86
REMARK SMILES IDX 12 87 13 89 14 90 15 91 19 92 16 93 18 94 20 95 17 96
REMARK H PARENT 3 5 85 23 51 34 7 78 11 88
REMARK Flexibility Score: inf
ROOT
ATOM      1  C   UNL     1       4.384  -0.473  -1.265  1.00  0.00     0.118 C 
ENDROOT
BRANCH   1   2
ATOM      2  N   UNL     1       2.978  -0.158  -1.052  1.00  0.00    -0.352 N 
ATOM      3  O   UNL     1       1.073   0.178   0.089  1.00  0.00    -0.269 OA
ATOM      4  C   UNL     1       2.299   0.172   0.097  1.00  0.00     0.251 C 
ATOM      5  H   UNL     1       2.422  -0.187  -1.864  1.00  0.00     0.163 HD
BRANCH   4   6
ATOM      6  C   UNL     1       3.036   0.502   1.337  1.00  0.00     0.039 A 
ATOM      7  C   UNL     1       4.188   1.287   1.293  1.00  0.00     0.014 A 
ATOM      8  C   UNL     1       2.546   0.054   2.567  1.00  0.00     0.014 A 
ATOM      9  C   UNL     1       4.941   1.478   2.444  1.00  0.00     0.010 A 
ATOM     10  C   UNL     1       3.248   0.341   3.743  1.00  0.00     0.010 A 
ATOM     11  C   UNL     1       4.471   1.026   3.688  1.00  0.00    -0.014 A 
BRANCH  11  12
ATOM     12  C   UNL     1       5.249   1.347   4.912  1.00  0.00     0.031 A 
ATOM     13  C   UNL     1       5.849   0.262   5.763  1.00  0.00     0.074 A 
ATOM     14  C   UNL     1       5.445   2.644   5.228  1.00  0.00     0.049 A 
ATOM     15  N   UNL     1       6.590   0.374   6.837  1.00  0.00    -0.248 NA
ATOM     16  C   UNL     1       5.578  -1.128   5.367  1.00  0.00     0.031 C 
ATOM     17  C   UNL     1       4.901   3.782   4.481  1.00  0.00     0.029 A 
ATOM     18  N   UNL     1       6.170   3.227   6.235  1.00  0.00    -0.354 N 
ATOM     19  C   UNL     1       6.859  -0.925   7.255  1.00  0.00     0.074 A 
ATOM     20  C   UNL     1       6.175  -1.810   6.336  1.00  0.00     0.031 C 
ATOM     21  C   UNL     1       5.359   4.922   5.018  1.00  0.00     0.029 A 
ATOM     22  C   UNL     1       6.168   4.601   6.187  1.00  0.00     0.049 A 
ATOM     23  H   UNL     1       6.645   2.712   6.926  1.00  0.00     0.167 HD
ATOM     24  C   UNL     1       7.614  -1.337   8.303  1.00  0.00     0.037 A 
ATOM     25  C   UNL     1       6.741   5.507   7.001  1.00  0.00     0.037 A 
ATOM     26  C   UNL     1       8.296  -0.444   9.206  1.00  0.00     0.049 A 
ATOM     27  C   UNL     1       7.544   5.022   8.173  1.00  0.00     0.074 A 
ATOM     28  C   UNL     1       9.112  -0.762  10.279  1.00  0.00     0.029 A 
ATOM     29  N   UNL     1       8.237   0.942   9.150  1.00  0.00    -0.354 N 
ATOM     30  N   UNL     1       7.816   3.790   8.531  1.00  0.00    -0.248 NA
ATOM     31  C   UNL     1       8.116   6.049   9.053  1.00  0.00     0.031 C 
ATOM     32  C   UNL     1       9.501   0.429  10.902  1.00  0.00     0.029 A 
ATOM     33  C   UNL     1       8.979   1.493  10.184  1.00  0.00     0.049 A 
ATOM     34  H   UNL     1       7.741   1.459   8.474  1.00  0.00     0.167 HD
ATOM     35  C   UNL     1       8.611   3.893   9.666  1.00  0.00     0.074 A 
ATOM     36  C   UNL     1       8.789   5.308   9.923  1.00  0.00     0.031 C 
ATOM     37  C   UNL     1       9.146   2.905  10.426  1.00  0.00     0.037 A 
BRANCH  24  38
ATOM     38  C   UNL     1       7.721  -2.820   8.548  1.00  0.00     0.058 A 
ATOM     39  C   UNL     1       8.436  -3.667   7.686  1.00  0.00     0.135 A 
ATOM     40  C   UNL     1       7.126  -3.399   9.682  1.00  0.00     0.135 A 
ATOM     41  F   UNL     1       9.016  -3.174   6.580  1.00  0.00    -0.206 F 
ATOM     42  C   UNL     1       8.527  -5.037   7.919  1.00  0.00     0.059 A 
ATOM     43  C   UNL     1       7.229  -4.761   9.951  1.00  0.00     0.059 A 
ATOM     44  F   UNL     1       6.433  -2.638  10.544  1.00  0.00    -0.206 F 
ATOM     45  C   UNL     1       7.917  -5.575   9.053  1.00  0.00     0.060 A 
BRANCH  45  46
ATOM     46  S   UNL     1       8.030  -7.356   9.331  1.00  0.00     0.124 S 
ATOM     47  O   UNL     1       7.137  -7.868   8.296  1.00  0.00    -0.237 OA
ATOM     48  O   UNL     1       9.452  -7.614   9.124  1.00  0.00    -0.237 OA
ATOM     49  O   UNL     1       7.559  -7.518  10.702  1.00  0.00    -0.744 OA
ENDBRANCH  45  46
ENDBRANCH  24  38
BRANCH  25  50
ATOM     50  C   UNL     1       6.572   6.959   6.728  1.00  0.00     0.058 A 
ATOM     51  C   UNL     1       7.655   7.748   6.317  1.00  0.00     0.135 A 
ATOM     52  C   UNL     1       5.318   7.580   6.848  1.00  0.00     0.135 A 
ATOM     53  F   UNL     1       8.874   7.202   6.191  1.00  0.00    -0.206 F 
ATOM     54  C   UNL     1       7.506   9.105   6.049  1.00  0.00     0.059 A 
ATOM     55  C   UNL     1       5.138   8.927   6.556  1.00  0.00     0.059 A 
ATOM     56  F   UNL     1       4.245   6.864   7.220  1.00  0.00    -0.206 F 
ATOM     57  C   UNL     1       6.242   9.685   6.168  1.00  0.00     0.060 A 
BRANCH  57  58
ATOM     58  S   UNL     1       6.051  11.436   5.774  1.00  0.00     0.124 S 
ATOM     59  O   UNL     1       6.699  12.066   6.918  1.00  0.00    -0.237 OA
ATOM     60  O   UNL     1       6.757  11.541   4.500  1.00  0.00    -0.237 OA
ATOM     61  O   UNL     1       4.603  11.606   5.695  1.00  0.00    -0.744 OA
ENDBRANCH  57  58
ENDBRANCH  25  50
BRANCH  37  62
ATOM     62  C   UNL     1      10.006   3.325  11.587  1.00  0.00     0.058 A 
ATOM     63  C   UNL     1       9.462   3.915  12.738  1.00  0.00     0.135 A 
ATOM     64  C   UNL     1      11.394   3.108  11.555  1.00  0.00     0.135 A 
ATOM     65  F   UNL     1       8.143   4.153  12.816  1.00  0.00    -0.206 F 
ATOM     66  C   UNL     1      10.266   4.305  13.804  1.00  0.00     0.059 A 
ATOM     67  C   UNL     1      12.213   3.461  12.623  1.00  0.00     0.059 A 
ATOM     68  F   UNL     1      11.965   2.538  10.482  1.00  0.00    -0.206 F 
ATOM     69  C   UNL     1      11.641   4.073  13.737  1.00  0.00     0.060 A 
BRANCH  69  70
ATOM     70  S   UNL     1      12.671   4.565  15.135  1.00  0.00     0.124 S 
ATOM     71  O   UNL     1      12.696   6.016  14.986  1.00  0.00    -0.237 OA
ATOM     72  O   UNL     1      11.914   4.056  16.275  1.00  0.00    -0.237 OA
ATOM     73  O   UNL     1      13.938   3.886  14.879  1.00  0.00    -0.744 OA
ENDBRANCH  69  70
ENDBRANCH  37  62
ENDBRANCH  11  12
ENDBRANCH   4   6
ENDBRANCH   1   2
BRANCH   1  74
ATOM     74  C   UNL     1       4.627  -1.958  -1.503  1.00  0.00     0.042 C 
BRANCH  74  75
ATOM     75  C   UNL     1       3.924  -2.510  -2.737  1.00  0.00     0.117 C 
BRANCH  75  76
ATOM     76  N   UNL     1       4.300  -1.829  -3.961  1.00  0.00    -0.354 N 
ATOM     77  C   UNL     1       4.947  -2.272  -5.067  1.00  0.00     0.245 C 
ATOM     78  H   UNL     1       4.040  -0.880  -3.994  1.00  0.00     0.163 HD
ATOM     79  O   UNL     1       4.582  -1.733  -6.121  1.00  0.00    -0.272 OA
BRANCH  77  80
ATOM     80  C   UNL     1       5.987  -3.442  -5.091  1.00  0.00     0.119 C 
ATOM     81  C   UNL     1       6.732  -3.785  -3.783  1.00  0.00     0.038 C 
ATOM     82  C   UNL     1       5.117  -4.645  -5.560  1.00  0.00     0.038 C 
ATOM     83  C   UNL     1       7.387  -5.171  -3.766  1.00  0.00     0.003 C 
ATOM     84  C   UNL     1       5.797  -6.008  -5.492  1.00  0.00     0.003 C 
ATOM     85  C   UNL     1       6.385  -6.261  -4.115  1.00  0.00     0.000 C 
BRANCH  80  86
ATOM     86  N   UNL     1       7.025  -3.173  -6.144  1.00  0.00    -0.338 N 
ATOM     87  C   UNL     1       7.792  -2.060  -6.421  1.00  0.00     0.253 C 
ATOM     88  H   UNL     1       7.189  -3.933  -6.748  1.00  0.00     0.164 HD
ATOM     89  O   UNL     1       8.826  -2.181  -7.074  1.00  0.00    -0.269 OA
BRANCH  87  90
ATOM     90  C   UNL     1       7.306  -0.699  -6.142  1.00  0.00     0.061 A 
ATOM     91  C   UNL     1       6.617  -0.063  -7.184  1.00  0.00     0.035 A 
ATOM     92  C   UNL     1       7.517  -0.024  -4.946  1.00  0.00     0.072 A 
ATOM     93  C   UNL     1       6.066   1.182  -6.944  1.00  0.00     0.112 A 
ATOM     94  C   UNL     1       6.920   1.222  -4.808  1.00  0.00     0.132 A 
ATOM     95  Cl  UNL     1       8.497  -0.613  -3.668  1.00  0.00    -0.082 Cl
ATOM     96  N   UNL     1       6.186   1.833  -5.769  1.00  0.00    -0.263 NA
ENDBRANCH  87  90
ENDBRANCH  80  86
ENDBRANCH  77  80
ENDBRANCH  75  76
ENDBRANCH  74  75
ENDBRANCH   1  74
TORSDOF 15
