REMARK SMILES COc1cc(/C=C2/CCc3cc(OC(C)(C)C(=O)NCCCNC(=O)c4ccc(-c5c6nc(c(-c7c(F)cc(S(=O)(=O)[O-])cc7F)c7ccc([nH]7)c(-c7c(F)cc(S(=O)(=O)[O-])cc7F)c7nc(c(-c8c(F)cc(S(=O)(=O)[O-])cc8F)c8ccc5[nH]8)C=C7)C=C6)cc4)ccc3C2=O)cc(OC)c1O
REMARK SMILES IDX 20 1 19 2 17 3 18 4 14 6 15 7 16 8 13 9 12 10 6 11 7 12 8 13
REMARK SMILES IDX 95 14 9 15 94 16 96 17 10 18 93 19 11 20 92 21 5 22 3 23
REMARK SMILES IDX 4 24 101 25 98 26 97 27 2 28 1 29 102 30 99 32 100 33 21 34
REMARK SMILES IDX 22 35 23 36 24 37 25 39 26 40 27 41 91 42 28 43 90 44 29 45
REMARK SMILES IDX 30 46 31 47 84 48 32 49 89 50 83 51 85 52 33 53 88 54 82 55
REMARK SMILES IDX 81 56 34 58 68 59 47 60 67 61 48 62 51 63 66 64 86 65 49 66
REMARK SMILES IDX 50 67 65 69 87 70 52 71 35 72 36 73 45 74 37 75 38 76 44 77
REMARK SMILES IDX 46 78 39 79 40 80 41 81 42 82 43 83 69 84 70 85 79 86 71 87
REMARK SMILES IDX 72 88 78 89 80 90 73 91 74 92 75 93 76 94 77 95 53 96 54 97
REMARK SMILES IDX 63 98 55 99 56 100 62 101 64 102 57 103 58 104 59 105 60 106
REMARK SMILES IDX 61 107
REMARK H PARENT 19 5 102 31 23 38 85 57 51 68
REMARK Flexibility Score: inf
ROOT
ATOM      1  C   UNL     1       4.329  -1.903  -0.051  1.00  0.00     0.118 C 
ENDROOT
BRANCH   1   2
ATOM      2  N   UNL     1       5.181  -2.847   0.678  1.00  0.00    -0.353 N 
ATOM      3  C   UNL     1       5.553  -4.160   0.340  1.00  0.00     0.263 C 
ATOM      4  O   UNL     1       6.578  -4.603   0.868  1.00  0.00    -0.270 OA
ATOM      5  H   UNL     1       5.546  -2.513   1.529  1.00  0.00     0.163 HD
BRANCH   3   6
ATOM      6  C   UNL     1       4.574  -5.096  -0.491  1.00  0.00     0.181 C 
ATOM      7  C   UNL     1       4.444  -4.537  -1.915  1.00  0.00     0.067 C 
ATOM      8  C   UNL     1       3.387  -5.012   0.504  1.00  0.00     0.067 C 
BRANCH   6   9
ATOM      9  O   UNL     1       5.067  -6.485  -0.729  1.00  0.00    -0.478 OA
BRANCH   9  10
ATOM     10  C   UNL     1       4.077  -7.440  -0.975  1.00  0.00     0.121 A 
ATOM     11  C   UNL     1      -1.388  -6.027  -0.310  1.00  0.00     0.016 C 
ATOM     12  C   UNL     1      -0.573  -6.733  -1.120  1.00  0.00     0.001 C 
ATOM     13  C   UNL     1      -0.647  -7.586  -2.388  1.00  0.00     0.044 C 
ATOM     14  C   UNL     1       0.828  -6.585  -0.809  1.00  0.00     0.189 C 
ATOM     15  C   UNL     1       0.823  -7.752  -3.130  1.00  0.00     0.041 C 
ATOM     16  C   UNL     1       1.500  -7.930  -0.820  1.00  0.00     0.026 A 
ATOM     17  O   UNL     1       1.370  -5.518  -1.082  1.00  0.00    -0.289 OA
ATOM     18  C   UNL     1       1.981  -7.939  -2.117  1.00  0.00    -0.033 A 
ATOM     19  C   UNL     1       2.271  -8.292   0.276  1.00  0.00     0.016 A 
ATOM     20  C   UNL     1       3.337  -7.565  -2.196  1.00  0.00     0.051 A 
ATOM     21  C   UNL     1       3.631  -8.079   0.181  1.00  0.00     0.047 A 
BRANCH  11  22
ATOM     22  C   UNL     1      -0.885  -4.903   0.563  1.00  0.00    -0.018 A 
ATOM     23  C   UNL     1      -0.674  -2.465   0.733  1.00  0.00     0.165 A 
ATOM     24  C   UNL     1      -1.148  -3.611   0.082  1.00  0.00     0.058 A 
ATOM     25  C   UNL     1       0.100  -2.594   1.890  1.00  0.00     0.200 A 
ATOM     26  C   UNL     1       0.468  -3.867   2.349  1.00  0.00     0.165 A 
ATOM     27  C   UNL     1      -0.064  -5.014   1.706  1.00  0.00     0.058 A 
BRANCH  23  28
ATOM     28  O   UNL     1      -1.138  -1.275   0.232  1.00  0.00    -0.493 OA
ATOM     29  C   UNL     1      -0.156  -0.276  -0.025  1.00  0.00     0.278 C 
ENDBRANCH  23  28
BRANCH  25  30
ATOM     30  O   UNL     1       0.410  -1.478   2.621  1.00  0.00    -0.502 OA
ATOM     31  H   UNL     1       0.162  -0.630   2.309  1.00  0.00     0.293 HD
ENDBRANCH  25  30
BRANCH  26  32
ATOM     32  O   UNL     1       1.279  -4.130   3.432  1.00  0.00    -0.493 OA
ATOM     33  C   UNL     1       2.278  -3.157   3.746  1.00  0.00     0.278 C 
ENDBRANCH  26  32
ENDBRANCH  11  22
ENDBRANCH   9  10
ENDBRANCH   6   9
ENDBRANCH   3   6
ENDBRANCH   1   2
BRANCH   1  34
ATOM     34  C   UNL     1       3.366  -0.956   0.679  1.00  0.00     0.042 C 
BRANCH  34  35
ATOM     35  C   UNL     1       3.859  -0.030   1.783  1.00  0.00     0.118 C 
BRANCH  35  36
ATOM     36  N   UNL     1       4.073   1.328   1.295  1.00  0.00    -0.352 N 
ATOM     37  C   UNL     1       3.283   2.454   1.244  1.00  0.00     0.251 C 
ATOM     38  H   UNL     1       4.974   1.470   0.924  1.00  0.00     0.163 HD
ATOM     39  O   UNL     1       3.660   3.355   0.490  1.00  0.00    -0.269 OA
BRANCH  37  40
ATOM     40  C   UNL     1       2.025   2.671   2.025  1.00  0.00     0.039 A 
ATOM     41  C   UNL     1       1.082   3.572   1.498  1.00  0.00     0.014 A 
ATOM     42  C   UNL     1       1.800   2.170   3.309  1.00  0.00     0.014 A 
ATOM     43  C   UNL     1      -0.053   3.959   2.232  1.00  0.00     0.010 A 
ATOM     44  C   UNL     1       0.635   2.517   4.024  1.00  0.00     0.010 A 
ATOM     45  C   UNL     1      -0.300   3.430   3.507  1.00  0.00    -0.014 A 
BRANCH  45  46
ATOM     46  C   UNL     1      -1.508   3.842   4.292  1.00  0.00     0.031 A 
ATOM     47  C   UNL     1      -1.379   4.614   5.586  1.00  0.00     0.074 A 
ATOM     48  C   UNL     1      -2.744   3.521   3.854  1.00  0.00     0.049 A 
ATOM     49  N   UNL     1      -2.316   5.025   6.407  1.00  0.00    -0.248 NA
ATOM     50  C   UNL     1      -0.017   4.960   6.016  1.00  0.00     0.031 C 
ATOM     51  C   UNL     1      -3.037   2.784   2.625  1.00  0.00     0.029 A 
ATOM     52  N   UNL     1      -3.986   3.770   4.393  1.00  0.00    -0.354 N 
ATOM     53  C   UNL     1      -1.660   5.668   7.453  1.00  0.00     0.074 A 
ATOM     54  C   UNL     1      -0.242   5.553   7.182  1.00  0.00     0.031 C 
ATOM     55  C   UNL     1      -4.368   2.658   2.494  1.00  0.00     0.029 A 
ATOM     56  C   UNL     1      -5.027   3.265   3.648  1.00  0.00     0.049 A 
ATOM     57  H   UNL     1      -4.118   4.264   5.235  1.00  0.00     0.167 HD
ATOM     58  C   UNL     1      -2.183   6.309   8.531  1.00  0.00     0.037 A 
ATOM     59  C   UNL     1      -6.359   3.274   3.863  1.00  0.00     0.037 A 
ATOM     60  C   UNL     1      -3.594   6.435   8.806  1.00  0.00     0.049 A 
ATOM     61  C   UNL     1      -6.916   3.941   5.093  1.00  0.00     0.074 A 
ATOM     62  C   UNL     1      -4.211   7.100   9.853  1.00  0.00     0.029 A 
ATOM     63  N   UNL     1      -4.609   5.879   8.040  1.00  0.00    -0.354 N 
ATOM     64  N   UNL     1      -6.280   4.577   6.047  1.00  0.00    -0.248 NA
ATOM     65  C   UNL     1      -8.375   3.890   5.276  1.00  0.00     0.031 C 
ATOM     66  C   UNL     1      -5.593   6.900   9.752  1.00  0.00     0.029 A 
ATOM     67  C   UNL     1      -5.843   6.159   8.609  1.00  0.00     0.049 A 
ATOM     68  H   UNL     1      -4.473   5.361   7.214  1.00  0.00     0.167 HD
ATOM     69  C   UNL     1      -7.261   5.024   6.927  1.00  0.00     0.074 A 
ATOM     70  C   UNL     1      -8.534   4.595   6.388  1.00  0.00     0.031 C 
ATOM     71  C   UNL     1      -7.114   5.731   8.076  1.00  0.00     0.037 A 
BRANCH  58  72
ATOM     72  C   UNL     1      -1.215   6.917   9.516  1.00  0.00     0.058 A 
ATOM     73  C   UNL     1      -0.434   8.039   9.191  1.00  0.00     0.135 A 
ATOM     74  C   UNL     1      -1.082   6.387  10.811  1.00  0.00     0.135 A 
ATOM     75  F   UNL     1      -0.516   8.588   7.969  1.00  0.00    -0.206 F 
ATOM     76  C   UNL     1       0.479   8.578  10.092  1.00  0.00     0.059 A 
ATOM     77  C   UNL     1      -0.198   6.930  11.740  1.00  0.00     0.059 A 
ATOM     78  F   UNL     1      -1.813   5.324  11.185  1.00  0.00    -0.206 F 
ATOM     79  C   UNL     1       0.597   8.011  11.362  1.00  0.00     0.060 A 
BRANCH  79  80
ATOM     80  S   UNL     1       1.815   8.696  12.505  1.00  0.00     0.124 S 
ATOM     81  O   UNL     1       3.063   8.219  11.917  1.00  0.00    -0.237 OA
ATOM     82  O   UNL     1       1.573  10.131  12.398  1.00  0.00    -0.237 OA
ATOM     83  O   UNL     1       1.456   8.096  13.786  1.00  0.00    -0.744 OA
ENDBRANCH  79  80
ENDBRANCH  58  72
BRANCH  59  84
ATOM     84  C   UNL     1      -7.269   2.637   2.872  1.00  0.00     0.058 A 
ATOM     85  C   UNL     1      -8.108   3.414   2.059  1.00  0.00     0.135 A 
ATOM     86  C   UNL     1      -7.297   1.244   2.697  1.00  0.00     0.135 A 
ATOM     87  F   UNL     1      -8.128   4.748   2.200  1.00  0.00    -0.206 F 
ATOM     88  C   UNL     1      -8.942   2.836   1.108  1.00  0.00     0.059 A 
ATOM     89  C   UNL     1      -8.103   0.644   1.735  1.00  0.00     0.059 A 
ATOM     90  F   UNL     1      -6.508   0.457   3.444  1.00  0.00    -0.206 F 
ATOM     91  C   UNL     1      -8.925   1.449   0.947  1.00  0.00     0.060 A 
BRANCH  91  92
ATOM     92  S   UNL     1      -9.954   0.719  -0.346  1.00  0.00     0.124 S 
ATOM     93  O   UNL     1     -11.289   0.880   0.213  1.00  0.00    -0.237 OA
ATOM     94  O   UNL     1      -9.635   1.553  -1.498  1.00  0.00    -0.237 OA
ATOM     95  O   UNL     1      -9.465  -0.658  -0.424  1.00  0.00    -0.744 OA
ENDBRANCH  91  92
ENDBRANCH  59  84
BRANCH  71  96
ATOM     96  C   UNL     1      -8.363   6.115   8.827  1.00  0.00     0.058 A 
ATOM     97  C   UNL     1      -9.123   5.170   9.534  1.00  0.00     0.135 A 
ATOM     98  C   UNL     1      -8.775   7.458   8.886  1.00  0.00     0.135 A 
ATOM     99  F   UNL     1      -8.781   3.872   9.507  1.00  0.00    -0.206 F 
ATOM    100  C   UNL     1     -10.255   5.538  10.257  1.00  0.00     0.059 A 
ATOM    101  C   UNL     1      -9.888   7.852   9.624  1.00  0.00     0.059 A 
ATOM    102  F   UNL     1      -8.084   8.406   8.234  1.00  0.00    -0.206 F 
ATOM    103  C   UNL     1     -10.627   6.882  10.300  1.00  0.00     0.060 A 
BRANCH 103 104
ATOM    104  S   UNL     1     -12.073   7.350  11.277  1.00  0.00     0.124 S 
ATOM    105  O   UNL     1     -13.164   6.837  10.454  1.00  0.00    -0.237 OA
ATOM    106  O   UNL     1     -11.841   6.646  12.534  1.00  0.00    -0.237 OA
ATOM    107  O   UNL     1     -11.976   8.805  11.354  1.00  0.00    -0.744 OA
ENDBRANCH 103 104
ENDBRANCH  71  96
ENDBRANCH  45  46
ENDBRANCH  37  40
ENDBRANCH  35  36
ENDBRANCH  34  35
ENDBRANCH   1  34
TORSDOF 19
