REMARK SMILES CC[C@@](C)(Nc1nccs1)C(=O)NCCCNC(=O)c1ccc(-c2c3nc(c(-c4c(F)cc(S(=O)(=O)[O-])cc4F)c4ccc([nH]4)c(-c4c(F)cc(S(=O)(=O)[O-])cc4F)c4nc(c(-c5c(F)cc(S(=O)(=O)[O-])cc5F)c5ccc2[nH]5)C=C4)C=C3)cc1
REMARK SMILES IDX 15 1 14 2 13 3 11 4 12 5 3 7 4 8 2 9 1 10 5 11 6 13 7 14
REMARK SMILES IDX 10 15 8 16 9 17 16 18 17 19 18 20 19 22 20 23 21 24 85 25
REMARK SMILES IDX 22 26 84 27 23 28 24 29 25 30 78 31 26 32 83 33 77 34 79 35
REMARK SMILES IDX 27 36 82 37 76 38 75 39 28 41 62 42 41 43 61 44 42 45 45 46
REMARK SMILES IDX 60 47 80 48 43 49 44 50 59 52 81 53 46 54 29 55 30 56 39 57
REMARK SMILES IDX 31 58 32 59 38 60 40 61 33 62 34 63 35 64 36 65 37 66 63 67
REMARK SMILES IDX 64 68 73 69 65 70 66 71 72 72 74 73 67 74 68 75 69 76 70 77
REMARK SMILES IDX 71 78 47 79 48 80 57 81 49 82 50 83 56 84 58 85 51 86 52 87
REMARK SMILES IDX 53 88 54 89 55 90
REMARK H PARENT 13 6 5 12 17 21 79 40 45 51
REMARK Flexibility Score: inf
ROOT
ATOM      1  C   UNL     1       2.882   1.483  -5.943  1.00  0.00     0.042 C 
ENDROOT
BRANCH   1   2
ATOM      2  C   UNL     1       2.460   0.336  -5.033  1.00  0.00     0.117 C 
BRANCH   2   3
ATOM      3  N   UNL     1       3.070   0.356  -3.717  1.00  0.00    -0.354 N 
ATOM      4  C   UNL     1       2.586   0.671  -2.480  1.00  0.00     0.245 C 
ATOM      5  O   UNL     1       3.409   0.598  -1.558  1.00  0.00    -0.272 OA
ATOM      6  H   UNL     1       4.018   0.092  -3.716  1.00  0.00     0.163 HD
BRANCH   4   7
ATOM      7  C   UNL     1       1.080   1.013  -2.219  1.00  0.00     0.115 C 
ATOM      8  C   UNL     1       0.199  -0.193  -2.611  1.00  0.00     0.045 C 
BRANCH   7   9
ATOM      9  C   UNL     1       0.841   1.321  -0.706  1.00  0.00     0.035 C 
ATOM     10  C   UNL     1       1.011   0.142   0.256  1.00  0.00     0.007 C 
ENDBRANCH   7   9
BRANCH   7  11
ATOM     11  N   UNL     1       0.596   2.184  -2.975  1.00  0.00    -0.347 N 
ATOM     12  H   UNL     1      -0.334   2.169  -3.298  1.00  0.00     0.164 HD
BRANCH  11  13
ATOM     13  C   UNL     1       1.342   3.276  -3.256  1.00  0.00     0.183 A 
ATOM     14  N   UNL     1       2.641   3.390  -3.112  1.00  0.00    -0.229 NA
ATOM     15  S   UNL     1       0.578   4.667  -3.943  1.00  0.00    -0.106 S 
ATOM     16  C   UNL     1       3.085   4.592  -3.629  1.00  0.00     0.125 A 
ATOM     17  C   UNL     1       2.106   5.417  -4.132  1.00  0.00     0.088 A 
ENDBRANCH  11  13
ENDBRANCH   7  11
ENDBRANCH   4   7
ENDBRANCH   2   3
ENDBRANCH   1   2
BRANCH   1  18
ATOM     18  C   UNL     1       4.382   1.719  -6.027  1.00  0.00     0.118 C 
BRANCH  18  19
ATOM     19  N   UNL     1       5.057   0.674  -6.784  1.00  0.00    -0.352 N 
ATOM     20  C   UNL     1       5.679   0.758  -8.008  1.00  0.00     0.251 C 
ATOM     21  H   UNL     1       5.071  -0.215  -6.361  1.00  0.00     0.163 HD
ATOM     22  O   UNL     1       5.987  -0.264  -8.612  1.00  0.00    -0.269 OA
BRANCH  20  23
ATOM     23  C   UNL     1       5.957   2.086  -8.599  1.00  0.00     0.039 A 
ATOM     24  C   UNL     1       5.660   2.314  -9.946  1.00  0.00     0.014 A 
ATOM     25  C   UNL     1       6.517   3.104  -7.822  1.00  0.00     0.014 A 
ATOM     26  C   UNL     1       5.865   3.583 -10.496  1.00  0.00     0.010 A 
ATOM     27  C   UNL     1       6.649   4.384  -8.350  1.00  0.00     0.010 A 
ATOM     28  C   UNL     1       6.332   4.638  -9.694  1.00  0.00    -0.014 A 
BRANCH  28  29
ATOM     29  C   UNL     1       6.529   6.010 -10.231  1.00  0.00     0.031 A 
ATOM     30  C   UNL     1       7.909   6.612 -10.242  1.00  0.00     0.074 A 
ATOM     31  C   UNL     1       5.468   6.744 -10.622  1.00  0.00     0.049 A 
ATOM     32  N   UNL     1       8.276   7.836 -10.521  1.00  0.00    -0.248 NA
ATOM     33  C   UNL     1       9.019   5.725  -9.858  1.00  0.00     0.031 C 
ATOM     34  C   UNL     1       4.077   6.285 -10.633  1.00  0.00     0.029 A 
ATOM     35  N   UNL     1       5.391   8.041 -11.065  1.00  0.00    -0.354 N 
ATOM     36  C   UNL     1       9.651   7.873 -10.321  1.00  0.00     0.074 A 
ATOM     37  C   UNL     1      10.046   6.562  -9.853  1.00  0.00     0.031 C 
ATOM     38  C   UNL     1       3.289   7.282 -11.069  1.00  0.00     0.029 A 
ATOM     39  C   UNL     1       4.108   8.463 -11.324  1.00  0.00     0.049 A 
ATOM     40  H   UNL     1       6.182   8.616 -11.186  1.00  0.00     0.167 HD
ATOM     41  C   UNL     1      10.510   8.900 -10.526  1.00  0.00     0.037 A 
ATOM     42  C   UNL     1       3.642   9.670 -11.704  1.00  0.00     0.037 A 
ATOM     43  C   UNL     1      10.114  10.192 -11.022  1.00  0.00     0.049 A 
ATOM     44  C   UNL     1       4.614  10.799 -11.920  1.00  0.00     0.074 A 
ATOM     45  C   UNL     1      10.915  11.284 -11.310  1.00  0.00     0.029 A 
ATOM     46  N   UNL     1       8.809  10.567 -11.306  1.00  0.00    -0.354 N 
ATOM     47  N   UNL     1       5.917  10.806 -11.765  1.00  0.00    -0.248 NA
ATOM     48  C   UNL     1       4.056  12.084 -12.367  1.00  0.00     0.031 C 
ATOM     49  C   UNL     1      10.089  12.332 -11.728  1.00  0.00     0.029 A 
ATOM     50  C   UNL     1       8.780  11.877 -11.753  1.00  0.00     0.049 A 
ATOM     51  H   UNL     1       8.020   9.986 -11.205  1.00  0.00     0.167 HD
ATOM     52  C   UNL     1       6.338  12.080 -12.133  1.00  0.00     0.074 A 
ATOM     53  C   UNL     1       5.152  12.817 -12.517  1.00  0.00     0.031 C 
ATOM     54  C   UNL     1       7.594  12.589 -12.157  1.00  0.00     0.037 A 
BRANCH  41  55
ATOM     55  C   UNL     1      11.963   8.668 -10.216  1.00  0.00     0.058 A 
ATOM     56  C   UNL     1      12.760   7.818 -11.000  1.00  0.00     0.135 A 
ATOM     57  C   UNL     1      12.577   9.330  -9.139  1.00  0.00     0.135 A 
ATOM     58  F   UNL     1      12.222   7.148 -12.031  1.00  0.00    -0.206 F 
ATOM     59  C   UNL     1      14.104   7.608 -10.710  1.00  0.00     0.059 A 
ATOM     60  C   UNL     1      13.928   9.159  -8.850  1.00  0.00     0.059 A 
ATOM     61  F   UNL     1      11.864  10.155  -8.357  1.00  0.00    -0.206 F 
ATOM     62  C   UNL     1      14.679   8.283  -9.632  1.00  0.00     0.060 A 
BRANCH  62  63
ATOM     63  S   UNL     1      16.425   8.002  -9.272  1.00  0.00     0.124 S 
ATOM     64  O   UNL     1      16.393   6.656  -8.709  1.00  0.00    -0.237 OA
ATOM     65  O   UNL     1      17.039   8.122 -10.591  1.00  0.00    -0.237 OA
ATOM     66  O   UNL     1      16.755   9.068  -8.331  1.00  0.00    -0.744 OA
ENDBRANCH  62  63
ENDBRANCH  41  55
BRANCH  42  67
ATOM     67  C   UNL     1       2.183   9.869 -11.920  1.00  0.00     0.058 A 
ATOM     68  C   UNL     1       1.665  10.055 -13.210  1.00  0.00     0.135 A 
ATOM     69  C   UNL     1       1.278   9.866 -10.847  1.00  0.00     0.135 A 
ATOM     70  F   UNL     1       2.490  10.073 -14.268  1.00  0.00    -0.206 F 
ATOM     71  C   UNL     1       0.304  10.247 -13.429  1.00  0.00     0.059 A 
ATOM     72  C   UNL     1      -0.090  10.030 -11.043  1.00  0.00     0.059 A 
ATOM     73  F   UNL     1       1.720   9.675  -9.594  1.00  0.00    -0.206 F 
ATOM     74  C   UNL     1      -0.566  10.231 -12.338  1.00  0.00     0.060 A 
BRANCH  74  75
ATOM     75  S   UNL     1      -2.335  10.434 -12.638  1.00  0.00     0.124 S 
ATOM     76  O   UNL     1      -2.417  11.852 -12.965  1.00  0.00    -0.237 OA
ATOM     77  O   UNL     1      -2.566   9.509 -13.744  1.00  0.00    -0.237 OA
ATOM     78  O   UNL     1      -2.938  10.042 -11.367  1.00  0.00    -0.744 OA
ENDBRANCH  74  75
ENDBRANCH  42  67
BRANCH  54  79
ATOM     79  C   UNL     1       7.772  13.991 -12.671  1.00  0.00     0.058 A 
ATOM     80  C   UNL     1       7.400  15.113 -11.915  1.00  0.00     0.135 A 
ATOM     81  C   UNL     1       8.402  14.212 -13.907  1.00  0.00     0.135 A 
ATOM     82  F   UNL     1       6.788  14.957 -10.730  1.00  0.00    -0.206 F 
ATOM     83  C   UNL     1       7.637  16.406 -12.372  1.00  0.00     0.059 A 
ATOM     84  C   UNL     1       8.673  15.495 -14.371  1.00  0.00     0.059 A 
ATOM     85  F   UNL     1       8.786  13.172 -14.665  1.00  0.00    -0.206 F 
ATOM     86  C   UNL     1       8.281  16.587 -13.598  1.00  0.00     0.060 A 
BRANCH  86  87
ATOM     87  S   UNL     1       8.634  18.268 -14.152  1.00  0.00     0.124 S 
ATOM     88  O   UNL     1       7.308  18.735 -14.541  1.00  0.00    -0.237 OA
ATOM     89  O   UNL     1       9.195  18.880 -12.951  1.00  0.00    -0.237 OA
ATOM     90  O   UNL     1       9.579  18.074 -15.248  1.00  0.00    -0.744 OA
ENDBRANCH  86  87
ENDBRANCH  54  79
ENDBRANCH  28  29
ENDBRANCH  20  23
ENDBRANCH  18  19
ENDBRANCH   1  18
TORSDOF 16
