REMARK SMILES CCOc1cc(N2CCOCC2)ccc1[C@H]([NH3+])C(=O)NCCCNC(=O)c1ccc(-c2c3nc(c(-c4c(F)cc(S(=O)(=O)[O-])cc4F)c4ccc([nH]4)c(-c4c(F)cc(S(=O)(=O)[O-])cc4F)c4nc(c(-c5c(F)cc(S(=O)(=O)[O-])cc5F)c5ccc2[nH]5)C=C4)C=C3)cc1
REMARK SMILES IDX 22 1 21 2 20 3 18 4 19 5 16 7 15 8 4 9 5 10 6 11 14 12 13 13
REMARK SMILES IDX 3 14 2 15 1 16 7 17 8 18 12 19 9 20 11 21 10 22 17 23 23 27
REMARK SMILES IDX 24 28 25 29 26 31 27 32 28 33 92 34 29 35 91 36 30 37 31 38
REMARK SMILES IDX 32 39 85 40 33 41 90 42 84 43 86 44 34 45 89 46 83 47 82 48
REMARK SMILES IDX 35 50 69 51 48 52 68 53 49 54 52 55 67 56 87 57 50 58 51 59
REMARK SMILES IDX 66 61 88 62 53 63 36 64 37 65 46 66 38 67 39 68 45 69 47 70
REMARK SMILES IDX 40 71 41 72 42 73 43 74 44 75 70 76 71 77 80 78 72 79 73 80
REMARK SMILES IDX 79 81 81 82 74 83 75 84 76 85 77 86 78 87 54 88 55 89 64 90
REMARK SMILES IDX 56 91 57 92 63 93 65 94 58 95 59 96 60 97 61 98 62 99
REMARK H PARENT 20 6 17 24 17 25 17 26 24 30 86 49 52 60
REMARK Flexibility Score: inf
ROOT
ATOM      1  C   UNL     1       6.856  -0.340  -0.584  1.00  0.00     0.042 C 
ENDROOT
BRANCH   1   2
ATOM      2  C   UNL     1       5.713  -0.931   0.219  1.00  0.00     0.118 C 
BRANCH   2   3
ATOM      3  N   UNL     1       4.797   0.100   0.679  1.00  0.00    -0.351 N 
ATOM      4  C   UNL     1       3.499   0.357   0.328  1.00  0.00     0.283 C 
ATOM      5  O   UNL     1       2.983   1.388   0.774  1.00  0.00    -0.268 OA
ATOM      6  H   UNL     1       5.170   0.712   1.353  1.00  0.00     0.163 HD
BRANCH   4   7
ATOM      7  C   UNL     1       2.729  -0.562  -0.671  1.00  0.00     0.306 C 
BRANCH   7   8
ATOM      8  C   UNL     1       2.809  -2.038  -0.300  1.00  0.00     0.061 A 
ATOM      9  C   UNL     1       2.604  -2.446   1.029  1.00  0.00     0.131 A 
ATOM     10  C   UNL     1       3.080  -3.682   1.476  1.00  0.00     0.072 A 
ATOM     11  C   UNL     1       3.740  -4.548   0.601  1.00  0.00     0.040 A 
ATOM     12  C   UNL     1       3.263  -3.002  -1.215  1.00  0.00     0.016 A 
ATOM     13  C   UNL     1       3.748  -4.231  -0.760  1.00  0.00     0.027 A 
BRANCH   9  14
ATOM     14  O   UNL     1       2.172  -1.542   1.965  1.00  0.00    -0.493 OA
BRANCH  14  15
ATOM     15  C   UNL     1       0.772  -1.655   2.243  1.00  0.00     0.226 C 
ATOM     16  C   UNL     1       0.001  -0.543   1.550  1.00  0.00     0.049 C 
ENDBRANCH  14  15
ENDBRANCH   9  14
BRANCH  11  17
ATOM     17  N   UNL     1       4.467  -5.607   1.095  1.00  0.00    -0.367 N 
ATOM     18  C   UNL     1       5.926  -5.640   0.928  1.00  0.00     0.145 C 
ATOM     19  C   UNL     1       3.833  -6.869   1.463  1.00  0.00     0.145 C 
ATOM     20  C   UNL     1       6.336  -6.823   0.040  1.00  0.00     0.181 C 
ATOM     21  C   UNL     1       4.339  -7.987   0.535  1.00  0.00     0.181 C 
ATOM     22  O   UNL     1       5.777  -8.061   0.517  1.00  0.00    -0.378 OA
ENDBRANCH  11  17
ENDBRANCH   7   8
BRANCH   7  23
ATOM     23  N   UNL     1       3.188  -0.234  -2.043  1.00  0.00    -0.343 N 
ATOM     24  H   UNL     1       4.190  -0.412  -2.117  1.00  0.00     0.345 HD
ATOM     25  H   UNL     1       3.002   0.749  -2.238  1.00  0.00     0.345 HD
ATOM     26  H   UNL     1       2.689  -0.815  -2.716  1.00  0.00     0.345 HD
ENDBRANCH   7  23
ENDBRANCH   4   7
ENDBRANCH   2   3
ENDBRANCH   1   2
BRANCH   1  27
ATOM     27  C   UNL     1       7.786   0.503   0.266  1.00  0.00     0.118 C 
BRANCH  27  28
ATOM     28  N   UNL     1       8.578  -0.309   1.183  1.00  0.00    -0.352 N 
ATOM     29  C   UNL     1       9.939  -0.502   1.202  1.00  0.00     0.251 C 
ATOM     30  H   UNL     1       8.070  -0.783   1.881  1.00  0.00     0.163 HD
ATOM     31  O   UNL     1      10.432  -1.387   1.896  1.00  0.00    -0.269 OA
BRANCH  29  32
ATOM     32  C   UNL     1      10.792   0.355   0.357  1.00  0.00     0.039 A 
ATOM     33  C   UNL     1      11.784  -0.224  -0.438  1.00  0.00     0.014 A 
ATOM     34  C   UNL     1      10.566   1.733   0.317  1.00  0.00     0.014 A 
ATOM     35  C   UNL     1      12.500   0.575  -1.332  1.00  0.00     0.010 A 
ATOM     36  C   UNL     1      11.203   2.503  -0.644  1.00  0.00     0.010 A 
ATOM     37  C   UNL     1      12.188   1.936  -1.468  1.00  0.00    -0.014 A 
BRANCH  37  38
ATOM     38  C   UNL     1      12.890   2.823  -2.428  1.00  0.00     0.031 A 
ATOM     39  C   UNL     1      13.639   4.017  -1.903  1.00  0.00     0.074 A 
ATOM     40  C   UNL     1      12.750   2.635  -3.754  1.00  0.00     0.049 A 
ATOM     41  N   UNL     1      14.151   5.027  -2.555  1.00  0.00    -0.248 NA
ATOM     42  C   UNL     1      13.787   4.107  -0.441  1.00  0.00     0.031 C 
ATOM     43  C   UNL     1      12.005   1.542  -4.383  1.00  0.00     0.029 A 
ATOM     44  N   UNL     1      13.203   3.381  -4.814  1.00  0.00    -0.354 N 
ATOM     45  C   UNL     1      14.636   5.893  -1.583  1.00  0.00     0.074 A 
ATOM     46  C   UNL     1      14.313   5.313  -0.298  1.00  0.00     0.031 C 
ATOM     47  C   UNL     1      12.054   1.687  -5.716  1.00  0.00     0.029 A 
ATOM     48  C   UNL     1      12.793   2.905  -6.037  1.00  0.00     0.049 A 
ATOM     49  H   UNL     1      13.767   4.180  -4.707  1.00  0.00     0.167 HD
ATOM     50  C   UNL     1      15.306   7.058  -1.746  1.00  0.00     0.037 A 
ATOM     51  C   UNL     1      12.974   3.406  -7.275  1.00  0.00     0.037 A 
ATOM     52  C   UNL     1      15.660   7.599  -3.030  1.00  0.00     0.049 A 
ATOM     53  C   UNL     1      13.756   4.680  -7.443  1.00  0.00     0.074 A 
ATOM     54  C   UNL     1      16.408   8.727  -3.312  1.00  0.00     0.029 A 
ATOM     55  N   UNL     1      15.290   7.046  -4.249  1.00  0.00    -0.354 N 
ATOM     56  N   UNL     1      14.265   5.458  -6.518  1.00  0.00    -0.248 NA
ATOM     57  C   UNL     1      13.996   5.142  -8.817  1.00  0.00     0.031 C 
ATOM     58  C   UNL     1      16.457   8.879  -4.702  1.00  0.00     0.029 A 
ATOM     59  C   UNL     1      15.782   7.818  -5.286  1.00  0.00     0.049 A 
ATOM     60  H   UNL     1      14.757   6.226  -4.358  1.00  0.00     0.167 HD
ATOM     61  C   UNL     1      14.913   6.484  -7.195  1.00  0.00     0.074 A 
ATOM     62  C   UNL     1      14.727   6.231  -8.610  1.00  0.00     0.031 C 
ATOM     63  C   UNL     1      15.604   7.536  -6.690  1.00  0.00     0.037 A 
BRANCH  50  64
ATOM     64  C   UNL     1      15.683   7.817  -0.504  1.00  0.00     0.058 A 
ATOM     65  C   UNL     1      16.637   7.330   0.404  1.00  0.00     0.135 A 
ATOM     66  C   UNL     1      15.062   9.041  -0.205  1.00  0.00     0.135 A 
ATOM     67  F   UNL     1      17.252   6.158   0.175  1.00  0.00    -0.206 F 
ATOM     68  C   UNL     1      16.919   7.997   1.592  1.00  0.00     0.059 A 
ATOM     69  C   UNL     1      15.354   9.743   0.962  1.00  0.00     0.059 A 
ATOM     70  F   UNL     1      14.146   9.558  -1.039  1.00  0.00    -0.206 F 
ATOM     71  C   UNL     1      16.264   9.197   1.866  1.00  0.00     0.060 A 
BRANCH  71  72
ATOM     72  S   UNL     1      16.605  10.030   3.431  1.00  0.00     0.124 S 
ATOM     73  O   UNL     1      15.851   9.203   4.368  1.00  0.00    -0.237 OA
ATOM     74  O   UNL     1      18.058   9.932   3.530  1.00  0.00    -0.237 OA
ATOM     75  O   UNL     1      16.083  11.376   3.220  1.00  0.00    -0.744 OA
ENDBRANCH  71  72
ENDBRANCH  50  64
BRANCH  51  76
ATOM     76  C   UNL     1      12.419   2.674  -8.443  1.00  0.00     0.058 A 
ATOM     77  C   UNL     1      13.255   1.935  -9.292  1.00  0.00     0.135 A 
ATOM     78  C   UNL     1      11.037   2.631  -8.687  1.00  0.00     0.135 A 
ATOM     79  F   UNL     1      14.583   1.949  -9.103  1.00  0.00    -0.206 F 
ATOM     80  C   UNL     1      12.742   1.172 -10.336  1.00  0.00     0.059 A 
ATOM     81  C   UNL     1      10.498   1.860  -9.712  1.00  0.00     0.059 A 
ATOM     82  F   UNL     1      10.193   3.307  -7.891  1.00  0.00    -0.206 F 
ATOM     83  C   UNL     1      11.360   1.131 -10.531  1.00  0.00     0.060 A 
BRANCH  83  84
ATOM     84  S   UNL     1      10.700   0.055 -11.824  1.00  0.00     0.124 S 
ATOM     85  O   UNL     1      11.068   0.785 -13.031  1.00  0.00    -0.237 OA
ATOM     86  O   UNL     1      11.425  -1.189 -11.584  1.00  0.00    -0.237 OA
ATOM     87  O   UNL     1       9.273   0.007 -11.523  1.00  0.00    -0.744 OA
ENDBRANCH  83  84
ENDBRANCH  51  76
BRANCH  63  88
ATOM     88  C   UNL     1      16.261   8.477  -7.660  1.00  0.00     0.058 A 
ATOM     89  C   UNL     1      15.527   9.441  -8.366  1.00  0.00     0.135 A 
ATOM     90  C   UNL     1      17.660   8.488  -7.788  1.00  0.00     0.135 A 
ATOM     91  F   UNL     1      14.188   9.466  -8.282  1.00  0.00    -0.206 F 
ATOM     92  C   UNL     1      16.159  10.390  -9.163  1.00  0.00     0.059 A 
ATOM     93  C   UNL     1      18.313   9.441  -8.561  1.00  0.00     0.059 A 
ATOM     94  F   UNL     1      18.406   7.590  -7.125  1.00  0.00    -0.206 F 
ATOM     95  C   UNL     1      17.554  10.389  -9.245  1.00  0.00     0.060 A 
BRANCH  95  96
ATOM     96  S   UNL     1      18.366  11.679 -10.212  1.00  0.00     0.124 S 
ATOM     97  O   UNL     1      18.090  11.242 -11.577  1.00  0.00    -0.237 OA
ATOM     98  O   UNL     1      17.664  12.883  -9.777  1.00  0.00    -0.237 OA
ATOM     99  O   UNL     1      19.762  11.590  -9.794  1.00  0.00    -0.744 OA
ENDBRANCH  95  96
ENDBRANCH  63  88
ENDBRANCH  37  38
ENDBRANCH  29  32
ENDBRANCH  27  28
ENDBRANCH   1  27
TORSDOF 18
