REMARK SMILES Cc1ccc(N2CC[NH+]([C@H](C(=O)NCCCNC(=O)c3ccc(-c4c5nc(c(-c6c(F)cc(S(=O)(=O)[O-])cc6F)c6ccc([nH]6)c(-c6c(F)cc(S(=O)(=O)[O-])cc6F)c6nc(c(-c7c(F)cc(S(=O)(=O)[O-])cc7F)c7ccc4[nH]7)C=C6)C=C5)cc3)c3c[nH]c4cc(Br)ccc34)CC2)c(C)c1
REMARK SMILES IDX 15 1 14 2 13 3 11 4 12 5 10 7 9 8 6 9 7 10 97 11 8 12 96 13
REMARK SMILES IDX 5 15 1 16 2 17 3 18 100 19 4 20 98 21 99 22 86 23 87 24
REMARK SMILES IDX 95 25 88 26 89 27 94 28 90 30 93 31 91 32 92 33 16 34 17 35
REMARK SMILES IDX 18 36 19 38 20 39 21 40 85 41 22 42 84 43 23 44 24 45 25 46
REMARK SMILES IDX 78 47 26 48 83 49 77 50 79 51 27 52 82 53 76 54 75 55 28 57
REMARK SMILES IDX 62 58 41 59 61 60 42 61 45 62 60 63 80 64 43 65 44 66 59 68
REMARK SMILES IDX 81 69 46 70 29 71 30 72 39 73 31 74 32 75 38 76 40 77 33 78
REMARK SMILES IDX 34 79 35 80 36 81 37 82 63 83 64 84 73 85 65 86 66 87 72 88
REMARK SMILES IDX 74 89 67 90 68 91 69 92 70 93 71 94 47 95 48 96 57 97 49 98
REMARK SMILES IDX 50 99 56 100 58 101 51 102 52 103 53 104 54 105 55 106
REMARK H PARENT 13 6 9 14 88 29 17 37 79 56 45 67
REMARK Flexibility Score: inf
ROOT
ATOM      1  C   UNL     1      -4.311  -6.939   1.102  1.00  0.00     0.042 C 
ENDROOT
BRANCH   1   2
ATOM      2  C   UNL     1      -4.122  -5.424   1.219  1.00  0.00     0.118 C 
BRANCH   2   3
ATOM      3  N   UNL     1      -3.554  -4.812   0.034  1.00  0.00    -0.351 N 
ATOM      4  C   UNL     1      -3.912  -3.688  -0.659  1.00  0.00     0.283 C 
ATOM      5  O   UNL     1      -3.030  -3.240  -1.405  1.00  0.00    -0.268 OA
ATOM      6  H   UNL     1      -2.775  -5.288  -0.335  1.00  0.00     0.163 HD
BRANCH   4   7
ATOM      7  C   UNL     1      -5.350  -3.037  -0.535  1.00  0.00     0.307 C 
BRANCH   7   8
ATOM      8  N   UNL     1      -5.258  -1.856   0.360  1.00  0.00    -0.318 N 
ATOM      9  N   UNL     1      -5.662   0.845   1.416  1.00  0.00    -0.360 N 
ATOM     10  C   UNL     1      -6.397  -0.291   1.980  1.00  0.00     0.178 C 
ATOM     11  C   UNL     1      -4.369   0.500   0.813  1.00  0.00     0.178 C 
ATOM     12  C   UNL     1      -6.539  -1.445   0.952  1.00  0.00     0.284 C 
ATOM     13  C   UNL     1      -4.466  -0.718  -0.138  1.00  0.00     0.284 C 
ATOM     14  H   UNL     1      -4.694  -2.222   1.127  1.00  0.00     0.349 HD
BRANCH   9  15
ATOM     15  C   UNL     1      -6.383   1.928   0.939  1.00  0.00     0.040 A 
ATOM     16  C   UNL     1      -8.568   5.339  -0.627  1.00  0.00     0.044 C 
ATOM     17  C   UNL     1      -7.838   4.146  -0.088  1.00  0.00    -0.051 A 
ATOM     18  C   UNL     1      -7.560   3.048  -0.897  1.00  0.00     0.005 A 
ATOM     19  C   UNL     1      -7.399   4.124   1.240  1.00  0.00     0.009 A 
ATOM     20  C   UNL     1      -6.843   1.966  -0.380  1.00  0.00     0.026 A 
ATOM     21  C   UNL     1      -6.677   3.028   1.760  1.00  0.00    -0.027 A 
ATOM     22  C   UNL     1      -6.232   3.093   3.195  1.00  0.00     0.046 C 
ENDBRANCH   9  15
ENDBRANCH   7   8
BRANCH   7  23
ATOM     23  C   UNL     1      -5.981  -2.866  -1.960  1.00  0.00     0.044 A 
ATOM     24  C   UNL     1      -6.015  -3.957  -2.833  1.00  0.00     0.094 A 
ATOM     25  C   UNL     1      -5.768  -1.824  -2.929  1.00  0.00     0.009 A 
ATOM     26  N   UNL     1      -4.928  -3.727  -3.659  1.00  0.00    -0.361 N 
ATOM     27  C   UNL     1      -4.840  -2.360  -3.824  1.00  0.00     0.047 A 
ATOM     28  C   UNL     1      -6.186  -0.498  -3.146  1.00  0.00     0.012 A 
ATOM     29  H   UNL     1      -4.333  -4.407  -4.053  1.00  0.00     0.166 HD
ATOM     30  C   UNL     1      -4.084  -1.584  -4.705  1.00  0.00     0.042 A 
ATOM     31  C   UNL     1      -5.503   0.293  -4.082  1.00  0.00     0.016 A 
ATOM     32  C   UNL     1      -4.426  -0.233  -4.793  1.00  0.00     0.020 A 
ATOM     33  Br  UNL     1      -3.430   0.892  -5.946  1.00  0.00    -0.051 Br
ENDBRANCH   7  23
ENDBRANCH   4   7
ENDBRANCH   2   3
ENDBRANCH   1   2
BRANCH   1  34
ATOM     34  C   UNL     1      -3.103  -7.763   0.643  1.00  0.00     0.118 C 
BRANCH  34  35
ATOM     35  N   UNL     1      -1.999  -7.798   1.589  1.00  0.00    -0.352 N 
ATOM     36  C   UNL     1      -1.273  -8.864   2.078  1.00  0.00     0.251 C 
ATOM     37  H   UNL     1      -1.725  -6.918   1.937  1.00  0.00     0.163 HD
ATOM     38  O   UNL     1      -0.413  -8.651   2.932  1.00  0.00    -0.269 OA
BRANCH  36  39
ATOM     39  C   UNL     1      -1.528 -10.260   1.634  1.00  0.00     0.039 A 
ATOM     40  C   UNL     1      -1.520 -11.277   2.598  1.00  0.00     0.014 A 
ATOM     41  C   UNL     1      -1.739 -10.594   0.294  1.00  0.00     0.014 A 
ATOM     42  C   UNL     1      -1.809 -12.600   2.235  1.00  0.00     0.010 A 
ATOM     43  C   UNL     1      -2.088 -11.904  -0.058  1.00  0.00     0.010 A 
ATOM     44  C   UNL     1      -2.143 -12.921   0.909  1.00  0.00    -0.014 A 
BRANCH  44  45
ATOM     45  C   UNL     1      -2.592 -14.293   0.532  1.00  0.00     0.031 A 
ATOM     46  C   UNL     1      -1.801 -15.129  -0.441  1.00  0.00     0.074 A 
ATOM     47  C   UNL     1      -3.760 -14.769   1.015  1.00  0.00     0.049 A 
ATOM     48  N   UNL     1      -2.081 -16.307  -0.938  1.00  0.00    -0.248 NA
ATOM     49  C   UNL     1      -0.539 -14.557  -0.933  1.00  0.00     0.031 C 
ATOM     50  C   UNL     1      -4.645 -14.057   1.940  1.00  0.00     0.029 A 
ATOM     51  N   UNL     1      -4.412 -15.958   0.787  1.00  0.00    -0.354 N 
ATOM     52  C   UNL     1      -1.044 -16.611  -1.814  1.00  0.00     0.074 A 
ATOM     53  C   UNL     1      -0.149 -15.473  -1.809  1.00  0.00     0.031 C 
ATOM     54  C   UNL     1      -5.708 -14.829   2.216  1.00  0.00     0.029 A 
ATOM     55  C   UNL     1      -5.610 -16.070   1.455  1.00  0.00     0.049 A 
ATOM     56  H   UNL     1      -4.055 -16.663   0.201  1.00  0.00     0.167 HD
ATOM     57  C   UNL     1      -0.849 -17.737  -2.545  1.00  0.00     0.037 A 
ATOM     58  C   UNL     1      -6.535 -17.052   1.450  1.00  0.00     0.037 A 
ATOM     59  C   UNL     1      -1.730 -18.878  -2.534  1.00  0.00     0.049 A 
ATOM     60  C   UNL     1      -6.306 -18.282   0.612  1.00  0.00     0.074 A 
ATOM     61  C   UNL     1      -1.577 -20.088  -3.189  1.00  0.00     0.029 A 
ATOM     62  N   UNL     1      -2.931 -18.951  -1.843  1.00  0.00    -0.354 N 
ATOM     63  N   UNL     1      -5.287 -18.576  -0.159  1.00  0.00    -0.248 NA
ATOM     64  C   UNL     1      -7.353 -19.314   0.644  1.00  0.00     0.031 C 
ATOM     65  C   UNL     1      -2.710 -20.870  -2.942  1.00  0.00     0.029 A 
ATOM     66  C   UNL     1      -3.543 -20.172  -2.083  1.00  0.00     0.049 A 
ATOM     67  H   UNL     1      -3.296 -18.241  -1.268  1.00  0.00     0.167 HD
ATOM     68  C   UNL     1      -5.553 -19.841  -0.675  1.00  0.00     0.074 A 
ATOM     69  C   UNL     1      -6.826 -20.258  -0.124  1.00  0.00     0.031 C 
ATOM     70  C   UNL     1      -4.807 -20.588  -1.525  1.00  0.00     0.037 A 
BRANCH  57  71
ATOM     71  C   UNL     1       0.366 -17.794  -3.434  1.00  0.00     0.058 A 
ATOM     72  C   UNL     1       1.665 -17.892  -2.910  1.00  0.00     0.135 A 
ATOM     73  C   UNL     1       0.226 -17.799  -4.832  1.00  0.00     0.135 A 
ATOM     74  F   UNL     1       1.861 -17.883  -1.582  1.00  0.00    -0.206 F 
ATOM     75  C   UNL     1       2.782 -17.957  -3.738  1.00  0.00     0.059 A 
ATOM     76  C   UNL     1       1.326 -17.895  -5.679  1.00  0.00     0.059 A 
ATOM     77  F   UNL     1      -0.993 -17.715  -5.389  1.00  0.00    -0.206 F 
ATOM     78  C   UNL     1       2.602 -17.956  -5.122  1.00  0.00     0.060 A 
BRANCH  78  79
ATOM     79  S   UNL     1       4.063 -18.037  -6.180  1.00  0.00     0.124 S 
ATOM     80  O   UNL     1       4.623 -16.701  -6.003  1.00  0.00    -0.237 OA
ATOM     81  O   UNL     1       4.822 -19.128  -5.583  1.00  0.00    -0.237 OA
ATOM     82  O   UNL     1       3.508 -18.313  -7.505  1.00  0.00    -0.744 OA
ENDBRANCH  78  79
ENDBRANCH  57  71
BRANCH  58  83
ATOM     83  C   UNL     1      -7.762 -16.923   2.283  1.00  0.00     0.058 A 
ATOM     84  C   UNL     1      -7.957 -17.740   3.406  1.00  0.00     0.135 A 
ATOM     85  C   UNL     1      -8.759 -15.983   1.978  1.00  0.00     0.135 A 
ATOM     86  F   UNL     1      -7.038 -18.662   3.732  1.00  0.00    -0.206 F 
ATOM     87  C   UNL     1      -9.102 -17.642   4.191  1.00  0.00     0.059 A 
ATOM     88  C   UNL     1      -9.900 -15.847   2.764  1.00  0.00     0.059 A 
ATOM     89  F   UNL     1      -8.616 -15.168   0.922  1.00  0.00    -0.206 F 
ATOM     90  C   UNL     1     -10.067 -16.688   3.863  1.00  0.00     0.060 A 
BRANCH  90  91
ATOM     91  S   UNL     1     -11.525 -16.535   4.917  1.00  0.00     0.124 S 
ATOM     92  O   UNL     1     -12.263 -17.745   4.576  1.00  0.00    -0.237 OA
ATOM     93  O   UNL     1     -10.935 -16.500   6.251  1.00  0.00    -0.237 OA
ATOM     94  O   UNL     1     -12.128 -15.281   4.474  1.00  0.00    -0.744 OA
ENDBRANCH  90  91
ENDBRANCH  58  83
BRANCH  70  95
ATOM     95  C   UNL     1      -5.319 -21.958  -1.885  1.00  0.00     0.058 A 
ATOM     96  C   UNL     1      -6.425 -22.139  -2.730  1.00  0.00     0.135 A 
ATOM     97  C   UNL     1      -4.658 -23.107  -1.419  1.00  0.00     0.135 A 
ATOM     98  F   UNL     1      -7.099 -21.076  -3.198  1.00  0.00    -0.206 F 
ATOM     99  C   UNL     1      -6.872 -23.409  -3.083  1.00  0.00     0.059 A 
ATOM    100  C   UNL     1      -5.069 -24.386  -1.783  1.00  0.00     0.059 A 
ATOM    101  F   UNL     1      -3.589 -22.993  -0.615  1.00  0.00    -0.206 F 
ATOM    102  C   UNL     1      -6.184 -24.527  -2.606  1.00  0.00     0.060 A 
BRANCH 102 103
ATOM    103  S   UNL     1      -6.750 -26.169  -3.103  1.00  0.00     0.124 S 
ATOM    104  O   UNL     1      -7.973 -26.308  -2.319  1.00  0.00    -0.237 OA
ATOM    105  O   UNL     1      -6.934 -26.013  -4.543  1.00  0.00    -0.237 OA
ATOM    106  O   UNL     1      -5.649 -27.042  -2.709  1.00  0.00    -0.744 OA
ENDBRANCH 102 103
ENDBRANCH  70  95
ENDBRANCH  44  45
ENDBRANCH  36  39
ENDBRANCH  34  35
ENDBRANCH   1  34
TORSDOF 16
