REMARK SMILES Cc1cnn(C2(C(=O)NCCCNC(=O)c3ccc(-c4c5nc(c(-c6c(F)cc(S(=O)(=O)[O-])cc6F)c6ccc([nH]6)c(-c6c(F)cc(S(=O)(=O)[O-])cc6F)c6nc(c(-c7c(F)cc(S(=O)(=O)[O-])cc7F)c7ccc4[nH]7)C=C6)C=C5)cc3)CCN(C(=O)c3cc4ccccc4[nH]3)CC2)c1
REMARK SMILES IDX 12 1 11 2 10 3 9 4 7 5 8 6 6 8 82 9 97 10 83 11 96 12 84 13
REMARK SMILES IDX 85 14 86 15 5 16 1 17 2 18 3 19 98 20 4 21 87 22 88 23 95 24
REMARK SMILES IDX 89 25 94 26 90 28 93 29 91 30 92 31 13 32 14 33 15 35 16 36
REMARK SMILES IDX 17 37 81 38 18 39 80 40 19 41 20 42 21 43 74 44 22 45 79 46
REMARK SMILES IDX 73 47 75 48 23 49 78 50 72 51 71 52 24 54 58 55 37 56 57 57
REMARK SMILES IDX 38 58 41 59 56 60 76 61 39 62 40 63 55 65 77 66 42 67 25 68
REMARK SMILES IDX 26 69 35 70 27 71 28 72 34 73 36 74 29 75 30 76 31 77 32 78
REMARK SMILES IDX 33 79 59 80 60 81 69 82 61 83 62 84 68 85 70 86 63 87 64 88
REMARK SMILES IDX 65 89 66 90 67 91 43 92 44 93 53 94 45 95 46 96 52 97 54 98
REMARK SMILES IDX 47 99 48 100 49 101 50 102 51 103
REMARK H PARENT 9 7 95 27 13 34 75 53 41 64
REMARK Flexibility Score: inf
ROOT
ATOM      1  C   UNL     1       0.943   9.114  -4.275  1.00  0.00     0.118 C 
ENDROOT
BRANCH   1   2
ATOM      2  C   UNL     1       1.720   8.111  -3.435  1.00  0.00     0.042 C 
BRANCH   2   3
ATOM      3  C   UNL     1       0.832   7.337  -2.464  1.00  0.00     0.117 C 
BRANCH   3   4
ATOM      4  N   UNL     1       0.035   6.286  -3.090  1.00  0.00    -0.354 N 
ATOM      5  C   UNL     1      -0.312   5.029  -2.637  1.00  0.00     0.248 C 
ATOM      6  O   UNL     1      -1.347   4.574  -3.130  1.00  0.00    -0.272 OA
ATOM      7  H   UNL     1      -0.312   6.511  -3.984  1.00  0.00     0.163 HD
BRANCH   5   8
ATOM      8  C   UNL     1       0.479   4.329  -1.490  1.00  0.00     0.144 C 
ATOM      9  C   UNL     1       1.995   4.295  -1.838  1.00  0.00     0.062 C 
ATOM     10  C   UNL     1       0.100   5.122  -0.198  1.00  0.00     0.062 C 
ATOM     11  C   UNL     1       2.858   4.240  -0.591  1.00  0.00     0.123 C 
ATOM     12  C   UNL     1       1.204   5.327   0.842  1.00  0.00     0.123 C 
ATOM     13  N   UNL     1       2.536   5.376   0.257  1.00  0.00    -0.337 N 
ATOM     14  C   UNL     1       3.430   6.448   0.270  1.00  0.00     0.270 C 
ATOM     15  O   UNL     1       4.407   6.456  -0.479  1.00  0.00    -0.267 OA
BRANCH   8  16
ATOM     16  N   UNL     1       0.095   2.888  -1.342  1.00  0.00    -0.257 N 
ATOM     17  C   UNL     1       0.599  -0.400   0.198  1.00  0.00     0.048 C 
ATOM     18  C   UNL     1       0.294   0.798  -0.613  1.00  0.00    -0.013 A 
ATOM     19  C   UNL     1       0.033   0.862  -1.994  1.00  0.00     0.138 A 
ATOM     20  C   UNL     1       0.258   2.116  -0.209  1.00  0.00     0.113 A 
ATOM     21  N   UNL     1      -0.031   2.114  -2.442  1.00  0.00    -0.180 NA
ENDBRANCH   8  16
BRANCH  14  22
ATOM     22  C   UNL     1       3.176   7.607   1.095  1.00  0.00     0.105 A 
ATOM     23  C   UNL     1       2.675   7.785   2.372  1.00  0.00     0.042 A 
ATOM     24  N   UNL     1       3.566   8.855   0.658  1.00  0.00    -0.351 N 
ATOM     25  C   UNL     1       2.685   9.179   2.669  1.00  0.00     0.000 A 
ATOM     26  C   UNL     1       3.232   9.827   1.565  1.00  0.00     0.046 A 
ATOM     27  H   UNL     1       4.025   9.027  -0.196  1.00  0.00     0.167 HD
ATOM     28  C   UNL     1       2.289   9.953   3.776  1.00  0.00     0.010 A 
ATOM     29  C   UNL     1       3.392  11.215   1.497  1.00  0.00     0.026 A 
ATOM     30  C   UNL     1       2.442  11.345   3.728  1.00  0.00     0.001 A 
ATOM     31  C   UNL     1       2.982  11.964   2.602  1.00  0.00     0.002 A 
ENDBRANCH  14  22
ENDBRANCH   5   8
ENDBRANCH   3   4
ENDBRANCH   2   3
ENDBRANCH   1   2
BRANCH   1  32
ATOM     32  N   UNL     1       0.450  10.255  -3.502  1.00  0.00    -0.352 N 
ATOM     33  C   UNL     1      -0.361  11.283  -3.957  1.00  0.00     0.251 C 
ATOM     34  H   UNL     1       0.723  10.297  -2.557  1.00  0.00     0.163 HD
ATOM     35  O   UNL     1      -0.465  12.327  -3.337  1.00  0.00    -0.269 OA
BRANCH  33  36
ATOM     36  C   UNL     1      -1.063  11.077  -5.238  1.00  0.00     0.039 A 
ATOM     37  C   UNL     1      -0.889  11.973  -6.292  1.00  0.00     0.014 A 
ATOM     38  C   UNL     1      -1.766   9.889  -5.414  1.00  0.00     0.014 A 
ATOM     39  C   UNL     1      -1.326  11.605  -7.565  1.00  0.00     0.010 A 
ATOM     40  C   UNL     1      -2.081   9.478  -6.694  1.00  0.00     0.010 A 
ATOM     41  C   UNL     1      -1.882  10.332  -7.781  1.00  0.00    -0.014 A 
BRANCH  41  42
ATOM     42  C   UNL     1      -2.157   9.878  -9.152  1.00  0.00     0.031 A 
ATOM     43  C   UNL     1      -1.090  10.115 -10.178  1.00  0.00     0.074 A 
ATOM     44  C   UNL     1      -3.210   9.113  -9.514  1.00  0.00     0.049 A 
ATOM     45  N   UNL     1      -1.139  10.892 -11.212  1.00  0.00    -0.248 NA
ATOM     46  C   UNL     1       0.208   9.446 -10.005  1.00  0.00     0.031 C 
ATOM     47  C   UNL     1      -4.235   8.491  -8.670  1.00  0.00     0.029 A 
ATOM     48  N   UNL     1      -3.523   8.650 -10.758  1.00  0.00    -0.354 N 
ATOM     49  C   UNL     1       0.045  10.692 -11.921  1.00  0.00     0.074 A 
ATOM     50  C   UNL     1       0.883   9.879 -11.074  1.00  0.00     0.031 C 
ATOM     51  C   UNL     1      -4.901   7.557  -9.382  1.00  0.00     0.029 A 
ATOM     52  C   UNL     1      -4.488   7.657 -10.768  1.00  0.00     0.049 A 
ATOM     53  H   UNL     1      -3.099   8.992 -11.578  1.00  0.00     0.167 HD
ATOM     54  C   UNL     1       0.196  11.080 -13.221  1.00  0.00     0.037 A 
ATOM     55  C   UNL     1      -4.932   6.956 -11.835  1.00  0.00     0.037 A 
ATOM     56  C   UNL     1      -0.870  11.949 -13.646  1.00  0.00     0.049 A 
ATOM     57  C   UNL     1      -4.656   7.771 -13.043  1.00  0.00     0.074 A 
ATOM     58  C   UNL     1      -1.335  13.189 -13.256  1.00  0.00     0.029 A 
ATOM     59  N   UNL     1      -1.865  11.409 -14.423  1.00  0.00    -0.354 N 
ATOM     60  N   UNL     1      -5.236   8.911 -13.302  1.00  0.00    -0.248 NA
ATOM     61  C   UNL     1      -3.441   7.508 -13.796  1.00  0.00     0.031 C 
ATOM     62  C   UNL     1      -2.752  13.116 -13.403  1.00  0.00     0.029 A 
ATOM     63  C   UNL     1      -3.058  11.851 -13.909  1.00  0.00     0.049 A 
ATOM     64  H   UNL     1      -1.746  10.817 -15.201  1.00  0.00     0.167 HD
ATOM     65  C   UNL     1      -4.259   9.677 -13.919  1.00  0.00     0.074 A 
ATOM     66  C   UNL     1      -3.226   8.722 -14.308  1.00  0.00     0.031 C 
ATOM     67  C   UNL     1      -4.253  11.039 -13.817  1.00  0.00     0.037 A 
BRANCH  54  68
ATOM     68  C   UNL     1       1.145  10.462 -14.220  1.00  0.00     0.058 A 
ATOM     69  C   UNL     1       1.430  11.132 -15.431  1.00  0.00     0.135 A 
ATOM     70  C   UNL     1       1.569   9.118 -14.153  1.00  0.00     0.135 A 
ATOM     71  F   UNL     1       1.061  12.410 -15.608  1.00  0.00    -0.206 F 
ATOM     72  C   UNL     1       2.035  10.494 -16.516  1.00  0.00     0.059 A 
ATOM     73  C   UNL     1       2.220   8.477 -15.205  1.00  0.00     0.059 A 
ATOM     74  F   UNL     1       1.282   8.344 -13.099  1.00  0.00    -0.206 F 
ATOM     75  C   UNL     1       2.410   9.159 -16.398  1.00  0.00     0.060 A 
BRANCH  75  76
ATOM     76  S   UNL     1       3.082   8.299 -17.834  1.00  0.00     0.124 S 
ATOM     77  O   UNL     1       1.893   8.149 -18.665  1.00  0.00    -0.237 OA
ATOM     78  O   UNL     1       4.084   9.243 -18.318  1.00  0.00    -0.237 OA
ATOM     79  O   UNL     1       3.616   7.066 -17.265  1.00  0.00    -0.744 OA
ENDBRANCH  75  76
ENDBRANCH  54  68
BRANCH  55  80
ATOM     80  C   UNL     1      -5.341   5.533 -11.878  1.00  0.00     0.058 A 
ATOM     81  C   UNL     1      -6.056   5.013 -12.968  1.00  0.00     0.135 A 
ATOM     82  C   UNL     1      -4.802   4.593 -10.975  1.00  0.00     0.135 A 
ATOM     83  F   UNL     1      -6.586   5.839 -13.883  1.00  0.00    -0.206 F 
ATOM     84  C   UNL     1      -6.183   3.639 -13.183  1.00  0.00     0.059 A 
ATOM     85  C   UNL     1      -4.925   3.219 -11.161  1.00  0.00     0.059 A 
ATOM     86  F   UNL     1      -4.054   4.986  -9.932  1.00  0.00    -0.206 F 
ATOM     87  C   UNL     1      -5.593   2.748 -12.285  1.00  0.00     0.060 A 
BRANCH  87  88
ATOM     88  S   UNL     1      -5.582   0.983 -12.672  1.00  0.00     0.124 S 
ATOM     89  O   UNL     1      -6.981   0.622 -12.474  1.00  0.00    -0.237 OA
ATOM     90  O   UNL     1      -5.109   0.974 -14.053  1.00  0.00    -0.237 OA
ATOM     91  O   UNL     1      -4.648   0.427 -11.695  1.00  0.00    -0.744 OA
ENDBRANCH  87  88
ENDBRANCH  55  80
BRANCH  67  92
ATOM     92  C   UNL     1      -5.500  11.726 -13.319  1.00  0.00     0.058 A 
ATOM     93  C   UNL     1      -6.030  11.566 -12.027  1.00  0.00     0.135 A 
ATOM     94  C   UNL     1      -6.091  12.704 -14.134  1.00  0.00     0.135 A 
ATOM     95  F   UNL     1      -5.461  10.732 -11.146  1.00  0.00    -0.206 F 
ATOM     96  C   UNL     1      -7.121  12.314 -11.580  1.00  0.00     0.059 A 
ATOM     97  C   UNL     1      -7.161  13.483 -13.699  1.00  0.00     0.059 A 
ATOM     98  F   UNL     1      -5.593  12.951 -15.357  1.00  0.00    -0.206 F 
ATOM     99  C   UNL     1      -7.680  13.274 -12.423  1.00  0.00     0.060 A 
BRANCH  99 100
ATOM    100  S   UNL     1      -9.032  14.303 -11.810  1.00  0.00     0.124 S 
ATOM    101  O   UNL     1     -10.159  13.377 -11.835  1.00  0.00    -0.237 OA
ATOM    102  O   UNL     1      -8.562  14.693 -10.484  1.00  0.00    -0.237 OA
ATOM    103  O   UNL     1      -9.098  15.393 -12.782  1.00  0.00    -0.744 OA
ENDBRANCH  99 100
ENDBRANCH  67  92
ENDBRANCH  41  42
ENDBRANCH  33  36
ENDBRANCH   1  32
TORSDOF 15
