REMARK SMILES Cc1noc2c1-c1c(c(C(=O)NCCCNC(=O)c3ccc(-c4c5nc(c(-c6c(F)cc(S(=O)(=O)[O-])cc6F)c6ccc([nH]6)c(-c6c(F)cc(S(=O)(=O)[O-])cc6F)c6nc(c(-c7c(F)cc(S(=O)(=O)[O-])cc7F)c7ccc4[nH]7)C=C6)C=C5)cc3)nn1C)CC2
REMARK SMILES IDX 16 1 17 2 18 3 15 5 14 6 13 7 12 8 10 9 11 10 9 12 1 13 2 14
REMARK SMILES IDX 3 15 6 16 4 17 5 18 7 19 89 20 8 21 86 22 88 23 85 24 87 25
REMARK SMILES IDX 19 26 20 27 84 28 21 29 83 30 22 31 23 32 24 33 77 34 25 35
REMARK SMILES IDX 82 36 76 37 78 38 26 39 81 40 75 41 74 42 27 44 61 45 40 46
REMARK SMILES IDX 60 47 41 48 44 49 59 50 79 51 42 52 43 53 58 55 80 56 45 57
REMARK SMILES IDX 28 58 29 59 38 60 30 61 31 62 37 63 39 64 32 65 33 66 34 67
REMARK SMILES IDX 35 68 36 69 62 70 63 71 72 72 64 73 65 74 71 75 73 76 66 77
REMARK SMILES IDX 67 78 68 79 69 80 70 81 46 82 47 83 56 84 48 85 49 86 55 87
REMARK SMILES IDX 57 88 50 89 51 90 52 91 53 92 54 93
REMARK H PARENT 16 4 12 11 78 43 44 54
REMARK Flexibility Score: inf
ROOT
ATOM      1  N   UNL     1      -0.476   3.373   9.160  1.00  0.00    -0.352 N 
ATOM      2  C   UNL     1      -0.885   3.645  10.461  1.00  0.00     0.251 C 
ATOM      3  O   UNL     1      -1.536   2.841  11.119  1.00  0.00    -0.269 OA
ATOM      4  H   UNL     1      -0.924   2.627   8.698  1.00  0.00     0.163 HD
ENDROOT
BRANCH   1   5
ATOM      5  C   UNL     1       0.566   4.096   8.409  1.00  0.00     0.118 C 
BRANCH   5   6
ATOM      6  C   UNL     1       0.837   3.546   7.040  1.00  0.00     0.042 C 
BRANCH   6   7
ATOM      7  C   UNL     1      -0.350   3.697   6.113  1.00  0.00     0.118 C 
BRANCH   7   8
ATOM      8  N   UNL     1      -0.504   4.834   5.268  1.00  0.00    -0.351 N 
ATOM      9  C   UNL     1      -0.756   4.816   3.901  1.00  0.00     0.272 C 
ATOM     10  O   UNL     1      -1.082   5.906   3.419  1.00  0.00    -0.267 OA
ATOM     11  H   UNL     1      -0.425   5.718   5.694  1.00  0.00     0.163 HD
BRANCH   9  12
ATOM     12  C   UNL     1      -0.586   3.591   3.027  1.00  0.00     0.154 A 
ATOM     13  C   UNL     1       1.292  -0.553  -0.355  1.00  0.00     0.071 C 
ATOM     14  C   UNL     1       0.639  -0.751   0.953  1.00  0.00     0.090 A 
ATOM     15  N   UNL     1       0.610  -2.002   1.453  1.00  0.00    -0.084 NA
ATOM     16  C   UNL     1       0.055   0.162   1.852  1.00  0.00     0.066 A 
ATOM     17  O   UNL     1      -0.023  -1.917   2.681  1.00  0.00    -0.360 OA
ATOM     18  C   UNL     1      -0.355  -0.631   2.895  1.00  0.00     0.146 A 
ATOM     19  C   UNL     1      -0.193   1.619   1.985  1.00  0.00     0.077 A 
ATOM     20  C   UNL     1      -1.086  -0.250   4.112  1.00  0.00     0.084 C 
ATOM     21  C   UNL     1      -0.599   2.142   3.212  1.00  0.00     0.012 A 
ATOM     22  N   UNL     1      -0.092   2.670   1.137  1.00  0.00    -0.267 N 
ATOM     23  C   UNL     1      -0.819   1.228   4.413  1.00  0.00     0.048 C 
ATOM     24  N   UNL     1      -0.340   3.844   1.722  1.00  0.00    -0.167 NA
ATOM     25  C   UNL     1       0.170   2.675  -0.279  1.00  0.00     0.174 C 
ENDBRANCH   9  12
ENDBRANCH   7   8
ENDBRANCH   6   7
ENDBRANCH   5   6
ENDBRANCH   1   5
BRANCH   2  26
ATOM     26  C   UNL     1      -0.500   4.957  11.005  1.00  0.00     0.039 A 
ATOM     27  C   UNL     1       0.232   5.097  12.185  1.00  0.00     0.014 A 
ATOM     28  C   UNL     1      -0.669   6.016  10.127  1.00  0.00     0.014 A 
ATOM     29  C   UNL     1       0.908   6.297  12.399  1.00  0.00     0.010 A 
ATOM     30  C   UNL     1       0.222   7.046  10.203  1.00  0.00     0.010 A 
ATOM     31  C   UNL     1       0.942   7.253  11.371  1.00  0.00    -0.014 A 
BRANCH  31  32
ATOM     32  C   UNL     1       1.798   8.434  11.422  1.00  0.00     0.031 A 
ATOM     33  C   UNL     1       3.205   8.171  11.826  1.00  0.00     0.074 A 
ATOM     34  C   UNL     1       1.407   9.633  10.930  1.00  0.00     0.049 A 
ATOM     35  N   UNL     1       3.750   8.447  12.964  1.00  0.00    -0.248 NA
ATOM     36  C   UNL     1       4.061   7.355  10.949  1.00  0.00     0.031 C 
ATOM     37  C   UNL     1       0.162   9.983  10.229  1.00  0.00     0.029 A 
ATOM     38  N   UNL     1       2.106  10.795  10.860  1.00  0.00    -0.354 N 
ATOM     39  C   UNL     1       5.090   8.095  12.841  1.00  0.00     0.074 A 
ATOM     40  C   UNL     1       5.163   7.227  11.695  1.00  0.00     0.031 C 
ATOM     41  C   UNL     1       0.307  11.163   9.591  1.00  0.00     0.029 A 
ATOM     42  C   UNL     1       1.567  11.748   9.999  1.00  0.00     0.049 A 
ATOM     43  H   UNL     1       2.929  10.951  11.377  1.00  0.00     0.167 HD
ATOM     44  C   UNL     1       6.057   8.772  13.525  1.00  0.00     0.037 A 
ATOM     45  C   UNL     1       2.121  12.935   9.645  1.00  0.00     0.037 A 
ATOM     46  C   UNL     1       5.472   9.595  14.560  1.00  0.00     0.049 A 
ATOM     47  C   UNL     1       3.112  13.268  10.705  1.00  0.00     0.074 A 
ATOM     48  C   UNL     1       4.637   9.349  15.634  1.00  0.00     0.029 A 
ATOM     49  N   UNL     1       5.381  10.949  14.325  1.00  0.00    -0.354 N 
ATOM     50  N   UNL     1       2.776  13.536  11.940  1.00  0.00    -0.248 NA
ATOM     51  C   UNL     1       4.477  12.796  10.523  1.00  0.00     0.031 C 
ATOM     52  C   UNL     1       3.717  10.439  15.640  1.00  0.00     0.029 A 
ATOM     53  C   UNL     1       4.102  11.334  14.640  1.00  0.00     0.049 A 
ATOM     54  H   UNL     1       6.101  11.532  13.992  1.00  0.00     0.167 HD
ATOM     55  C   UNL     1       3.707  12.862  12.718  1.00  0.00     0.074 A 
ATOM     56  C   UNL     1       4.775  12.489  11.790  1.00  0.00     0.031 C 
ATOM     57  C   UNL     1       3.393  12.403  13.968  1.00  0.00     0.037 A 
BRANCH  44  58
ATOM     58  C   UNL     1       7.467   9.006  13.028  1.00  0.00     0.058 A 
ATOM     59  C   UNL     1       8.409   9.597  13.897  1.00  0.00     0.135 A 
ATOM     60  C   UNL     1       7.853   8.941  11.671  1.00  0.00     0.135 A 
ATOM     61  F   UNL     1       8.151   9.712  15.210  1.00  0.00    -0.206 F 
ATOM     62  C   UNL     1       9.601  10.160  13.439  1.00  0.00     0.059 A 
ATOM     63  C   UNL     1       9.060   9.446  11.202  1.00  0.00     0.059 A 
ATOM     64  F   UNL     1       7.042   8.477  10.714  1.00  0.00    -0.206 F 
ATOM     65  C   UNL     1       9.908  10.093  12.085  1.00  0.00     0.060 A 
BRANCH  65  66
ATOM     66  S   UNL     1      11.392  10.908  11.473  1.00  0.00     0.124 S 
ATOM     67  O   UNL     1      11.046  12.313  11.653  1.00  0.00    -0.237 OA
ATOM     68  O   UNL     1      12.416  10.380  12.369  1.00  0.00    -0.237 OA
ATOM     69  O   UNL     1      11.480  10.449  10.090  1.00  0.00    -0.744 OA
ENDBRANCH  65  66
ENDBRANCH  44  58
BRANCH  45  70
ATOM     70  C   UNL     1       2.083  13.597   8.312  1.00  0.00     0.058 A 
ATOM     71  C   UNL     1       2.551  14.912   8.135  1.00  0.00     0.135 A 
ATOM     72  C   UNL     1       1.845  12.864   7.130  1.00  0.00     0.135 A 
ATOM     73  F   UNL     1       2.818  15.681   9.201  1.00  0.00    -0.206 F 
ATOM     74  C   UNL     1       2.824  15.445   6.868  1.00  0.00     0.059 A 
ATOM     75  C   UNL     1       2.099  13.378   5.858  1.00  0.00     0.059 A 
ATOM     76  F   UNL     1       1.445  11.584   7.175  1.00  0.00    -0.206 F 
ATOM     77  C   UNL     1       2.617  14.660   5.735  1.00  0.00     0.060 A 
BRANCH  77  78
ATOM     78  S   UNL     1       3.151  15.267   4.115  1.00  0.00     0.124 S 
ATOM     79  O   UNL     1       2.186  16.329   3.856  1.00  0.00    -0.237 OA
ATOM     80  O   UNL     1       4.519  15.700   4.383  1.00  0.00    -0.237 OA
ATOM     81  O   UNL     1       3.033  14.091   3.257  1.00  0.00    -0.744 OA
ENDBRANCH  77  78
ENDBRANCH  45  70
BRANCH  57  82
ATOM     82  C   UNL     1       2.110  12.873  14.613  1.00  0.00     0.058 A 
ATOM     83  C   UNL     1       0.820  12.627  14.109  1.00  0.00     0.135 A 
ATOM     84  C   UNL     1       2.191  13.464  15.883  1.00  0.00     0.135 A 
ATOM     85  F   UNL     1       0.642  11.966  12.958  1.00  0.00    -0.206 F 
ATOM     86  C   UNL     1      -0.332  12.999  14.808  1.00  0.00     0.059 A 
ATOM     87  C   UNL     1       1.058  13.813  16.613  1.00  0.00     0.059 A 
ATOM     88  F   UNL     1       3.389  13.666  16.456  1.00  0.00    -0.206 F 
ATOM     89  C   UNL     1      -0.202  13.595  16.061  1.00  0.00     0.060 A 
BRANCH  89  90
ATOM     90  S   UNL     1      -1.688  14.033  16.989  1.00  0.00     0.124 S 
ATOM     91  O   UNL     1      -2.205  15.162  16.223  1.00  0.00    -0.237 OA
ATOM     92  O   UNL     1      -2.478  12.807  16.922  1.00  0.00    -0.237 OA
ATOM     93  O   UNL     1      -1.177  14.363  18.317  1.00  0.00    -0.744 OA
ENDBRANCH  89  90
ENDBRANCH  57  82
ENDBRANCH  31  32
ENDBRANCH   2  26
TORSDOF 13
