REMARK SMILES O=C(NCCCNC(=O)[C@@H](CCOC(F)(F)F)Cc1ccccc1Cl)c1ccc(-c2c3nc(c(-c4c(F)cc(S(=O)(=O)[O-])cc4F)c4ccc([nH]4)c(-c4c(F)cc(S(=O)(=O)[O-])cc4F)c4nc(c(-c5c(F)cc(S(=O)(=O)[O-])cc5F)c5ccc2[nH]5)C=C4)C=C3)cc1
REMARK SMILES IDX 5 1 4 2 3 3 1 4 2 5 26 7 27 8 91 9 28 10 90 11 29 12 30 13
REMARK SMILES IDX 31 14 84 15 32 16 89 17 83 18 85 19 33 20 88 21 82 22 81 23
REMARK SMILES IDX 34 25 68 26 47 27 67 28 48 29 51 30 66 31 86 32 49 33 50 34
REMARK SMILES IDX 65 36 87 37 52 38 35 39 36 40 45 41 37 42 38 43 44 44 46 45
REMARK SMILES IDX 39 46 40 47 41 48 42 49 43 50 69 51 70 52 79 53 71 54 72 55
REMARK SMILES IDX 78 56 80 57 73 58 74 59 75 60 76 61 77 62 53 63 54 64 63 65
REMARK SMILES IDX 55 66 56 67 62 68 64 69 57 70 58 71 59 72 60 73 61 74 6 75
REMARK SMILES IDX 7 76 8 77 9 79 10 80 11 81 12 82 13 83 14 84 15 85 16 86
REMARK SMILES IDX 17 87 18 88 19 89 20 90 24 91 21 92 23 93 25 94 22 95
REMARK H PARENT 3 6 85 24 51 35 7 78
REMARK Flexibility Score: inf
ROOT
ATOM      1  C   UNL     1       4.500  -0.069  -2.302  1.00  0.00     0.042 C 
ENDROOT
BRANCH   1   2
ATOM      2  C   UNL     1       4.202   0.800  -1.096  1.00  0.00     0.118 C 
BRANCH   2   3
ATOM      3  N   UNL     1       2.782   0.794  -0.768  1.00  0.00    -0.352 N 
ATOM      4  O   UNL     1       0.910   0.155   0.306  1.00  0.00    -0.269 OA
ATOM      5  C   UNL     1       2.134   0.271   0.327  1.00  0.00     0.251 C 
ATOM      6  H   UNL     1       2.198   1.229  -1.430  1.00  0.00     0.163 HD
BRANCH   5   7
ATOM      7  C   UNL     1       2.905  -0.162   1.514  1.00  0.00     0.039 A 
ATOM      8  C   UNL     1       4.024   0.558   1.929  1.00  0.00     0.014 A 
ATOM      9  C   UNL     1       2.495  -1.285   2.239  1.00  0.00     0.014 A 
ATOM     10  C   UNL     1       4.833   0.059   2.938  1.00  0.00     0.010 A 
ATOM     11  C   UNL     1       3.236  -1.706   3.350  1.00  0.00     0.010 A 
ATOM     12  C   UNL     1       4.426  -1.050   3.694  1.00  0.00    -0.014 A 
BRANCH  12  13
ATOM     13  C   UNL     1       5.225  -1.419   4.892  1.00  0.00     0.031 A 
ATOM     14  C   UNL     1       5.880  -2.767   5.019  1.00  0.00     0.074 A 
ATOM     15  C   UNL     1       5.398  -0.484   5.849  1.00  0.00     0.049 A 
ATOM     16  N   UNL     1       6.624  -3.227   5.992  1.00  0.00    -0.248 NA
ATOM     17  C   UNL     1       5.668  -3.726   3.924  1.00  0.00     0.031 C 
ATOM     18  C   UNL     1       4.792   0.854   5.837  1.00  0.00     0.029 A 
ATOM     19  N   UNL     1       6.148  -0.490   6.996  1.00  0.00    -0.354 N 
ATOM     20  C   UNL     1       6.961  -4.528   5.637  1.00  0.00     0.074 A 
ATOM     21  C   UNL     1       6.311  -4.797   4.372  1.00  0.00     0.031 C 
ATOM     22  C   UNL     1       5.248   1.558   6.881  1.00  0.00     0.029 A 
ATOM     23  C   UNL     1       6.103   0.699   7.687  1.00  0.00     0.049 A 
ATOM     24  H   UNL     1       6.670  -1.269   7.295  1.00  0.00     0.167 HD
ATOM     25  C   UNL     1       7.748  -5.408   6.303  1.00  0.00     0.037 A 
ATOM     26  C   UNL     1       6.662   1.054   8.858  1.00  0.00     0.037 A 
ATOM     27  C   UNL     1       8.392  -5.121   7.561  1.00  0.00     0.049 A 
ATOM     28  C   UNL     1       7.505   0.049   9.585  1.00  0.00     0.074 A 
ATOM     29  C   UNL     1       9.206  -5.944   8.320  1.00  0.00     0.029 A 
ATOM     30  N   UNL     1       8.299  -3.916   8.245  1.00  0.00    -0.354 N 
ATOM     31  N   UNL     1       7.812  -1.176   9.229  1.00  0.00    -0.248 NA
ATOM     32  C   UNL     1       8.073   0.468  10.871  1.00  0.00     0.031 C 
ATOM     33  C   UNL     1       9.573  -5.253   9.480  1.00  0.00     0.029 A 
ATOM     34  C   UNL     1       9.031  -3.979   9.421  1.00  0.00     0.049 A 
ATOM     35  H   UNL     1       7.788  -3.132   7.940  1.00  0.00     0.167 HD
ATOM     36  C   UNL     1       8.620  -1.672  10.244  1.00  0.00     0.074 A 
ATOM     37  C   UNL     1       8.776  -0.603  11.211  1.00  0.00     0.031 C 
ATOM     38  C   UNL     1       9.175  -2.902  10.369  1.00  0.00     0.037 A 
BRANCH  25  39
ATOM     39  C   UNL     1       7.954  -6.769   5.692  1.00  0.00     0.058 A 
ATOM     40  C   UNL     1       8.740  -6.949   4.542  1.00  0.00     0.135 A 
ATOM     41  C   UNL     1       7.406  -7.915   6.292  1.00  0.00     0.135 A 
ATOM     42  F   UNL     1       9.277  -5.889   3.917  1.00  0.00    -0.206 F 
ATOM     43  C   UNL     1       8.958  -8.212   3.998  1.00  0.00     0.059 A 
ATOM     44  C   UNL     1       7.632  -9.191   5.780  1.00  0.00     0.059 A 
ATOM     45  F   UNL     1       6.646  -7.803   7.393  1.00  0.00    -0.206 F 
ATOM     46  C   UNL     1       8.401  -9.328   4.626  1.00  0.00     0.060 A 
BRANCH  46  47
ATOM     47  S   UNL     1       8.705 -10.958   3.912  1.00  0.00     0.124 S 
ATOM     48  O   UNL     1       7.888 -10.904   2.704  1.00  0.00    -0.237 OA
ATOM     49  O   UNL     1      10.149 -10.941   3.701  1.00  0.00    -0.237 OA
ATOM     50  O   UNL     1       8.236 -11.876   4.946  1.00  0.00    -0.744 OA
ENDBRANCH  46  47
ENDBRANCH  25  39
BRANCH  26  51
ATOM     51  C   UNL     1       6.407   2.406   9.423  1.00  0.00     0.058 A 
ATOM     52  C   UNL     1       7.434   3.353   9.543  1.00  0.00     0.135 A 
ATOM     53  C   UNL     1       5.120   2.781   9.844  1.00  0.00     0.135 A 
ATOM     54  F   UNL     1       8.680   3.045   9.155  1.00  0.00    -0.206 F 
ATOM     55  C   UNL     1       7.201   4.614  10.085  1.00  0.00     0.059 A 
ATOM     56  C   UNL     1       4.855   4.046  10.355  1.00  0.00     0.059 A 
ATOM     57  F   UNL     1       4.096   1.920   9.729  1.00  0.00    -0.206 F 
ATOM     58  C   UNL     1       5.907   4.949  10.489  1.00  0.00     0.060 A 
BRANCH  58  59
ATOM     59  S   UNL     1       5.607   6.594  11.169  1.00  0.00     0.124 S 
ATOM     60  O   UNL     1       6.191   6.471  12.499  1.00  0.00    -0.237 OA
ATOM     61  O   UNL     1       6.326   7.451  10.232  1.00  0.00    -0.237 OA
ATOM     62  O   UNL     1       4.153   6.714  11.126  1.00  0.00    -0.744 OA
ENDBRANCH  58  59
ENDBRANCH  26  51
BRANCH  38  63
ATOM     63  C   UNL     1      10.029  -3.140  11.583  1.00  0.00     0.058 A 
ATOM     64  C   UNL     1       9.471  -3.264  12.865  1.00  0.00     0.135 A 
ATOM     65  C   UNL     1      11.422  -3.260  11.458  1.00  0.00     0.135 A 
ATOM     66  F   UNL     1       8.145  -3.146  13.039  1.00  0.00    -0.206 F 
ATOM     67  C   UNL     1      10.268  -3.466  13.986  1.00  0.00     0.059 A 
ATOM     68  C   UNL     1      12.235  -3.493  12.562  1.00  0.00     0.059 A 
ATOM     69  F   UNL     1      12.005  -3.157  10.253  1.00  0.00    -0.206 F 
ATOM     70  C   UNL     1      11.650  -3.578  13.824  1.00  0.00     0.060 A 
BRANCH  70  71
ATOM     71  S   UNL     1      12.672  -3.856  15.285  1.00  0.00     0.124 S 
ATOM     72  O   UNL     1      12.651  -2.539  15.913  1.00  0.00    -0.237 OA
ATOM     73  O   UNL     1      11.938  -4.904  15.986  1.00  0.00    -0.237 OA
ATOM     74  O   UNL     1      13.958  -4.265  14.727  1.00  0.00    -0.744 OA
ENDBRANCH  70  71
ENDBRANCH  38  63
ENDBRANCH  12  13
ENDBRANCH   5   7
ENDBRANCH   2   3
ENDBRANCH   1   2
BRANCH   1  75
ATOM     75  C   UNL     1       4.112   0.614  -3.606  1.00  0.00     0.117 C 
BRANCH  75  76
ATOM     76  N   UNL     1       5.200   1.442  -4.084  1.00  0.00    -0.356 N 
ATOM     77  C   UNL     1       6.146   1.256  -5.029  1.00  0.00     0.223 C 
ATOM     78  H   UNL     1       5.261   2.313  -3.630  1.00  0.00     0.163 HD
ATOM     79  O   UNL     1       7.046   2.106  -5.060  1.00  0.00    -0.275 OA
BRANCH  77  80
ATOM     80  C   UNL     1       6.170   0.120  -6.051  1.00  0.00     0.085 C 
BRANCH  80  81
ATOM     81  C   UNL     1       6.915  -1.152  -5.564  1.00  0.00     0.042 C 
BRANCH  81  82
ATOM     82  C   UNL     1       6.322  -2.082  -4.499  1.00  0.00     0.171 C 
BRANCH  82  83
ATOM     83  O   UNL     1       4.914  -2.137  -4.477  1.00  0.00    -0.292 OA
BRANCH  83  84
ATOM     84  C   UNL     1       4.343  -3.129  -5.301  1.00  0.00     0.522 C 
ATOM     85  F   UNL     1       3.081  -2.753  -5.591  1.00  0.00    -0.144 F 
ATOM     86  F   UNL     1       5.031  -3.258  -6.450  1.00  0.00    -0.144 F 
ATOM     87  F   UNL     1       4.313  -4.305  -4.653  1.00  0.00    -0.144 F 
ENDBRANCH  83  84
ENDBRANCH  82  83
ENDBRANCH  81  82
ENDBRANCH  80  81
BRANCH  80  88
ATOM     88  C   UNL     1       4.895  -0.181  -6.857  1.00  0.00     0.050 C 
BRANCH  88  89
ATOM     89  C   UNL     1       4.244   0.859  -7.752  1.00  0.00    -0.029 A 
ATOM     90  C   UNL     1       4.504   2.233  -7.647  1.00  0.00     0.005 A 
ATOM     91  C   UNL     1       3.272   0.450  -8.693  1.00  0.00     0.044 A 
ATOM     92  C   UNL     1       3.813   3.161  -8.436  1.00  0.00     0.000 A 
ATOM     93  C   UNL     1       2.592   1.379  -9.488  1.00  0.00     0.021 A 
ATOM     94  Cl  UNL     1       2.849  -1.217  -8.915  1.00  0.00    -0.084 Cl
ATOM     95  C   UNL     1       2.857   2.737  -9.353  1.00  0.00     0.002 A 
ENDBRANCH  88  89
ENDBRANCH  80  88
ENDBRANCH  77  80
ENDBRANCH  75  76
ENDBRANCH   1  75
TORSDOF 19
