REMARK SMILES O=C(NCCCNC(=O)[C@@H]1CC[C@@H](CNC(=O)c2cc(Cl)ccc2Cl)O1)c1ccc(-c2c3nc(c(-c4c(F)cc(S(=O)(=O)[O-])cc4F)c4ccc([nH]4)c(-c4c(F)cc(S(=O)(=O)[O-])cc4F)c4nc(c(-c5c(F)cc(S(=O)(=O)[O-])cc5F)c5ccc2[nH]5)C=C4)C=C3)cc1
REMARK SMILES IDX 5 1 4 2 3 3 1 4 2 5 27 7 28 8 92 9 29 10 91 11 30 12 31 13
REMARK SMILES IDX 32 14 85 15 33 16 90 17 84 18 86 19 34 20 89 21 83 22 82 23
REMARK SMILES IDX 35 25 69 26 48 27 68 28 49 29 52 30 67 31 87 32 50 33 51 34
REMARK SMILES IDX 66 36 88 37 53 38 36 39 37 40 46 41 38 42 39 43 45 44 47 45
REMARK SMILES IDX 40 46 41 47 42 48 43 49 44 50 70 51 71 52 80 53 72 54 73 55
REMARK SMILES IDX 79 56 81 57 74 58 75 59 76 60 77 61 78 62 54 63 55 64 64 65
REMARK SMILES IDX 56 66 57 67 63 68 65 69 58 70 59 71 60 72 61 73 62 74 6 75
REMARK SMILES IDX 7 76 8 77 9 79 10 80 11 81 26 82 12 83 13 84 14 85 15 86
REMARK SMILES IDX 16 87 17 89 18 90 19 91 24 92 20 93 23 94 25 95 21 96 22 97
REMARK H PARENT 3 6 86 24 52 35 7 78 15 88
REMARK Flexibility Score: inf
ROOT
ATOM      1  C   UNL     1       4.415  -0.926   2.450  1.00  0.00     0.042 C 
ENDROOT
BRANCH   1   2
ATOM      2  C   UNL     1       4.312  -1.140   0.942  1.00  0.00     0.118 C 
BRANCH   2   3
ATOM      3  N   UNL     1       2.930  -1.131   0.497  1.00  0.00    -0.352 N 
ATOM      4  O   UNL     1       1.018  -0.228  -0.244  1.00  0.00    -0.269 OA
ATOM      5  C   UNL     1       2.247  -0.189  -0.230  1.00  0.00     0.251 C 
ATOM      6  H   UNL     1       2.403  -1.921   0.756  1.00  0.00     0.163 HD
BRANCH   5   7
ATOM      7  C   UNL     1       2.960   0.862  -0.995  1.00  0.00     0.039 A 
ATOM      8  C   UNL     1       4.110   0.573  -1.737  1.00  0.00     0.014 A 
ATOM      9  C   UNL     1       2.401   2.143  -1.053  1.00  0.00     0.014 A 
ATOM     10  C   UNL     1       4.743   1.578  -2.469  1.00  0.00     0.010 A 
ATOM     11  C   UNL     1       3.003   3.134  -1.832  1.00  0.00     0.010 A 
ATOM     12  C   UNL     1       4.184   2.862  -2.540  1.00  0.00    -0.014 A 
BRANCH  12  13
ATOM     13  C   UNL     1       4.787   3.901  -3.413  1.00  0.00     0.031 A 
ATOM     14  C   UNL     1       5.401   5.138  -2.823  1.00  0.00     0.074 A 
ATOM     15  C   UNL     1       4.731   3.747  -4.750  1.00  0.00     0.049 A 
ATOM     16  N   UNL     1       5.887   6.188  -3.432  1.00  0.00    -0.248 NA
ATOM     17  C   UNL     1       5.467   5.206  -1.356  1.00  0.00     0.031 C 
ATOM     18  C   UNL     1       4.144   2.596  -5.440  1.00  0.00     0.029 A 
ATOM     19  N   UNL     1       5.154   4.565  -5.767  1.00  0.00    -0.354 N 
ATOM     20  C   UNL     1       6.295   7.056  -2.426  1.00  0.00     0.074 A 
ATOM     21  C   UNL     1       5.984   6.413  -1.166  1.00  0.00     0.031 C 
ATOM     22  C   UNL     1       4.245   2.780  -6.764  1.00  0.00     0.029 A 
ATOM     23  C   UNL     1       4.856   4.081  -7.019  1.00  0.00     0.049 A 
ATOM     24  H   UNL     1       5.625   5.416  -5.615  1.00  0.00     0.167 HD
ATOM     25  C   UNL     1       6.874   8.275  -2.544  1.00  0.00     0.037 A 
ATOM     26  C   UNL     1       5.026   4.632  -8.236  1.00  0.00     0.037 A 
ATOM     27  C   UNL     1       7.186   8.904  -3.802  1.00  0.00     0.049 A 
ATOM     28  C   UNL     1       5.661   5.987  -8.348  1.00  0.00     0.074 A 
ATOM     29  C   UNL     1       7.807  10.120  -4.027  1.00  0.00     0.029 A 
ATOM     30  N   UNL     1       6.890   8.370  -5.049  1.00  0.00    -0.354 N 
ATOM     31  N   UNL     1       6.077   6.777  -7.387  1.00  0.00    -0.248 NA
ATOM     32  C   UNL     1       5.854   6.526  -9.700  1.00  0.00     0.031 C 
ATOM     33  C   UNL     1       7.856  10.337  -5.409  1.00  0.00     0.029 A 
ATOM     34  C   UNL     1       7.300   9.238  -6.047  1.00  0.00     0.049 A 
ATOM     35  H   UNL     1       6.452   7.501  -5.201  1.00  0.00     0.167 HD
ATOM     36  C   UNL     1       6.596   7.901  -8.018  1.00  0.00     0.074 A 
ATOM     37  C   UNL     1       6.446   7.686  -9.444  1.00  0.00     0.031 C 
ATOM     38  C   UNL     1       7.151   9.006  -7.463  1.00  0.00     0.037 A 
BRANCH  25  39
ATOM     39  C   UNL     1       7.179   9.018  -1.273  1.00  0.00     0.058 A 
ATOM     40  C   UNL     1       8.224   8.626  -0.421  1.00  0.00     0.135 A 
ATOM     41  C   UNL     1       6.409  10.130  -0.898  1.00  0.00     0.135 A 
ATOM     42  F   UNL     1       8.983   7.562  -0.727  1.00  0.00    -0.206 F 
ATOM     43  C   UNL     1       8.465   9.283   0.782  1.00  0.00     0.059 A 
ATOM     44  C   UNL     1       6.647  10.816   0.290  1.00  0.00     0.059 A 
ATOM     45  F   UNL     1       5.401  10.550  -1.678  1.00  0.00    -0.206 F 
ATOM     46  C   UNL     1       7.661  10.368   1.135  1.00  0.00     0.060 A 
BRANCH  46  47
ATOM     47  S   UNL     1       7.947  11.177   2.724  1.00  0.00     0.124 S 
ATOM     48  O   UNL     1       7.320  10.233   3.644  1.00  0.00    -0.237 OA
ATOM     49  O   UNL     1       9.403  11.248   2.786  1.00  0.00    -0.237 OA
ATOM     50  O   UNL     1       7.266  12.460   2.578  1.00  0.00    -0.744 OA
ENDBRANCH  46  47
ENDBRANCH  25  39
BRANCH  26  51
ATOM     51  C   UNL     1       4.574   3.880  -9.434  1.00  0.00     0.058 A 
ATOM     52  C   UNL     1       5.493   3.229 -10.267  1.00  0.00     0.135 A 
ATOM     53  C   UNL     1       3.206   3.717  -9.710  1.00  0.00     0.135 A 
ATOM     54  F   UNL     1       6.810   3.361 -10.044  1.00  0.00    -0.206 F 
ATOM     55  C   UNL     1       5.075   2.428 -11.324  1.00  0.00     0.059 A 
ATOM     56  C   UNL     1       2.763   2.905 -10.749  1.00  0.00     0.059 A 
ATOM     57  F   UNL     1       2.288   4.308  -8.929  1.00  0.00    -0.206 F 
ATOM     58  C   UNL     1       3.706   2.262 -11.549  1.00  0.00     0.060 A 
BRANCH  58  59
ATOM     59  S   UNL     1       3.172   1.128 -12.850  1.00  0.00     0.124 S 
ATOM     60  O   UNL     1       3.421   1.919 -14.049  1.00  0.00    -0.237 OA
ATOM     61  O   UNL     1       4.055  -0.016 -12.644  1.00  0.00    -0.237 OA
ATOM     62  O   UNL     1       1.768   0.889 -12.529  1.00  0.00    -0.744 OA
ENDBRANCH  58  59
ENDBRANCH  26  51
BRANCH  38  63
ATOM     63  C   UNL     1       7.670  10.065  -8.392  1.00  0.00     0.058 A 
ATOM     64  C   UNL     1       6.809  10.972  -9.025  1.00  0.00     0.135 A 
ATOM     65  C   UNL     1       9.052  10.228  -8.576  1.00  0.00     0.135 A 
ATOM     66  F   UNL     1       5.479  10.851  -8.888  1.00  0.00    -0.206 F 
ATOM     67  C   UNL     1       7.301  12.011  -9.809  1.00  0.00     0.059 A 
ATOM     68  C   UNL     1       9.567  11.270  -9.340  1.00  0.00     0.059 A 
ATOM     69  F   UNL     1       9.917   9.387  -7.986  1.00  0.00    -0.206 F 
ATOM     70  C   UNL     1       8.682  12.157  -9.954  1.00  0.00     0.060 A 
BRANCH  70  71
ATOM     71  S   UNL     1       9.314  13.553 -10.909  1.00  0.00     0.124 S 
ATOM     72  O   UNL     1       9.077  13.105 -12.277  1.00  0.00    -0.237 OA
ATOM     73  O   UNL     1       8.474  14.655 -10.448  1.00  0.00    -0.237 OA
ATOM     74  O   UNL     1      10.715  13.633 -10.507  1.00  0.00    -0.744 OA
ENDBRANCH  70  71
ENDBRANCH  38  63
ENDBRANCH  12  13
ENDBRANCH   5   7
ENDBRANCH   2   3
ENDBRANCH   1   2
BRANCH   1  75
ATOM     75  C   UNL     1       4.003  -2.149   3.272  1.00  0.00     0.117 C 
BRANCH  75  76
ATOM     76  N   UNL     1       5.031  -3.176   3.254  1.00  0.00    -0.354 N 
ATOM     77  C   UNL     1       5.999  -3.476   4.173  1.00  0.00     0.249 C 
ATOM     78  H   UNL     1       5.030  -3.748   2.453  1.00  0.00     0.163 HD
ATOM     79  O   UNL     1       6.800  -4.363   3.867  1.00  0.00    -0.272 OA
BRANCH  77  80
ATOM     80  C   UNL     1       6.039  -2.762   5.548  1.00  0.00     0.207 C 
ATOM     81  C   UNL     1       6.117  -1.238   5.458  1.00  0.00     0.045 C 
ATOM     82  O   UNL     1       7.202  -3.169   6.314  1.00  0.00    -0.363 OA
ATOM     83  C   UNL     1       7.180  -0.862   6.457  1.00  0.00     0.037 C 
ATOM     84  C   UNL     1       8.105  -2.050   6.325  1.00  0.00     0.138 C 
BRANCH  84  85
ATOM     85  C   UNL     1       9.186  -2.169   7.401  1.00  0.00     0.148 C 
BRANCH  85  86
ATOM     86  N   UNL     1       8.717  -1.861   8.747  1.00  0.00    -0.349 N 
ATOM     87  C   UNL     1       8.238  -2.692   9.720  1.00  0.00     0.252 C 
ATOM     88  H   UNL     1       8.752  -0.908   8.992  1.00  0.00     0.163 HD
ATOM     89  O   UNL     1       7.752  -2.222  10.748  1.00  0.00    -0.269 OA
BRANCH  87  90
ATOM     90  C   UNL     1       8.378  -4.151   9.588  1.00  0.00     0.059 A 
ATOM     91  C   UNL     1       9.674  -4.682   9.510  1.00  0.00     0.036 A 
ATOM     92  C   UNL     1       7.271  -5.003   9.671  1.00  0.00     0.053 A 
ATOM     93  C   UNL     1       9.854  -6.061   9.479  1.00  0.00     0.041 A 
ATOM     94  C   UNL     1       7.467  -6.388   9.656  1.00  0.00     0.023 A 
ATOM     95  Cl  UNL     1       5.647  -4.424   9.770  1.00  0.00    -0.083 Cl
ATOM     96  Cl  UNL     1      11.441  -6.711   9.359  1.00  0.00    -0.084 Cl
ATOM     97  C   UNL     1       8.757  -6.917   9.557  1.00  0.00     0.022 A 
ENDBRANCH  87  90
ENDBRANCH  85  86
ENDBRANCH  84  85
ENDBRANCH  77  80
ENDBRANCH  75  76
ENDBRANCH   1  75
TORSDOF 16
