REMARK SMILES CC[C@@H](C)[C@@H](C(=O)NCCCNC(=O)c1ccc(-c2c3nc(c(-c4c(F)cc(S(=O)(=O)[O-])cc4F)c4ccc([nH]4)c(-c4c(F)cc(S(=O)(=O)[O-])cc4F)c4nc(c(-c5c(F)cc(S(=O)(=O)[O-])cc5F)c5ccc2[nH]5)C=C4)C=C3)cc1)N1C(=O)/C(=C/c2ccc(O)cc2)SC1=S
REMARK SMILES IDX 10 1 9 2 8 3 6 4 7 5 5 7 3 8 4 9 2 10 1 11 81 12 82 13 94 14
REMARK SMILES IDX 83 15 84 16 93 17 95 18 85 19 86 20 87 21 92 22 88 23 91 24
REMARK SMILES IDX 89 25 90 26 11 28 12 29 13 30 14 32 15 33 16 34 80 35 17 36
REMARK SMILES IDX 79 37 18 38 19 39 20 40 73 41 21 42 78 43 72 44 74 45 22 46
REMARK SMILES IDX 77 47 71 48 70 49 23 51 57 52 36 53 56 54 37 55 40 56 55 57
REMARK SMILES IDX 75 58 38 59 39 60 54 62 76 63 41 64 24 65 25 66 34 67 26 68
REMARK SMILES IDX 27 69 33 70 35 71 28 72 29 73 30 74 31 75 32 76 58 77 59 78
REMARK SMILES IDX 68 79 60 80 61 81 67 82 69 83 62 84 63 85 64 86 65 87 66 88
REMARK SMILES IDX 42 89 43 90 52 91 44 92 45 93 51 94 53 95 46 96 47 97 48 98
REMARK SMILES IDX 49 99 50 100
REMARK H PARENT 8 6 90 27 12 31 74 50 40 61
REMARK Flexibility Score: inf
ROOT
ATOM      1  C   UNL     1       0.079   0.847  -3.108  1.00  0.00     0.042 C 
ENDROOT
BRANCH   1   2
ATOM      2  C   UNL     1      -0.391  -0.578  -3.418  1.00  0.00     0.117 C 
BRANCH   2   3
ATOM      3  N   UNL     1       0.712  -1.468  -3.748  1.00  0.00    -0.354 N 
ATOM      4  C   UNL     1       1.199  -2.602  -3.172  1.00  0.00     0.243 C 
ATOM      5  O   UNL     1       2.061  -3.189  -3.839  1.00  0.00    -0.273 OA
ATOM      6  H   UNL     1       1.208  -1.194  -4.554  1.00  0.00     0.163 HD
BRANCH   4   7
ATOM      7  C   UNL     1       0.667  -3.181  -1.823  1.00  0.00     0.184 C 
BRANCH   7   8
ATOM      8  C   UNL     1       1.122  -2.527  -0.473  1.00  0.00     0.018 C 
ATOM      9  C   UNL     1       0.496  -3.276   0.716  1.00  0.00     0.010 C 
BRANCH   8  10
ATOM     10  C   UNL     1       0.800  -1.037  -0.397  1.00  0.00     0.002 C 
ATOM     11  C   UNL     1       1.291  -0.301   0.840  1.00  0.00     0.004 C 
ENDBRANCH   8  10
ENDBRANCH   7   8
BRANCH   7  12
ATOM     12  N   UNL     1       1.027  -4.631  -1.858  1.00  0.00    -0.280 N 
ATOM     13  C   UNL     1       2.346  -5.005  -1.619  1.00  0.00     0.266 C 
ATOM     14  C   UNL     1       0.165  -5.650  -2.200  1.00  0.00     0.149 C 
ATOM     15  O   UNL     1       3.290  -4.274  -1.373  1.00  0.00    -0.268 OA
ATOM     16  C   UNL     1       2.483  -6.481  -1.664  1.00  0.00     0.081 C 
ATOM     17  S   UNL     1       0.993  -7.204  -2.097  1.00  0.00    -0.054 SA
ATOM     18  S   UNL     1      -1.445  -5.547  -2.628  1.00  0.00    -0.052 S 
ATOM     19  C   UNL     1       3.644  -7.061  -1.331  1.00  0.00     0.029 C 
BRANCH  19  20
ATOM     20  C   UNL     1       3.918  -8.496  -1.267  1.00  0.00    -0.024 A 
ATOM     21  C   UNL     1       4.358  -9.051  -0.059  1.00  0.00     0.012 A 
ATOM     22  C   UNL     1       3.792  -9.313  -2.396  1.00  0.00     0.012 A 
ATOM     23  C   UNL     1       4.635 -10.416   0.027  1.00  0.00     0.047 A 
ATOM     24  C   UNL     1       4.066 -10.679  -2.310  1.00  0.00     0.047 A 
ATOM     25  C   UNL     1       4.479 -11.220  -1.096  1.00  0.00     0.115 A 
BRANCH  25  26
ATOM     26  O   UNL     1       4.746 -12.550  -0.969  1.00  0.00    -0.508 OA
ATOM     27  H   UNL     1       5.023 -12.896  -0.143  1.00  0.00     0.293 HD
ENDBRANCH  25  26
ENDBRANCH  19  20
ENDBRANCH   7  12
ENDBRANCH   4   7
ENDBRANCH   2   3
ENDBRANCH   1   2
BRANCH   1  28
ATOM     28  C   UNL     1       0.681   1.584  -4.295  1.00  0.00     0.118 C 
BRANCH  28  29
ATOM     29  N   UNL     1      -0.330   2.291  -5.056  1.00  0.00    -0.352 N 
ATOM     30  C   UNL     1      -0.603   3.638  -5.112  1.00  0.00     0.251 C 
ATOM     31  H   UNL     1      -0.908   1.723  -5.615  1.00  0.00     0.163 HD
ATOM     32  O   UNL     1      -1.672   4.004  -5.595  1.00  0.00    -0.269 OA
BRANCH  30  33
ATOM     33  C   UNL     1       0.358   4.645  -4.591  1.00  0.00     0.039 A 
ATOM     34  C   UNL     1      -0.142   5.805  -3.992  1.00  0.00     0.014 A 
ATOM     35  C   UNL     1       1.739   4.496  -4.744  1.00  0.00     0.014 A 
ATOM     36  C   UNL     1       0.735   6.791  -3.526  1.00  0.00     0.010 A 
ATOM     37  C   UNL     1       2.615   5.429  -4.188  1.00  0.00     0.010 A 
ATOM     38  C   UNL     1       2.125   6.604  -3.602  1.00  0.00    -0.014 A 
BRANCH  38  39
ATOM     39  C   UNL     1       3.077   7.651  -3.139  1.00  0.00     0.031 A 
ATOM     40  C   UNL     1       4.026   8.292  -4.122  1.00  0.00     0.074 A 
ATOM     41  C   UNL     1       3.123   7.999  -1.837  1.00  0.00     0.049 A 
ATOM     42  N   UNL     1       4.972   9.171  -3.908  1.00  0.00    -0.248 NA
ATOM     43  C   UNL     1       3.918   7.866  -5.528  1.00  0.00     0.031 C 
ATOM     44  C   UNL     1       2.289   7.427  -0.778  1.00  0.00     0.029 A 
ATOM     45  N   UNL     1       3.908   8.914  -1.180  1.00  0.00    -0.354 N 
ATOM     46  C   UNL     1       5.580   9.385  -5.142  1.00  0.00     0.074 A 
ATOM     47  C   UNL     1       4.937   8.500  -6.087  1.00  0.00     0.031 C 
ATOM     48  C   UNL     1       2.590   8.020   0.389  1.00  0.00     0.029 A 
ATOM     49  C   UNL     1       3.663   8.986   0.172  1.00  0.00     0.049 A 
ATOM     50  H   UNL     1       4.584   9.467  -1.634  1.00  0.00     0.167 HD
ATOM     51  C   UNL     1       6.563  10.258  -5.466  1.00  0.00     0.037 A 
ATOM     52  C   UNL     1       4.240   9.739   1.129  1.00  0.00     0.037 A 
ATOM     53  C   UNL     1       7.174  11.165  -4.529  1.00  0.00     0.049 A 
ATOM     54  C   UNL     1       5.328  10.707   0.745  1.00  0.00     0.074 A 
ATOM     55  C   UNL     1       8.139  12.128  -4.769  1.00  0.00     0.029 A 
ATOM     56  N   UNL     1       6.878  11.223  -3.175  1.00  0.00    -0.354 N 
ATOM     57  N   UNL     1       5.850  10.934  -0.438  1.00  0.00    -0.248 NA
ATOM     58  C   UNL     1       5.899  11.528   1.821  1.00  0.00     0.031 C 
ATOM     59  C   UNL     1       8.459  12.737  -3.551  1.00  0.00     0.029 A 
ATOM     60  C   UNL     1       7.654  12.193  -2.563  1.00  0.00     0.049 A 
ATOM     61  H   UNL     1       6.215  10.657  -2.717  1.00  0.00     0.167 HD
ATOM     62  C   UNL     1       6.785  11.947  -0.253  1.00  0.00     0.074 A 
ATOM     63  C   UNL     1       6.751  12.294   1.153  1.00  0.00     0.031 C 
ATOM     64  C   UNL     1       7.597  12.538  -1.164  1.00  0.00     0.037 A 
BRANCH  51  65
ATOM     65  C   UNL     1       7.036  10.283  -6.896  1.00  0.00     0.058 A 
ATOM     66  C   UNL     1       6.223  10.765  -7.935  1.00  0.00     0.135 A 
ATOM     67  C   UNL     1       8.331   9.852  -7.228  1.00  0.00     0.135 A 
ATOM     68  F   UNL     1       4.970  11.175  -7.680  1.00  0.00    -0.206 F 
ATOM     69  C   UNL     1       6.664  10.789  -9.255  1.00  0.00     0.059 A 
ATOM     70  C   UNL     1       8.805   9.898  -8.537  1.00  0.00     0.059 A 
ATOM     71  F   UNL     1       9.152   9.383  -6.276  1.00  0.00    -0.206 F 
ATOM     72  C   UNL     1       7.958  10.354  -9.545  1.00  0.00     0.060 A 
BRANCH  72  73
ATOM     73  S   UNL     1       8.516  10.399 -11.261  1.00  0.00     0.124 S 
ATOM     74  O   UNL     1       7.751   9.302 -11.845  1.00  0.00    -0.237 OA
ATOM     75  O   UNL     1       8.122  11.740 -11.682  1.00  0.00    -0.237 OA
ATOM     76  O   UNL     1       9.955  10.176 -11.158  1.00  0.00    -0.744 OA
ENDBRANCH  72  73
ENDBRANCH  51  65
BRANCH  52  77
ATOM     77  C   UNL     1       3.785   9.626   2.542  1.00  0.00     0.058 A 
ATOM     78  C   UNL     1       3.083  10.670   3.162  1.00  0.00     0.135 A 
ATOM     79  C   UNL     1       4.035   8.470   3.299  1.00  0.00     0.135 A 
ATOM     80  F   UNL     1       2.824  11.799   2.483  1.00  0.00    -0.206 F 
ATOM     81  C   UNL     1       2.662  10.584   4.485  1.00  0.00     0.059 A 
ATOM     82  C   UNL     1       3.600   8.348   4.615  1.00  0.00     0.059 A 
ATOM     83  F   UNL     1       4.688   7.434   2.749  1.00  0.00    -0.206 F 
ATOM     84  C   UNL     1       2.924   9.416   5.203  1.00  0.00     0.060 A 
BRANCH  84  85
ATOM     85  S   UNL     1       2.333   9.295   6.906  1.00  0.00     0.124 S 
ATOM     86  O   UNL     1       3.245  10.199   7.598  1.00  0.00    -0.237 OA
ATOM     87  O   UNL     1       0.952   9.750   6.784  1.00  0.00    -0.237 OA
ATOM     88  O   UNL     1       2.493   7.878   7.216  1.00  0.00    -0.744 OA
ENDBRANCH  84  85
ENDBRANCH  52  77
BRANCH  64  89
ATOM     89  C   UNL     1       8.481  13.658  -0.687  1.00  0.00     0.058 A 
ATOM     90  C   UNL     1       9.603  13.424   0.123  1.00  0.00     0.135 A 
ATOM     91  C   UNL     1       8.230  14.979  -1.095  1.00  0.00     0.135 A 
ATOM     92  F   UNL     1       9.885  12.182   0.545  1.00  0.00    -0.206 F 
ATOM     93  C   UNL     1      10.431  14.464   0.532  1.00  0.00     0.059 A 
ATOM     94  C   UNL     1       9.062  16.029  -0.723  1.00  0.00     0.059 A 
ATOM     95  F   UNL     1       7.177  15.256  -1.880  1.00  0.00    -0.206 F 
ATOM     96  C   UNL     1      10.154  15.763   0.102  1.00  0.00     0.060 A 
BRANCH  96  97
ATOM     97  S   UNL     1      11.256  17.099   0.614  1.00  0.00     0.124 S 
ATOM     98  O   UNL     1      10.895  17.256   2.018  1.00  0.00    -0.237 OA
ATOM     99  O   UNL     1      12.576  16.529   0.358  1.00  0.00    -0.237 OA
ATOM    100  O   UNL     1      10.878  18.205  -0.260  1.00  0.00    -0.744 OA
ENDBRANCH  96  97
ENDBRANCH  64  89
ENDBRANCH  38  39
ENDBRANCH  30  33
ENDBRANCH  28  29
ENDBRANCH   1  28
TORSDOF 18
