REMARK SMILES C[C@@H](NC(=O)CCCN1C(=O)/C(=C/c2c3ccccc3cc3ccccc23)SC1=S)C(=O)NCCCNC(=O)c1ccc(-c2c3nc(c(-c4c(F)cc(S(=O)(=O)[O-])cc4F)c4ccc([nH]4)c(-c4c(F)cc(S(=O)(=O)[O-])cc4F)c4nc(c(-c5c(F)cc(S(=O)(=O)[O-])cc5F)c5ccc2[nH]5)C=C4)C=C3)cc1
REMARK SMILES IDX 31 1 32 2 33 3 2 5 1 6 3 7 4 8 5 10 6 11 7 12 8 13 9 14
REMARK SMILES IDX 10 15 29 16 11 17 12 18 28 19 30 20 13 21 14 22 15 23 27 24
REMARK SMILES IDX 16 25 20 26 22 27 26 28 17 29 19 30 21 31 23 32 25 33 18 34
REMARK SMILES IDX 24 35 34 36 35 37 36 38 37 39 38 40 39 42 40 43 41 44 105 45
REMARK SMILES IDX 42 46 104 47 43 48 44 49 45 50 98 51 46 52 103 53 97 54
REMARK SMILES IDX 99 55 47 56 102 57 96 58 95 59 48 61 82 62 61 63 81 64 62 65
REMARK SMILES IDX 65 66 80 67 100 68 63 69 64 70 79 72 101 73 66 74 49 75
REMARK SMILES IDX 50 76 59 77 51 78 52 79 58 80 60 81 53 82 54 83 55 84 56 85
REMARK SMILES IDX 57 86 83 87 84 88 93 89 85 90 86 91 92 92 94 93 87 94 88 95
REMARK SMILES IDX 89 96 90 97 91 98 67 99 68 100 77 101 69 102 70 103 76 104
REMARK SMILES IDX 78 105 71 106 72 107 73 108 74 109 75 110
REMARK H PARENT 33 4 3 9 37 41 99 60 65 71
REMARK Flexibility Score: inf
ROOT
ATOM      1  C   UNL     1      -1.308  -1.036   2.389  1.00  0.00     0.242 C 
ATOM      2  O   UNL     1      -2.026  -2.029   2.659  1.00  0.00    -0.273 OA
ATOM      3  N   UNL     1      -2.121   0.006   1.946  1.00  0.00    -0.354 N 
ATOM      4  H   UNL     1      -2.821  -0.393   1.380  1.00  0.00     0.163 HD
ENDROOT
BRANCH   1   5
ATOM      5  C   UNL     1       0.382  -1.348   2.674  1.00  0.00     0.168 C 
ATOM      6  C   UNL     1       1.764  -1.170   1.926  1.00  0.00     0.041 C 
BRANCH   5   7
ATOM      7  N   UNL     1       0.743  -1.007   4.014  1.00  0.00    -0.345 N 
ATOM      8  C   UNL     1       0.995   0.314   4.245  1.00  0.00     0.220 C 
ATOM      9  H   UNL     1       0.807  -1.684   4.726  1.00  0.00     0.164 HD
ATOM     10  O   UNL     1       1.647   0.680   5.207  1.00  0.00    -0.275 OA
BRANCH   8  11
ATOM     11  C   UNL     1       0.279   1.238   3.271  1.00  0.00     0.102 C 
BRANCH  11  12
ATOM     12  C   UNL     1       0.617   1.298   1.667  1.00  0.00     0.032 C 
BRANCH  12  13
ATOM     13  C   UNL     1       0.100   0.531   0.165  1.00  0.00     0.128 C 
BRANCH  13  14
ATOM     14  N   UNL     1      -0.604  -0.857  -0.168  1.00  0.00    -0.293 N 
ATOM     15  C   UNL     1      -0.036  -2.124  -0.112  1.00  0.00     0.266 C 
ATOM     16  C   UNL     1      -1.722  -0.998  -0.990  1.00  0.00     0.148 C 
ATOM     17  O   UNL     1       1.137  -2.418  -0.302  1.00  0.00    -0.268 OA
ATOM     18  C   UNL     1      -1.059  -3.227  -0.052  1.00  0.00     0.081 C 
ATOM     19  S   UNL     1      -2.441  -2.639  -0.848  1.00  0.00    -0.054 SA
ATOM     20  S   UNL     1      -2.344   0.055  -2.127  1.00  0.00    -0.052 S 
ATOM     21  C   UNL     1      -0.746  -4.447   0.436  1.00  0.00     0.030 C 
BRANCH  21  22
ATOM     22  C   UNL     1      -1.361  -5.798   0.197  1.00  0.00    -0.009 A 
ATOM     23  C   UNL     1      -1.220  -6.345  -1.124  1.00  0.00    -0.010 A 
ATOM     24  C   UNL     1      -1.829  -6.643   1.268  1.00  0.00    -0.010 A 
ATOM     25  C   UNL     1      -0.601  -5.666  -2.204  1.00  0.00     0.009 A 
ATOM     26  C   UNL     1      -1.652  -7.667  -1.382  1.00  0.00    -0.017 A 
ATOM     27  C   UNL     1      -2.205  -7.984   0.969  1.00  0.00    -0.017 A 
ATOM     28  C   UNL     1      -1.913  -6.271   2.634  1.00  0.00     0.009 A 
ATOM     29  C   UNL     1      -0.474  -6.229  -3.473  1.00  0.00     0.001 A 
ATOM     30  C   UNL     1      -1.538  -8.220  -2.670  1.00  0.00     0.009 A 
ATOM     31  C   UNL     1      -2.146  -8.456  -0.343  1.00  0.00     0.017 A 
ATOM     32  C   UNL     1      -2.605  -8.879   1.979  1.00  0.00     0.009 A 
ATOM     33  C   UNL     1      -2.307  -7.177   3.635  1.00  0.00     0.001 A 
ATOM     34  C   UNL     1      -0.958  -7.503  -3.711  1.00  0.00     0.001 A 
ATOM     35  C   UNL     1      -2.647  -8.483   3.309  1.00  0.00     0.001 A 
ENDBRANCH  21  22
ENDBRANCH  13  14
ENDBRANCH  12  13
ENDBRANCH  11  12
ENDBRANCH   8  11
ENDBRANCH   5   7
ENDBRANCH   1   5
BRANCH   3  36
ATOM     36  C   UNL     1      -2.371   1.522   1.979  1.00  0.00     0.117 C 
BRANCH  36  37
ATOM     37  C   UNL     1      -2.740   2.312   0.703  1.00  0.00     0.042 C 
BRANCH  37  38
ATOM     38  C   UNL     1      -4.194   2.735   0.542  1.00  0.00     0.118 C 
BRANCH  38  39
ATOM     39  N   UNL     1      -4.636   3.564   1.659  1.00  0.00    -0.352 N 
ATOM     40  C   UNL     1      -4.653   4.934   1.810  1.00  0.00     0.251 C 
ATOM     41  H   UNL     1      -4.980   3.061   2.432  1.00  0.00     0.163 HD
ATOM     42  O   UNL     1      -4.650   5.406   2.942  1.00  0.00    -0.269 OA
BRANCH  40  43
ATOM     43  C   UNL     1      -4.685   5.828   0.629  1.00  0.00     0.039 A 
ATOM     44  C   UNL     1      -4.089   7.094   0.680  1.00  0.00     0.014 A 
ATOM     45  C   UNL     1      -5.358   5.432  -0.523  1.00  0.00     0.014 A 
ATOM     46  C   UNL     1      -4.107   7.920  -0.451  1.00  0.00     0.010 A 
ATOM     47  C   UNL     1      -5.253   6.186  -1.681  1.00  0.00     0.010 A 
ATOM     48  C   UNL     1      -4.650   7.451  -1.658  1.00  0.00    -0.014 A 
BRANCH  48  49
ATOM     49  C   UNL     1      -4.656   8.251  -2.912  1.00  0.00     0.031 A 
ATOM     50  C   UNL     1      -5.967   8.506  -3.617  1.00  0.00     0.074 A 
ATOM     51  C   UNL     1      -3.491   8.624  -3.478  1.00  0.00     0.049 A 
ATOM     52  N   UNL     1      -6.186   8.992  -4.810  1.00  0.00    -0.248 NA
ATOM     53  C   UNL     1      -7.193   8.097  -2.907  1.00  0.00     0.031 C 
ATOM     54  C   UNL     1      -2.157   8.372  -2.926  1.00  0.00     0.029 A 
ATOM     55  N   UNL     1      -3.237   9.277  -4.659  1.00  0.00    -0.354 N 
ATOM     56  C   UNL     1      -7.561   8.904  -5.006  1.00  0.00     0.074 A 
ATOM     57  C   UNL     1      -8.114   8.243  -3.847  1.00  0.00     0.031 C 
ATOM     58  C   UNL     1      -1.231   8.889  -3.749  1.00  0.00     0.029 A 
ATOM     59  C   UNL     1      -1.898   9.465  -4.911  1.00  0.00     0.049 A 
ATOM     60  H   UNL     1      -3.948   9.582  -5.268  1.00  0.00     0.167 HD
ATOM     61  C   UNL     1      -8.302   9.368  -6.039  1.00  0.00     0.037 A 
ATOM     62  C   UNL     1      -1.280  10.028  -5.968  1.00  0.00     0.037 A 
ATOM     63  C   UNL     1      -7.741  10.080  -7.154  1.00  0.00     0.049 A 
ATOM     64  C   UNL     1      -2.124  10.565  -7.092  1.00  0.00     0.074 A 
ATOM     65  C   UNL     1      -8.398  10.676  -8.215  1.00  0.00     0.029 A 
ATOM     66  N   UNL     1      -6.384  10.300  -7.346  1.00  0.00    -0.354 N 
ATOM     67  N   UNL     1      -3.430  10.542  -7.226  1.00  0.00    -0.248 NA
ATOM     68  C   UNL     1      -1.416  11.207  -8.207  1.00  0.00     0.031 C 
ATOM     69  C   UNL     1      -7.434  11.215  -9.073  1.00  0.00     0.029 A 
ATOM     70  C   UNL     1      -6.181  11.003  -8.519  1.00  0.00     0.049 A 
ATOM     71  H   UNL     1      -5.672   9.999  -6.736  1.00  0.00     0.167 HD
ATOM     72  C   UNL     1      -3.701  11.186  -8.427  1.00  0.00     0.074 A 
ATOM     73  C   UNL     1      -2.425  11.604  -8.971  1.00  0.00     0.031 C 
ATOM     74  C   UNL     1      -4.895  11.411  -9.030  1.00  0.00     0.037 A 
BRANCH  61  75
ATOM     75  C   UNL     1      -9.791   9.142  -5.994  1.00  0.00     0.058 A 
ATOM     76  C   UNL     1     -10.606   9.770  -5.037  1.00  0.00     0.135 A 
ATOM     77  C   UNL     1     -10.417   8.304  -6.931  1.00  0.00     0.135 A 
ATOM     78  F   UNL     1     -10.062  10.569  -4.104  1.00  0.00    -0.206 F 
ATOM     79  C   UNL     1     -11.977   9.547  -4.986  1.00  0.00     0.059 A 
ATOM     80  C   UNL     1     -11.794   8.094  -6.921  1.00  0.00     0.059 A 
ATOM     81  F   UNL     1      -9.691   7.675  -7.868  1.00  0.00    -0.206 F 
ATOM     82  C   UNL     1     -12.563   8.708  -5.934  1.00  0.00     0.060 A 
BRANCH  82  83
ATOM     83  S   UNL     1     -14.347   8.442  -5.859  1.00  0.00     0.124 S 
ATOM     84  O   UNL     1     -14.468   7.610  -4.666  1.00  0.00    -0.237 OA
ATOM     85  O   UNL     1     -14.859   9.803  -5.736  1.00  0.00    -0.237 OA
ATOM     86  O   UNL     1     -14.645   7.774  -7.122  1.00  0.00    -0.744 OA
ENDBRANCH  82  83
ENDBRANCH  61  75
BRANCH  62  87
ATOM     87  C   UNL     1       0.204  10.140  -5.995  1.00  0.00     0.058 A 
ATOM     88  C   UNL     1       0.833  11.390  -5.877  1.00  0.00     0.135 A 
ATOM     89  C   UNL     1       1.026   9.009  -6.116  1.00  0.00     0.135 A 
ATOM     90  F   UNL     1       0.093  12.503  -5.761  1.00  0.00    -0.206 F 
ATOM     91  C   UNL     1       2.218  11.517  -5.898  1.00  0.00     0.059 A 
ATOM     92  C   UNL     1       2.415   9.107  -6.111  1.00  0.00     0.059 A 
ATOM     93  F   UNL     1       0.479   7.787  -6.210  1.00  0.00    -0.206 F 
ATOM     94  C   UNL     1       3.002  10.368  -6.013  1.00  0.00     0.060 A 
BRANCH  94  95
ATOM     95  S   UNL     1       4.800  10.541  -5.992  1.00  0.00     0.124 S 
ATOM     96  O   UNL     1       5.051  11.151  -7.292  1.00  0.00    -0.237 OA
ATOM     97  O   UNL     1       5.010  11.400  -4.831  1.00  0.00    -0.237 OA
ATOM     98  O   UNL     1       5.268   9.167  -5.838  1.00  0.00    -0.744 OA
ENDBRANCH  94  95
ENDBRANCH  62  87
BRANCH  74  99
ATOM     99  C   UNL     1      -4.880  12.162 -10.331  1.00  0.00     0.058 A 
ATOM    100  C   UNL     1      -4.415  11.571 -11.515  1.00  0.00     0.135 A 
ATOM    101  C   UNL     1      -5.404  13.463 -10.405  1.00  0.00     0.135 A 
ATOM    102  F   UNL     1      -3.900  10.332 -11.496  1.00  0.00    -0.206 F 
ATOM    103  C   UNL     1      -4.451  12.252 -12.726  1.00  0.00     0.059 A 
ATOM    104  C   UNL     1      -5.480  14.150 -11.610  1.00  0.00     0.059 A 
ATOM    105  F   UNL     1      -5.873  14.067  -9.301  1.00  0.00    -0.206 F 
ATOM    106  C   UNL     1      -4.991  13.540 -12.764  1.00  0.00     0.060 A 
BRANCH 106 107
ATOM    107  S   UNL     1      -5.073  14.393 -14.352  1.00  0.00     0.124 S 
ATOM    108  O   UNL     1      -3.669  14.711 -14.587  1.00  0.00    -0.237 OA
ATOM    109  O   UNL     1      -5.647  13.372 -15.224  1.00  0.00    -0.237 OA
ATOM    110  O   UNL     1      -5.939  15.536 -14.080  1.00  0.00    -0.744 OA
ENDBRANCH 106 107
ENDBRANCH  74  99
ENDBRANCH  48  49
ENDBRANCH  40  43
ENDBRANCH  38  39
ENDBRANCH  37  38
ENDBRANCH  36  37
ENDBRANCH   3  36
TORSDOF 19
