REMARK SMILES Cc1ncc(CO)c([C@H]2[NH2+][C@@H](C(=O)NCCCNC(=O)c3ccc(-c4c5nc(c(-c6c(F)cc(S(=O)(=O)[O-])cc6F)c6ccc([nH]6)c(-c6c(F)cc(S(=O)(=O)[O-])cc6F)c6nc(c(-c7c(F)cc(S(=O)(=O)[O-])cc7F)c7ccc4[nH]7)C=C6)C=C5)cc3)Cc3[nH]cnc32)c1O
REMARK SMILES IDX 16 1 15 2 14 3 12 4 13 5 11 7 9 8 10 9 92 10 88 13 91 14
REMARK SMILES IDX 87 15 89 16 90 17 8 19 1 20 2 21 3 22 93 23 4 24 5 25 94 26
REMARK SMILES IDX 6 28 7 29 17 31 18 32 19 33 20 35 21 36 22 37 86 38 23 39
REMARK SMILES IDX 85 40 24 41 25 42 26 43 79 44 27 45 84 46 78 47 80 48 28 49
REMARK SMILES IDX 83 50 77 51 76 52 29 54 63 55 42 56 62 57 43 58 46 59 61 60
REMARK SMILES IDX 81 61 44 62 45 63 60 65 82 66 47 67 30 68 31 69 40 70 32 71
REMARK SMILES IDX 33 72 39 73 41 74 34 75 35 76 36 77 37 78 38 79 64 80 65 81
REMARK SMILES IDX 74 82 66 83 67 84 73 85 75 86 68 87 69 88 70 89 71 90 72 91
REMARK SMILES IDX 48 92 49 93 58 94 50 95 51 96 57 97 59 98 52 99 53 100
REMARK SMILES IDX 54 101 55 102 56 103
REMARK H PARENT 14 6 10 11 10 12 89 18 94 27 7 30 18 34 80 53 46 64
REMARK Flexibility Score: inf
ROOT
ATOM      1  C   UNL     1      -5.335   2.679   0.247  1.00  0.00     0.042 C 
ENDROOT
BRANCH   1   2
ATOM      2  C   UNL     1      -4.677   3.940   0.787  1.00  0.00     0.118 C 
BRANCH   2   3
ATOM      3  N   UNL     1      -4.054   3.721   2.088  1.00  0.00    -0.351 N 
ATOM      4  C   UNL     1      -2.728   3.693   2.419  1.00  0.00     0.278 C 
ATOM      5  O   UNL     1      -2.395   3.458   3.577  1.00  0.00    -0.268 OA
ATOM      6  H   UNL     1      -4.678   3.574   2.835  1.00  0.00     0.163 HD
BRANCH   4   7
ATOM      7  C   UNL     1      -1.746   3.923   1.291  1.00  0.00     0.279 C 
ATOM      8  C   UNL     1       0.015   2.941   0.045  1.00  0.00     0.270 C 
ATOM      9  N   UNL     1      -0.570   3.041   1.400  1.00  0.00    -0.324 N 
ATOM     10  C   UNL     1       0.549   4.316  -0.296  1.00  0.00     0.124 A 
ATOM     11  H   UNL     1       0.110   3.439   2.048  1.00  0.00     0.347 HD
ATOM     12  H   UNL     1      -0.833   2.121   1.753  1.00  0.00     0.347 HD
ATOM     13  C   UNL     1      -0.178   5.426   0.163  1.00  0.00     0.051 A 
ATOM     14  N   UNL     1       1.366   4.721  -1.325  1.00  0.00    -0.235 NA
ATOM     15  C   UNL     1      -1.319   5.391   1.138  1.00  0.00     0.131 C 
ATOM     16  N   UNL     1       0.231   6.497  -0.561  1.00  0.00    -0.348 N 
ATOM     17  C   UNL     1       1.175   6.027  -1.434  1.00  0.00     0.197 A 
ATOM     18  H   UNL     1      -0.087   7.425  -0.475  1.00  0.00     0.167 HD
BRANCH   8  19
ATOM     19  C   UNL     1       0.523   1.538  -0.158  1.00  0.00     0.066 A 
ATOM     20  C   UNL     1      -1.375  -1.833  -0.038  1.00  0.00     0.071 C 
ATOM     21  C   UNL     1      -0.257  -0.826  -0.131  1.00  0.00     0.079 A 
ATOM     22  N   UNL     1       1.006  -1.283  -0.093  1.00  0.00    -0.257 NA
ATOM     23  C   UNL     1      -0.522   0.540  -0.200  1.00  0.00     0.146 A 
ATOM     24  C   UNL     1       1.995  -0.352  -0.059  1.00  0.00     0.118 A 
ATOM     25  C   UNL     1       1.829   1.049  -0.064  1.00  0.00     0.009 A 
BRANCH  23  26
ATOM     26  O   UNL     1      -1.867   0.853  -0.197  1.00  0.00    -0.505 OA
ATOM     27  H   UNL     1      -2.507   0.169  -0.225  1.00  0.00     0.293 HD
ENDBRANCH  23  26
BRANCH  25  28
ATOM     28  C   UNL     1       3.064   1.887   0.059  1.00  0.00     0.194 C 
BRANCH  28  29
ATOM     29  O   UNL     1       3.776   1.554   1.248  1.00  0.00    -0.392 OA
ATOM     30  H   UNL     1       3.212   1.718   2.019  1.00  0.00     0.211 HD
ENDBRANCH  28  29
ENDBRANCH  25  28
ENDBRANCH   8  19
ENDBRANCH   4   7
ENDBRANCH   2   3
ENDBRANCH   1   2
BRANCH   1  31
ATOM     31  C   UNL     1      -6.511   2.292   1.108  1.00  0.00     0.118 C 
BRANCH  31  32
ATOM     32  N   UNL     1      -7.601   3.274   1.076  1.00  0.00    -0.352 N 
ATOM     33  C   UNL     1      -8.974   3.031   1.214  1.00  0.00     0.251 C 
ATOM     34  H   UNL     1      -7.337   4.213   0.942  1.00  0.00     0.163 HD
ATOM     35  O   UNL     1      -9.792   3.834   0.878  1.00  0.00    -0.269 OA
BRANCH  33  36
ATOM     36  C   UNL     1      -9.326   1.788   1.948  1.00  0.00     0.039 A 
ATOM     37  C   UNL     1     -10.529   1.086   1.957  1.00  0.00     0.014 A 
ATOM     38  C   UNL     1      -8.403   1.398   2.888  1.00  0.00     0.014 A 
ATOM     39  C   UNL     1     -10.696   0.131   3.018  1.00  0.00     0.010 A 
ATOM     40  C   UNL     1      -8.421   0.110   3.255  1.00  0.00     0.010 A 
ATOM     41  C   UNL     1      -9.594  -0.148   3.889  1.00  0.00    -0.014 A 
BRANCH  41  42
ATOM     42  C   UNL     1      -9.343  -1.239   4.893  1.00  0.00     0.031 A 
ATOM     43  C   UNL     1      -9.573  -2.527   4.023  1.00  0.00     0.074 A 
ATOM     44  C   UNL     1      -8.823  -1.097   6.206  1.00  0.00     0.049 A 
ATOM     45  N   UNL     1     -10.732  -3.105   3.893  1.00  0.00    -0.248 NA
ATOM     46  C   UNL     1      -8.715  -2.948   2.847  1.00  0.00     0.031 C 
ATOM     47  C   UNL     1      -8.444   0.079   7.091  1.00  0.00     0.029 A 
ATOM     48  N   UNL     1      -8.563  -2.091   7.174  1.00  0.00    -0.354 N 
ATOM     49  C   UNL     1     -10.517  -4.237   3.102  1.00  0.00     0.074 A 
ATOM     50  C   UNL     1      -9.436  -3.907   2.246  1.00  0.00     0.031 C 
ATOM     51  C   UNL     1      -7.744  -0.304   8.216  1.00  0.00     0.029 A 
ATOM     52  C   UNL     1      -7.698  -1.753   8.298  1.00  0.00     0.049 A 
ATOM     53  H   UNL     1      -8.956  -2.990   7.093  1.00  0.00     0.167 HD
ATOM     54  C   UNL     1     -10.932  -5.448   3.567  1.00  0.00     0.037 A 
ATOM     55  C   UNL     1      -7.272  -2.562   9.367  1.00  0.00     0.037 A 
ATOM     56  C   UNL     1     -11.847  -5.204   4.659  1.00  0.00     0.049 A 
ATOM     57  C   UNL     1      -8.161  -3.759   9.297  1.00  0.00     0.074 A 
ATOM     58  C   UNL     1     -13.070  -4.580   4.781  1.00  0.00     0.029 A 
ATOM     59  N   UNL     1     -11.197  -5.053   5.854  1.00  0.00    -0.354 N 
ATOM     60  N   UNL     1      -9.446  -3.652   9.526  1.00  0.00    -0.248 NA
ATOM     61  C   UNL     1      -7.739  -4.753   8.313  1.00  0.00     0.031 C 
ATOM     62  C   UNL     1     -12.992  -3.812   5.984  1.00  0.00     0.029 A 
ATOM     63  C   UNL     1     -11.821  -4.146   6.660  1.00  0.00     0.049 A 
ATOM     64  H   UNL     1     -10.378  -5.541   6.103  1.00  0.00     0.167 HD
ATOM     65  C   UNL     1     -10.030  -4.176   8.383  1.00  0.00     0.074 A 
ATOM     66  C   UNL     1      -8.906  -4.825   7.659  1.00  0.00     0.031 C 
ATOM     67  C   UNL     1     -11.239  -3.719   7.912  1.00  0.00     0.037 A 
BRANCH  54  68
ATOM     68  C   UNL     1     -10.153  -6.753   3.478  1.00  0.00     0.058 A 
ATOM     69  C   UNL     1     -10.792  -7.923   3.934  1.00  0.00     0.135 A 
ATOM     70  C   UNL     1      -8.763  -6.885   3.235  1.00  0.00     0.135 A 
ATOM     71  F   UNL     1     -12.108  -7.916   4.202  1.00  0.00    -0.206 F 
ATOM     72  C   UNL     1     -10.110  -9.117   4.167  1.00  0.00     0.059 A 
ATOM     73  C   UNL     1      -8.067  -8.086   3.416  1.00  0.00     0.059 A 
ATOM     74  F   UNL     1      -8.001  -5.846   2.870  1.00  0.00    -0.206 F 
ATOM     75  C   UNL     1      -8.750  -9.195   3.893  1.00  0.00     0.060 A 
BRANCH  75  76
ATOM     76  S   UNL     1      -7.919 -10.779   4.124  1.00  0.00     0.124 S 
ATOM     77  O   UNL     1      -8.047 -10.983   5.562  1.00  0.00    -0.237 OA
ATOM     78  O   UNL     1      -8.727 -11.656   3.281  1.00  0.00    -0.237 OA
ATOM     79  O   UNL     1      -6.566 -10.527   3.638  1.00  0.00    -0.744 OA
ENDBRANCH  75  76
ENDBRANCH  54  68
BRANCH  55  80
ATOM     80  C   UNL     1      -5.880  -2.688  10.040  1.00  0.00     0.058 A 
ATOM     81  C   UNL     1      -5.486  -3.397  11.228  1.00  0.00     0.135 A 
ATOM     82  C   UNL     1      -4.793  -2.279   9.259  1.00  0.00     0.135 A 
ATOM     83  F   UNL     1      -6.407  -3.905  12.066  1.00  0.00    -0.206 F 
ATOM     84  C   UNL     1      -4.116  -3.645  11.584  1.00  0.00     0.059 A 
ATOM     85  C   UNL     1      -3.451  -2.523   9.578  1.00  0.00     0.059 A 
ATOM     86  F   UNL     1      -5.015  -1.689   8.079  1.00  0.00    -0.206 F 
ATOM     87  C   UNL     1      -3.101  -3.211  10.731  1.00  0.00     0.060 A 
BRANCH  87  88
ATOM     88  S   UNL     1      -1.336  -3.594  11.016  1.00  0.00     0.124 S 
ATOM     89  O   UNL     1      -1.041  -2.850  12.236  1.00  0.00    -0.237 OA
ATOM     90  O   UNL     1      -1.337  -5.047  11.142  1.00  0.00    -0.237 OA
ATOM     91  O   UNL     1      -0.684  -3.081   9.812  1.00  0.00    -0.744 OA
ENDBRANCH  87  88
ENDBRANCH  55  80
BRANCH  67  92
ATOM     92  C   UNL     1     -12.071  -2.745   8.733  1.00  0.00     0.058 A 
ATOM     93  C   UNL     1     -11.892  -1.348   8.851  1.00  0.00     0.135 A 
ATOM     94  C   UNL     1     -13.263  -3.253   9.256  1.00  0.00     0.135 A 
ATOM     95  F   UNL     1     -10.877  -0.728   8.239  1.00  0.00    -0.206 F 
ATOM     96  C   UNL     1     -12.810  -0.522   9.525  1.00  0.00     0.059 A 
ATOM     97  C   UNL     1     -14.210  -2.452   9.887  1.00  0.00     0.059 A 
ATOM     98  F   UNL     1     -13.566  -4.548   9.072  1.00  0.00    -0.206 F 
ATOM     99  C   UNL     1     -13.969  -1.091  10.046  1.00  0.00     0.060 A 
BRANCH  99 100
ATOM    100  S   UNL     1     -15.199  -0.049  10.868  1.00  0.00     0.124 S 
ATOM    101  O   UNL     1     -14.484   0.389  12.062  1.00  0.00    -0.237 OA
ATOM    102  O   UNL     1     -15.455   0.985   9.869  1.00  0.00    -0.237 OA
ATOM    103  O   UNL     1     -16.313  -0.962  11.109  1.00  0.00    -0.744 OA
ENDBRANCH  99 100
ENDBRANCH  67  92
ENDBRANCH  41  42
ENDBRANCH  33  36
ENDBRANCH  31  32
ENDBRANCH   1  31
TORSDOF 17
