REMARK SMILES Cc1cc(C(=O)N2CCO[C@H](C)C2)sc1/C=C/C(=O)NCCCNC(=O)c1ccc(-c2c3nc(c(-c4c(F)cc(S(=O)(=O)[O-])cc4F)c4ccc([nH]4)c(-c4c(F)cc(S(=O)(=O)[O-])cc4F)c4nc(c(-c5c(F)cc(S(=O)(=O)[O-])cc5F)c5ccc2[nH]5)C=C4)C=C3)cc1
REMARK SMILES IDX 22 1 21 2 20 3 18 4 19 5 17 7 16 8 15 9 1 10 2 11 3 12 4 13
REMARK SMILES IDX 14 14 5 15 6 16 7 17 8 18 13 19 9 20 11 21 10 22 12 23 23 24
REMARK SMILES IDX 24 25 25 26 26 28 27 29 28 30 92 31 29 32 91 33 30 34 31 35
REMARK SMILES IDX 32 36 85 37 33 38 90 39 84 40 86 41 34 42 89 43 83 44 82 45
REMARK SMILES IDX 35 47 69 48 48 49 68 50 49 51 52 52 67 53 87 54 50 55 51 56
REMARK SMILES IDX 66 58 88 59 53 60 36 61 37 62 46 63 38 64 39 65 45 66 47 67
REMARK SMILES IDX 40 68 41 69 42 70 43 71 44 72 70 73 71 74 80 75 72 76 73 77
REMARK SMILES IDX 79 78 81 79 74 80 75 81 76 82 77 83 78 84 54 85 55 86 64 87
REMARK SMILES IDX 56 88 57 89 63 90 65 91 58 92 59 93 60 94 61 95 62 96
REMARK H PARENT 20 6 24 27 86 46 52 57
REMARK Flexibility Score: inf
ROOT
ATOM      1  C   UNL     1       3.182  -4.630   0.630  1.00  0.00     0.042 C 
ENDROOT
BRANCH   1   2
ATOM      2  C   UNL     1       2.219  -4.700  -0.552  1.00  0.00     0.118 C 
BRANCH   2   3
ATOM      3  N   UNL     1       0.946  -5.290  -0.173  1.00  0.00    -0.352 N 
ATOM      4  C   UNL     1      -0.277  -4.712  -0.035  1.00  0.00     0.244 C 
ATOM      5  O   UNL     1      -1.270  -5.406   0.163  1.00  0.00    -0.270 OA
ATOM      6  H   UNL     1       0.973  -6.256   0.013  1.00  0.00     0.163 HD
BRANCH   4   7
ATOM      7  C   UNL     1      -0.433  -3.258  -0.224  1.00  0.00     0.072 C 
ATOM      8  C   UNL     1       0.278  -2.346   0.457  1.00  0.00     0.025 C 
BRANCH   8   9
ATOM      9  C   UNL     1       0.099  -0.943   0.267  1.00  0.00     0.031 A 
ATOM     10  C   UNL     1       2.542  -0.126   0.301  1.00  0.00     0.046 C 
ATOM     11  C   UNL     1       1.058   0.064   0.235  1.00  0.00    -0.032 A 
ATOM     12  C   UNL     1       0.452   1.359   0.083  1.00  0.00     0.029 A 
ATOM     13  C   UNL     1      -0.925   1.318  -0.031  1.00  0.00     0.093 A 
ATOM     14  S   UNL     1      -1.472  -0.291   0.040  1.00  0.00    -0.130 S 
BRANCH  13  15
ATOM     15  C   UNL     1      -1.798   2.434  -0.386  1.00  0.00     0.264 C 
ATOM     16  O   UNL     1      -1.347   3.409  -0.991  1.00  0.00    -0.268 OA
BRANCH  15  17
ATOM     17  N   UNL     1      -3.166   2.366  -0.132  1.00  0.00    -0.333 N 
ATOM     18  C   UNL     1      -4.087   3.045  -1.036  1.00  0.00     0.148 C 
ATOM     19  C   UNL     1      -3.836   1.695   0.988  1.00  0.00     0.151 C 
ATOM     20  C   UNL     1      -5.133   2.035  -1.524  1.00  0.00     0.182 C 
ATOM     21  C   UNL     1      -4.931   0.744   0.464  1.00  0.00     0.134 C 
ATOM     22  O   UNL     1      -5.837   1.448  -0.415  1.00  0.00    -0.375 OA
ATOM     23  C   UNL     1      -5.755   0.167   1.606  1.00  0.00     0.040 C 
ENDBRANCH  15  17
ENDBRANCH  13  15
ENDBRANCH   8   9
ENDBRANCH   4   7
ENDBRANCH   2   3
ENDBRANCH   1   2
BRANCH   1  24
ATOM     24  C   UNL     1       3.743  -5.989   1.042  1.00  0.00     0.118 C 
BRANCH  24  25
ATOM     25  N   UNL     1       4.651  -6.528   0.042  1.00  0.00    -0.352 N 
ATOM     26  C   UNL     1       5.963  -6.913   0.157  1.00  0.00     0.251 C 
ATOM     27  H   UNL     1       4.264  -6.634  -0.858  1.00  0.00     0.163 HD
ATOM     28  O   UNL     1       6.612  -7.133  -0.862  1.00  0.00    -0.269 OA
BRANCH  26  29
ATOM     29  C   UNL     1       6.602  -7.055   1.485  1.00  0.00     0.039 A 
ATOM     30  C   UNL     1       7.927  -6.633   1.640  1.00  0.00     0.014 A 
ATOM     31  C   UNL     1       5.932  -7.650   2.558  1.00  0.00     0.014 A 
ATOM     32  C   UNL     1       8.562  -6.766   2.877  1.00  0.00     0.010 A 
ATOM     33  C   UNL     1       6.545  -7.727   3.808  1.00  0.00     0.010 A 
ATOM     34  C   UNL     1       7.868  -7.293   3.978  1.00  0.00    -0.014 A 
BRANCH  34  35
ATOM     35  C   UNL     1       8.515  -7.406   5.311  1.00  0.00     0.031 A 
ATOM     36  C   UNL     1       8.783  -8.760   5.910  1.00  0.00     0.074 A 
ATOM     37  C   UNL     1       8.806  -6.290   6.006  1.00  0.00     0.049 A 
ATOM     38  N   UNL     1       9.263  -9.060   7.089  1.00  0.00    -0.248 NA
ATOM     39  C   UNL     1       8.443  -9.929   5.084  1.00  0.00     0.031 C 
ATOM     40  C   UNL     1       8.555  -4.920   5.551  1.00  0.00     0.029 A 
ATOM     41  N   UNL     1       9.366  -6.130   7.248  1.00  0.00    -0.354 N 
ATOM     42  C   UNL     1       9.266 -10.449   7.155  1.00  0.00     0.074 A 
ATOM     43  C   UNL     1       8.702 -10.931   5.912  1.00  0.00     0.031 C 
ATOM     44  C   UNL     1       8.971  -4.061   6.495  1.00  0.00     0.029 A 
ATOM     45  C   UNL     1       9.490  -4.816   7.632  1.00  0.00     0.049 A 
ATOM     46  H   UNL     1       9.652  -6.885   7.812  1.00  0.00     0.167 HD
ATOM     47  C   UNL     1       9.713 -11.249   8.153  1.00  0.00     0.037 A 
ATOM     48  C   UNL     1       9.962  -4.279   8.774  1.00  0.00     0.037 A 
ATOM     49  C   UNL     1      10.302 -10.767   9.375  1.00  0.00     0.049 A 
ATOM     50  C   UNL     1      10.478  -5.186   9.855  1.00  0.00     0.074 A 
ATOM     51  C   UNL     1      10.831 -11.498  10.424  1.00  0.00     0.029 A 
ATOM     52  N   UNL     1      10.445  -9.428   9.709  1.00  0.00    -0.354 N 
ATOM     53  N   UNL     1      10.513  -6.497   9.883  1.00  0.00    -0.248 NA
ATOM     54  C   UNL     1      11.027  -4.543  11.057  1.00  0.00     0.031 C 
ATOM     55  C   UNL     1      11.272 -10.601  11.405  1.00  0.00     0.029 A 
ATOM     56  C   UNL     1      11.047  -9.312  10.951  1.00  0.00     0.049 A 
ATOM     57  H   UNL     1      10.161  -8.672   9.147  1.00  0.00     0.167 HD
ATOM     58  C   UNL     1      11.104  -6.835  11.094  1.00  0.00     0.074 A 
ATOM     59  C   UNL     1      11.421  -5.592  11.767  1.00  0.00     0.031 C 
ATOM     60  C   UNL     1      11.360  -8.065  11.603  1.00  0.00     0.037 A 
BRANCH  47  61
ATOM     61  C   UNL     1       9.586 -12.734   7.958  1.00  0.00     0.058 A 
ATOM     62  C   UNL     1      10.408 -13.429   7.056  1.00  0.00     0.135 A 
ATOM     63  C   UNL     1       8.649 -13.476   8.695  1.00  0.00     0.135 A 
ATOM     64  F   UNL     1      11.309 -12.765   6.315  1.00  0.00    -0.206 F 
ATOM     65  C   UNL     1      10.284 -14.801   6.867  1.00  0.00     0.059 A 
ATOM     66  C   UNL     1       8.524 -14.854   8.540  1.00  0.00     0.059 A 
ATOM     67  F   UNL     1       7.840 -12.862   9.572  1.00  0.00    -0.206 F 
ATOM     68  C   UNL     1       9.334 -15.504   7.610  1.00  0.00     0.060 A 
BRANCH  68  69
ATOM     69  S   UNL     1       9.177 -17.284   7.350  1.00  0.00     0.124 S 
ATOM     70  O   UNL     1       8.442 -17.328   6.090  1.00  0.00    -0.237 OA
ATOM     71  O   UNL     1      10.569 -17.718   7.286  1.00  0.00    -0.237 OA
ATOM     72  O   UNL     1       8.437 -17.734   8.525  1.00  0.00    -0.744 OA
ENDBRANCH  68  69
ENDBRANCH  47  61
BRANCH  48  73
ATOM     73  C   UNL     1       9.990  -2.803   8.936  1.00  0.00     0.058 A 
ATOM     74  C   UNL     1      11.198  -2.095   8.858  1.00  0.00     0.135 A 
ATOM     75  C   UNL     1       8.811  -2.070   9.140  1.00  0.00     0.135 A 
ATOM     76  F   UNL     1      12.351  -2.755   8.670  1.00  0.00    -0.206 F 
ATOM     77  C   UNL     1      11.239  -0.711   8.984  1.00  0.00     0.059 A 
ATOM     78  C   UNL     1       8.825  -0.683   9.249  1.00  0.00     0.059 A 
ATOM     79  F   UNL     1       7.629  -2.702   9.203  1.00  0.00    -0.206 F 
ATOM     80  C   UNL     1      10.046  -0.013   9.176  1.00  0.00     0.060 A 
BRANCH  80  81
ATOM     81  S   UNL     1      10.099   1.790   9.270  1.00  0.00     0.124 S 
ATOM     82  O   UNL     1      10.589   1.999  10.627  1.00  0.00    -0.237 OA
ATOM     83  O   UNL     1      11.027   2.129   8.195  1.00  0.00    -0.237 OA
ATOM     84  O   UNL     1       8.711   2.176   9.031  1.00  0.00    -0.744 OA
ENDBRANCH  80  81
ENDBRANCH  48  73
BRANCH  60  85
ATOM     85  C   UNL     1      12.039  -8.127  12.941  1.00  0.00     0.058 A 
ATOM     86  C   UNL     1      11.342  -7.864  14.130  1.00  0.00     0.135 A 
ATOM     87  C   UNL     1      13.390  -8.496  13.037  1.00  0.00     0.135 A 
ATOM     88  F   UNL     1      10.051  -7.500  14.090  1.00  0.00    -0.206 F 
ATOM     89  C   UNL     1      11.967  -7.946  15.370  1.00  0.00     0.059 A 
ATOM     90  C   UNL     1      14.030  -8.605  14.268  1.00  0.00     0.059 A 
ATOM     91  F   UNL     1      14.097  -8.766  11.928  1.00  0.00    -0.206 F 
ATOM     92  C   UNL     1      13.313  -8.316  15.428  1.00  0.00     0.060 A 
BRANCH  92  93
ATOM     93  S   UNL     1      14.108  -8.450  17.044  1.00  0.00     0.124 S 
ATOM     94  O   UNL     1      14.357  -7.049  17.365  1.00  0.00    -0.237 OA
ATOM     95  O   UNL     1      13.084  -9.112  17.846  1.00  0.00    -0.237 OA
ATOM     96  O   UNL     1      15.296  -9.254  16.769  1.00  0.00    -0.744 OA
ENDBRANCH  92  93
ENDBRANCH  60  85
ENDBRANCH  34  35
ENDBRANCH  26  29
ENDBRANCH  24  25
ENDBRANCH   1  24
TORSDOF 16
