REMARK SMILES COc1cccc(S(=O)(=O)N[C@H](CC(C)C)C(=O)NCCCNC(=O)c2ccc(-c3c4nc(c(-c5c(F)cc(S(=O)(=O)[O-])cc5F)c5ccc([nH]5)c(-c5c(F)cc(S(=O)(=O)[O-])cc5F)c5nc(c(-c6c(F)cc(S(=O)(=O)[O-])cc6F)c6ccc3[nH]6)C=C5)C=C4)cc2)c1
REMARK SMILES IDX 20 1 19 2 17 3 18 4 12 6 11 7 8 9 9 10 10 11 7 12 3 13 4 14
REMARK SMILES IDX 92 15 5 16 6 17 2 18 1 19 13 20 14 21 15 22 16 23 21 24
REMARK SMILES IDX 22 25 23 26 24 27 25 29 26 30 27 31 91 32 28 33 90 34 29 35
REMARK SMILES IDX 30 36 31 37 84 38 32 39 89 40 83 41 85 42 33 43 88 44 82 45
REMARK SMILES IDX 81 46 34 48 68 49 47 50 67 51 48 52 51 53 66 54 86 55 49 56
REMARK SMILES IDX 50 57 65 59 87 60 52 61 35 62 36 63 45 64 37 65 38 66 44 67
REMARK SMILES IDX 46 68 39 69 40 70 41 71 42 72 43 73 69 74 70 75 79 76 71 77
REMARK SMILES IDX 72 78 78 79 80 80 73 81 74 82 75 83 76 84 77 85 53 86 54 87
REMARK SMILES IDX 63 88 55 89 56 90 62 91 64 92 57 93 58 94 59 95 60 96 61 97
REMARK H PARENT 19 5 11 8 23 28 85 47 51 58
REMARK Flexibility Score: inf
ROOT
ATOM      1  C   UNL     1       8.349   1.677  -0.893  1.00  0.00     0.117 C 
ENDROOT
BRANCH   1   2
ATOM      2  N   UNL     1       7.204   0.835  -0.549  1.00  0.00    -0.355 N 
ATOM      3  C   UNL     1       5.887   1.077  -0.250  1.00  0.00     0.238 C 
ATOM      4  O   UNL     1       5.138   0.133  -0.524  1.00  0.00    -0.273 OA
ATOM      5  H   UNL     1       7.429  -0.123  -0.527  1.00  0.00     0.163 HD
BRANCH   3   6
ATOM      6  C   UNL     1       5.315   2.399   0.355  1.00  0.00     0.159 C 
BRANCH   6   7
ATOM      7  N   UNL     1       6.435   3.337   0.596  1.00  0.00    -0.199 NA
ATOM      8  H   UNL     1       7.240   2.892   0.155  1.00  0.00     0.142 HD
BRANCH   7   9
ATOM      9  S   UNL     1       7.017   3.909   2.054  1.00  0.00     0.241 S 
ATOM     10  O   UNL     1       5.932   4.504   2.789  1.00  0.00    -0.207 OA
ATOM     11  O   UNL     1       8.155   4.714   1.643  1.00  0.00    -0.207 OA
BRANCH   9  12
ATOM     12  C   UNL     1       7.676   2.547   3.004  1.00  0.00     0.086 A 
ATOM     13  C   UNL     1       7.900   0.182   3.542  1.00  0.00     0.120 A 
ATOM     14  C   UNL     1       8.807   0.509   4.545  1.00  0.00     0.046 A 
ATOM     15  C   UNL     1       7.326   1.205   2.791  1.00  0.00     0.068 A 
ATOM     16  C   UNL     1       9.172   1.839   4.763  1.00  0.00     0.005 A 
ATOM     17  C   UNL     1       8.615   2.859   3.989  1.00  0.00     0.022 A 
BRANCH  13  18
ATOM     18  O   UNL     1       7.613  -1.148   3.407  1.00  0.00    -0.497 OA
ATOM     19  C   UNL     1       7.273  -1.605   2.102  1.00  0.00     0.278 C 
ENDBRANCH  13  18
ENDBRANCH   9  12
ENDBRANCH   7   9
ENDBRANCH   6   7
BRANCH   6  20
ATOM     20  C   UNL     1       4.382   2.353   1.600  1.00  0.00     0.033 C 
BRANCH  20  21
ATOM     21  C   UNL     1       3.190   1.419   1.902  1.00  0.00    -0.015 C 
ATOM     22  C   UNL     1       3.406  -0.074   1.718  1.00  0.00     0.007 C 
ATOM     23  C   UNL     1       2.837   1.636   3.397  1.00  0.00     0.007 C 
ENDBRANCH  20  21
ENDBRANCH   6  20
ENDBRANCH   3   6
ENDBRANCH   1   2
BRANCH   1  24
ATOM     24  C   UNL     1       9.527   1.696   0.095  1.00  0.00     0.042 C 
BRANCH  24  25
ATOM     25  C   UNL     1      10.146   0.336   0.460  1.00  0.00     0.118 C 
BRANCH  25  26
ATOM     26  N   UNL     1      11.556   0.292   0.107  1.00  0.00    -0.352 N 
ATOM     27  C   UNL     1      12.712   0.205   0.838  1.00  0.00     0.251 C 
ATOM     28  H   UNL     1      11.713   0.335  -0.864  1.00  0.00     0.163 HD
ATOM     29  O   UNL     1      13.755   0.479   0.238  1.00  0.00    -0.269 OA
BRANCH  27  30
ATOM     30  C   UNL     1      12.807  -0.219   2.267  1.00  0.00     0.039 A 
ATOM     31  C   UNL     1      13.922   0.243   2.986  1.00  0.00     0.014 A 
ATOM     32  C   UNL     1      11.987  -1.179   2.868  1.00  0.00     0.014 A 
ATOM     33  C   UNL     1      14.232  -0.262   4.255  1.00  0.00     0.010 A 
ATOM     34  C   UNL     1      12.279  -1.661   4.165  1.00  0.00     0.010 A 
ATOM     35  C   UNL     1      13.422  -1.232   4.863  1.00  0.00    -0.014 A 
BRANCH  35  36
ATOM     36  C   UNL     1      13.829  -1.799   6.189  1.00  0.00     0.031 A 
ATOM     37  C   UNL     1      14.341  -3.217   6.314  1.00  0.00     0.074 A 
ATOM     38  C   UNL     1      13.818  -1.019   7.291  1.00  0.00     0.049 A 
ATOM     39  N   UNL     1      14.835  -3.830   7.364  1.00  0.00    -0.248 NA
ATOM     40  C   UNL     1      14.287  -4.054   5.107  1.00  0.00     0.031 C 
ATOM     41  C   UNL     1      13.340   0.363   7.341  1.00  0.00     0.029 A 
ATOM     42  N   UNL     1      14.236  -1.271   8.577  1.00  0.00    -0.354 N 
ATOM     43  C   UNL     1      15.162  -5.116   6.944  1.00  0.00     0.074 A 
ATOM     44  C   UNL     1      14.762  -5.210   5.554  1.00  0.00     0.031 C 
ATOM     45  C   UNL     1      13.511   0.843   8.584  1.00  0.00     0.029 A 
ATOM     46  C   UNL     1      14.099  -0.197   9.426  1.00  0.00     0.049 A 
ATOM     47  H   UNL     1      14.599  -2.140   8.864  1.00  0.00     0.167 HD
ATOM     48  C   UNL     1      15.759  -6.121   7.635  1.00  0.00     0.037 A 
ATOM     49  C   UNL     1      14.415  -0.053  10.729  1.00  0.00     0.037 A 
ATOM     50  C   UNL     1      16.170  -6.045   9.016  1.00  0.00     0.049 A 
ATOM     51  C   UNL     1      15.076  -1.182  11.476  1.00  0.00     0.074 A 
ATOM     52  C   UNL     1      16.790  -7.018   9.785  1.00  0.00     0.029 A 
ATOM     53  N   UNL     1      16.011  -4.939   9.835  1.00  0.00    -0.354 N 
ATOM     54  N   UNL     1      15.411  -2.374  11.044  1.00  0.00    -0.248 NA
ATOM     55  C   UNL     1      15.417  -0.939  12.887  1.00  0.00     0.031 C 
ATOM     56  C   UNL     1      16.981  -6.508  11.075  1.00  0.00     0.029 A 
ATOM     57  C   UNL     1      16.513  -5.206  11.100  1.00  0.00     0.049 A 
ATOM     58  H   UNL     1      15.601  -4.087   9.559  1.00  0.00     0.167 HD
ATOM     59  C   UNL     1      16.019  -3.011  12.121  1.00  0.00     0.074 A 
ATOM     60  C   UNL     1      16.025  -2.069  13.219  1.00  0.00     0.031 C 
ATOM     61  C   UNL     1      16.524  -4.268  12.192  1.00  0.00     0.037 A 
BRANCH  48  62
ATOM     62  C   UNL     1      16.029  -7.407   6.899  1.00  0.00     0.058 A 
ATOM     63  C   UNL     1      17.059  -7.501   5.951  1.00  0.00     0.135 A 
ATOM     64  C   UNL     1      15.297  -8.570   7.189  1.00  0.00     0.135 A 
ATOM     65  F   UNL     1      17.784  -6.417   5.631  1.00  0.00    -0.206 F 
ATOM     66  C   UNL     1      17.340  -8.696   5.296  1.00  0.00     0.059 A 
ATOM     67  C   UNL     1      15.576  -9.783   6.562  1.00  0.00     0.059 A 
ATOM     68  F   UNL     1      14.307  -8.539   8.093  1.00  0.00    -0.206 F 
ATOM     69  C   UNL     1      16.591  -9.832   5.608  1.00  0.00     0.060 A 
BRANCH  69  70
ATOM     70  S   UNL     1      16.972 -11.378   4.755  1.00  0.00     0.124 S 
ATOM     71  O   UNL     1      16.398 -11.130   3.436  1.00  0.00    -0.237 OA
ATOM     72  O   UNL     1      18.429 -11.420   4.814  1.00  0.00    -0.237 OA
ATOM     73  O   UNL     1      16.287 -12.386   5.558  1.00  0.00    -0.744 OA
ENDBRANCH  69  70
ENDBRANCH  48  62
BRANCH  49  74
ATOM     74  C   UNL     1      14.124   1.228  11.427  1.00  0.00     0.058 A 
ATOM     75  C   UNL     1      15.156   2.096  11.815  1.00  0.00     0.135 A 
ATOM     76  C   UNL     1      12.807   1.594  11.743  1.00  0.00     0.135 A 
ATOM     77  F   UNL     1      16.433   1.782  11.545  1.00  0.00    -0.206 F 
ATOM     78  C   UNL     1      14.896   3.270  12.514  1.00  0.00     0.059 A 
ATOM     79  C   UNL     1      12.520   2.774  12.419  1.00  0.00     0.059 A 
ATOM     80  F   UNL     1      11.785   0.803  11.382  1.00  0.00    -0.206 F 
ATOM     81  C   UNL     1      13.573   3.599  12.815  1.00  0.00     0.060 A 
BRANCH  81  82
ATOM     82  S   UNL     1      13.235   5.138  13.696  1.00  0.00     0.124 S 
ATOM     83  O   UNL     1      13.554   4.766  15.069  1.00  0.00    -0.237 OA
ATOM     84  O   UNL     1      14.156   6.072  13.056  1.00  0.00    -0.237 OA
ATOM     85  O   UNL     1      11.821   5.376  13.417  1.00  0.00    -0.744 OA
ENDBRANCH  81  82
ENDBRANCH  49  74
BRANCH  61  86
ATOM     86  C   UNL     1      17.152  -4.688  13.494  1.00  0.00     0.058 A 
ATOM     87  C   UNL     1      16.375  -4.968  14.630  1.00  0.00     0.135 A 
ATOM     88  C   UNL     1      18.545  -4.822  13.606  1.00  0.00     0.135 A 
ATOM     89  F   UNL     1      15.039  -4.853  14.579  1.00  0.00    -0.206 F 
ATOM     90  C   UNL     1      16.959  -5.331  15.841  1.00  0.00     0.059 A 
ATOM     91  C   UNL     1      19.149  -5.205  14.801  1.00  0.00     0.059 A 
ATOM     92  F   UNL     1      19.335  -4.577  12.549  1.00  0.00    -0.206 F 
ATOM     93  C   UNL     1      18.349  -5.439  15.918  1.00  0.00     0.060 A 
BRANCH  93  94
ATOM     94  S   UNL     1      19.100  -5.910  17.493  1.00  0.00     0.124 S 
ATOM     95  O   UNL     1      19.044  -4.653  18.232  1.00  0.00    -0.237 OA
ATOM     96  O   UNL     1      18.208  -6.964  17.967  1.00  0.00    -0.237 OA
ATOM     97  O   UNL     1      20.436  -6.356  17.110  1.00  0.00    -0.744 OA
ENDBRANCH  93  94
ENDBRANCH  61  86
ENDBRANCH  35  36
ENDBRANCH  27  30
ENDBRANCH  25  26
ENDBRANCH  24  25
ENDBRANCH   1  24
TORSDOF 19
