REMARK SMILES C[NH2+][C@]1(C(=O)NCCCNC(=O)c2ccc(-c3c4nc(c(-c5c(F)cc(S(=O)(=O)[O-])cc5F)c5ccc([nH]5)c(-c5c(F)cc(S(=O)(=O)[O-])cc5F)c5nc(c(-c6c(F)cc(S(=O)(=O)[O-])cc6F)c6ccc3[nH]6)C=C5)C=C4)cc2)CC[C@@H](OCCCc2ccccc2)C1
REMARK SMILES IDX 7 1 6 2 4 3 5 4 3 6 79 7 92 8 80 9 81 10 2 11 1 12 82 15
REMARK SMILES IDX 83 16 84 17 85 18 86 19 87 20 91 21 88 22 90 23 89 24 8 25
REMARK SMILES IDX 9 26 10 27 11 28 12 30 13 31 14 32 78 33 15 34 77 35 16 36
REMARK SMILES IDX 17 37 18 38 71 39 19 40 76 41 70 42 72 43 20 44 75 45 69 46
REMARK SMILES IDX 68 47 21 49 55 50 34 51 54 52 35 53 38 54 53 55 73 56 36 57
REMARK SMILES IDX 37 58 52 60 74 61 39 62 22 63 23 64 32 65 24 66 25 67 31 68
REMARK SMILES IDX 33 69 26 70 27 71 28 72 29 73 30 74 56 75 57 76 66 77 58 78
REMARK SMILES IDX 59 79 65 80 67 81 60 82 61 83 62 84 63 85 64 86 40 87 41 88
REMARK SMILES IDX 50 89 42 90 43 91 49 92 51 93 44 94 45 95 46 96 47 97 48 98
REMARK H PARENT 6 5 2 13 2 14 10 29 72 48 38 59
REMARK Flexibility Score: inf
ROOT
ATOM      1  C   UNL     1       0.936   0.588  -4.718  1.00  0.00     0.118 C 
ENDROOT
BRANCH   1   2
ATOM      2  N   UNL     1       1.169   0.814  -3.103  1.00  0.00    -0.351 N 
ATOM      3  C   UNL     1       0.299   0.710  -1.358  1.00  0.00     0.281 C 
ATOM      4  O   UNL     1       0.882   0.667  -0.212  1.00  0.00    -0.268 OA
ATOM      5  H   UNL     1       2.097   1.114  -2.966  1.00  0.00     0.163 HD
BRANCH   3   6
ATOM      6  C   UNL     1      -1.515   0.625  -0.879  1.00  0.00     0.177 C 
ATOM      7  C   UNL     1      -2.455   1.879  -0.930  1.00  0.00     0.082 C 
ATOM      8  C   UNL     1      -2.461  -0.567  -1.306  1.00  0.00     0.111 C 
ATOM      9  C   UNL     1      -3.818   1.463  -1.491  1.00  0.00     0.039 C 
ATOM     10  C   UNL     1      -3.722   0.020  -1.945  1.00  0.00     0.125 C 
BRANCH   6  11
ATOM     11  N   UNL     1      -1.404   0.345   0.658  1.00  0.00    -0.336 N 
ATOM     12  C   UNL     1      -0.917   1.490   1.456  1.00  0.00     0.331 C 
ATOM     13  H   UNL     1      -2.329   0.087   1.002  1.00  0.00     0.346 HD
ATOM     14  H   UNL     1      -0.716  -0.399   0.769  1.00  0.00     0.346 HD
ENDBRANCH   6  11
BRANCH  10  15
ATOM     15  O   UNL     1      -4.103  -0.151  -3.302  1.00  0.00    -0.378 OA
BRANCH  15  16
ATOM     16  C   UNL     1      -3.209  -0.283  -4.381  1.00  0.00     0.161 C 
BRANCH  16  17
ATOM     17  C   UNL     1      -2.617   1.001  -4.930  1.00  0.00     0.033 C 
BRANCH  17  18
ATOM     18  C   UNL     1      -1.815   1.881  -3.992  1.00  0.00     0.038 C 
BRANCH  18  19
ATOM     19  C   UNL     1      -0.748   1.293  -3.082  1.00  0.00    -0.048 A 
ATOM     20  C   UNL     1      -0.290  -0.505  -2.928  1.00  0.00     0.004 A 
ATOM     21  C   UNL     1       0.410   2.545  -2.403  1.00  0.00     0.004 A 
ATOM     22  C   UNL     1       1.304  -0.986  -2.175  1.00  0.00     0.000 A 
ATOM     23  C   UNL     1       1.995   2.044  -1.672  1.00  0.00     0.000 A 
ATOM     24  C   UNL     1       2.463   0.276  -1.578  1.00  0.00     0.000 A 
ENDBRANCH  18  19
ENDBRANCH  17  18
ENDBRANCH  16  17
ENDBRANCH  15  16
ENDBRANCH  10  15
ENDBRANCH   3   6
ENDBRANCH   1   2
BRANCH   1  25
ATOM     25  C   UNL     1       1.379   1.814  -5.492  1.00  0.00     0.042 C 
BRANCH  25  26
ATOM     26  C   UNL     1       2.870   2.026  -5.349  1.00  0.00     0.118 C 
BRANCH  26  27
ATOM     27  N   UNL     1       3.598   0.871  -5.876  1.00  0.00    -0.352 N 
ATOM     28  C   UNL     1       4.029   0.707  -7.171  1.00  0.00     0.251 C 
ATOM     29  H   UNL     1       3.797   0.144  -5.244  1.00  0.00     0.163 HD
ATOM     30  O   UNL     1       4.176  -0.403  -7.663  1.00  0.00    -0.269 OA
BRANCH  28  31
ATOM     31  C   UNL     1       4.303   1.940  -7.925  1.00  0.00     0.039 A 
ATOM     32  C   UNL     1       3.844   2.107  -9.228  1.00  0.00     0.014 A 
ATOM     33  C   UNL     1       4.931   2.981  -7.237  1.00  0.00     0.014 A 
ATOM     34  C   UNL     1       3.983   3.359  -9.826  1.00  0.00     0.010 A 
ATOM     35  C   UNL     1       4.895   4.253  -7.762  1.00  0.00     0.010 A 
ATOM     36  C   UNL     1       4.481   4.445  -9.084  1.00  0.00    -0.014 A 
BRANCH  36  37
ATOM     37  C   UNL     1       4.677   5.786  -9.675  1.00  0.00     0.031 A 
ATOM     38  C   UNL     1       6.060   6.388  -9.661  1.00  0.00     0.074 A 
ATOM     39  C   UNL     1       3.620   6.478 -10.140  1.00  0.00     0.049 A 
ATOM     40  N   UNL     1       6.445   7.578 -10.036  1.00  0.00    -0.248 NA
ATOM     41  C   UNL     1       7.147   5.561  -9.101  1.00  0.00     0.031 C 
ATOM     42  C   UNL     1       2.230   6.015 -10.134  1.00  0.00     0.029 A 
ATOM     43  N   UNL     1       3.552   7.723 -10.706  1.00  0.00    -0.354 N 
ATOM     44  C   UNL     1       7.801   7.643  -9.733  1.00  0.00     0.074 A 
ATOM     45  C   UNL     1       8.152   6.419  -9.057  1.00  0.00     0.031 C 
ATOM     46  C   UNL     1       1.455   6.944 -10.716  1.00  0.00     0.029 A 
ATOM     47  C   UNL     1       2.283   8.086 -11.089  1.00  0.00     0.049 A 
ATOM     48  H   UNL     1       4.338   8.303 -10.828  1.00  0.00     0.167 HD
ATOM     49  C   UNL     1       8.686   8.619 -10.034  1.00  0.00     0.037 A 
ATOM     50  C   UNL     1       1.845   9.217 -11.674  1.00  0.00     0.037 A 
ATOM     51  C   UNL     1       8.326   9.812 -10.748  1.00  0.00     0.049 A 
ATOM     52  C   UNL     1       2.848  10.289 -12.005  1.00  0.00     0.074 A 
ATOM     53  C   UNL     1       9.146  10.840 -11.172  1.00  0.00     0.029 A 
ATOM     54  N   UNL     1       7.035  10.133 -11.143  1.00  0.00    -0.354 N 
ATOM     55  N   UNL     1       4.143  10.304 -11.785  1.00  0.00    -0.248 NA
ATOM     56  C   UNL     1       2.337  11.493 -12.670  1.00  0.00     0.031 C 
ATOM     57  C   UNL     1       8.341  11.815 -11.767  1.00  0.00     0.029 A 
ATOM     58  C   UNL     1       7.031  11.361 -11.781  1.00  0.00     0.049 A 
ATOM     59  H   UNL     1       6.241   9.572 -10.992  1.00  0.00     0.167 HD
ATOM     60  C   UNL     1       4.605  11.503 -12.316  1.00  0.00     0.074 A 
ATOM     61  C   UNL     1       3.453  12.178 -12.878  1.00  0.00     0.031 C 
ATOM     62  C   UNL     1       5.867  12.003 -12.340  1.00  0.00     0.037 A 
BRANCH  49  63
ATOM     63  C   UNL     1      10.114   8.429  -9.598  1.00  0.00     0.058 A 
ATOM     64  C   UNL     1      10.930   7.420 -10.139  1.00  0.00     0.135 A 
ATOM     65  C   UNL     1      10.682   9.280  -8.636  1.00  0.00     0.135 A 
ATOM     66  F   UNL     1      10.435   6.561 -11.045  1.00  0.00    -0.206 F 
ATOM     67  C   UNL     1      12.243   7.241  -9.718  1.00  0.00     0.059 A 
ATOM     68  C   UNL     1      12.005   9.143  -8.228  1.00  0.00     0.059 A 
ATOM     69  F   UNL     1       9.948  10.255  -8.078  1.00  0.00    -0.206 F 
ATOM     70  C   UNL     1      12.773   8.111  -8.765  1.00  0.00     0.060 A 
BRANCH  70  71
ATOM     71  S   UNL     1      14.485   7.875  -8.244  1.00  0.00     0.124 S 
ATOM     72  O   UNL     1      14.388   6.636  -7.479  1.00  0.00    -0.237 OA
ATOM     73  O   UNL     1      15.185   7.777  -9.521  1.00  0.00    -0.237 OA
ATOM     74  O   UNL     1      14.772   9.073  -7.463  1.00  0.00    -0.744 OA
ENDBRANCH  70  71
ENDBRANCH  49  63
BRANCH  50  75
ATOM     75  C   UNL     1       0.404   9.374 -12.011  1.00  0.00     0.058 A 
ATOM     76  C   UNL     1      -0.027   9.403 -13.346  1.00  0.00     0.135 A 
ATOM     77  C   UNL     1      -0.573   9.482 -11.009  1.00  0.00     0.135 A 
ATOM     78  F   UNL     1       0.867   9.304 -14.342  1.00  0.00    -0.206 F 
ATOM     79  C   UNL     1      -1.369   9.557 -13.677  1.00  0.00     0.059 A 
ATOM     80  C   UNL     1      -1.925   9.605 -11.314  1.00  0.00     0.059 A 
ATOM     81  F   UNL     1      -0.218   9.437  -9.716  1.00  0.00    -0.206 F 
ATOM     82  C   UNL     1      -2.312   9.654 -12.652  1.00  0.00     0.060 A 
BRANCH  82  83
ATOM     83  S   UNL     1      -4.056   9.812 -13.094  1.00  0.00     0.124 S 
ATOM     84  O   UNL     1      -4.098  11.160 -13.648  1.00  0.00    -0.237 OA
ATOM     85  O   UNL     1      -4.226   8.722 -14.049  1.00  0.00    -0.237 OA
ATOM     86  O   UNL     1      -4.742   9.631 -11.819  1.00  0.00    -0.744 OA
ENDBRANCH  82  83
ENDBRANCH  50  75
BRANCH  62  87
ATOM     87  C   UNL     1       6.077  13.319 -13.035  1.00  0.00     0.058 A 
ATOM     88  C   UNL     1       5.604  14.526 -12.498  1.00  0.00     0.135 A 
ATOM     89  C   UNL     1       6.820  13.375 -14.226  1.00  0.00     0.135 A 
ATOM     90  F   UNL     1       4.886  14.527 -11.364  1.00  0.00    -0.206 F 
ATOM     91  C   UNL     1       5.837  15.740 -13.134  1.00  0.00     0.059 A 
ATOM     92  C   UNL     1       7.096  14.581 -14.858  1.00  0.00     0.059 A 
ATOM     93  F   UNL     1       7.307  12.250 -14.774  1.00  0.00    -0.206 F 
ATOM     94  C   UNL     1       6.588  15.758 -14.310  1.00  0.00     0.060 A 
BRANCH  94  95
ATOM     95  S   UNL     1       6.911  17.346 -15.103  1.00  0.00     0.124 S 
ATOM     96  O   UNL     1       5.592  17.687 -15.625  1.00  0.00    -0.237 OA
ATOM     97  O   UNL     1       7.383  18.159 -13.987  1.00  0.00    -0.237 OA
ATOM     98  O   UNL     1       7.920  17.026 -16.109  1.00  0.00    -0.744 OA
ENDBRANCH  94  95
ENDBRANCH  62  87
ENDBRANCH  36  37
ENDBRANCH  28  31
ENDBRANCH  26  27
ENDBRANCH  25  26
ENDBRANCH   1  25
TORSDOF 19
