REMARK SMILES C[C@H](Oc1ccc(/C=C2/SC(=S)N(c3ccc(F)c(Cl)c3)C2=O)cc1)C(=O)NCCCNC(=O)c1ccc(-c2c3nc(c(-c4c(F)cc(S(=O)(=O)[O-])cc4F)c4ccc([nH]4)c(-c4c(F)cc(S(=O)(=O)[O-])cc4F)c4nc(c(-c5c(F)cc(S(=O)(=O)[O-])cc5F)c5ccc2[nH]5)C=C4)C=C3)cc1
REMARK SMILES IDX 29 1 28 2 26 3 27 4 2 6 1 7 3 8 4 9 5 10 25 11 6 12 24 13
REMARK SMILES IDX 7 14 8 15 9 16 10 17 22 18 11 19 13 20 23 21 12 22 14 23
REMARK SMILES IDX 15 24 21 25 16 26 19 27 17 28 20 29 18 30 30 31 31 32 32 33
REMARK SMILES IDX 33 34 34 36 35 37 36 38 100 39 37 40 99 41 38 42 39 43 40 44
REMARK SMILES IDX 93 45 41 46 98 47 92 48 94 49 42 50 97 51 91 52 90 53 43 55
REMARK SMILES IDX 77 56 56 57 76 58 57 59 60 60 75 61 95 62 58 63 59 64 74 66
REMARK SMILES IDX 96 67 61 68 44 69 45 70 54 71 46 72 47 73 53 74 55 75 48 76
REMARK SMILES IDX 49 77 50 78 51 79 52 80 78 81 79 82 88 83 80 84 81 85 87 86
REMARK SMILES IDX 89 87 82 88 83 89 84 90 85 91 86 92 62 93 63 94 72 95 64 96
REMARK SMILES IDX 65 97 71 98 73 99 66 100 67 101 68 102 69 103 70 104
REMARK H PARENT 28 5 32 35 94 54 60 65
REMARK Flexibility Score: inf
ROOT
ATOM      1  C   UNL     1      -1.005  -0.763   2.172  1.00  0.00     0.118 C 
ENDROOT
BRANCH   1   2
ATOM      2  N   UNL     1      -1.507  -1.059   0.838  1.00  0.00    -0.353 N 
ATOM      3  C   UNL     1      -0.825  -1.477  -0.275  1.00  0.00     0.260 C 
ATOM      4  O   UNL     1      -1.472  -1.704  -1.301  1.00  0.00    -0.271 OA
ATOM      5  H   UNL     1      -2.477  -0.941   0.718  1.00  0.00     0.163 HD
BRANCH   3   6
ATOM      6  C   UNL     1       0.694  -1.723  -0.218  1.00  0.00     0.258 C 
ATOM      7  C   UNL     1       0.939  -2.942   0.669  1.00  0.00     0.064 C 
BRANCH   6   8
ATOM      8  O   UNL     1       1.248  -0.450   0.096  1.00  0.00    -0.481 OA
BRANCH   8   9
ATOM      9  C   UNL     1       2.411  -0.193   0.737  1.00  0.00     0.120 A 
ATOM     10  C   UNL     1       3.372  -1.094   1.175  1.00  0.00     0.047 A 
ATOM     11  C   UNL     1       2.593   1.167   1.008  1.00  0.00     0.047 A 
ATOM     12  C   UNL     1       4.431  -0.658   1.986  1.00  0.00     0.012 A 
ATOM     13  C   UNL     1       3.665   1.611   1.781  1.00  0.00     0.012 A 
ATOM     14  C   UNL     1       4.556   0.690   2.332  1.00  0.00    -0.024 A 
BRANCH  14  15
ATOM     15  C   UNL     1       5.603   1.120   3.265  1.00  0.00     0.029 C 
ATOM     16  C   UNL     1       5.393   1.745   4.436  1.00  0.00     0.081 C 
ATOM     17  S   UNL     1       6.681   2.299   5.431  1.00  0.00    -0.054 SA
ATOM     18  C   UNL     1       4.083   2.098   5.064  1.00  0.00     0.270 C 
ATOM     19  C   UNL     1       5.593   3.082   6.581  1.00  0.00     0.152 C 
ATOM     20  N   UNL     1       4.277   2.937   6.161  1.00  0.00    -0.261 N 
ATOM     21  O   UNL     1       3.013   1.675   4.642  1.00  0.00    -0.268 OA
ATOM     22  S   UNL     1       6.202   3.722   8.002  1.00  0.00    -0.051 S 
BRANCH  20  23
ATOM     23  C   UNL     1       3.147   3.567   6.782  1.00  0.00     0.052 A 
ATOM     24  C   UNL     1       1.939   2.867   6.959  1.00  0.00     0.030 A 
ATOM     25  C   UNL     1       3.184   4.924   7.148  1.00  0.00     0.050 A 
ATOM     26  C   UNL     1       0.808   3.493   7.488  1.00  0.00     0.043 A 
ATOM     27  C   UNL     1       2.048   5.550   7.676  1.00  0.00     0.078 A 
ATOM     28  C   UNL     1       0.869   4.833   7.843  1.00  0.00     0.141 A 
ATOM     29  Cl  UNL     1       2.110   7.215   8.089  1.00  0.00    -0.081 Cl
ATOM     30  F   UNL     1      -0.232   5.415   8.338  1.00  0.00    -0.205 F 
ENDBRANCH  20  23
ENDBRANCH  14  15
ENDBRANCH   8   9
ENDBRANCH   6   8
ENDBRANCH   3   6
ENDBRANCH   1   2
BRANCH   1  31
ATOM     31  C   UNL     1      -1.294   0.665   2.614  1.00  0.00     0.042 C 
BRANCH  31  32
ATOM     32  C   UNL     1      -2.770   0.964   2.847  1.00  0.00     0.118 C 
BRANCH  32  33
ATOM     33  N   UNL     1      -3.340   0.193   3.946  1.00  0.00    -0.352 N 
ATOM     34  C   UNL     1      -3.983   0.616   5.084  1.00  0.00     0.251 C 
ATOM     35  H   UNL     1      -3.250  -0.783   3.858  1.00  0.00     0.163 HD
ATOM     36  O   UNL     1      -4.240  -0.197   5.968  1.00  0.00    -0.269 OA
BRANCH  34  37
ATOM     37  C   UNL     1      -4.340   2.042   5.263  1.00  0.00     0.039 A 
ATOM     38  C   UNL     1      -4.135   2.637   6.511  1.00  0.00     0.014 A 
ATOM     39  C   UNL     1      -4.887   2.788   4.216  1.00  0.00     0.014 A 
ATOM     40  C   UNL     1      -4.404   3.997   6.685  1.00  0.00     0.010 A 
ATOM     41  C   UNL     1      -5.086   4.158   4.369  1.00  0.00     0.010 A 
ATOM     42  C   UNL     1      -4.844   4.778   5.604  1.00  0.00    -0.014 A 
BRANCH  42  43
ATOM     43  C   UNL     1      -5.044   6.244   5.738  1.00  0.00     0.031 A 
ATOM     44  C   UNL     1      -6.412   6.843   5.555  1.00  0.00     0.074 A 
ATOM     45  C   UNL     1      -3.979   7.044   5.947  1.00  0.00     0.049 A 
ATOM     46  N   UNL     1      -6.767   8.102   5.541  1.00  0.00    -0.248 NA
ATOM     47  C   UNL     1      -7.523   5.905   5.328  1.00  0.00     0.031 C 
ATOM     48  C   UNL     1      -2.593   6.589   6.087  1.00  0.00     0.029 A 
ATOM     49  N   UNL     1      -3.892   8.408   6.066  1.00  0.00    -0.354 N 
ATOM     50  C   UNL     1      -8.132   8.110   5.279  1.00  0.00     0.074 A 
ATOM     51  C   UNL     1      -8.535   6.731   5.103  1.00  0.00     0.031 C 
ATOM     52  C   UNL     1      -1.799   7.653   6.294  1.00  0.00     0.029 A 
ATOM     53  C   UNL     1      -2.610   8.865   6.269  1.00  0.00     0.049 A 
ATOM     54  H   UNL     1      -4.674   9.004   6.012  1.00  0.00     0.167 HD
ATOM     55  C   UNL     1      -8.976   9.167   5.211  1.00  0.00     0.037 A 
ATOM     56  C   UNL     1      -2.139  10.118   6.413  1.00  0.00     0.037 A 
ATOM     57  C   UNL     1      -8.578  10.534   5.426  1.00  0.00     0.049 A 
ATOM     58  C   UNL     1      -3.102  11.272   6.371  1.00  0.00     0.074 A 
ATOM     59  C   UNL     1      -9.370  11.669   5.441  1.00  0.00     0.029 A 
ATOM     60  N   UNL     1      -7.278  10.950   5.671  1.00  0.00    -0.354 N 
ATOM     61  N   UNL     1      -4.399  11.256   6.173  1.00  0.00    -0.248 NA
ATOM     62  C   UNL     1      -2.541  12.614   6.577  1.00  0.00     0.031 C 
ATOM     63  C   UNL     1      -8.543  12.776   5.666  1.00  0.00     0.029 A 
ATOM     64  C   UNL     1      -7.242  12.326   5.827  1.00  0.00     0.049 A 
ATOM     65  H   UNL     1      -6.495  10.355   5.726  1.00  0.00     0.167 HD
ATOM     66  C   UNL     1      -4.811  12.581   6.249  1.00  0.00     0.074 A 
ATOM     67  C   UNL     1      -3.628  13.372   6.523  1.00  0.00     0.031 C 
ATOM     68  C   UNL     1      -6.056  13.096   6.104  1.00  0.00     0.037 A 
BRANCH  55  69
ATOM     69  C   UNL     1     -10.419   8.885   4.897  1.00  0.00     0.058 A 
ATOM     70  C   UNL     1     -11.271   8.279   5.833  1.00  0.00     0.135 A 
ATOM     71  C   UNL     1     -10.965   9.251   3.655  1.00  0.00     0.135 A 
ATOM     72  F   UNL     1     -10.797   7.896   7.030  1.00  0.00    -0.206 F 
ATOM     73  C   UNL     1     -12.605   8.016   5.540  1.00  0.00     0.059 A 
ATOM     74  C   UNL     1     -12.304   9.020   3.350  1.00  0.00     0.059 A 
ATOM     75  F   UNL     1     -10.195   9.834   2.723  1.00  0.00    -0.206 F 
ATOM     76  C   UNL     1     -13.112   8.387   4.294  1.00  0.00     0.060 A 
BRANCH  76  77
ATOM     77  S   UNL     1     -14.845   8.038   3.926  1.00  0.00     0.124 S 
ATOM     78  O   UNL     1     -14.802   6.602   3.667  1.00  0.00    -0.237 OA
ATOM     79  O   UNL     1     -15.515   8.440   5.158  1.00  0.00    -0.237 OA
ATOM     80  O   UNL     1     -15.120   8.878   2.764  1.00  0.00    -0.744 OA
ENDBRANCH  76  77
ENDBRANCH  55  69
BRANCH  56  81
ATOM     81  C   UNL     1      -0.687  10.344   6.631  1.00  0.00     0.058 A 
ATOM     82  C   UNL     1      -0.197  10.717   7.891  1.00  0.00     0.135 A 
ATOM     83  C   UNL     1       0.240  10.179   5.591  1.00  0.00     0.135 A 
ATOM     84  F   UNL     1      -1.048  10.893   8.914  1.00  0.00    -0.206 F 
ATOM     85  C   UNL     1       1.160  10.934   8.112  1.00  0.00     0.059 A 
ATOM     86  C   UNL     1       1.603  10.372   5.792  1.00  0.00     0.059 A 
ATOM     87  F   UNL     1      -0.176   9.805   4.372  1.00  0.00    -0.206 F 
ATOM     88  C   UNL     1       2.053  10.760   7.054  1.00  0.00     0.060 A 
BRANCH  88  89
ATOM     89  S   UNL     1       3.823  10.978   7.347  1.00  0.00     0.124 S 
ATOM     90  O   UNL     1       3.966  12.423   7.206  1.00  0.00    -0.237 OA
ATOM     91  O   UNL     1       3.995  10.451   8.697  1.00  0.00    -0.237 OA
ATOM     92  O   UNL     1       4.434  10.176   6.289  1.00  0.00    -0.744 OA
ENDBRANCH  88  89
ENDBRANCH  56  81
BRANCH  68  93
ATOM     93  C   UNL     1      -6.211  14.582   6.263  1.00  0.00     0.058 A 
ATOM     94  C   UNL     1      -5.805  15.473   5.259  1.00  0.00     0.135 A 
ATOM     95  C   UNL     1      -6.821  15.115   7.410  1.00  0.00     0.135 A 
ATOM     96  F   UNL     1      -5.211  15.013   4.146  1.00  0.00    -0.206 F 
ATOM     97  C   UNL     1      -5.984  16.846   5.392  1.00  0.00     0.059 A 
ATOM     98  C   UNL     1      -7.030  16.482   7.555  1.00  0.00     0.059 A 
ATOM     99  F   UNL     1      -7.234  14.302   8.395  1.00  0.00    -0.206 F 
ATOM    100  C   UNL     1      -6.599  17.341   6.544  1.00  0.00     0.060 A 
BRANCH 100 101
ATOM    101  S   UNL     1      -6.864  19.121   6.690  1.00  0.00     0.124 S 
ATOM    102  O   UNL     1      -5.526  19.591   7.030  1.00  0.00    -0.237 OA
ATOM    103  O   UNL     1      -7.342  19.479   5.357  1.00  0.00    -0.237 OA
ATOM    104  O   UNL     1      -7.858  19.230   7.754  1.00  0.00    -0.744 OA
ENDBRANCH 100 101
ENDBRANCH  68  93
ENDBRANCH  42  43
ENDBRANCH  34  37
ENDBRANCH  32  33
ENDBRANCH  31  32
ENDBRANCH   1  31
TORSDOF 17
