REMARK SMILES Cc1ccc2[nH]c3c(=O)n(CC(=O)NCCCNC(=O)c4ccc(-c5c6nc(c(-c7c(F)cc(S(=O)(=O)[O-])cc7F)c7ccc([nH]7)c(-c7c(F)cc(S(=O)(=O)[O-])cc7F)c7nc(c(-c8c(F)cc(S(=O)(=O)[O-])cc8F)c8ccc5[nH]8)C=C7)C=C6)cc4)cnc3c2c1
REMARK SMILES IDX 17 1 16 2 15 3 14 4 12 5 13 6 11 8 10 9 1 10 2 11 3 12 91 13
REMARK SMILES IDX 4 14 90 15 5 16 89 17 6 18 7 19 88 20 8 22 87 23 9 24 18 25
REMARK SMILES IDX 19 26 20 28 21 29 22 30 86 31 23 32 85 33 24 34 25 35 26 36
REMARK SMILES IDX 79 37 27 38 84 39 78 40 80 41 28 42 83 43 77 44 76 45 29 47
REMARK SMILES IDX 63 48 42 49 62 50 43 51 46 52 61 53 81 54 44 55 45 56 60 58
REMARK SMILES IDX 82 59 47 60 30 61 31 62 40 63 32 64 33 65 39 66 41 67 34 68
REMARK SMILES IDX 35 69 36 70 37 71 38 72 64 73 65 74 74 75 66 76 67 77 73 78
REMARK SMILES IDX 75 79 68 80 69 81 70 82 71 83 72 84 48 85 49 86 58 87 50 88
REMARK SMILES IDX 51 89 57 90 59 91 52 92 53 93 54 94 55 95 56 96
REMARK H PARENT 14 7 6 21 18 27 80 46 46 57
REMARK Flexibility Score: inf
ROOT
ATOM      1  C   UNL     1      -5.807  -3.529  -4.946  1.00  0.00     0.118 C 
ENDROOT
BRANCH   1   2
ATOM      2  C   UNL     1      -4.391  -4.094  -4.815  1.00  0.00     0.042 C 
BRANCH   2   3
ATOM      3  C   UNL     1      -4.005  -5.084  -5.912  1.00  0.00     0.117 C 
BRANCH   3   4
ATOM      4  N   UNL     1      -4.083  -4.518  -7.247  1.00  0.00    -0.354 N 
ATOM      5  C   UNL     1      -3.108  -4.262  -8.163  1.00  0.00     0.240 C 
ATOM      6  O   UNL     1      -3.469  -4.058  -9.326  1.00  0.00    -0.273 OA
ATOM      7  H   UNL     1      -4.992  -4.279  -7.539  1.00  0.00     0.163 HD
BRANCH   5   8
ATOM      8  C   UNL     1      -1.622  -4.373  -7.814  1.00  0.00     0.226 C 
BRANCH   8   9
ATOM      9  N   UNL     1      -1.234  -3.548  -6.684  1.00  0.00    -0.288 N 
ATOM     10  C   UNL     1       0.983  -0.080  -0.074  1.00  0.00     0.044 C 
ATOM     11  C   UNL     1       0.470  -0.025  -1.485  1.00  0.00    -0.050 A 
ATOM     12  C   UNL     1       0.230   1.206  -2.106  1.00  0.00     0.005 A 
ATOM     13  C   UNL     1       0.284  -1.218  -2.204  1.00  0.00     0.016 A 
ATOM     14  C   UNL     1      -0.221   1.286  -3.429  1.00  0.00     0.027 A 
ATOM     15  C   UNL     1      -0.168  -1.164  -3.536  1.00  0.00     0.026 A 
ATOM     16  C   UNL     1      -0.413   0.086  -4.120  1.00  0.00     0.048 A 
ATOM     17  C   UNL     1      -0.464  -2.121  -4.528  1.00  0.00     0.103 A 
ATOM     18  N   UNL     1      -0.842  -0.140  -5.414  1.00  0.00    -0.349 N 
ATOM     19  C   UNL     1      -0.878  -1.483  -5.660  1.00  0.00     0.132 A 
ATOM     20  N   UNL     1      -0.364  -3.508  -4.441  1.00  0.00    -0.236 NA
ATOM     21  H   UNL     1      -1.084   0.562  -6.061  1.00  0.00     0.167 HD
ATOM     22  C   UNL     1      -1.266  -2.167  -6.844  1.00  0.00     0.278 A 
ATOM     23  C   UNL     1      -0.745  -4.121  -5.518  1.00  0.00     0.203 A 
ATOM     24  O   UNL     1      -1.591  -1.590  -7.879  1.00  0.00    -0.267 OA
ENDBRANCH   8   9
ENDBRANCH   5   8
ENDBRANCH   3   4
ENDBRANCH   2   3
ENDBRANCH   1   2
BRANCH   1  25
ATOM     25  N   UNL     1      -6.849  -4.528  -5.084  1.00  0.00    -0.352 N 
ATOM     26  C   UNL     1      -7.607  -5.271  -4.224  1.00  0.00     0.251 C 
ATOM     27  H   UNL     1      -7.061  -4.717  -6.026  1.00  0.00     0.163 HD
ATOM     28  O   UNL     1      -8.501  -5.940  -4.752  1.00  0.00    -0.269 OA
BRANCH  26  29
ATOM     29  C   UNL     1      -7.402  -5.379  -2.755  1.00  0.00     0.039 A 
ATOM     30  C   UNL     1      -6.507  -4.626  -1.994  1.00  0.00     0.014 A 
ATOM     31  C   UNL     1      -8.159  -6.377  -2.109  1.00  0.00     0.014 A 
ATOM     32  C   UNL     1      -6.297  -4.930  -0.649  1.00  0.00     0.010 A 
ATOM     33  C   UNL     1      -7.965  -6.672  -0.766  1.00  0.00     0.010 A 
ATOM     34  C   UNL     1      -6.993  -5.982  -0.050  1.00  0.00    -0.014 A 
BRANCH  34  35
ATOM     35  C   UNL     1      -6.729  -6.286   1.356  1.00  0.00     0.031 A 
ATOM     36  C   UNL     1      -7.122  -5.221   2.326  1.00  0.00     0.074 A 
ATOM     37  C   UNL     1      -6.304  -7.499   1.768  1.00  0.00     0.049 A 
ATOM     38  N   UNL     1      -6.381  -4.584   3.174  1.00  0.00    -0.248 NA
ATOM     39  C   UNL     1      -8.513  -4.740   2.273  1.00  0.00     0.031 C 
ATOM     40  C   UNL     1      -6.162  -8.720   0.968  1.00  0.00     0.029 A 
ATOM     41  N   UNL     1      -6.008  -7.928   3.027  1.00  0.00    -0.354 N 
ATOM     42  C   UNL     1      -7.245  -3.760   3.899  1.00  0.00     0.074 A 
ATOM     43  C   UNL     1      -8.508  -3.790   3.209  1.00  0.00     0.031 C 
ATOM     44  C   UNL     1      -6.031  -9.784   1.792  1.00  0.00     0.029 A 
ATOM     45  C   UNL     1      -5.944  -9.311   3.163  1.00  0.00     0.049 A 
ATOM     46  H   UNL     1      -5.852  -7.310   3.778  1.00  0.00     0.167 HD
ATOM     47  C   UNL     1      -6.923  -3.269   5.129  1.00  0.00     0.037 A 
ATOM     48  C   UNL     1      -5.889 -10.014   4.323  1.00  0.00     0.037 A 
ATOM     49  C   UNL     1      -5.507  -3.331   5.372  1.00  0.00     0.049 A 
ATOM     50  C   UNL     1      -5.425  -9.080   5.380  1.00  0.00     0.074 A 
ATOM     51  C   UNL     1      -4.392  -2.768   4.784  1.00  0.00     0.029 A 
ATOM     52  N   UNL     1      -5.036  -4.345   6.168  1.00  0.00    -0.354 N 
ATOM     53  N   UNL     1      -4.231  -8.559   5.427  1.00  0.00    -0.248 NA
ATOM     54  C   UNL     1      -6.436  -8.395   6.170  1.00  0.00     0.031 C 
ATOM     55  C   UNL     1      -3.380  -3.766   4.877  1.00  0.00     0.029 A 
ATOM     56  C   UNL     1      -3.923  -4.859   5.555  1.00  0.00     0.049 A 
ATOM     57  H   UNL     1      -5.426  -4.647   7.021  1.00  0.00     0.167 HD
ATOM     58  C   UNL     1      -4.424  -7.269   5.898  1.00  0.00     0.074 A 
ATOM     59  C   UNL     1      -5.784  -7.259   6.430  1.00  0.00     0.031 C 
ATOM     60  C   UNL     1      -3.566  -6.260   5.568  1.00  0.00     0.037 A 
BRANCH  47  61
ATOM     61  C   UNL     1      -7.921  -3.042   6.242  1.00  0.00     0.058 A 
ATOM     62  C   UNL     1      -7.527  -2.353   7.409  1.00  0.00     0.135 A 
ATOM     63  C   UNL     1      -9.157  -3.720   6.326  1.00  0.00     0.135 A 
ATOM     64  F   UNL     1      -6.364  -1.682   7.447  1.00  0.00    -0.206 F 
ATOM     65  C   UNL     1      -8.271  -2.394   8.590  1.00  0.00     0.059 A 
ATOM     66  C   UNL     1      -9.940  -3.730   7.475  1.00  0.00     0.059 A 
ATOM     67  F   UNL     1      -9.616  -4.489   5.331  1.00  0.00    -0.206 F 
ATOM     68  C   UNL     1      -9.470  -3.101   8.616  1.00  0.00     0.060 A 
BRANCH  68  69
ATOM     69  S   UNL     1     -10.371  -3.261  10.168  1.00  0.00     0.124 S 
ATOM     70  O   UNL     1      -9.465  -4.098  10.946  1.00  0.00    -0.237 OA
ATOM     71  O   UNL     1     -10.485  -1.870  10.596  1.00  0.00    -0.237 OA
ATOM     72  O   UNL     1     -11.625  -3.891   9.765  1.00  0.00    -0.744 OA
ENDBRANCH  68  69
ENDBRANCH  47  61
BRANCH  48  73
ATOM     73  C   UNL     1      -6.528 -11.320   4.648  1.00  0.00     0.058 A 
ATOM     74  C   UNL     1      -6.198 -12.016   5.826  1.00  0.00     0.135 A 
ATOM     75  C   UNL     1      -7.682 -11.762   3.971  1.00  0.00     0.135 A 
ATOM     76  F   UNL     1      -5.125 -11.655   6.546  1.00  0.00    -0.206 F 
ATOM     77  C   UNL     1      -6.998 -13.046   6.335  1.00  0.00     0.059 A 
ATOM     78  C   UNL     1      -8.488 -12.793   4.452  1.00  0.00     0.059 A 
ATOM     79  F   UNL     1      -8.118 -11.140   2.866  1.00  0.00    -0.206 F 
ATOM     80  C   UNL     1      -8.158 -13.410   5.653  1.00  0.00     0.060 A 
BRANCH  80  81
ATOM     81  S   UNL     1      -9.294 -14.601   6.403  1.00  0.00     0.124 S 
ATOM     82  O   UNL     1      -8.513 -15.832   6.362  1.00  0.00    -0.237 OA
ATOM     83  O   UNL     1      -9.510 -14.026   7.727  1.00  0.00    -0.237 OA
ATOM     84  O   UNL     1     -10.454 -14.569   5.516  1.00  0.00    -0.744 OA
ENDBRANCH  80  81
ENDBRANCH  48  73
BRANCH  60  85
ATOM     85  C   UNL     1      -2.245  -6.626   4.942  1.00  0.00     0.058 A 
ATOM     86  C   UNL     1      -2.106  -7.224   3.676  1.00  0.00     0.135 A 
ATOM     87  C   UNL     1      -1.070  -6.205   5.582  1.00  0.00     0.135 A 
ATOM     88  F   UNL     1      -3.181  -7.565   2.953  1.00  0.00    -0.206 F 
ATOM     89  C   UNL     1      -0.854  -7.423   3.091  1.00  0.00     0.059 A 
ATOM     90  C   UNL     1       0.186  -6.364   5.004  1.00  0.00     0.059 A 
ATOM     91  F   UNL     1      -1.140  -5.572   6.766  1.00  0.00    -0.206 F 
ATOM     92  C   UNL     1       0.287  -6.983   3.760  1.00  0.00     0.060 A 
BRANCH  92  93
ATOM     93  S   UNL     1       1.896  -7.156   2.958  1.00  0.00     0.124 S 
ATOM     94  O   UNL     1       2.106  -8.599   2.994  1.00  0.00    -0.237 OA
ATOM     95  O   UNL     1       1.653  -6.584   1.636  1.00  0.00    -0.237 OA
ATOM     96  O   UNL     1       2.789  -6.374   3.810  1.00  0.00    -0.744 OA
ENDBRANCH  92  93
ENDBRANCH  60  85
ENDBRANCH  34  35
ENDBRANCH  26  29
ENDBRANCH   1  25
TORSDOF 14
