REMARK SMILES CC(C)n1cncc1[C@@H](O)[C@H](C)C(=O)NCCCNC(=O)c1ccc(-c2c3nc(c(-c4c(F)cc(S(=O)(=O)[O-])cc4F)c4ccc([nH]4)c(-c4c(F)cc(S(=O)(=O)[O-])cc4F)c4nc(c(-c5c(F)cc(S(=O)(=O)[O-])cc5F)c5ccc2[nH]5)C=C4)C=C3)cc1
REMARK SMILES IDX 17 1 16 2 15 3 13 4 14 5 11 7 12 8 9 9 8 10 4 11 5 12 6 13
REMARK SMILES IDX 7 14 2 15 1 16 3 17 10 18 18 20 19 21 20 22 21 24 22 25
REMARK SMILES IDX 23 26 87 27 24 28 86 29 25 30 26 31 27 32 80 33 28 34 85 35
REMARK SMILES IDX 79 36 81 37 29 38 84 39 78 40 77 41 30 43 64 44 43 45 63 46
REMARK SMILES IDX 44 47 47 48 62 49 82 50 45 51 46 52 61 54 83 55 48 56 31 57
REMARK SMILES IDX 32 58 41 59 33 60 34 61 40 62 42 63 35 64 36 65 37 66 38 67
REMARK SMILES IDX 39 68 65 69 66 70 75 71 67 72 68 73 74 74 76 75 69 76 70 77
REMARK SMILES IDX 71 78 72 79 73 80 49 81 50 82 59 83 51 84 52 85 58 86 60 87
REMARK SMILES IDX 53 88 54 89 55 90 56 91 57 92
REMARK H PARENT 15 6 10 19 19 23 81 42 47 53
REMARK Flexibility Score: inf
ROOT
ATOM      1  C   UNL     1       2.232   3.720   1.311  1.00  0.00     0.042 C 
ENDROOT
BRANCH   1   2
ATOM      2  C   UNL     1       1.386   3.888   2.565  1.00  0.00     0.117 C 
BRANCH   2   3
ATOM      3  N   UNL     1       0.306   4.854   2.459  1.00  0.00    -0.356 N 
ATOM      4  C   UNL     1      -1.022   4.661   2.715  1.00  0.00     0.225 C 
ATOM      5  O   UNL     1      -1.745   5.652   2.846  1.00  0.00    -0.275 OA
ATOM      6  H   UNL     1       0.563   5.759   2.168  1.00  0.00     0.163 HD
BRANCH   4   7
ATOM      7  C   UNL     1      -1.627   3.263   2.759  1.00  0.00     0.110 C 
ATOM      8  C   UNL     1      -1.529   2.617   1.372  1.00  0.00     0.021 C 
BRANCH   7   9
ATOM      9  C   UNL     1      -1.258   2.431   4.016  1.00  0.00     0.175 C 
BRANCH   9  10
ATOM     10  C   UNL     1      -1.006   0.973   3.789  1.00  0.00     0.067 A 
ATOM     11  N   UNL     1      -1.681  -0.076   4.378  1.00  0.00    -0.330 N 
ATOM     12  C   UNL     1      -1.152  -1.239   3.870  1.00  0.00     0.199 A 
ATOM     13  N   UNL     1      -0.158  -1.012   3.050  1.00  0.00    -0.245 NA
ATOM     14  C   UNL     1      -0.047   0.345   3.006  1.00  0.00     0.137 A 
BRANCH  11  15
ATOM     15  C   UNL     1      -2.661  -0.086   5.461  1.00  0.00     0.082 C 
ATOM     16  C   UNL     1      -1.959   0.070   6.811  1.00  0.00     0.031 C 
ATOM     17  C   UNL     1      -3.832   0.885   5.309  1.00  0.00     0.031 C 
ENDBRANCH  11  15
ENDBRANCH   9  10
BRANCH   9  18
ATOM     18  O   UNL     1      -0.133   2.910   4.744  1.00  0.00    -0.386 OA
ATOM     19  H   UNL     1       0.671   2.786   4.215  1.00  0.00     0.211 HD
ENDBRANCH   9  18
ENDBRANCH   7   9
ENDBRANCH   4   7
ENDBRANCH   2   3
ENDBRANCH   1   2
BRANCH   1  20
ATOM     20  C   UNL     1       3.191   4.869   1.098  1.00  0.00     0.118 C 
BRANCH  20  21
ATOM     21  N   UNL     1       4.190   4.976   2.163  1.00  0.00    -0.352 N 
ATOM     22  C   UNL     1       5.108   5.989   2.355  1.00  0.00     0.251 C 
ATOM     23  H   UNL     1       4.210   4.241   2.818  1.00  0.00     0.163 HD
ATOM     24  O   UNL     1       6.088   5.827   3.075  1.00  0.00    -0.269 OA
BRANCH  22  25
ATOM     25  C   UNL     1       4.888   7.256   1.643  1.00  0.00     0.039 A 
ATOM     26  C   UNL     1       5.902   7.822   0.873  1.00  0.00     0.014 A 
ATOM     27  C   UNL     1       3.601   7.791   1.648  1.00  0.00     0.014 A 
ATOM     28  C   UNL     1       5.576   8.866   0.013  1.00  0.00     0.010 A 
ATOM     29  C   UNL     1       3.253   8.715   0.690  1.00  0.00     0.010 A 
ATOM     30  C   UNL     1       4.238   9.281  -0.114  1.00  0.00    -0.014 A 
BRANCH  30  31
ATOM     31  C   UNL     1       3.868  10.227  -1.166  1.00  0.00     0.031 A 
ATOM     32  C   UNL     1       4.403   9.912  -2.520  1.00  0.00     0.074 A 
ATOM     33  C   UNL     1       2.987  11.239  -1.017  1.00  0.00     0.049 A 
ATOM     34  N   UNL     1       5.388  10.489  -3.125  1.00  0.00    -0.248 NA
ATOM     35  C   UNL     1       3.882   8.734  -3.230  1.00  0.00     0.031 C 
ATOM     36  C   UNL     1       2.108  11.538   0.117  1.00  0.00     0.029 A 
ATOM     37  N   UNL     1       2.637  12.192  -1.925  1.00  0.00    -0.354 N 
ATOM     38  C   UNL     1       5.462   9.909  -4.389  1.00  0.00     0.074 A 
ATOM     39  C   UNL     1       4.651   8.720  -4.323  1.00  0.00     0.031 C 
ATOM     40  C   UNL     1       1.181  12.447  -0.255  1.00  0.00     0.029 A 
ATOM     41  C   UNL     1       1.516  12.934  -1.579  1.00  0.00     0.049 A 
ATOM     42  H   UNL     1       3.138  12.342  -2.759  1.00  0.00     0.167 HD
ATOM     43  C   UNL     1       5.996  10.586  -5.445  1.00  0.00     0.037 A 
ATOM     44  C   UNL     1       0.902  13.883  -2.327  1.00  0.00     0.037 A 
ATOM     45  C   UNL     1       6.726  11.750  -4.997  1.00  0.00     0.049 A 
ATOM     46  C   UNL     1       1.899  14.372  -3.313  1.00  0.00     0.074 A 
ATOM     47  C   UNL     1       7.783  11.964  -4.133  1.00  0.00     0.029 A 
ATOM     48  N   UNL     1       6.127  12.977  -5.160  1.00  0.00    -0.354 N 
ATOM     49  N   UNL     1       2.965  15.053  -2.994  1.00  0.00    -0.248 NA
ATOM     50  C   UNL     1       1.938  13.733  -4.619  1.00  0.00     0.031 C 
ATOM     51  C   UNL     1       7.454  13.168  -3.442  1.00  0.00     0.029 A 
ATOM     52  C   UNL     1       6.261  13.656  -3.976  1.00  0.00     0.049 A 
ATOM     53  H   UNL     1       5.684  13.307  -5.975  1.00  0.00     0.167 HD
ATOM     54  C   UNL     1       3.957  14.572  -3.835  1.00  0.00     0.074 A 
ATOM     55  C   UNL     1       3.243  13.845  -4.882  1.00  0.00     0.031 C 
ATOM     56  C   UNL     1       5.270  14.573  -3.456  1.00  0.00     0.037 A 
BRANCH  43  57
ATOM     57  C   UNL     1       5.565  10.431  -6.889  1.00  0.00     0.058 A 
ATOM     58  C   UNL     1       6.288  11.104  -7.899  1.00  0.00     0.135 A 
ATOM     59  C   UNL     1       4.321   9.899  -7.291  1.00  0.00     0.135 A 
ATOM     60  F   UNL     1       7.486  11.650  -7.636  1.00  0.00    -0.206 F 
ATOM     61  C   UNL     1       5.772  11.313  -9.179  1.00  0.00     0.059 A 
ATOM     62  C   UNL     1       3.813  10.046  -8.578  1.00  0.00     0.059 A 
ATOM     63  F   UNL     1       3.489   9.295  -6.435  1.00  0.00    -0.206 F 
ATOM     64  C   UNL     1       4.523  10.795  -9.501  1.00  0.00     0.060 A 
BRANCH  64  65
ATOM     65  S   UNL     1       3.802  11.157 -11.112  1.00  0.00     0.124 S 
ATOM     66  O   UNL     1       3.496  12.576 -10.978  1.00  0.00    -0.237 OA
ATOM     67  O   UNL     1       4.896  10.819 -12.016  1.00  0.00    -0.237 OA
ATOM     68  O   UNL     1       2.650  10.262 -11.170  1.00  0.00    -0.744 OA
ENDBRANCH  64  65
ENDBRANCH  43  57
BRANCH  44  69
ATOM     69  C   UNL     1      -0.545  14.191  -2.426  1.00  0.00     0.058 A 
ATOM     70  C   UNL     1      -0.992  15.360  -3.066  1.00  0.00     0.135 A 
ATOM     71  C   UNL     1      -1.523  13.209  -2.166  1.00  0.00     0.135 A 
ATOM     72  F   UNL     1      -0.126  16.342  -3.359  1.00  0.00    -0.206 F 
ATOM     73  C   UNL     1      -2.314  15.517  -3.490  1.00  0.00     0.059 A 
ATOM     74  C   UNL     1      -2.849  13.348  -2.570  1.00  0.00     0.059 A 
ATOM     75  F   UNL     1      -1.194  12.039  -1.598  1.00  0.00    -0.206 F 
ATOM     76  C   UNL     1      -3.231  14.492  -3.262  1.00  0.00     0.060 A 
BRANCH  76  77
ATOM     77  S   UNL     1      -4.880  14.601  -3.995  1.00  0.00     0.124 S 
ATOM     78  O   UNL     1      -5.497  15.653  -3.195  1.00  0.00    -0.237 OA
ATOM     79  O   UNL     1      -4.580  14.946  -5.380  1.00  0.00    -0.237 OA
ATOM     80  O   UNL     1      -5.428  13.261  -3.796  1.00  0.00    -0.744 OA
ENDBRANCH  76  77
ENDBRANCH  44  69
BRANCH  56  81
ATOM     81  C   UNL     1       5.680  15.428  -2.285  1.00  0.00     0.058 A 
ATOM     82  C   UNL     1       5.199  15.290  -0.971  1.00  0.00     0.135 A 
ATOM     83  C   UNL     1       6.710  16.361  -2.492  1.00  0.00     0.135 A 
ATOM     84  F   UNL     1       4.296  14.349  -0.659  1.00  0.00    -0.206 F 
ATOM     85  C   UNL     1       5.681  16.082   0.075  1.00  0.00     0.059 A 
ATOM     86  C   UNL     1       7.230  17.135  -1.459  1.00  0.00     0.059 A 
ATOM     87  F   UNL     1       7.258  16.500  -3.711  1.00  0.00    -0.206 F 
ATOM     88  C   UNL     1       6.696  17.005  -0.181  1.00  0.00     0.060 A 
BRANCH  88  89
ATOM     89  S   UNL     1       7.351  17.999   1.177  1.00  0.00     0.124 S 
ATOM     90  O   UNL     1       6.253  18.922   1.440  1.00  0.00    -0.237 OA
ATOM     91  O   UNL     1       7.602  17.000   2.212  1.00  0.00    -0.237 OA
ATOM     92  O   UNL     1       8.553  18.606   0.608  1.00  0.00    -0.744 OA
ENDBRANCH  88  89
ENDBRANCH  56  81
ENDBRANCH  30  31
ENDBRANCH  22  25
ENDBRANCH  20  21
ENDBRANCH   1  20
TORSDOF 17
