REMARK SMILES C[C@H](Cc1ccco1)[NH2+]Cc1cc(C(=O)NCCCNC(=O)c2ccc(-c3c4nc(c(-c5c(F)cc(S(=O)(=O)[O-])cc5F)c5ccc([nH]5)c(-c5c(F)cc(S(=O)(=O)[O-])cc5F)c5nc(c(-c6c(F)cc(S(=O)(=O)[O-])cc6F)c6ccc3[nH]6)C=C5)C=C4)cc2)cs1
REMARK SMILES IDX 17 1 16 2 14 3 15 4 13 6 11 7 12 8 90 9 89 10 10 11 9 12
REMARK SMILES IDX 2 15 1 16 3 17 4 18 5 19 8 20 6 21 7 22 18 23 19 24 20 25
REMARK SMILES IDX 21 26 22 28 23 29 24 30 88 31 25 32 87 33 26 34 27 35 28 36
REMARK SMILES IDX 81 37 29 38 86 39 80 40 82 41 30 42 85 43 79 44 78 45 31 47
REMARK SMILES IDX 65 48 44 49 64 50 45 51 48 52 63 53 83 54 46 55 47 56 62 58
REMARK SMILES IDX 84 59 49 60 32 61 33 62 42 63 34 64 35 65 41 66 43 67 36 68
REMARK SMILES IDX 37 69 38 70 39 71 40 72 66 73 67 74 76 75 68 76 69 77 75 78
REMARK SMILES IDX 77 79 70 80 71 81 72 82 73 83 74 84 50 85 51 86 60 87 52 88
REMARK SMILES IDX 53 89 59 90 61 91 54 92 55 93 56 94 57 95 58 96
REMARK H PARENT 16 5 9 13 9 14 20 27 82 46 48 57
REMARK Flexibility Score: inf
ROOT
ATOM      1  C   UNL     1      -2.659   4.913   1.230  1.00  0.00     0.118 C 
ENDROOT
BRANCH   1   2
ATOM      2  N   UNL     1      -2.069   5.665   2.316  1.00  0.00    -0.352 N 
ATOM      3  C   UNL     1      -1.414   5.294   3.460  1.00  0.00     0.252 C 
ATOM      4  O   UNL     1      -0.993   6.215   4.161  1.00  0.00    -0.269 OA
ATOM      5  H   UNL     1      -2.157   6.640   2.211  1.00  0.00     0.163 HD
BRANCH   3   6
ATOM      6  C   UNL     1      -1.166   3.892   3.824  1.00  0.00     0.051 A 
ATOM      7  C   UNL     1      -0.993   1.540   3.774  1.00  0.00     0.059 A 
ATOM      8  C   UNL     1      -1.652   2.654   3.280  1.00  0.00     0.035 A 
ATOM      9  S   UNL     1      -0.071   1.946   5.156  1.00  0.00    -0.142 S 
ATOM     10  C   UNL     1      -0.319   3.610   4.888  1.00  0.00     0.079 A 
BRANCH   7  11
ATOM     11  C   UNL     1      -1.014   0.125   3.271  1.00  0.00     0.308 C 
BRANCH  11  12
ATOM     12  N   UNL     1      -0.751   0.017   1.835  1.00  0.00    -0.339 N 
ATOM     13  H   UNL     1      -1.061  -0.909   1.540  1.00  0.00     0.346 HD
ATOM     14  H   UNL     1      -1.250   0.806   1.427  1.00  0.00     0.346 HD
BRANCH  12  15
ATOM     15  C   UNL     1       0.635   0.181   1.367  1.00  0.00     0.187 C 
ATOM     16  C   UNL     1       1.325   1.514   1.683  1.00  0.00     0.075 C 
BRANCH  15  17
ATOM     17  C   UNL     1       0.750  -0.115  -0.153  1.00  0.00     0.140 C 
BRANCH  17  18
ATOM     18  C   UNL     1      -0.050   0.738  -1.087  1.00  0.00     0.109 A 
ATOM     19  C   UNL     1      -0.979   1.753  -0.965  1.00  0.00     0.046 A 
ATOM     20  O   UNL     1       0.132   0.457  -2.414  1.00  0.00    -0.469 OA
ATOM     21  C   UNL     1      -1.420   2.070  -2.271  1.00  0.00     0.042 A 
ATOM     22  C   UNL     1      -0.703   1.262  -3.118  1.00  0.00     0.195 A 
ENDBRANCH  17  18
ENDBRANCH  15  17
ENDBRANCH  12  15
ENDBRANCH  11  12
ENDBRANCH   7  11
ENDBRANCH   3   6
ENDBRANCH   1   2
BRANCH   1  23
ATOM     23  C   UNL     1      -4.150   4.679   1.448  1.00  0.00     0.042 C 
BRANCH  23  24
ATOM     24  C   UNL     1      -4.993   5.929   1.196  1.00  0.00     0.118 C 
BRANCH  24  25
ATOM     25  N   UNL     1      -4.938   6.351  -0.199  1.00  0.00    -0.352 N 
ATOM     26  C   UNL     1      -5.938   6.476  -1.130  1.00  0.00     0.251 C 
ATOM     27  H   UNL     1      -4.039   6.583  -0.525  1.00  0.00     0.163 HD
ATOM     28  O   UNL     1      -5.638   6.600  -2.315  1.00  0.00    -0.269 OA
BRANCH  26  29
ATOM     29  C   UNL     1      -7.359   6.460  -0.721  1.00  0.00     0.039 A 
ATOM     30  C   UNL     1      -8.290   5.812  -1.538  1.00  0.00     0.014 A 
ATOM     31  C   UNL     1      -7.783   7.118   0.436  1.00  0.00     0.014 A 
ATOM     32  C   UNL     1      -9.635   5.777  -1.163  1.00  0.00     0.010 A 
ATOM     33  C   UNL     1      -9.108   7.014   0.849  1.00  0.00     0.010 A 
ATOM     34  C   UNL     1     -10.050   6.348   0.051  1.00  0.00    -0.014 A 
BRANCH  34  35
ATOM     35  C   UNL     1     -11.460   6.249   0.507  1.00  0.00     0.031 A 
ATOM     36  C   UNL     1     -12.286   7.493   0.696  1.00  0.00     0.074 A 
ATOM     37  C   UNL     1     -11.973   5.041   0.816  1.00  0.00     0.049 A 
ATOM     38  N   UNL     1     -13.507   7.611   1.151  1.00  0.00    -0.248 NA
ATOM     39  C   UNL     1     -11.648   8.775   0.355  1.00  0.00     0.031 C 
ATOM     40  C   UNL     1     -11.253   3.769   0.719  1.00  0.00     0.029 A 
ATOM     41  N   UNL     1     -13.213   4.684   1.282  1.00  0.00    -0.354 N 
ATOM     42  C   UNL     1     -13.777   8.975   1.167  1.00  0.00     0.074 A 
ATOM     43  C   UNL     1     -12.575   9.647   0.725  1.00  0.00     0.031 C 
ATOM     44  C   UNL     1     -12.070   2.771   1.089  1.00  0.00     0.029 A 
ATOM     45  C   UNL     1     -13.355   3.332   1.492  1.00  0.00     0.049 A 
ATOM     46  H   UNL     1     -13.932   5.334   1.450  1.00  0.00     0.167 HD
ATOM     47  C   UNL     1     -14.928   9.606   1.501  1.00  0.00     0.037 A 
ATOM     48  C   UNL     1     -14.399   2.625   1.967  1.00  0.00     0.037 A 
ATOM     49  C   UNL     1     -16.126   8.924   1.918  1.00  0.00     0.049 A 
ATOM     50  C   UNL     1     -15.665   3.349   2.334  1.00  0.00     0.074 A 
ATOM     51  C   UNL     1     -17.364   9.466   2.215  1.00  0.00     0.029 A 
ATOM     52  N   UNL     1     -16.236   7.553   2.104  1.00  0.00    -0.354 N 
ATOM     53  N   UNL     1     -15.925   4.633   2.279  1.00  0.00    -0.248 NA
ATOM     54  C   UNL     1     -16.782   2.529   2.821  1.00  0.00     0.031 C 
ATOM     55  C   UNL     1     -18.206   8.432   2.635  1.00  0.00     0.029 A 
ATOM     56  C   UNL     1     -17.513   7.235   2.539  1.00  0.00     0.049 A 
ATOM     57  H   UNL     1     -15.514   6.902   1.950  1.00  0.00     0.167 HD
ATOM     58  C   UNL     1     -17.244   4.773   2.696  1.00  0.00     0.074 A 
ATOM     59  C   UNL     1     -17.731   3.440   2.989  1.00  0.00     0.031 C 
ATOM     60  C   UNL     1     -17.985   5.902   2.823  1.00  0.00     0.037 A 
BRANCH  47  61
ATOM     61  C   UNL     1     -14.951  11.110   1.433  1.00  0.00     0.058 A 
ATOM     62  C   UNL     1     -14.896  11.798   0.210  1.00  0.00     0.135 A 
ATOM     63  C   UNL     1     -15.076  11.874   2.605  1.00  0.00     0.135 A 
ATOM     64  F   UNL     1     -14.761  11.121  -0.942  1.00  0.00    -0.206 F 
ATOM     65  C   UNL     1     -14.935  13.188   0.153  1.00  0.00     0.059 A 
ATOM     66  C   UNL     1     -15.150  13.264   2.569  1.00  0.00     0.059 A 
ATOM     67  F   UNL     1     -15.133  11.271   3.803  1.00  0.00    -0.206 F 
ATOM     68  C   UNL     1     -15.065  13.912   1.339  1.00  0.00     0.060 A 
BRANCH  68  69
ATOM     69  S   UNL     1     -15.128  15.714   1.244  1.00  0.00     0.124 S 
ATOM     70  O   UNL     1     -13.750  16.035   0.885  1.00  0.00    -0.237 OA
ATOM     71  O   UNL     1     -16.122  15.936   0.199  1.00  0.00    -0.237 OA
ATOM     72  O   UNL     1     -15.534  16.112   2.588  1.00  0.00    -0.744 OA
ENDBRANCH  68  69
ENDBRANCH  47  61
BRANCH  48  73
ATOM     73  C   UNL     1     -14.293   1.147   2.099  1.00  0.00     0.058 A 
ATOM     74  C   UNL     1     -15.019   0.293   1.256  1.00  0.00     0.135 A 
ATOM     75  C   UNL     1     -13.444   0.558   3.050  1.00  0.00     0.135 A 
ATOM     76  F   UNL     1     -15.848   0.807   0.335  1.00  0.00    -0.206 F 
ATOM     77  C   UNL     1     -14.918  -1.091   1.357  1.00  0.00     0.059 A 
ATOM     78  C   UNL     1     -13.305  -0.823   3.151  1.00  0.00     0.059 A 
ATOM     79  F   UNL     1     -12.713   1.330   3.869  1.00  0.00    -0.206 F 
ATOM     80  C   UNL     1     -14.053  -1.639   2.305  1.00  0.00     0.060 A 
BRANCH  80  81
ATOM     81  S   UNL     1     -13.886  -3.436   2.386  1.00  0.00     0.124 S 
ATOM     82  O   UNL     1     -15.169  -3.825   2.958  1.00  0.00    -0.237 OA
ATOM     83  O   UNL     1     -13.677  -3.785   0.984  1.00  0.00    -0.237 OA
ATOM     84  O   UNL     1     -12.725  -3.626   3.251  1.00  0.00    -0.744 OA
ENDBRANCH  80  81
ENDBRANCH  48  73
BRANCH  60  85
ATOM     85  C   UNL     1     -19.415   5.748   3.265  1.00  0.00     0.058 A 
ATOM     86  C   UNL     1     -19.751   5.391   4.580  1.00  0.00     0.135 A 
ATOM     87  C   UNL     1     -20.465   6.016   2.371  1.00  0.00     0.135 A 
ATOM     88  F   UNL     1     -18.787   5.118   5.474  1.00  0.00    -0.206 F 
ATOM     89  C   UNL     1     -21.077   5.282   4.987  1.00  0.00     0.059 A 
ATOM     90  C   UNL     1     -21.797   5.944   2.764  1.00  0.00     0.059 A 
ATOM     91  F   UNL     1     -20.201   6.372   1.103  1.00  0.00    -0.206 F 
ATOM     92  C   UNL     1     -22.093   5.564   4.072  1.00  0.00     0.060 A 
BRANCH  92  93
ATOM     93  S   UNL     1     -23.808   5.452   4.624  1.00  0.00     0.124 S 
ATOM     94  O   UNL     1     -23.986   4.009   4.740  1.00  0.00    -0.237 OA
ATOM     95  O   UNL     1     -23.779   6.191   5.883  1.00  0.00    -0.237 OA
ATOM     96  O   UNL     1     -24.556   6.092   3.546  1.00  0.00    -0.744 OA
ENDBRANCH  92  93
ENDBRANCH  60  85
ENDBRANCH  34  35
ENDBRANCH  26  29
ENDBRANCH  24  25
ENDBRANCH  23  24
ENDBRANCH   1  23
TORSDOF 18
