REMARK SMILES CSc1nc(N)cc(Nc2cccc(C(=O)NCCCNC(=O)c3ccc(-c4c5nc(c(-c6c(F)cc(S(=O)(=O)[O-])cc6F)c6ccc([nH]6)c(-c6c(F)cc(S(=O)(=O)[O-])cc6F)c6nc(c(-c7c(F)cc(S(=O)(=O)[O-])cc7F)c7ccc4[nH]7)C=C6)C=C5)cc3)c2)n1
REMARK SMILES IDX 19 1 18 2 17 3 15 4 16 5 14 7 10 8 11 9 90 10 12 11 13 12
REMARK SMILES IDX 9 13 8 15 3 16 4 17 91 18 5 19 7 20 2 21 1 22 6 23 20 26
REMARK SMILES IDX 21 27 22 28 23 30 24 31 25 32 89 33 26 34 88 35 27 36 28 37
REMARK SMILES IDX 29 38 82 39 30 40 87 41 81 42 83 43 31 44 86 45 80 46 79 47
REMARK SMILES IDX 32 49 66 50 45 51 65 52 46 53 49 54 64 55 84 56 47 57 48 58
REMARK SMILES IDX 63 60 85 61 50 62 33 63 34 64 43 65 35 66 36 67 42 68 44 69
REMARK SMILES IDX 37 70 38 71 39 72 40 73 41 74 67 75 68 76 77 77 69 78 70 79
REMARK SMILES IDX 76 80 78 81 71 82 72 83 73 84 74 85 75 86 51 87 52 88 61 89
REMARK SMILES IDX 53 90 54 91 60 92 62 93 55 94 56 95 57 96 58 97 59 98
REMARK H PARENT 17 6 9 14 6 24 6 25 21 29 83 48 49 59
REMARK Flexibility Score: inf
ROOT
ATOM      1  C   UNL     1      -3.061   5.112   4.192  1.00  0.00     0.042 C 
ENDROOT
BRANCH   1   2
ATOM      2  C   UNL     1      -2.121   4.987   3.002  1.00  0.00     0.118 C 
BRANCH   2   3
ATOM      3  N   UNL     1      -1.805   6.264   2.369  1.00  0.00    -0.352 N 
ATOM      4  C   UNL     1      -0.691   7.066   2.286  1.00  0.00     0.251 C 
ATOM      5  O   UNL     1      -0.811   8.117   1.651  1.00  0.00    -0.269 OA
ATOM      6  H   UNL     1      -2.574   6.641   1.885  1.00  0.00     0.163 HD
BRANCH   4   7
ATOM      7  C   UNL     1       0.619   6.784   2.941  1.00  0.00     0.041 A 
ATOM      8  C   UNL     1       2.189   5.290   4.087  1.00  0.00     0.040 A 
ATOM      9  C   UNL     1       3.042   6.374   4.306  1.00  0.00     0.026 A 
ATOM     10  C   UNL     1       1.037   5.514   3.323  1.00  0.00     0.040 A 
ATOM     11  C   UNL     1       2.720   7.641   3.810  1.00  0.00     0.003 A 
ATOM     12  C   UNL     1       1.502   7.849   3.156  1.00  0.00     0.014 A 
BRANCH   8  13
ATOM     13  N   UNL     1       2.518   4.011   4.577  1.00  0.00    -0.340 N 
ATOM     14  H   UNL     1       3.120   4.000   5.357  1.00  0.00     0.168 HD
BRANCH  13  15
ATOM     15  C   UNL     1       2.110   2.747   4.110  1.00  0.00     0.137 A 
ATOM     16  C   UNL     1       1.157   1.433   2.487  1.00  0.00     0.191 A 
ATOM     17  N   UNL     1       1.293   0.303   3.189  1.00  0.00    -0.206 NA
ATOM     18  N   UNL     1       1.552   2.640   2.897  1.00  0.00    -0.205 NA
ATOM     19  C   UNL     1       1.827   0.429   4.406  1.00  0.00     0.130 A 
ATOM     20  C   UNL     1       2.255   1.638   4.917  1.00  0.00     0.093 A 
BRANCH  16  21
ATOM     21  S   UNL     1       0.341   1.382   0.913  1.00  0.00    -0.090 SA
ATOM     22  C   UNL     1       1.113  -0.103   0.244  1.00  0.00     0.094 C 
ENDBRANCH  16  21
BRANCH  19  23
ATOM     23  N   UNL     1       1.998  -0.741   5.124  1.00  0.00    -0.383 N 
ATOM     24  H   UNL     1       1.689  -1.597   4.750  1.00  0.00     0.158 HD
ATOM     25  H   UNL     1       2.428  -0.717   6.009  1.00  0.00     0.158 HD
ENDBRANCH  19  23
ENDBRANCH  13  15
ENDBRANCH   8  13
ENDBRANCH   4   7
ENDBRANCH   2   3
ENDBRANCH   1   2
BRANCH   1  26
ATOM     26  C   UNL     1      -4.509   5.369   3.806  1.00  0.00     0.118 C 
BRANCH  26  27
ATOM     27  N   UNL     1      -5.078   4.283   3.014  1.00  0.00    -0.352 N 
ATOM     28  C   UNL     1      -6.023   3.335   3.323  1.00  0.00     0.251 C 
ATOM     29  H   UNL     1      -4.722   4.218   2.098  1.00  0.00     0.163 HD
ATOM     30  O   UNL     1      -6.177   2.376   2.573  1.00  0.00    -0.269 OA
BRANCH  28  31
ATOM     31  C   UNL     1      -6.847   3.453   4.546  1.00  0.00     0.039 A 
ATOM     32  C   UNL     1      -7.194   2.293   5.247  1.00  0.00     0.014 A 
ATOM     33  C   UNL     1      -7.319   4.691   4.982  1.00  0.00     0.014 A 
ATOM     34  C   UNL     1      -7.953   2.387   6.416  1.00  0.00     0.010 A 
ATOM     35  C   UNL     1      -7.986   4.795   6.197  1.00  0.00     0.010 A 
ATOM     36  C   UNL     1      -8.323   3.643   6.923  1.00  0.00    -0.014 A 
BRANCH  36  37
ATOM     37  C   UNL     1      -9.075   3.780   8.196  1.00  0.00     0.031 A 
ATOM     38  C   UNL     1     -10.438   4.421   8.200  1.00  0.00     0.074 A 
ATOM     39  C   UNL     1      -8.502   3.393   9.353  1.00  0.00     0.049 A 
ATOM     40  N   UNL     1     -11.210   4.715   9.214  1.00  0.00    -0.248 NA
ATOM     41  C   UNL     1     -10.995   4.812   6.893  1.00  0.00     0.031 C 
ATOM     42  C   UNL     1      -7.165   2.807   9.483  1.00  0.00     0.029 A 
ATOM     43  N   UNL     1      -8.965   3.445  10.644  1.00  0.00    -0.354 N 
ATOM     44  C   UNL     1     -12.330   5.336   8.671  1.00  0.00     0.074 A 
ATOM     45  C   UNL     1     -12.110   5.433   7.246  1.00  0.00     0.031 C 
ATOM     46  C   UNL     1      -6.929   2.527  10.774  1.00  0.00     0.029 A 
ATOM     47  C   UNL     1      -8.075   2.954  11.571  1.00  0.00     0.049 A 
ATOM     48  H   UNL     1      -9.851   3.800  10.884  1.00  0.00     0.167 HD
ATOM     49  C   UNL     1     -13.452   5.760   9.300  1.00  0.00     0.037 A 
ATOM     50  C   UNL     1      -8.169   2.865  12.912  1.00  0.00     0.037 A 
ATOM     51  C   UNL     1     -13.675   5.631  10.716  1.00  0.00     0.049 A 
ATOM     52  C   UNL     1      -9.425   3.346  13.587  1.00  0.00     0.074 A 
ATOM     53  C   UNL     1     -14.797   5.982  11.446  1.00  0.00     0.029 A 
ATOM     54  N   UNL     1     -12.760   5.106  11.617  1.00  0.00    -0.354 N 
ATOM     55  N   UNL     1     -10.497   3.880  13.050  1.00  0.00    -0.248 NA
ATOM     56  C   UNL     1      -9.489   3.207  15.048  1.00  0.00     0.031 C 
ATOM     57  C   UNL     1     -14.544   5.708  12.794  1.00  0.00     0.029 A 
ATOM     58  C   UNL     1     -13.285   5.137  12.898  1.00  0.00     0.049 A 
ATOM     59  H   UNL     1     -11.869   4.761  11.380  1.00  0.00     0.167 HD
ATOM     60  C   UNL     1     -11.374   4.111  14.104  1.00  0.00     0.074 A 
ATOM     61  C   UNL     1     -10.712   3.647  15.306  1.00  0.00     0.031 C 
ATOM     62  C   UNL     1     -12.615   4.658  14.081  1.00  0.00     0.037 A 
BRANCH  49  63
ATOM     63  C   UNL     1     -14.531   6.387   8.459  1.00  0.00     0.058 A 
ATOM     64  C   UNL     1     -15.291   5.629   7.553  1.00  0.00     0.135 A 
ATOM     65  C   UNL     1     -14.840   7.751   8.588  1.00  0.00     0.135 A 
ATOM     66  F   UNL     1     -15.030   4.324   7.376  1.00  0.00    -0.206 F 
ATOM     67  C   UNL     1     -16.299   6.205   6.786  1.00  0.00     0.059 A 
ATOM     68  C   UNL     1     -15.864   8.342   7.853  1.00  0.00     0.059 A 
ATOM     69  F   UNL     1     -14.145   8.524   9.438  1.00  0.00    -0.206 F 
ATOM     70  C   UNL     1     -16.580   7.563   6.945  1.00  0.00     0.060 A 
BRANCH  70  71
ATOM     71  S   UNL     1     -17.902   8.289   5.954  1.00  0.00     0.124 S 
ATOM     72  O   UNL     1     -17.292   8.318   4.629  1.00  0.00    -0.237 OA
ATOM     73  O   UNL     1     -18.987   7.329   6.131  1.00  0.00    -0.237 OA
ATOM     74  O   UNL     1     -18.116   9.593   6.574  1.00  0.00    -0.744 OA
ENDBRANCH  70  71
ENDBRANCH  49  63
BRANCH  50  75
ATOM     75  C   UNL     1      -7.054   2.277  13.704  1.00  0.00     0.058 A 
ATOM     76  C   UNL     1      -7.201   1.038  14.345  1.00  0.00     0.135 A 
ATOM     77  C   UNL     1      -5.823   2.938  13.837  1.00  0.00     0.135 A 
ATOM     78  F   UNL     1      -8.360   0.368  14.251  1.00  0.00    -0.206 F 
ATOM     79  C   UNL     1      -6.180   0.486  15.111  1.00  0.00     0.059 A 
ATOM     80  C   UNL     1      -4.776   2.393  14.574  1.00  0.00     0.059 A 
ATOM     81  F   UNL     1      -5.622   4.117  13.227  1.00  0.00    -0.206 F 
ATOM     82  C   UNL     1      -4.969   1.173  15.220  1.00  0.00     0.060 A 
BRANCH  82  83
ATOM     83  S   UNL     1      -3.637   0.432  16.188  1.00  0.00     0.124 S 
ATOM     84  O   UNL     1      -4.120   0.630  17.550  1.00  0.00    -0.237 OA
ATOM     85  O   UNL     1      -3.634  -0.944  15.704  1.00  0.00    -0.237 OA
ATOM     86  O   UNL     1      -2.469   1.223  15.811  1.00  0.00    -0.744 OA
ENDBRANCH  82  83
ENDBRANCH  50  75
BRANCH  62  87
ATOM     87  C   UNL     1     -13.357   4.744  15.386  1.00  0.00     0.058 A 
ATOM     88  C   UNL     1     -12.995   5.663  16.382  1.00  0.00     0.135 A 
ATOM     89  C   UNL     1     -14.476   3.928  15.619  1.00  0.00     0.135 A 
ATOM     90  F   UNL     1     -11.929   6.462  16.211  1.00  0.00    -0.206 F 
ATOM     91  C   UNL     1     -13.701   5.753  17.577  1.00  0.00     0.059 A 
ATOM     92  C   UNL     1     -15.215   4.022  16.794  1.00  0.00     0.059 A 
ATOM     93  F   UNL     1     -14.871   3.040  14.693  1.00  0.00    -0.206 F 
ATOM     94  C   UNL     1     -14.811   4.928  17.773  1.00  0.00     0.060 A 
BRANCH  94  95
ATOM     95  S   UNL     1     -15.737   5.077  19.315  1.00  0.00     0.124 S 
ATOM     96  O   UNL     1     -14.831   4.437  20.264  1.00  0.00    -0.237 OA
ATOM     97  O   UNL     1     -15.883   6.522  19.454  1.00  0.00    -0.237 OA
ATOM     98  O   UNL     1     -16.974   4.351  19.041  1.00  0.00    -0.744 OA
ENDBRANCH  94  95
ENDBRANCH  62  87
ENDBRANCH  36  37
ENDBRANCH  28  31
ENDBRANCH  26  27
ENDBRANCH   1  26
TORSDOF 17
