REMARK SMILES O=C(N[C@H](CCBr)C(=O)NCCCNC(=O)c1ccc(-c2c3nc(c(-c4c(F)cc(S(=O)(=O)[O-])cc4F)c4ccc([nH]4)c(-c4c(F)cc(S(=O)(=O)[O-])cc4F)c4nc(c(-c5c(F)cc(S(=O)(=O)[O-])cc5F)c5ccc2[nH]5)C=C4)C=C3)cc1)OCc1ccccc1
REMARK SMILES IDX 11 1 10 2 8 3 9 4 4 6 3 7 1 8 2 9 83 11 84 12 85 13 86 14
REMARK SMILES IDX 90 15 87 16 89 17 88 18 5 19 6 20 7 21 12 22 13 23 14 24
REMARK SMILES IDX 15 25 16 27 17 28 18 29 82 30 19 31 81 32 20 33 21 34 22 35
REMARK SMILES IDX 75 36 23 37 80 38 74 39 76 40 24 41 79 42 73 43 72 44 25 46
REMARK SMILES IDX 59 47 38 48 58 49 39 50 42 51 57 52 77 53 40 54 41 55 56 57
REMARK SMILES IDX 78 58 43 59 26 60 27 61 36 62 28 63 29 64 35 65 37 66 30 67
REMARK SMILES IDX 31 68 32 69 33 70 34 71 60 72 61 73 70 74 62 75 63 76 69 77
REMARK SMILES IDX 71 78 64 79 65 80 66 81 67 82 68 83 44 84 45 85 54 86 46 87
REMARK SMILES IDX 47 88 53 89 55 90 48 91 49 92 50 93 51 94 52 95
REMARK H PARENT 10 5 3 10 14 26 76 45 42 56
REMARK Flexibility Score: inf
ROOT
ATOM      1  C   UNL     1       4.148  -3.385  -3.257  1.00  0.00     0.117 C 
ENDROOT
BRANCH   1   2
ATOM      2  N   UNL     1       5.077  -2.321  -3.554  1.00  0.00    -0.354 N 
ATOM      3  C   UNL     1       5.508  -1.274  -2.813  1.00  0.00     0.242 C 
ATOM      4  O   UNL     1       6.422  -0.592  -3.292  1.00  0.00    -0.273 OA
ATOM      5  H   UNL     1       5.468  -2.365  -4.457  1.00  0.00     0.163 HD
BRANCH   3   6
ATOM      6  C   UNL     1       4.901  -0.888  -1.455  1.00  0.00     0.175 C 
BRANCH   6   7
ATOM      7  N   UNL     1       5.005  -1.945  -0.425  1.00  0.00    -0.310 N 
ATOM      8  O   UNL     1       4.822  -3.814   0.766  1.00  0.00    -0.225 OA
ATOM      9  C   UNL     1       4.253  -2.945   0.097  1.00  0.00     0.408 C 
ATOM     10  H   UNL     1       5.887  -1.914   0.012  1.00  0.00     0.167 HD
BRANCH   9  11
ATOM     11  O   UNL     1       2.971  -3.059  -0.269  1.00  0.00    -0.445 OA
BRANCH  11  12
ATOM     12  C   UNL     1       1.871  -2.310   0.291  1.00  0.00     0.270 C 
BRANCH  12  13
ATOM     13  C   UNL     1       2.070  -1.154   1.249  1.00  0.00    -0.011 A 
ATOM     14  C   UNL     1       3.175  -1.006   2.094  1.00  0.00     0.007 A 
ATOM     15  C   UNL     1       1.113  -0.120   1.216  1.00  0.00     0.007 A 
ATOM     16  C   UNL     1       3.412   0.209   2.740  1.00  0.00     0.000 A 
ATOM     17  C   UNL     1       1.333   1.079   1.891  1.00  0.00     0.000 A 
ATOM     18  C   UNL     1       2.503   1.256   2.623  1.00  0.00     0.000 A 
ENDBRANCH  12  13
ENDBRANCH  11  12
ENDBRANCH   9  11
ENDBRANCH   6   7
BRANCH   6  19
ATOM     19  C   UNL     1       3.748   0.131  -1.419  1.00  0.00     0.047 C 
BRANCH  19  20
ATOM     20  C   UNL     1       2.829   0.406  -2.594  1.00  0.00     0.083 C 
ATOM     21  Br  UNL     1       3.708   1.134  -4.153  1.00  0.00    -0.093 Br
ENDBRANCH  19  20
ENDBRANCH   6  19
ENDBRANCH   3   6
ENDBRANCH   1   2
BRANCH   1  22
ATOM     22  C   UNL     1       2.814  -3.235  -3.961  1.00  0.00     0.042 C 
BRANCH  22  23
ATOM     23  C   UNL     1       2.951  -3.148  -5.469  1.00  0.00     0.118 C 
BRANCH  23  24
ATOM     24  N   UNL     1       3.635  -4.313  -6.016  1.00  0.00    -0.352 N 
ATOM     25  C   UNL     1       3.168  -5.275  -6.872  1.00  0.00     0.251 C 
ATOM     26  H   UNL     1       4.570  -4.425  -5.728  1.00  0.00     0.163 HD
ATOM     27  O   UNL     1       3.797  -6.318  -7.023  1.00  0.00    -0.269 OA
BRANCH  25  28
ATOM     28  C   UNL     1       1.903  -5.047  -7.594  1.00  0.00     0.039 A 
ATOM     29  C   UNL     1       0.993  -6.096  -7.721  1.00  0.00     0.014 A 
ATOM     30  C   UNL     1       1.618  -3.790  -8.136  1.00  0.00     0.014 A 
ATOM     31  C   UNL     1      -0.232  -5.865  -8.347  1.00  0.00     0.010 A 
ATOM     32  C   UNL     1       0.360  -3.536  -8.662  1.00  0.00     0.010 A 
ATOM     33  C   UNL     1      -0.570  -4.576  -8.791  1.00  0.00    -0.014 A 
BRANCH  33  34
ATOM     34  C   UNL     1      -1.882  -4.298  -9.421  1.00  0.00     0.031 A 
ATOM     35  C   UNL     1      -1.937  -3.809 -10.844  1.00  0.00     0.074 A 
ATOM     36  C   UNL     1      -3.010  -4.428  -8.695  1.00  0.00     0.049 A 
ATOM     37  N   UNL     1      -2.975  -3.448 -11.551  1.00  0.00    -0.248 NA
ATOM     38  C   UNL     1      -0.654  -3.678 -11.556  1.00  0.00     0.031 C 
ATOM     39  C   UNL     1      -3.070  -4.841  -7.290  1.00  0.00     0.029 A 
ATOM     40  N   UNL     1      -4.322  -4.217  -9.034  1.00  0.00    -0.354 N 
ATOM     41  C   UNL     1      -2.471  -3.036 -12.779  1.00  0.00     0.074 A 
ATOM     42  C   UNL     1      -1.031  -3.132 -12.702  1.00  0.00     0.031 C 
ATOM     43  C   UNL     1      -4.353  -4.880  -6.897  1.00  0.00     0.029 A 
ATOM     44  C   UNL     1      -5.203  -4.453  -8.004  1.00  0.00     0.049 A 
ATOM     45  H   UNL     1      -4.606  -3.925  -9.930  1.00  0.00     0.167 HD
ATOM     46  C   UNL     1      -3.150  -2.641 -13.881  1.00  0.00     0.037 A 
ATOM     47  C   UNL     1      -6.543  -4.328  -7.957  1.00  0.00     0.037 A 
ATOM     48  C   UNL     1      -4.585  -2.581 -13.955  1.00  0.00     0.049 A 
ATOM     49  C   UNL     1      -7.274  -3.887  -9.197  1.00  0.00     0.074 A 
ATOM     50  C   UNL     1      -5.376  -2.257 -15.042  1.00  0.00     0.029 A 
ATOM     51  N   UNL     1      -5.445  -2.850 -12.899  1.00  0.00    -0.354 N 
ATOM     52  N   UNL     1      -6.786  -3.572 -10.373  1.00  0.00    -0.248 NA
ATOM     53  C   UNL     1      -8.737  -3.791  -9.107  1.00  0.00     0.031 C 
ATOM     54  C   UNL     1      -6.712  -2.277 -14.630  1.00  0.00     0.029 A 
ATOM     55  C   UNL     1      -6.757  -2.674 -13.303  1.00  0.00     0.049 A 
ATOM     56  H   UNL     1      -5.163  -3.125 -11.997  1.00  0.00     0.167 HD
ATOM     57  C   UNL     1      -7.884  -3.269 -11.172  1.00  0.00     0.074 A 
ATOM     58  C   UNL     1      -9.061  -3.454 -10.348  1.00  0.00     0.031 C 
ATOM     59  C   UNL     1      -7.916  -2.874 -12.469  1.00  0.00     0.037 A 
BRANCH  46  60
ATOM     60  C   UNL     1      -2.355  -2.253 -15.097  1.00  0.00     0.058 A 
ATOM     61  C   UNL     1      -1.645  -3.202 -15.850  1.00  0.00     0.135 A 
ATOM     62  C   UNL     1      -2.346  -0.922 -15.547  1.00  0.00     0.135 A 
ATOM     63  F   UNL     1      -1.602  -4.484 -15.456  1.00  0.00    -0.206 F 
ATOM     64  C   UNL     1      -0.941  -2.844 -16.995  1.00  0.00     0.059 A 
ATOM     65  C   UNL     1      -1.675  -0.547 -16.707  1.00  0.00     0.059 A 
ATOM     66  F   UNL     1      -3.003   0.027 -14.863  1.00  0.00    -0.206 F 
ATOM     67  C   UNL     1      -0.967  -1.514 -17.419  1.00  0.00     0.060 A 
BRANCH  67  68
ATOM     68  S   UNL     1      -0.075  -1.075 -18.926  1.00  0.00     0.124 S 
ATOM     69  O   UNL     1       1.312  -1.189 -18.487  1.00  0.00    -0.237 OA
ATOM     70  O   UNL     1      -0.529  -2.097 -19.864  1.00  0.00    -0.237 OA
ATOM     71  O   UNL     1      -0.534   0.281 -19.210  1.00  0.00    -0.744 OA
ENDBRANCH  67  68
ENDBRANCH  46  60
BRANCH  47  72
ATOM     72  C   UNL     1      -7.280  -4.632  -6.700  1.00  0.00     0.058 A 
ATOM     73  C   UNL     1      -8.137  -5.739  -6.612  1.00  0.00     0.135 A 
ATOM     74  C   UNL     1      -7.145  -3.820  -5.563  1.00  0.00     0.135 A 
ATOM     75  F   UNL     1      -8.302  -6.545  -7.672  1.00  0.00    -0.206 F 
ATOM     76  C   UNL     1      -8.856  -6.015  -5.453  1.00  0.00     0.059 A 
ATOM     77  C   UNL     1      -7.830  -4.092  -4.383  1.00  0.00     0.059 A 
ATOM     78  F   UNL     1      -6.322  -2.760  -5.586  1.00  0.00    -0.206 F 
ATOM     79  C   UNL     1      -8.695  -5.184  -4.343  1.00  0.00     0.060 A 
BRANCH  79  80
ATOM     80  S   UNL     1      -9.613  -5.564  -2.835  1.00  0.00     0.124 S 
ATOM     81  O   UNL     1     -10.970  -5.191  -3.216  1.00  0.00    -0.237 OA
ATOM     82  O   UNL     1      -9.362  -6.993  -2.676  1.00  0.00    -0.237 OA
ATOM     83  O   UNL     1      -8.980  -4.709  -1.835  1.00  0.00    -0.744 OA
ENDBRANCH  79  80
ENDBRANCH  47  72
BRANCH  59  84
ATOM     84  C   UNL     1      -9.267  -2.652 -13.092  1.00  0.00     0.058 A 
ATOM     85  C   UNL     1     -10.067  -1.551 -12.751  1.00  0.00     0.135 A 
ATOM     86  C   UNL     1      -9.738  -3.523 -14.088  1.00  0.00     0.135 A 
ATOM     87  F   UNL     1      -9.665  -0.692 -11.801  1.00  0.00    -0.206 F 
ATOM     88  C   UNL     1     -11.299  -1.335 -13.358  1.00  0.00     0.059 A 
ATOM     89  C   UNL     1     -10.952  -3.308 -14.732  1.00  0.00     0.059 A 
ATOM     90  F   UNL     1      -9.006  -4.586 -14.460  1.00  0.00    -0.206 F 
ATOM     91  C   UNL     1     -11.731  -2.217 -14.351  1.00  0.00     0.060 A 
BRANCH  91  92
ATOM     92  S   UNL     1     -13.315  -1.902 -15.156  1.00  0.00     0.124 S 
ATOM     93  O   UNL     1     -14.257  -2.258 -14.100  1.00  0.00    -0.237 OA
ATOM     94  O   UNL     1     -13.225  -0.480 -15.474  1.00  0.00    -0.237 OA
ATOM     95  O   UNL     1     -13.296  -2.799 -16.308  1.00  0.00    -0.744 OA
ENDBRANCH  91  92
ENDBRANCH  59  84
ENDBRANCH  33  34
ENDBRANCH  25  28
ENDBRANCH  23  24
ENDBRANCH  22  23
ENDBRANCH   1  22
TORSDOF 19
