REMARK SMILES CC(=O)[C@H]1CC(C)=C(C)C[C@@H]1C(=O)NCCCNC(=O)c1ccc(-c2c3nc(c(-c4c(F)cc(S(=O)(=O)[O-])cc4F)c4ccc([nH]4)c(-c4c(F)cc(S(=O)(=O)[O-])cc4F)c4nc(c(-c5c(F)cc(S(=O)(=O)[O-])cc5F)c5ccc2[nH]5)C=C4)C=C3)cc1
REMARK SMILES IDX 17 1 16 2 15 3 14 4 12 5 13 6 11 8 4 9 5 10 6 11 10 12 7 13
REMARK SMILES IDX 8 14 9 15 2 16 1 17 3 18 18 19 19 20 20 22 21 23 22 24 86 25
REMARK SMILES IDX 23 26 85 27 24 28 25 29 26 30 79 31 27 32 84 33 78 34 80 35
REMARK SMILES IDX 28 36 83 37 77 38 76 39 29 41 63 42 42 43 62 44 43 45 46 46
REMARK SMILES IDX 61 47 81 48 44 49 45 50 60 52 82 53 47 54 30 55 31 56 40 57
REMARK SMILES IDX 32 58 33 59 39 60 41 61 34 62 35 63 36 64 37 65 38 66 64 67
REMARK SMILES IDX 65 68 74 69 66 70 67 71 73 72 75 73 68 74 69 75 70 76 71 77
REMARK SMILES IDX 72 78 48 79 49 80 58 81 50 82 51 83 57 84 59 85 52 86 53 87
REMARK SMILES IDX 54 88 55 89 56 90
REMARK H PARENT 14 7 18 21 80 40 46 51
REMARK Flexibility Score: inf
ROOT
ATOM      1  C   UNL     1       5.049   2.036   2.267  1.00  0.00     0.118 C 
ENDROOT
BRANCH   1   2
ATOM      2  C   UNL     1       4.080   1.440   1.246  1.00  0.00     0.042 C 
BRANCH   2   3
ATOM      3  C   UNL     1       4.462   0.033   0.795  1.00  0.00     0.117 C 
BRANCH   3   4
ATOM      4  N   UNL     1       4.288  -0.941   1.859  1.00  0.00    -0.356 N 
ATOM      5  C   UNL     1       3.257  -1.800   2.106  1.00  0.00     0.224 C 
ATOM      6  O   UNL     1       3.317  -2.517   3.104  1.00  0.00    -0.275 OA
ATOM      7  H   UNL     1       5.031  -0.990   2.504  1.00  0.00     0.163 HD
BRANCH   5   8
ATOM      8  C   UNL     1       2.106  -1.894   1.110  1.00  0.00     0.093 C 
ATOM      9  C   UNL     1       0.766  -1.762   1.851  1.00  0.00     0.072 C 
ATOM     10  C   UNL     1      -0.217  -2.934   1.766  1.00  0.00     0.043 C 
ATOM     11  C   UNL     1       0.117  -4.094   0.868  1.00  0.00    -0.074 C 
ATOM     12  C   UNL     1       2.347  -3.141   0.250  1.00  0.00     0.045 C 
ATOM     13  C   UNL     1      -0.954  -5.159   0.851  1.00  0.00     0.039 C 
ATOM     14  C   UNL     1       1.269  -4.184   0.179  1.00  0.00    -0.074 C 
ATOM     15  C   UNL     1       1.607  -5.362  -0.702  1.00  0.00     0.039 C 
BRANCH   9  16
ATOM     16  C   UNL     1       0.008  -0.477   1.493  1.00  0.00     0.134 C 
ATOM     17  C   UNL     1       0.055   0.061   0.084  1.00  0.00     0.088 C 
ATOM     18  O   UNL     1      -0.671   0.100   2.347  1.00  0.00    -0.300 OA
ENDBRANCH   9  16
ENDBRANCH   5   8
ENDBRANCH   3   4
ENDBRANCH   2   3
ENDBRANCH   1   2
BRANCH   1  19
ATOM     19  N   UNL     1       6.408   2.127   1.745  1.00  0.00    -0.352 N 
ATOM     20  C   UNL     1       7.227   3.212   1.582  1.00  0.00     0.251 C 
ATOM     21  H   UNL     1       6.800   1.269   1.464  1.00  0.00     0.163 HD
ATOM     22  O   UNL     1       8.245   3.095   0.898  1.00  0.00    -0.269 OA
BRANCH  20  23
ATOM     23  C   UNL     1       6.905   4.508   2.213  1.00  0.00     0.039 A 
ATOM     24  C   UNL     1       7.165   5.686   1.506  1.00  0.00     0.014 A 
ATOM     25  C   UNL     1       6.399   4.571   3.514  1.00  0.00     0.014 A 
ATOM     26  C   UNL     1       6.866   6.922   2.083  1.00  0.00     0.010 A 
ATOM     27  C   UNL     1       6.035   5.799   4.060  1.00  0.00     0.010 A 
ATOM     28  C   UNL     1       6.270   6.987   3.353  1.00  0.00    -0.014 A 
BRANCH  28  29
ATOM     29  C   UNL     1       5.881   8.288   3.954  1.00  0.00     0.031 A 
ATOM     30  C   UNL     1       6.541   8.766   5.219  1.00  0.00     0.074 A 
ATOM     31  C   UNL     1       4.887   9.003   3.391  1.00  0.00     0.049 A 
ATOM     32  N   UNL     1       6.292   9.841   5.923  1.00  0.00    -0.248 NA
ATOM     33  C   UNL     1       7.601   7.914   5.783  1.00  0.00     0.031 C 
ATOM     34  C   UNL     1       4.142   8.617   2.190  1.00  0.00     0.029 A 
ATOM     35  N   UNL     1       4.325  10.200   3.757  1.00  0.00    -0.354 N 
ATOM     36  C   UNL     1       7.145   9.783   7.019  1.00  0.00     0.074 A 
ATOM     37  C   UNL     1       7.890   8.548   6.910  1.00  0.00     0.031 C 
ATOM     38  C   UNL     1       3.240   9.570   1.906  1.00  0.00     0.029 A 
ATOM     39  C   UNL     1       3.313  10.614   2.922  1.00  0.00     0.049 A 
ATOM     40  H   UNL     1       4.618  10.714   4.544  1.00  0.00     0.167 HD
ATOM     41  C   UNL     1       7.303  10.687   8.015  1.00  0.00     0.037 A 
ATOM     42  C   UNL     1       2.529  11.707   2.975  1.00  0.00     0.037 A 
ATOM     43  C   UNL     1       6.583  11.932   8.094  1.00  0.00     0.049 A 
ATOM     44  C   UNL     1       2.731  12.697   4.091  1.00  0.00     0.074 A 
ATOM     45  C   UNL     1       6.730  12.953   9.016  1.00  0.00     0.029 A 
ATOM     46  N   UNL     1       5.578  12.323   7.221  1.00  0.00    -0.354 N 
ATOM     47  N   UNL     1       3.598  12.665   5.075  1.00  0.00    -0.248 NA
ATOM     48  C   UNL     1       1.852  13.874   4.101  1.00  0.00     0.031 C 
ATOM     49  C   UNL     1       5.782  13.941   8.730  1.00  0.00     0.029 A 
ATOM     50  C   UNL     1       5.078  13.559   7.599  1.00  0.00     0.049 A 
ATOM     51  H   UNL     1       5.267  11.800   6.447  1.00  0.00     0.167 HD
ATOM     52  C   UNL     1       3.390  13.832   5.802  1.00  0.00     0.074 A 
ATOM     53  C   UNL     1       2.323  14.553   5.138  1.00  0.00     0.031 C 
ATOM     54  C   UNL     1       4.024  14.268   6.918  1.00  0.00     0.037 A 
BRANCH  41  55
ATOM     55  C   UNL     1       8.294  10.373   9.103  1.00  0.00     0.058 A 
ATOM     56  C   UNL     1       9.679  10.396   8.871  1.00  0.00     0.135 A 
ATOM     57  C   UNL     1       7.854  10.103  10.409  1.00  0.00     0.135 A 
ATOM     58  F   UNL     1      10.155  10.634   7.639  1.00  0.00    -0.206 F 
ATOM     59  C   UNL     1      10.591  10.142   9.890  1.00  0.00     0.059 A 
ATOM     60  C   UNL     1       8.750   9.873  11.450  1.00  0.00     0.059 A 
ATOM     61  F   UNL     1       6.541  10.067  10.686  1.00  0.00    -0.206 F 
ATOM     62  C   UNL     1      10.117   9.884  11.178  1.00  0.00     0.060 A 
BRANCH  62  63
ATOM     63  S   UNL     1      11.315   9.581  12.493  1.00  0.00     0.124 S 
ATOM     64  O   UNL     1      11.793   8.245  12.150  1.00  0.00    -0.237 OA
ATOM     65  O   UNL     1      12.273  10.665  12.299  1.00  0.00    -0.237 OA
ATOM     66  O   UNL     1      10.514   9.667  13.710  1.00  0.00    -0.744 OA
ENDBRANCH  62  63
ENDBRANCH  41  55
BRANCH  42  67
ATOM     67  C   UNL     1       1.497  11.941   1.930  1.00  0.00     0.058 A 
ATOM     68  C   UNL     1       1.638  12.983   1.002  1.00  0.00     0.135 A 
ATOM     69  C   UNL     1       0.349  11.138   1.842  1.00  0.00     0.135 A 
ATOM     70  F   UNL     1       2.717  13.780   1.048  1.00  0.00    -0.206 F 
ATOM     71  C   UNL     1       0.667  13.239   0.040  1.00  0.00     0.059 A 
ATOM     72  C   UNL     1      -0.624  11.358   0.871  1.00  0.00     0.059 A 
ATOM     73  F   UNL     1       0.175  10.116   2.694  1.00  0.00    -0.206 F 
ATOM     74  C   UNL     1      -0.462  12.421  -0.017  1.00  0.00     0.060 A 
BRANCH  74  75
ATOM     75  S   UNL     1      -1.704  12.746  -1.287  1.00  0.00     0.124 S 
ATOM     76  O   UNL     1      -2.349  13.946  -0.766  1.00  0.00    -0.237 OA
ATOM     77  O   UNL     1      -0.883  12.928  -2.480  1.00  0.00    -0.237 OA
ATOM     78  O   UNL     1      -2.519  11.535  -1.276  1.00  0.00    -0.744 OA
ENDBRANCH  74  75
ENDBRANCH  42  67
BRANCH  54  79
ATOM     79  C   UNL     1       3.612  15.605   7.469  1.00  0.00     0.058 A 
ATOM     80  C   UNL     1       2.386  15.787   8.127  1.00  0.00     0.135 A 
ATOM     81  C   UNL     1       4.478  16.707   7.376  1.00  0.00     0.135 A 
ATOM     82  F   UNL     1       1.520  14.768   8.236  1.00  0.00    -0.206 F 
ATOM     83  C   UNL     1       2.021  17.023   8.651  1.00  0.00     0.059 A 
ATOM     84  C   UNL     1       4.146  17.944   7.918  1.00  0.00     0.059 A 
ATOM     85  F   UNL     1       5.668  16.583   6.766  1.00  0.00    -0.206 F 
ATOM     86  C   UNL     1       2.909  18.095   8.543  1.00  0.00     0.060 A 
BRANCH  86  87
ATOM     87  S   UNL     1       2.437  19.685   9.255  1.00  0.00     0.124 S 
ATOM     88  O   UNL     1       1.450  20.158   8.290  1.00  0.00    -0.237 OA
ATOM     89  O   UNL     1       1.912  19.300  10.562  1.00  0.00    -0.237 OA
ATOM     90  O   UNL     1       3.692  20.430   9.285  1.00  0.00    -0.744 OA
ENDBRANCH  86  87
ENDBRANCH  54  79
ENDBRANCH  28  29
ENDBRANCH  20  23
ENDBRANCH   1  19
TORSDOF 14
