REMARK SMILES NS(=O)(=O)c1ccc(N2N=C(C(=O)NCCCNC(=O)c3ccc(-c4c5nc(c(-c6c(F)cc(S(=O)(=O)[O-])cc6F)c6ccc([nH]6)c(-c6c(F)cc(S(=O)(=O)[O-])cc6F)c6nc(c(-c7c(F)cc(S(=O)(=O)[O-])cc7F)c7ccc4[nH]7)C=C6)C=C5)cc3)C[C@H]2c2cccs2)cc1
REMARK SMILES IDX 16 1 15 2 14 3 12 4 13 5 11 7 9 8 10 9 88 10 87 11 8 12 5 13
REMARK SMILES IDX 6 14 95 15 7 16 94 17 2 18 3 19 4 20 1 21 89 24 90 25 93 26
REMARK SMILES IDX 91 27 92 28 17 29 18 30 19 31 20 33 21 34 22 35 86 36 23 37
REMARK SMILES IDX 85 38 24 39 25 40 26 41 79 42 27 43 84 44 78 45 80 46 28 47
REMARK SMILES IDX 83 48 77 49 76 50 29 52 63 53 42 54 62 55 43 56 46 57 61 58
REMARK SMILES IDX 81 59 44 60 45 61 60 63 82 64 47 65 30 66 31 67 40 68 32 69
REMARK SMILES IDX 33 70 39 71 41 72 34 73 35 74 36 75 37 76 38 77 64 78 65 79
REMARK SMILES IDX 74 80 66 81 67 82 73 83 75 84 68 85 69 86 70 87 71 88 72 89
REMARK SMILES IDX 48 90 49 91 58 92 50 93 51 94 57 95 59 96 52 97 53 98 54 99
REMARK SMILES IDX 55 100 56 101
REMARK H PARENT 14 6 1 22 1 23 18 32 80 51 46 62
REMARK Flexibility Score: inf
ROOT
ATOM      1  C   UNL     1       1.412  -5.886  10.944  1.00  0.00     0.042 C 
ENDROOT
BRANCH   1   2
ATOM      2  C   UNL     1       2.460  -4.837  10.601  1.00  0.00     0.118 C 
BRANCH   2   3
ATOM      3  N   UNL     1       3.147  -5.154   9.363  1.00  0.00    -0.351 N 
ATOM      4  C   UNL     1       3.146  -4.639   8.093  1.00  0.00     0.267 C 
ATOM      5  O   UNL     1       3.810  -5.234   7.245  1.00  0.00    -0.268 OA
ATOM      6  H   UNL     1       3.757  -5.921   9.457  1.00  0.00     0.163 HD
BRANCH   4   7
ATOM      7  C   UNL     1       2.426  -3.365   7.679  1.00  0.00     0.128 C 
ATOM      8  N   UNL     1       1.989  -1.634   6.498  1.00  0.00    -0.256 N 
ATOM      9  N   UNL     1       2.702  -2.792   6.545  1.00  0.00    -0.171 NA
ATOM     10  C   UNL     1       1.078  -1.462   7.635  1.00  0.00     0.154 C 
ATOM     11  C   UNL     1       1.351  -2.713   8.479  1.00  0.00     0.097 C 
BRANCH   8  12
ATOM     12  C   UNL     1       1.668  -1.060   5.266  1.00  0.00     0.060 A 
ATOM     13  C   UNL     1       0.918   0.159   2.851  1.00  0.00     0.082 A 
ATOM     14  C   UNL     1       0.809  -1.226   2.990  1.00  0.00     0.024 A 
ATOM     15  C   UNL     1       1.420   0.939   3.892  1.00  0.00     0.024 A 
ATOM     16  C   UNL     1       1.197  -1.830   4.193  1.00  0.00     0.029 A 
ATOM     17  C   UNL     1       1.791   0.325   5.088  1.00  0.00     0.029 A 
BRANCH  13  18
ATOM     18  S   UNL     1       0.434   0.938   1.343  1.00  0.00     0.238 S 
ATOM     19  O   UNL     1       1.043   2.251   1.268  1.00  0.00    -0.207 OA
ATOM     20  O   UNL     1      -0.975   0.728   1.141  1.00  0.00    -0.207 OA
BRANCH  18  21
ATOM     21  N   UNL     1       1.224   0.031   0.172  1.00  0.00    -0.225 NA
ATOM     22  H   UNL     1       1.007   0.405  -0.752  1.00  0.00     0.137 HD
ATOM     23  H   UNL     1       0.915  -0.940   0.227  1.00  0.00     0.137 HD
ENDBRANCH  18  21
ENDBRANCH  13  18
ENDBRANCH   8  12
BRANCH  10  24
ATOM     24  C   UNL     1       1.207  -0.151   8.401  1.00  0.00     0.030 A 
ATOM     25  C   UNL     1       0.487   1.012   8.178  1.00  0.00     0.017 A 
ATOM     26  S   UNL     1       2.350   0.087   9.665  1.00  0.00    -0.147 S 
ATOM     27  C   UNL     1       0.834   2.062   9.075  1.00  0.00     0.012 A 
ATOM     28  C   UNL     1       1.796   1.669   9.976  1.00  0.00     0.065 A 
ENDBRANCH  10  24
ENDBRANCH   4   7
ENDBRANCH   2   3
ENDBRANCH   1   2
BRANCH   1  29
ATOM     29  C   UNL     1       2.022  -7.183  11.461  1.00  0.00     0.118 C 
BRANCH  29  30
ATOM     30  N   UNL     1       2.704  -6.993  12.737  1.00  0.00    -0.352 N 
ATOM     31  C   UNL     1       2.392  -7.462  13.989  1.00  0.00     0.251 C 
ATOM     32  H   UNL     1       3.518  -6.441  12.693  1.00  0.00     0.163 HD
ATOM     33  O   UNL     1       2.952  -6.978  14.969  1.00  0.00    -0.269 OA
BRANCH  31  34
ATOM     34  C   UNL     1       1.386  -8.531  14.159  1.00  0.00     0.039 A 
ATOM     35  C   UNL     1       0.504  -8.470  15.242  1.00  0.00     0.014 A 
ATOM     36  C   UNL     1       1.328  -9.607  13.271  1.00  0.00     0.014 A 
ATOM     37  C   UNL     1      -0.475  -9.454  15.392  1.00  0.00     0.010 A 
ATOM     38  C   UNL     1       0.295 -10.532  13.367  1.00  0.00     0.010 A 
ATOM     39  C   UNL     1      -0.612 -10.472  14.434  1.00  0.00    -0.014 A 
BRANCH  39  40
ATOM     40  C   UNL     1      -1.687 -11.492  14.530  1.00  0.00     0.031 A 
ATOM     41  C   UNL     1      -1.333 -12.948  14.671  1.00  0.00     0.074 A 
ATOM     42  C   UNL     1      -2.975 -11.113  14.410  1.00  0.00     0.049 A 
ATOM     43  N   UNL     1      -2.120 -13.992  14.674  1.00  0.00    -0.248 NA
ATOM     44  C   UNL     1       0.097 -13.276  14.793  1.00  0.00     0.031 C 
ATOM     45  C   UNL     1      -3.439  -9.738  14.214  1.00  0.00     0.029 A 
ATOM     46  N   UNL     1      -4.130 -11.853  14.421  1.00  0.00    -0.354 N 
ATOM     47  C   UNL     1      -1.283 -15.097  14.776  1.00  0.00     0.074 A 
ATOM     48  C   UNL     1       0.075 -14.600  14.777  1.00  0.00     0.031 C 
ATOM     49  C   UNL     1      -4.780  -9.730  14.146  1.00  0.00     0.029 A 
ATOM     50  C   UNL     1      -5.269 -11.101  14.252  1.00  0.00     0.049 A 
ATOM     51  H   UNL     1      -4.143 -12.830  14.539  1.00  0.00     0.167 HD
ATOM     52  C   UNL     1      -1.616 -16.405  14.884  1.00  0.00     0.037 A 
ATOM     53  C   UNL     1      -6.561 -11.475  14.180  1.00  0.00     0.037 A 
ATOM     54  C   UNL     1      -2.972 -16.888  14.916  1.00  0.00     0.049 A 
ATOM     55  C   UNL     1      -6.908 -12.933  14.315  1.00  0.00     0.074 A 
ATOM     56  C   UNL     1      -3.419 -18.186  15.088  1.00  0.00     0.029 A 
ATOM     57  N   UNL     1      -4.099 -16.092  14.774  1.00  0.00    -0.354 N 
ATOM     58  N   UNL     1      -6.106 -13.959  14.475  1.00  0.00    -0.248 NA
ATOM     59  C   UNL     1      -8.334 -13.284  14.266  1.00  0.00     0.031 C 
ATOM     60  C   UNL     1      -4.816 -18.181  15.009  1.00  0.00     0.029 A 
ATOM     61  C   UNL     1      -5.241 -16.873  14.836  1.00  0.00     0.049 A 
ATOM     62  H   UNL     1      -4.089 -15.116  14.648  1.00  0.00     0.167 HD
ATOM     63  C   UNL     1      -6.931 -15.074  14.572  1.00  0.00     0.074 A 
ATOM     64  C   UNL     1      -8.294 -14.595  14.465  1.00  0.00     0.031 C 
ATOM     65  C   UNL     1      -6.591 -16.377  14.735  1.00  0.00     0.037 A 
BRANCH  52  66
ATOM     66  C   UNL     1      -0.496 -17.405  14.986  1.00  0.00     0.058 A 
ATOM     67  C   UNL     1       0.313 -17.492  16.131  1.00  0.00     0.135 A 
ATOM     68  C   UNL     1      -0.248 -18.309  13.940  1.00  0.00     0.135 A 
ATOM     69  F   UNL     1       0.130 -16.643  17.154  1.00  0.00    -0.206 F 
ATOM     70  C   UNL     1       1.348 -18.417  16.222  1.00  0.00     0.059 A 
ATOM     71  C   UNL     1       0.764 -19.262  14.022  1.00  0.00     0.059 A 
ATOM     72  F   UNL     1      -0.990 -18.270  12.822  1.00  0.00    -0.206 F 
ATOM     73  C   UNL     1       1.566 -19.297  15.162  1.00  0.00     0.060 A 
BRANCH  73  74
ATOM     74  S   UNL     1       2.911 -20.494  15.299  1.00  0.00     0.124 S 
ATOM     75  O   UNL     1       4.080 -19.637  15.123  1.00  0.00    -0.237 OA
ATOM     76  O   UNL     1       2.716 -21.030  16.642  1.00  0.00    -0.237 OA
ATOM     77  O   UNL     1       2.648 -21.428  14.209  1.00  0.00    -0.744 OA
ENDBRANCH  73  74
ENDBRANCH  52  66
BRANCH  53  78
ATOM     78  C   UNL     1      -7.622 -10.449  13.995  1.00  0.00     0.058 A 
ATOM     79  C   UNL     1      -8.501 -10.126  15.039  1.00  0.00     0.135 A 
ATOM     80  C   UNL     1      -7.767  -9.759  12.781  1.00  0.00     0.135 A 
ATOM     81  F   UNL     1      -8.405 -10.761  16.217  1.00  0.00    -0.206 F 
ATOM     82  C   UNL     1      -9.496  -9.166  14.884  1.00  0.00     0.059 A 
ATOM     83  C   UNL     1      -8.738  -8.778  12.610  1.00  0.00     0.059 A 
ATOM     84  F   UNL     1      -6.938 -10.018  11.757  1.00  0.00    -0.206 F 
ATOM     85  C   UNL     1      -9.604  -8.495  13.665  1.00  0.00     0.060 A 
BRANCH  85  86
ATOM     86  S   UNL     1     -10.866  -7.215  13.491  1.00  0.00     0.124 S 
ATOM     87  O   UNL     1     -12.083  -8.012  13.396  1.00  0.00    -0.237 OA
ATOM     88  O   UNL     1     -10.697  -6.449  14.722  1.00  0.00    -0.237 OA
ATOM     89  O   UNL     1     -10.468  -6.518  12.270  1.00  0.00    -0.744 OA
ENDBRANCH  85  86
ENDBRANCH  53  78
BRANCH  65  90
ATOM     90  C   UNL     1      -7.710 -17.374  14.842  1.00  0.00     0.058 A 
ATOM     91  C   UNL     1      -8.473 -17.749  13.725  1.00  0.00     0.135 A 
ATOM     92  C   UNL     1      -7.986 -18.002  16.067  1.00  0.00     0.135 A 
ATOM     93  F   UNL     1      -8.254 -17.173  12.533  1.00  0.00    -0.206 F 
ATOM     94  C   UNL     1      -9.487 -18.696  13.825  1.00  0.00     0.059 A 
ATOM     95  C   UNL     1      -8.976 -18.972  16.183  1.00  0.00     0.059 A 
ATOM     96  F   UNL     1      -7.278 -17.687  17.163  1.00  0.00    -0.206 F 
ATOM     97  C   UNL     1      -9.730 -19.304  15.058  1.00  0.00     0.060 A 
BRANCH  97  98
ATOM     98  S   UNL     1     -11.024 -20.557  15.166  1.00  0.00     0.124 S 
ATOM     99  O   UNL     1     -12.231 -19.738  15.112  1.00  0.00    -0.237 OA
ATOM    100  O   UNL     1     -10.762 -21.379  13.989  1.00  0.00    -0.237 OA
ATOM    101  O   UNL     1     -10.763 -21.206  16.447  1.00  0.00    -0.744 OA
ENDBRANCH  97  98
ENDBRANCH  65  90
ENDBRANCH  39  40
ENDBRANCH  31  34
ENDBRANCH  29  30
ENDBRANCH   1  29
TORSDOF 17
