REMARK SMILES Cc1csc([C@H](C)Nc2cc(C)c(N)c(C(=O)NCCCNC(=O)c3ccc(-c4c5nc(c(-c6c(F)cc(S(=O)(=O)[O-])cc6F)c6ccc([nH]6)c(-c6c(F)cc(S(=O)(=O)[O-])cc6F)c6nc(c(-c7c(F)cc(S(=O)(=O)[O-])cc7F)c7ccc4[nH]7)C=C6)C=C5)cc3)c2)n1
REMARK SMILES IDX 20 1 19 2 18 3 16 4 17 5 15 7 9 8 10 9 91 10 11 11 12 12
REMARK SMILES IDX 13 13 8 14 6 16 7 17 5 18 1 19 2 20 3 21 92 22 4 23 14 24
REMARK SMILES IDX 21 27 22 28 23 29 24 31 25 32 26 33 90 34 27 35 89 36 28 37
REMARK SMILES IDX 29 38 30 39 83 40 31 41 88 42 82 43 84 44 32 45 87 46 81 47
REMARK SMILES IDX 80 48 33 50 67 51 46 52 66 53 47 54 50 55 65 56 85 57 48 58
REMARK SMILES IDX 49 59 64 61 86 62 51 63 34 64 35 65 44 66 36 67 37 68 43 69
REMARK SMILES IDX 45 70 38 71 39 72 40 73 41 74 42 75 68 76 69 77 78 78 70 79
REMARK SMILES IDX 71 80 77 81 79 82 72 83 73 84 74 85 75 86 76 87 52 88 53 89
REMARK SMILES IDX 62 90 54 91 55 92 61 93 63 94 56 95 57 96 58 97 59 98 60 99
REMARK H PARENT 18 6 8 15 14 25 14 26 22 30 84 49 50 60
REMARK Flexibility Score: inf
ROOT
ATOM      1  C   UNL     1      -0.249   1.920   5.650  1.00  0.00     0.042 C 
ENDROOT
BRANCH   1   2
ATOM      2  C   UNL     1       0.152   3.391   5.789  1.00  0.00     0.118 C 
BRANCH   2   3
ATOM      3  N   UNL     1       1.490   3.521   6.339  1.00  0.00    -0.352 N 
ATOM      4  C   UNL     1       2.733   3.717   5.786  1.00  0.00     0.253 C 
ATOM      5  O   UNL     1       3.667   3.794   6.592  1.00  0.00    -0.269 OA
ATOM      6  H   UNL     1       1.511   3.454   7.321  1.00  0.00     0.163 HD
BRANCH   4   7
ATOM      7  C   UNL     1       3.003   3.865   4.315  1.00  0.00     0.065 A 
ATOM      8  C   UNL     1       2.341   3.511   1.978  1.00  0.00     0.036 A 
ATOM      9  C   UNL     1       3.502   4.151   1.561  1.00  0.00     0.031 A 
ATOM     10  C   UNL     1       2.131   3.353   3.350  1.00  0.00     0.041 A 
ATOM     11  C   UNL     1       4.441   4.633   2.493  1.00  0.00    -0.025 A 
ATOM     12  C   UNL     1       5.682   5.314   1.982  1.00  0.00     0.046 C 
ATOM     13  C   UNL     1       4.207   4.478   3.880  1.00  0.00     0.047 A 
BRANCH   8  14
ATOM     14  N   UNL     1       1.342   3.091   1.127  1.00  0.00    -0.376 N 
ATOM     15  H   UNL     1       0.411   3.241   1.409  1.00  0.00     0.161 HD
BRANCH  14  16
ATOM     16  C   UNL     1       1.560   2.437  -0.167  1.00  0.00     0.135 C 
ATOM     17  C   UNL     1       0.642   1.202  -0.144  1.00  0.00     0.039 C 
BRANCH  16  18
ATOM     18  C   UNL     1       1.306   3.329  -1.384  1.00  0.00     0.115 A 
ATOM     19  C   UNL     1       1.178   6.638  -2.824  1.00  0.00     0.067 C 
ATOM     20  C   UNL     1       1.120   5.167  -2.633  1.00  0.00     0.049 A 
ATOM     21  C   UNL     1       0.849   4.222  -3.600  1.00  0.00     0.090 A 
ATOM     22  N   UNL     1       1.365   4.650  -1.371  1.00  0.00    -0.244 NA
ATOM     23  S   UNL     1       0.975   2.652  -2.939  1.00  0.00    -0.125 S 
ENDBRANCH  16  18
ENDBRANCH  14  16
ENDBRANCH   8  14
BRANCH  13  24
ATOM     24  N   UNL     1       5.092   5.072   4.793  1.00  0.00    -0.398 N 
ATOM     25  H   UNL     1       5.922   5.493   4.471  1.00  0.00     0.156 HD
ATOM     26  H   UNL     1       4.882   5.070   5.754  1.00  0.00     0.156 HD
ENDBRANCH  13  24
ENDBRANCH   4   7
ENDBRANCH   2   3
ENDBRANCH   1   2
BRANCH   1  27
ATOM     27  C   UNL     1      -0.607   1.262   6.982  1.00  0.00     0.118 C 
BRANCH  27  28
ATOM     28  N   UNL     1      -1.843   1.798   7.533  1.00  0.00    -0.352 N 
ATOM     29  C   UNL     1      -3.009   1.160   7.874  1.00  0.00     0.251 C 
ATOM     30  H   UNL     1      -1.843   2.770   7.686  1.00  0.00     0.163 HD
ATOM     31  O   UNL     1      -4.015   1.830   8.091  1.00  0.00    -0.269 OA
BRANCH  29  32
ATOM     32  C   UNL     1      -3.066  -0.315   7.978  1.00  0.00     0.039 A 
ATOM     33  C   UNL     1      -4.211  -0.977   7.523  1.00  0.00     0.014 A 
ATOM     34  C   UNL     1      -2.031  -1.042   8.573  1.00  0.00     0.014 A 
ATOM     35  C   UNL     1      -4.298  -2.368   7.622  1.00  0.00     0.010 A 
ATOM     36  C   UNL     1      -2.090  -2.434   8.612  1.00  0.00     0.010 A 
ATOM     37  C   UNL     1      -3.227  -3.111   8.145  1.00  0.00    -0.014 A 
BRANCH  37  38
ATOM     38  C   UNL     1      -3.279  -4.594   8.210  1.00  0.00     0.031 A 
ATOM     39  C   UNL     1      -3.267  -5.295   9.541  1.00  0.00     0.074 A 
ATOM     40  C   UNL     1      -3.273  -5.308   7.067  1.00  0.00     0.049 A 
ATOM     41  N   UNL     1      -3.229  -6.578   9.799  1.00  0.00    -0.248 NA
ATOM     42  C   UNL     1      -3.270  -4.443  10.741  1.00  0.00     0.031 C 
ATOM     43  C   UNL     1      -3.239  -4.741   5.717  1.00  0.00     0.029 A 
ATOM     44  N   UNL     1      -3.281  -6.664   6.856  1.00  0.00    -0.354 N 
ATOM     45  C   UNL     1      -3.188  -6.686  11.184  1.00  0.00     0.074 A 
ATOM     46  C   UNL     1      -3.158  -5.339  11.711  1.00  0.00     0.031 C 
ATOM     47  C   UNL     1      -3.247  -5.739   4.820  1.00  0.00     0.029 A 
ATOM     48  C   UNL     1      -3.248  -7.016   5.528  1.00  0.00     0.049 A 
ATOM     49  H   UNL     1      -3.308  -7.322   7.588  1.00  0.00     0.167 HD
ATOM     50  C   UNL     1      -3.195  -7.806  11.947  1.00  0.00     0.037 A 
ATOM     51  C   UNL     1      -3.214  -8.230   4.945  1.00  0.00     0.037 A 
ATOM     52  C   UNL     1      -3.253  -9.143  11.414  1.00  0.00     0.049 A 
ATOM     53  C   UNL     1      -3.233  -9.459   5.811  1.00  0.00     0.074 A 
ATOM     54  C   UNL     1      -3.322 -10.342  12.101  1.00  0.00     0.029 A 
ATOM     55  N   UNL     1      -3.248  -9.458  10.062  1.00  0.00    -0.354 N 
ATOM     56  N   UNL     1      -3.252  -9.543   7.120  1.00  0.00    -0.248 NA
ATOM     57  C   UNL     1      -3.234 -10.758   5.125  1.00  0.00     0.031 C 
ATOM     58  C   UNL     1      -3.320 -11.383  11.166  1.00  0.00     0.029 A 
ATOM     59  C   UNL     1      -3.297 -10.832   9.895  1.00  0.00     0.049 A 
ATOM     60  H   UNL     1      -3.215  -8.801   9.329  1.00  0.00     0.167 HD
ATOM     61  C   UNL     1      -3.293 -10.901   7.414  1.00  0.00     0.074 A 
ATOM     62  C   UNL     1      -3.307 -11.601   6.146  1.00  0.00     0.031 C 
ATOM     63  C   UNL     1      -3.319 -11.512   8.624  1.00  0.00     0.037 A 
BRANCH  50  64
ATOM     64  C   UNL     1      -3.144  -7.634  13.441  1.00  0.00     0.058 A 
ATOM     65  C   UNL     1      -4.236  -7.122  14.161  1.00  0.00     0.135 A 
ATOM     66  C   UNL     1      -2.005  -8.017  14.167  1.00  0.00     0.135 A 
ATOM     67  F   UNL     1      -5.346  -6.727  13.517  1.00  0.00    -0.206 F 
ATOM     68  C   UNL     1      -4.188  -6.964  15.543  1.00  0.00     0.059 A 
ATOM     69  C   UNL     1      -1.945  -7.895  15.553  1.00  0.00     0.059 A 
ATOM     70  F   UNL     1      -0.933  -8.515  13.531  1.00  0.00    -0.206 F 
ATOM     71  C   UNL     1      -3.037  -7.352  16.230  1.00  0.00     0.060 A 
BRANCH  71  72
ATOM     72  S   UNL     1      -2.991  -7.143  18.023  1.00  0.00     0.124 S 
ATOM     73  O   UNL     1      -2.833  -5.697  18.142  1.00  0.00    -0.237 OA
ATOM     74  O   UNL     1      -4.287  -7.674  18.433  1.00  0.00    -0.237 OA
ATOM     75  O   UNL     1      -1.836  -7.936  18.429  1.00  0.00    -0.744 OA
ENDBRANCH  71  72
ENDBRANCH  50  64
BRANCH  51  76
ATOM     76  C   UNL     1      -3.183  -8.337   3.462  1.00  0.00     0.058 A 
ATOM     77  C   UNL     1      -4.304  -8.786   2.749  1.00  0.00     0.135 A 
ATOM     78  C   UNL     1      -2.046  -7.969   2.727  1.00  0.00     0.135 A 
ATOM     79  F   UNL     1      -5.414  -9.155   3.408  1.00  0.00    -0.206 F 
ATOM     80  C   UNL     1      -4.297  -8.879   1.361  1.00  0.00     0.059 A 
ATOM     81  C   UNL     1      -2.022  -8.030   1.337  1.00  0.00     0.059 A 
ATOM     82  F   UNL     1      -0.953  -7.515   3.361  1.00  0.00    -0.206 F 
ATOM     83  C   UNL     1      -3.151  -8.494   0.663  1.00  0.00     0.060 A 
BRANCH  83  84
ATOM     84  S   UNL     1      -3.171  -8.562  -1.141  1.00  0.00     0.124 S 
ATOM     85  O   UNL     1      -3.073  -9.997  -1.383  1.00  0.00    -0.237 OA
ATOM     86  O   UNL     1      -4.456  -7.947  -1.458  1.00  0.00    -0.237 OA
ATOM     87  O   UNL     1      -2.000  -7.776  -1.519  1.00  0.00    -0.744 OA
ENDBRANCH  83  84
ENDBRANCH  51  76
BRANCH  63  88
ATOM     88  C   UNL     1      -3.401 -13.013   8.639  1.00  0.00     0.058 A 
ATOM     89  C   UNL     1      -2.298 -13.815   8.309  1.00  0.00     0.135 A 
ATOM     90  C   UNL     1      -4.583 -13.655   9.042  1.00  0.00     0.135 A 
ATOM     91  F   UNL     1      -1.147 -13.251   7.910  1.00  0.00    -0.206 F 
ATOM     92  C   UNL     1      -2.369 -15.203   8.360  1.00  0.00     0.059 A 
ATOM     93  C   UNL     1      -4.669 -15.041   9.126  1.00  0.00     0.059 A 
ATOM     94  F   UNL     1      -5.664 -12.933   9.377  1.00  0.00    -0.206 F 
ATOM     95  C   UNL     1      -3.559 -15.807   8.773  1.00  0.00     0.060 A 
BRANCH  95  96
ATOM     96  S   UNL     1      -3.627 -17.608   8.873  1.00  0.00     0.124 S 
ATOM     97  O   UNL     1      -3.712 -17.978   7.464  1.00  0.00    -0.237 OA
ATOM     98  O   UNL     1      -2.370 -17.933   9.539  1.00  0.00    -0.237 OA
ATOM     99  O   UNL     1      -4.830 -17.860   9.661  1.00  0.00    -0.744 OA
ENDBRANCH  95  96
ENDBRANCH  63  88
ENDBRANCH  37  38
ENDBRANCH  29  32
ENDBRANCH  27  28
ENDBRANCH   1  27
TORSDOF 17
