REMARK SMILES C[NH+]1CCC2(CC1)OC[C@@H](C(=O)NCCCNC(=O)c1ccc(-c3c4nc(c(-c5c(F)cc(S(=O)(=O)[O-])cc5F)c5ccc([nH]5)c(-c5c(F)cc(S(=O)(=O)[O-])cc5F)c5nc(c(-c6c(F)cc(S(=O)(=O)[O-])cc6F)c6ccc3[nH]6)C=C5)C=C4)cc1)N2C(=O)c1ccc2ccccc2c1
REMARK SMILES IDX 15 1 14 2 13 3 11 4 12 5 10 7 1 8 2 9 3 10 7 11 4 13 6 14
REMARK SMILES IDX 5 15 8 16 86 17 9 18 87 19 88 20 89 21 90 22 98 23 91 24
REMARK SMILES IDX 97 25 92 26 96 27 93 28 95 29 94 30 16 31 17 32 18 33 19 35
REMARK SMILES IDX 20 36 21 37 85 38 22 39 84 40 23 41 24 42 25 43 78 44 26 45
REMARK SMILES IDX 83 46 77 47 79 48 27 49 82 50 76 51 75 52 28 54 62 55 41 56
REMARK SMILES IDX 61 57 42 58 45 59 60 60 80 61 43 62 44 63 59 65 81 66 46 67
REMARK SMILES IDX 29 68 30 69 39 70 31 71 32 72 38 73 40 74 33 75 34 76 35 77
REMARK SMILES IDX 36 78 37 79 63 80 64 81 73 82 65 83 66 84 72 85 74 86 67 87
REMARK SMILES IDX 68 88 69 89 70 90 71 91 47 92 48 93 57 94 49 95 50 96 56 97
REMARK SMILES IDX 58 98 51 99 52 100 53 101 54 102 55 103
REMARK H PARENT 13 6 2 12 17 34 79 53 45 64
REMARK Flexibility Score: inf
ROOT
ATOM      1  C   UNL     1      -2.250   4.989   3.950  1.00  0.00     0.042 C 
ENDROOT
BRANCH   1   2
ATOM      2  C   UNL     1      -0.958   5.698   3.610  1.00  0.00     0.117 C 
BRANCH   2   3
ATOM      3  N   UNL     1      -0.074   5.708   4.754  1.00  0.00    -0.354 N 
ATOM      4  C   UNL     1       0.998   4.919   5.039  1.00  0.00     0.245 C 
ATOM      5  O   UNL     1       1.636   5.214   6.058  1.00  0.00    -0.273 OA
ATOM      6  H   UNL     1      -0.279   6.392   5.432  1.00  0.00     0.163 HD
BRANCH   4   7
ATOM      7  C   UNL     1       1.580   3.913   4.029  1.00  0.00     0.203 C 
ATOM      8  C   UNL     1       1.581  -0.168  -0.796  1.00  0.00     0.332 C 
ATOM      9  N   UNL     1       1.075   0.266   0.491  1.00  0.00    -0.337 N 
ATOM     10  C   UNL     1       2.068   0.494   1.524  1.00  0.00     0.267 C 
ATOM     11  C   UNL     1      -0.026   1.216   0.383  1.00  0.00     0.267 C 
ATOM     12  H   UNL     1       0.624  -0.555   0.895  1.00  0.00     0.347 HD
ATOM     13  C   UNL     1       2.456   1.941   1.713  1.00  0.00     0.120 C 
ATOM     14  C   UNL     1       0.249   2.662   0.774  1.00  0.00     0.120 C 
ATOM     15  C   UNL     1       1.241   2.863   1.916  1.00  0.00     0.155 C 
ATOM     16  O   UNL     1       1.766   4.204   1.686  1.00  0.00    -0.352 OA
ATOM     17  N   UNL     1       0.756   2.936   3.308  1.00  0.00    -0.295 N 
ATOM     18  C   UNL     1       2.232   4.737   2.929  1.00  0.00     0.198 C 
BRANCH  17  19
ATOM     19  C   UNL     1       0.093   1.984   4.096  1.00  0.00     0.256 C 
ATOM     20  O   UNL     1       0.236   1.950   5.319  1.00  0.00    -0.269 OA
BRANCH  19  21
ATOM     21  C   UNL     1      -0.897   1.033   3.531  1.00  0.00     0.040 A 
ATOM     22  C   UNL     1      -2.144   1.496   3.110  1.00  0.00     0.014 A 
ATOM     23  C   UNL     1      -0.637  -0.343   3.481  1.00  0.00     0.022 A 
ATOM     24  C   UNL     1      -3.055   0.641   2.488  1.00  0.00     0.009 A 
ATOM     25  C   UNL     1      -1.508  -1.207   2.778  1.00  0.00    -0.018 A 
ATOM     26  C   UNL     1      -2.712  -0.689   2.242  1.00  0.00    -0.018 A 
ATOM     27  C   UNL     1      -1.190  -2.553   2.526  1.00  0.00     0.009 A 
ATOM     28  C   UNL     1      -3.525  -1.491   1.430  1.00  0.00     0.009 A 
ATOM     29  C   UNL     1      -2.009  -3.342   1.710  1.00  0.00     0.001 A 
ATOM     30  C   UNL     1      -3.164  -2.806   1.148  1.00  0.00     0.001 A 
ENDBRANCH  19  21
ENDBRANCH  17  19
ENDBRANCH   4   7
ENDBRANCH   2   3
ENDBRANCH   1   2
BRANCH   1  31
ATOM     31  C   UNL     1      -3.125   5.689   4.972  1.00  0.00     0.118 C 
BRANCH  31  32
ATOM     32  N   UNL     1      -3.620   6.975   4.514  1.00  0.00    -0.352 N 
ATOM     33  C   UNL     1      -4.906   7.398   4.291  1.00  0.00     0.251 C 
ATOM     34  H   UNL     1      -2.925   7.649   4.336  1.00  0.00     0.163 HD
ATOM     35  O   UNL     1      -5.092   8.487   3.746  1.00  0.00    -0.269 OA
BRANCH  33  36
ATOM     36  C   UNL     1      -6.060   6.551   4.667  1.00  0.00     0.039 A 
ATOM     37  C   UNL     1      -7.163   6.497   3.809  1.00  0.00     0.014 A 
ATOM     38  C   UNL     1      -6.073   5.822   5.858  1.00  0.00     0.014 A 
ATOM     39  C   UNL     1      -8.244   5.667   4.118  1.00  0.00     0.010 A 
ATOM     40  C   UNL     1      -7.098   4.915   6.109  1.00  0.00     0.010 A 
ATOM     41  C   UNL     1      -8.205   4.840   5.253  1.00  0.00    -0.014 A 
BRANCH  41  42
ATOM     42  C   UNL     1      -9.320   3.913   5.575  1.00  0.00     0.031 A 
ATOM     43  C   UNL     1     -10.087   4.073   6.861  1.00  0.00     0.074 A 
ATOM     44  C   UNL     1      -9.603   2.892   4.743  1.00  0.00     0.049 A 
ATOM     45  N   UNL     1     -11.058   3.340   7.342  1.00  0.00    -0.248 NA
ATOM     46  C   UNL     1      -9.690   5.188   7.736  1.00  0.00     0.031 C 
ATOM     47  C   UNL     1      -8.904   2.604   3.488  1.00  0.00     0.029 A 
ATOM     48  N   UNL     1     -10.552   1.904   4.826  1.00  0.00    -0.354 N 
ATOM     49  C   UNL     1     -11.370   3.889   8.581  1.00  0.00     0.074 A 
ATOM     50  C   UNL     1     -10.445   4.978   8.804  1.00  0.00     0.031 C 
ATOM     51  C   UNL     1      -9.472   1.538   2.902  1.00  0.00     0.029 A 
ATOM     52  C   UNL     1     -10.544   1.038   3.758  1.00  0.00     0.049 A 
ATOM     53  H   UNL     1     -11.179   1.822   5.581  1.00  0.00     0.167 HD
ATOM     54  C   UNL     1     -12.353   3.535   9.444  1.00  0.00     0.037 A 
ATOM     55  C   UNL     1     -11.312  -0.038   3.498  1.00  0.00     0.037 A 
ATOM     56  C   UNL     1     -13.281   2.461   9.204  1.00  0.00     0.049 A 
ATOM     57  C   UNL     1     -12.388  -0.423   4.476  1.00  0.00     0.074 A 
ATOM     58  C   UNL     1     -14.355   2.062   9.980  1.00  0.00     0.029 A 
ATOM     59  N   UNL     1     -13.239   1.606   8.111  1.00  0.00    -0.354 N 
ATOM     60  N   UNL     1     -12.719   0.152   5.607  1.00  0.00    -0.248 NA
ATOM     61  C   UNL     1     -13.199  -1.601   4.139  1.00  0.00     0.031 C 
ATOM     62  C   UNL     1     -14.924   0.929   9.389  1.00  0.00     0.029 A 
ATOM     63  C   UNL     1     -14.247   0.661   8.209  1.00  0.00     0.049 A 
ATOM     64  H   UNL     1     -12.588   1.663   7.375  1.00  0.00     0.167 HD
ATOM     65  C   UNL     1     -13.798  -0.573   6.102  1.00  0.00     0.074 A 
ATOM     66  C   UNL     1     -14.066  -1.625   5.142  1.00  0.00     0.031 C 
ATOM     67  C   UNL     1     -14.506  -0.380   7.243  1.00  0.00     0.037 A 
BRANCH  54  68
ATOM     68  C   UNL     1     -12.456   4.309  10.733  1.00  0.00     0.058 A 
ATOM     69  C   UNL     1     -12.824   5.665  10.761  1.00  0.00     0.135 A 
ATOM     70  C   UNL     1     -12.179   3.686  11.961  1.00  0.00     0.135 A 
ATOM     71  F   UNL     1     -13.090   6.318   9.618  1.00  0.00    -0.206 F 
ATOM     72  C   UNL     1     -12.859   6.387  11.950  1.00  0.00     0.059 A 
ATOM     73  C   UNL     1     -12.244   4.379  13.167  1.00  0.00     0.059 A 
ATOM     74  F   UNL     1     -11.828   2.391  11.999  1.00  0.00    -0.206 F 
ATOM     75  C   UNL     1     -12.561   5.736  13.148  1.00  0.00     0.060 A 
BRANCH  75  76
ATOM     76  S   UNL     1     -12.579   6.695  14.677  1.00  0.00     0.124 S 
ATOM     77  O   UNL     1     -11.372   7.502  14.528  1.00  0.00    -0.237 OA
ATOM     78  O   UNL     1     -13.842   7.420  14.576  1.00  0.00    -0.237 OA
ATOM     79  O   UNL     1     -12.527   5.674  15.719  1.00  0.00    -0.744 OA
ENDBRANCH  75  76
ENDBRANCH  54  68
BRANCH  55  80
ATOM     80  C   UNL     1     -11.116  -0.794   2.232  1.00  0.00     0.058 A 
ATOM     81  C   UNL     1     -12.067  -0.727   1.203  1.00  0.00     0.135 A 
ATOM     82  C   UNL     1      -9.962  -1.561   2.006  1.00  0.00     0.135 A 
ATOM     83  F   UNL     1     -13.191  -0.014   1.373  1.00  0.00    -0.206 F 
ATOM     84  C   UNL     1     -11.884  -1.393  -0.004  1.00  0.00     0.059 A 
ATOM     85  C   UNL     1      -9.745  -2.216   0.798  1.00  0.00     0.059 A 
ATOM     86  F   UNL     1      -9.014  -1.644   2.952  1.00  0.00    -0.206 F 
ATOM     87  C   UNL     1     -10.713  -2.128  -0.201  1.00  0.00     0.060 A 
BRANCH  87  88
ATOM     88  S   UNL     1     -10.450  -2.920  -1.802  1.00  0.00     0.124 S 
ATOM     89  O   UNL     1     -11.436  -3.993  -1.768  1.00  0.00    -0.237 OA
ATOM     90  O   UNL     1     -10.725  -1.828  -2.731  1.00  0.00    -0.237 OA
ATOM     91  O   UNL     1      -9.053  -3.343  -1.742  1.00  0.00    -0.744 OA
ENDBRANCH  87  88
ENDBRANCH  55  80
BRANCH  67  92
ATOM     92  C   UNL     1     -15.670  -1.299   7.503  1.00  0.00     0.058 A 
ATOM     93  C   UNL     1     -15.491  -2.647   7.851  1.00  0.00     0.135 A 
ATOM     94  C   UNL     1     -16.984  -0.805   7.455  1.00  0.00     0.135 A 
ATOM     95  F   UNL     1     -14.257  -3.174   7.905  1.00  0.00    -0.206 F 
ATOM     96  C   UNL     1     -16.574  -3.478   8.118  1.00  0.00     0.059 A 
ATOM     97  C   UNL     1     -18.080  -1.609   7.750  1.00  0.00     0.059 A 
ATOM     98  F   UNL     1     -17.213   0.479   7.138  1.00  0.00    -0.206 F 
ATOM     99  C   UNL     1     -17.865  -2.949   8.068  1.00  0.00     0.060 A 
BRANCH  99 100
ATOM    100  S   UNL     1     -19.259  -4.030   8.450  1.00  0.00     0.124 S 
ATOM    101  O   UNL     1     -19.305  -4.881   7.266  1.00  0.00    -0.237 OA
ATOM    102  O   UNL     1     -18.821  -4.680   9.682  1.00  0.00    -0.237 OA
ATOM    103  O   UNL     1     -20.378  -3.104   8.601  1.00  0.00    -0.744 OA
ENDBRANCH  99 100
ENDBRANCH  67  92
ENDBRANCH  41  42
ENDBRANCH  33  36
ENDBRANCH  31  32
ENDBRANCH   1  31
TORSDOF 15
