REMARK SMILES CC1(C)[C@@]2(CC[C@@H]2C(=O)NCc2ccco2)[C@]1(C)C(=O)NCCCNC(=O)c1ccc(-c2c3nc(c(-c4c(F)cc(S(=O)(=O)[O-])cc4F)c4ccc([nH]4)c(-c4c(F)cc(S(=O)(=O)[O-])cc4F)c4nc(c(-c5c(F)cc(S(=O)(=O)[O-])cc5F)c5ccc2[nH]5)C=C4)C=C3)cc1
REMARK SMILES IDX 23 1 22 2 21 3 19 4 20 5 17 7 1 8 2 9 3 10 4 11 18 12 5 13
REMARK SMILES IDX 7 14 6 15 8 16 9 17 10 18 11 20 12 21 13 22 16 23 14 24
REMARK SMILES IDX 15 25 24 26 25 27 26 28 27 30 28 31 29 32 93 33 30 34 92 35
REMARK SMILES IDX 31 36 32 37 33 38 86 39 34 40 91 41 85 42 87 43 35 44 90 45
REMARK SMILES IDX 84 46 83 47 36 49 70 50 49 51 69 52 50 53 53 54 68 55 88 56
REMARK SMILES IDX 51 57 52 58 67 60 89 61 54 62 37 63 38 64 47 65 39 66 40 67
REMARK SMILES IDX 46 68 48 69 41 70 42 71 43 72 44 73 45 74 71 75 72 76 81 77
REMARK SMILES IDX 73 78 74 79 80 80 82 81 75 82 76 83 77 84 78 85 79 86 55 87
REMARK SMILES IDX 56 88 65 89 57 90 58 91 64 92 66 93 59 94 60 95 61 96 62 97
REMARK SMILES IDX 63 98
REMARK H PARENT 21 6 10 19 25 29 87 48 53 59
REMARK Flexibility Score: inf
ROOT
ATOM      1  C   UNL     1      -1.343  -2.607   1.030  1.00  0.00     0.042 C 
ENDROOT
BRANCH   1   2
ATOM      2  C   UNL     1      -1.577  -2.154  -0.412  1.00  0.00     0.117 C 
BRANCH   2   3
ATOM      3  N   UNL     1      -2.420  -0.982  -0.460  1.00  0.00    -0.356 N 
ATOM      4  C   UNL     1      -2.192   0.271  -0.951  1.00  0.00     0.227 C 
ATOM      5  O   UNL     1      -3.114   1.076  -0.939  1.00  0.00    -0.274 OA
ATOM      6  H   UNL     1      -3.316  -1.109  -0.072  1.00  0.00     0.163 HD
BRANCH   4   7
ATOM      7  C   UNL     1      -0.912   0.628  -1.661  1.00  0.00     0.059 C 
ATOM      8  C   UNL     1       0.789   0.133   0.290  1.00  0.00     0.013 C 
ATOM      9  C   UNL     1       0.511   0.722  -1.074  1.00  0.00    -0.013 C 
ATOM     10  C   UNL     1       1.720   0.600  -1.981  1.00  0.00     0.013 C 
ATOM     11  C   UNL     1      -0.299   1.982  -1.175  1.00  0.00     0.003 C 
ATOM     12  C   UNL     1      -1.000   0.329  -3.154  1.00  0.00     0.023 C 
ATOM     13  C   UNL     1      -0.295   3.143  -2.106  1.00  0.00     0.010 C 
ATOM     14  C   UNL     1      -0.742   2.823  -0.002  1.00  0.00     0.086 C 
ATOM     15  C   UNL     1      -1.028   3.929  -1.016  1.00  0.00     0.015 C 
BRANCH  14  16
ATOM     16  C   UNL     1       0.171   3.070   1.216  1.00  0.00     0.224 C 
ATOM     17  O   UNL     1      -0.245   2.875   2.372  1.00  0.00    -0.275 OA
ATOM     18  N   UNL     1       1.463   3.521   1.161  1.00  0.00    -0.349 N 
ATOM     19  H   UNL     1       1.876   3.641   2.047  1.00  0.00     0.163 HD
BRANCH  18  20
ATOM     20  C   UNL     1       2.339   3.857   0.068  1.00  0.00     0.191 C 
BRANCH  20  21
ATOM     21  C   UNL     1       2.492   5.331  -0.024  1.00  0.00     0.122 A 
ATOM     22  C   UNL     1       1.653   6.407   0.192  1.00  0.00     0.047 A 
ATOM     23  O   UNL     1       3.727   5.784  -0.395  1.00  0.00    -0.467 OA
ATOM     24  C   UNL     1       2.413   7.573  -0.064  1.00  0.00     0.042 A 
ATOM     25  C   UNL     1       3.671   7.140  -0.406  1.00  0.00     0.195 A 
ENDBRANCH  20  21
ENDBRANCH  18  20
ENDBRANCH  14  16
ENDBRANCH   4   7
ENDBRANCH   2   3
ENDBRANCH   1   2
BRANCH   1  26
ATOM     26  C   UNL     1      -2.598  -3.103   1.750  1.00  0.00     0.118 C 
BRANCH  26  27
ATOM     27  N   UNL     1      -3.061  -4.387   1.250  1.00  0.00    -0.352 N 
ATOM     28  C   UNL     1      -3.486  -5.488   1.954  1.00  0.00     0.251 C 
ATOM     29  H   UNL     1      -3.070  -4.482   0.270  1.00  0.00     0.163 HD
ATOM     30  O   UNL     1      -3.687  -6.544   1.359  1.00  0.00    -0.269 OA
BRANCH  28  31
ATOM     31  C   UNL     1      -3.676  -5.418   3.422  1.00  0.00     0.039 A 
ATOM     32  C   UNL     1      -3.187  -6.465   4.211  1.00  0.00     0.014 A 
ATOM     33  C   UNL     1      -4.352  -4.351   4.022  1.00  0.00     0.014 A 
ATOM     34  C   UNL     1      -3.322  -6.413   5.601  1.00  0.00     0.010 A 
ATOM     35  C   UNL     1      -4.444  -4.278   5.414  1.00  0.00     0.010 A 
ATOM     36  C   UNL     1      -3.926  -5.305   6.217  1.00  0.00    -0.014 A 
BRANCH  36  37
ATOM     37  C   UNL     1      -3.998  -5.197   7.698  1.00  0.00     0.031 A 
ATOM     38  C   UNL     1      -5.323  -5.253   8.407  1.00  0.00     0.074 A 
ATOM     39  C   UNL     1      -2.867  -4.988   8.401  1.00  0.00     0.049 A 
ATOM     40  N   UNL     1      -5.583  -5.112   9.682  1.00  0.00    -0.248 NA
ATOM     41  C   UNL     1      -6.513  -5.479   7.572  1.00  0.00     0.031 C 
ATOM     42  C   UNL     1      -1.524  -4.873   7.828  1.00  0.00     0.029 A 
ATOM     43  N   UNL     1      -2.667  -4.821   9.749  1.00  0.00    -0.354 N 
ATOM     44  C   UNL     1      -6.963  -5.215   9.803  1.00  0.00     0.074 A 
ATOM     45  C   UNL     1      -7.490  -5.399   8.466  1.00  0.00     0.031 C 
ATOM     46  C   UNL     1      -0.640  -4.667   8.818  1.00  0.00     0.029 A 
ATOM     47  C   UNL     1      -1.353  -4.604  10.090  1.00  0.00     0.049 A 
ATOM     48  H   UNL     1      -3.396  -4.854  10.410  1.00  0.00     0.167 HD
ATOM     49  C   UNL     1      -7.721  -5.176  10.926  1.00  0.00     0.037 A 
ATOM     50  C   UNL     1      -0.785  -4.370  11.289  1.00  0.00     0.037 A 
ATOM     51  C   UNL     1      -7.194  -5.019  12.257  1.00  0.00     0.049 A 
ATOM     52  C   UNL     1      -1.647  -4.339  12.521  1.00  0.00     0.074 A 
ATOM     53  C   UNL     1      -7.879  -5.028  13.460  1.00  0.00     0.029 A 
ATOM     54  N   UNL     1      -5.855  -4.825  12.562  1.00  0.00    -0.354 N 
ATOM     55  N   UNL     1      -2.945  -4.496  12.621  1.00  0.00    -0.248 NA
ATOM     56  C   UNL     1      -0.967  -4.105  13.803  1.00  0.00     0.031 C 
ATOM     57  C   UNL     1      -6.958  -4.808  14.491  1.00  0.00     0.029 A 
ATOM     58  C   UNL     1      -5.695  -4.698  13.933  1.00  0.00     0.049 A 
ATOM     59  H   UNL     1      -5.126  -4.784  11.902  1.00  0.00     0.167 HD
ATOM     60  C   UNL     1      -3.235  -4.401  13.978  1.00  0.00     0.074 A 
ATOM     61  C   UNL     1      -1.976  -4.184  14.660  1.00  0.00     0.031 C 
ATOM     62  C   UNL     1      -4.436  -4.488  14.600  1.00  0.00     0.037 A 
BRANCH  49  63
ATOM     63  C   UNL     1      -9.210  -5.311  10.765  1.00  0.00     0.058 A 
ATOM     64  C   UNL     1      -9.805  -6.542  10.451  1.00  0.00     0.135 A 
ATOM     65  C   UNL     1     -10.054  -4.208  10.972  1.00  0.00     0.135 A 
ATOM     66  F   UNL     1      -9.043  -7.625  10.231  1.00  0.00    -0.206 F 
ATOM     67  C   UNL     1     -11.184  -6.671  10.322  1.00  0.00     0.059 A 
ATOM     68  C   UNL     1     -11.438  -4.319  10.870  1.00  0.00     0.059 A 
ATOM     69  F   UNL     1      -9.536  -3.008  11.276  1.00  0.00    -0.206 F 
ATOM     70  C   UNL     1     -11.993  -5.552  10.531  1.00  0.00     0.060 A 
BRANCH  70  71
ATOM     71  S   UNL     1     -13.781  -5.735  10.367  1.00  0.00     0.124 S 
ATOM     72  O   UNL     1     -13.937  -5.782   8.917  1.00  0.00    -0.237 OA
ATOM     73  O   UNL     1     -14.036  -6.987  11.072  1.00  0.00    -0.237 OA
ATOM     74  O   UNL     1     -14.306  -4.537  11.017  1.00  0.00    -0.744 OA
ENDBRANCH  70  71
ENDBRANCH  49  63
BRANCH  50  75
ATOM     75  C   UNL     1       0.683  -4.166  11.385  1.00  0.00     0.058 A 
ATOM     76  C   UNL     1       1.512  -5.158  11.928  1.00  0.00     0.135 A 
ATOM     77  C   UNL     1       1.286  -2.986  10.925  1.00  0.00     0.135 A 
ATOM     78  F   UNL     1       0.979  -6.300  12.387  1.00  0.00    -0.206 F 
ATOM     79  C   UNL     1       2.889  -4.984  12.023  1.00  0.00     0.059 A 
ATOM     80  C   UNL     1       2.663  -2.797  10.990  1.00  0.00     0.059 A 
ATOM     81  F   UNL     1       0.536  -2.014  10.383  1.00  0.00    -0.206 F 
ATOM     82  C   UNL     1       3.455  -3.799  11.550  1.00  0.00     0.060 A 
BRANCH  82  83
ATOM     83  S   UNL     1       5.249  -3.603  11.626  1.00  0.00     0.124 S 
ATOM     84  O   UNL     1       5.450  -3.287  13.035  1.00  0.00    -0.237 OA
ATOM     85  O   UNL     1       5.723  -4.913  11.191  1.00  0.00    -0.237 OA
ATOM     86  O   UNL     1       5.505  -2.512  10.690  1.00  0.00    -0.744 OA
ENDBRANCH  82  83
ENDBRANCH  50  75
BRANCH  62  87
ATOM     87  C   UNL     1      -4.445  -4.378  16.098  1.00  0.00     0.058 A 
ATOM     88  C   UNL     1      -4.282  -3.144  16.745  1.00  0.00     0.135 A 
ATOM     89  C   UNL     1      -4.664  -5.514  16.894  1.00  0.00     0.135 A 
ATOM     90  F   UNL     1      -4.062  -2.030  16.030  1.00  0.00    -0.206 F 
ATOM     91  C   UNL     1      -4.317  -3.042  18.133  1.00  0.00     0.059 A 
ATOM     92  C   UNL     1      -4.724  -5.432  18.281  1.00  0.00     0.059 A 
ATOM     93  F   UNL     1      -4.833  -6.717  16.323  1.00  0.00    -0.206 F 
ATOM     94  C   UNL     1      -4.538  -4.192  18.892  1.00  0.00     0.060 A 
BRANCH  94  95
ATOM     95  S   UNL     1      -4.615  -4.045  20.691  1.00  0.00     0.124 S 
ATOM     96  O   UNL     1      -3.202  -3.938  21.037  1.00  0.00    -0.237 OA
ATOM     97  O   UNL     1      -5.407  -2.833  20.875  1.00  0.00    -0.237 OA
ATOM     98  O   UNL     1      -5.271  -5.282  21.103  1.00  0.00    -0.744 OA
ENDBRANCH  94  95
ENDBRANCH  62  87
ENDBRANCH  36  37
ENDBRANCH  28  31
ENDBRANCH  26  27
ENDBRANCH   1  26
TORSDOF 16
