REMARK SMILES CC(C)(C)C[N@H+]1[C@@H](C(=O)NCCCNC(=O)c2ccc(-c3c4nc(c(-c5c(F)cc(S(=O)(=O)[O-])cc5F)c5ccc([nH]5)c(-c5c(F)cc(S(=O)(=O)[O-])cc5F)c5nc(c(-c6c(F)cc(S(=O)(=O)[O-])cc6F)c6ccc3[nH]6)C=C5)C=C4)cc2)CC[C@H]2CCCC[C@@H]21
REMARK SMILES IDX 12 1 11 2 10 3 8 4 9 5 7 7 6 8 90 9 83 11 85 12 89 13 84 14
REMARK SMILES IDX 86 15 88 16 87 17 5 18 2 19 1 20 3 21 4 22 13 23 14 24 15 25
REMARK SMILES IDX 16 27 17 28 18 29 82 30 19 31 81 32 20 33 21 34 22 35 75 36
REMARK SMILES IDX 23 37 80 38 74 39 76 40 24 41 79 42 73 43 72 44 25 46 59 47
REMARK SMILES IDX 38 48 58 49 39 50 42 51 57 52 77 53 40 54 41 55 56 57 78 58
REMARK SMILES IDX 43 59 26 60 27 61 36 62 28 63 29 64 35 65 37 66 30 67 31 68
REMARK SMILES IDX 32 69 33 70 34 71 60 72 61 73 70 74 62 75 63 76 69 77 71 78
REMARK SMILES IDX 64 79 65 80 66 81 67 82 68 83 44 84 45 85 54 86 46 87 47 88
REMARK SMILES IDX 53 89 55 90 48 91 49 92 50 93 51 94 52 95
REMARK H PARENT 10 6 6 10 14 26 76 45 42 56
REMARK Flexibility Score: inf
ROOT
ATOM      1  C   UNL     1      -2.372   3.846   2.435  1.00  0.00     0.042 C 
ENDROOT
BRANCH   1   2
ATOM      2  C   UNL     1      -1.033   3.214   2.748  1.00  0.00     0.118 C 
BRANCH   2   3
ATOM      3  N   UNL     1      -1.005   2.450   3.964  1.00  0.00    -0.351 N 
ATOM      4  C   UNL     1      -0.824   1.108   4.117  1.00  0.00     0.278 C 
ATOM      5  O   UNL     1      -0.604   0.723   5.274  1.00  0.00    -0.268 OA
ATOM      6  H   UNL     1      -1.133   2.962   4.795  1.00  0.00     0.163 HD
BRANCH   4   7
ATOM      7  C   UNL     1      -0.888   0.085   2.947  1.00  0.00     0.274 C 
ATOM      8  N   UNL     1       0.393  -0.153   2.251  1.00  0.00    -0.322 N 
ATOM      9  C   UNL     1       0.425  -1.452   1.574  1.00  0.00     0.187 C 
ATOM     10  H   UNL     1       1.033  -0.198   3.043  1.00  0.00     0.349 HD
ATOM     11  C   UNL     1      -2.106   0.094   2.012  1.00  0.00     0.076 C 
ATOM     12  C   UNL     1      -0.973  -2.003   1.191  1.00  0.00     0.048 C 
ATOM     13  C   UNL     1       1.082  -2.577   2.401  1.00  0.00     0.065 C 
ATOM     14  C   UNL     1      -1.957  -0.900   0.835  1.00  0.00     0.016 C 
ATOM     15  C   UNL     1      -0.754  -3.050   0.100  1.00  0.00     0.010 C 
ATOM     16  C   UNL     1       1.257  -3.832   1.523  1.00  0.00     0.006 C 
ATOM     17  C   UNL     1       0.021  -4.231   0.696  1.00  0.00     0.001 C 
BRANCH   8  18
ATOM     18  C   UNL     1       1.139   0.949   1.619  1.00  0.00     0.269 C 
BRANCH  18  19
ATOM     19  C   UNL     1       1.025   1.521   0.129  1.00  0.00     0.011 C 
ATOM     20  C   UNL     1       1.521   0.504  -0.914  1.00  0.00     0.017 C 
ATOM     21  C   UNL     1       1.978   2.746   0.062  1.00  0.00     0.017 C 
ATOM     22  C   UNL     1      -0.331   2.065  -0.368  1.00  0.00     0.017 C 
ENDBRANCH  18  19
ENDBRANCH   8  18
ENDBRANCH   4   7
ENDBRANCH   2   3
ENDBRANCH   1   2
BRANCH   1  23
ATOM     23  C   UNL     1      -2.563   5.197   3.099  1.00  0.00     0.118 C 
BRANCH  23  24
ATOM     24  N   UNL     1      -1.650   6.212   2.584  1.00  0.00    -0.352 N 
ATOM     25  C   UNL     1      -1.912   7.453   2.051  1.00  0.00     0.251 C 
ATOM     26  H   UNL     1      -0.696   5.971   2.625  1.00  0.00     0.163 HD
ATOM     27  O   UNL     1      -1.004   8.088   1.528  1.00  0.00    -0.269 OA
BRANCH  25  28
ATOM     28  C   UNL     1      -3.285   8.004   2.085  1.00  0.00     0.039 A 
ATOM     29  C   UNL     1      -3.760   8.708   0.975  1.00  0.00     0.014 A 
ATOM     30  C   UNL     1      -4.106   7.824   3.200  1.00  0.00     0.014 A 
ATOM     31  C   UNL     1      -5.080   9.164   0.959  1.00  0.00     0.010 A 
ATOM     32  C   UNL     1      -5.447   8.183   3.139  1.00  0.00     0.010 A 
ATOM     33  C   UNL     1      -5.947   8.866   2.022  1.00  0.00    -0.014 A 
BRANCH  33  34
ATOM     34  C   UNL     1      -7.378   9.259   1.989  1.00  0.00     0.031 A 
ATOM     35  C   UNL     1      -7.932  10.181   3.042  1.00  0.00     0.074 A 
ATOM     36  C   UNL     1      -8.193   8.720   1.061  1.00  0.00     0.049 A 
ATOM     37  N   UNL     1      -9.164  10.580   3.225  1.00  0.00    -0.248 NA
ATOM     38  C   UNL     1      -6.982  10.697   4.042  1.00  0.00     0.031 C 
ATOM     39  C   UNL     1      -7.785   7.762   0.030  1.00  0.00     0.029 A 
ATOM     40  N   UNL     1      -9.537   8.888   0.840  1.00  0.00    -0.354 N 
ATOM     41  C   UNL     1      -9.140  11.371   4.368  1.00  0.00     0.074 A 
ATOM     42  C   UNL     1      -7.784  11.350   4.869  1.00  0.00     0.031 C 
ATOM     43  C   UNL     1      -8.848   7.447  -0.725  1.00  0.00     0.029 A 
ATOM     44  C   UNL     1     -10.022   8.142  -0.208  1.00  0.00     0.049 A 
ATOM     45  H   UNL     1     -10.101   9.486   1.382  1.00  0.00     0.167 HD
ATOM     46  C   UNL     1     -10.152  12.071   4.934  1.00  0.00     0.037 A 
ATOM     47  C   UNL     1     -11.274   8.021  -0.692  1.00  0.00     0.037 A 
ATOM     48  C   UNL     1     -11.492  12.104   4.410  1.00  0.00     0.049 A 
ATOM     49  C   UNL     1     -12.380   8.819  -0.058  1.00  0.00     0.074 A 
ATOM     50  C   UNL     1     -12.573  12.841   4.859  1.00  0.00     0.029 A 
ATOM     51  N   UNL     1     -11.939  11.361   3.325  1.00  0.00    -0.354 N 
ATOM     52  N   UNL     1     -12.323   9.631   0.971  1.00  0.00    -0.248 NA
ATOM     53  C   UNL     1     -13.716   8.695  -0.654  1.00  0.00     0.031 C 
ATOM     54  C   UNL     1     -13.687  12.500   4.085  1.00  0.00     0.029 A 
ATOM     55  C   UNL     1     -13.286  11.599   3.110  1.00  0.00     0.049 A 
ATOM     56  H   UNL     1     -11.380  10.755   2.788  1.00  0.00     0.167 HD
ATOM     57  C   UNL     1     -13.610  10.133   1.132  1.00  0.00     0.074 A 
ATOM     58  C   UNL     1     -14.419   9.544   0.084  1.00  0.00     0.031 C 
ATOM     59  C   UNL     1     -14.078  11.003   2.062  1.00  0.00     0.037 A 
BRANCH  46  60
ATOM     60  C   UNL     1      -9.849  12.850   6.187  1.00  0.00     0.058 A 
ATOM     61  C   UNL     1      -9.009  13.977   6.177  1.00  0.00     0.135 A 
ATOM     62  C   UNL     1     -10.427  12.480   7.412  1.00  0.00     0.135 A 
ATOM     63  F   UNL     1      -8.418  14.370   5.038  1.00  0.00    -0.206 F 
ATOM     64  C   UNL     1      -8.723  14.682   7.341  1.00  0.00     0.059 A 
ATOM     65  C   UNL     1     -10.181  13.191   8.583  1.00  0.00     0.059 A 
ATOM     66  F   UNL     1     -11.238  11.412   7.482  1.00  0.00    -0.206 F 
ATOM     67  C   UNL     1      -9.313  14.281   8.541  1.00  0.00     0.060 A 
BRANCH  67  68
ATOM     68  S   UNL     1      -8.928  15.206  10.042  1.00  0.00     0.124 S 
ATOM     69  O   UNL     1      -7.547  14.800  10.287  1.00  0.00    -0.237 OA
ATOM     70  O   UNL     1      -9.114  16.588   9.613  1.00  0.00    -0.237 OA
ATOM     71  O   UNL     1      -9.906  14.713  11.007  1.00  0.00    -0.744 OA
ENDBRANCH  67  68
ENDBRANCH  46  60
BRANCH  47  72
ATOM     72  C   UNL     1     -11.533   7.122  -1.849  1.00  0.00     0.058 A 
ATOM     73  C   UNL     1     -11.849   7.639  -3.114  1.00  0.00     0.135 A 
ATOM     74  C   UNL     1     -11.430   5.727  -1.722  1.00  0.00     0.135 A 
ATOM     75  F   UNL     1     -11.966   8.965  -3.285  1.00  0.00    -0.206 F 
ATOM     76  C   UNL     1     -12.060   6.809  -4.210  1.00  0.00     0.059 A 
ATOM     77  C   UNL     1     -11.609   4.878  -2.809  1.00  0.00     0.059 A 
ATOM     78  F   UNL     1     -11.112   5.181  -0.537  1.00  0.00    -0.206 F 
ATOM     79  C   UNL     1     -11.930   5.428  -4.048  1.00  0.00     0.060 A 
BRANCH  79  80
ATOM     80  S   UNL     1     -12.137   4.365  -5.494  1.00  0.00     0.124 S 
ATOM     81  O   UNL     1     -13.574   4.455  -5.723  1.00  0.00    -0.237 OA
ATOM     82  O   UNL     1     -11.289   5.025  -6.481  1.00  0.00    -0.237 OA
ATOM     83  O   UNL     1     -11.651   3.069  -5.029  1.00  0.00    -0.744 OA
ENDBRANCH  79  80
ENDBRANCH  47  72
BRANCH  59  84
ATOM     84  C   UNL     1     -15.527  11.398   1.973  1.00  0.00     0.058 A 
ATOM     85  C   UNL     1     -16.560  10.506   2.301  1.00  0.00     0.135 A 
ATOM     86  C   UNL     1     -15.883  12.708   1.609  1.00  0.00     0.135 A 
ATOM     87  F   UNL     1     -16.276   9.241   2.649  1.00  0.00    -0.206 F 
ATOM     88  C   UNL     1     -17.896  10.891   2.248  1.00  0.00     0.059 A 
ATOM     89  C   UNL     1     -17.210  13.123   1.581  1.00  0.00     0.059 A 
ATOM     90  F   UNL     1     -14.934  13.605   1.297  1.00  0.00    -0.206 F 
ATOM     91  C   UNL     1     -18.211  12.203   1.890  1.00  0.00     0.060 A 
BRANCH  91  92
ATOM     92  S   UNL     1     -19.946  12.698   1.858  1.00  0.00     0.124 S 
ATOM     93  O   UNL     1     -20.428  12.004   0.668  1.00  0.00    -0.237 OA
ATOM     94  O   UNL     1     -20.439  12.186   3.133  1.00  0.00    -0.237 OA
ATOM     95  O   UNL     1     -19.884  14.152   1.754  1.00  0.00    -0.744 OA
ENDBRANCH  91  92
ENDBRANCH  59  84
ENDBRANCH  33  34
ENDBRANCH  25  28
ENDBRANCH  23  24
ENDBRANCH   1  23
TORSDOF 15
