REMARK SMILES Nn1c(S[C@@H](C(=O)NCCCNC(=O)c2ccc(-c3c4nc(c(-c5c(F)cc(S(=O)(=O)[O-])cc5F)c5ccc([nH]5)c(-c5c(F)cc(S(=O)(=O)[O-])cc5F)c5nc(c(-c6c(F)cc(S(=O)(=O)[O-])cc6F)c6ccc3[nH]6)C=C5)C=C4)cc2)c2ccccc2)nc2ccc(Br)cc2c1=O
REMARK SMILES IDX 10 1 9 2 8 3 6 4 7 5 5 7 4 8 3 9 2 10 95 11 87 12 94 13
REMARK SMILES IDX 96 14 88 15 93 16 89 17 91 18 90 19 92 20 1 21 81 24 82 25
REMARK SMILES IDX 86 26 83 27 85 28 84 29 11 30 12 31 13 32 14 34 15 35 16 36
REMARK SMILES IDX 80 37 17 38 79 39 18 40 19 41 20 42 73 43 21 44 78 45 72 46
REMARK SMILES IDX 74 47 22 48 77 49 71 50 70 51 23 53 57 54 36 55 56 56 37 57
REMARK SMILES IDX 40 58 55 59 75 60 38 61 39 62 54 64 76 65 41 66 24 67 25 68
REMARK SMILES IDX 34 69 26 70 27 71 33 72 35 73 28 74 29 75 30 76 31 77 32 78
REMARK SMILES IDX 58 79 59 80 68 81 60 82 61 83 67 84 69 85 62 86 63 87 64 88
REMARK SMILES IDX 65 89 66 90 42 91 43 92 52 93 44 94 45 95 51 96 53 97 46 98
REMARK SMILES IDX 47 99 48 100 49 101 50 102
REMARK H PARENT 8 6 1 22 1 23 12 33 74 52 40 63
REMARK Flexibility Score: inf
ROOT
ATOM      1  C   UNL     1       4.659  -2.232  -2.961  1.00  0.00     0.042 C 
ENDROOT
BRANCH   1   2
ATOM      2  C   UNL     1       5.103  -1.843  -1.550  1.00  0.00     0.117 C 
BRANCH   2   3
ATOM      3  N   UNL     1       4.520  -0.590  -1.098  1.00  0.00    -0.355 N 
ATOM      4  C   UNL     1       3.462  -0.320  -0.268  1.00  0.00     0.238 C 
ATOM      5  O   UNL     1       3.183   0.881  -0.183  1.00  0.00    -0.273 OA
ATOM      6  H   UNL     1       4.966   0.212  -1.453  1.00  0.00     0.163 HD
BRANCH   4   7
ATOM      7  C   UNL     1       2.724  -1.458   0.488  1.00  0.00     0.174 C 
BRANCH   7   8
ATOM      8  S   UNL     1       1.833  -2.498  -0.697  1.00  0.00    -0.068 SA
BRANCH   8   9
ATOM      9  C   UNL     1       0.376  -1.774  -1.331  1.00  0.00     0.191 A 
ATOM     10  N   UNL     1      -0.083  -0.479  -1.099  1.00  0.00    -0.202 N 
ATOM     11  C   UNL     1      -1.263   0.004  -1.679  1.00  0.00     0.280 A 
ATOM     12  N   UNL     1      -0.267  -2.599  -2.100  1.00  0.00    -0.222 NA
ATOM     13  C   UNL     1      -2.000  -0.932  -2.534  1.00  0.00     0.069 A 
ATOM     14  O   UNL     1      -1.701   1.139  -1.482  1.00  0.00    -0.267 OA
ATOM     15  C   UNL     1      -1.464  -2.205  -2.700  1.00  0.00     0.079 A 
ATOM     16  C   UNL     1      -3.208  -0.561  -3.132  1.00  0.00     0.031 A 
ATOM     17  C   UNL     1      -2.159  -3.126  -3.486  1.00  0.00     0.030 A 
ATOM     18  C   UNL     1      -3.890  -1.494  -3.906  1.00  0.00     0.018 A 
ATOM     19  C   UNL     1      -3.372  -2.776  -4.088  1.00  0.00     0.018 A 
ATOM     20  Br  UNL     1      -5.537  -1.023  -4.703  1.00  0.00    -0.051 Br
BRANCH  10  21
ATOM     21  N   UNL     1       0.538   0.416  -0.219  1.00  0.00    -0.334 N 
ATOM     22  H   UNL     1       1.373   0.161   0.235  1.00  0.00     0.178 HD
ATOM     23  H   UNL     1       0.139   1.301  -0.054  1.00  0.00     0.178 HD
ENDBRANCH  10  21
ENDBRANCH   8   9
ENDBRANCH   7   8
BRANCH   7  24
ATOM     24  C   UNL     1       1.959  -1.153   1.786  1.00  0.00    -0.025 A 
ATOM     25  C   UNL     1       1.123  -2.134   2.365  1.00  0.00     0.005 A 
ATOM     26  C   UNL     1       2.064   0.072   2.466  1.00  0.00     0.005 A 
ATOM     27  C   UNL     1       0.344  -1.861   3.492  1.00  0.00     0.000 A 
ATOM     28  C   UNL     1       1.277   0.349   3.590  1.00  0.00     0.000 A 
ATOM     29  C   UNL     1       0.405  -0.610   4.092  1.00  0.00     0.000 A 
ENDBRANCH   7  24
ENDBRANCH   4   7
ENDBRANCH   2   3
ENDBRANCH   1   2
BRANCH   1  30
ATOM     30  C   UNL     1       4.878  -1.165  -4.031  1.00  0.00     0.118 C 
BRANCH  30  31
ATOM     31  N   UNL     1       6.282  -0.893  -4.302  1.00  0.00    -0.352 N 
ATOM     32  C   UNL     1       6.997  -1.024  -5.471  1.00  0.00     0.251 C 
ATOM     33  H   UNL     1       6.800  -0.567  -3.531  1.00  0.00     0.163 HD
ATOM     34  O   UNL     1       8.214  -0.858  -5.457  1.00  0.00    -0.269 OA
BRANCH  32  35
ATOM     35  C   UNL     1       6.316  -1.403  -6.730  1.00  0.00     0.039 A 
ATOM     36  C   UNL     1       5.130  -0.781  -7.128  1.00  0.00     0.014 A 
ATOM     37  C   UNL     1       6.871  -2.415  -7.519  1.00  0.00     0.014 A 
ATOM     38  C   UNL     1       4.412  -1.288  -8.209  1.00  0.00     0.010 A 
ATOM     39  C   UNL     1       6.184  -2.874  -8.648  1.00  0.00     0.010 A 
ATOM     40  C   UNL     1       4.920  -2.354  -8.968  1.00  0.00    -0.014 A 
BRANCH  40  41
ATOM     41  C   UNL     1       4.098  -2.949 -10.057  1.00  0.00     0.031 A 
ATOM     42  C   UNL     1       3.587  -4.363  -9.937  1.00  0.00     0.074 A 
ATOM     43  C   UNL     1       3.763  -2.205 -11.130  1.00  0.00     0.049 A 
ATOM     44  N   UNL     1       2.882  -5.062 -10.790  1.00  0.00    -0.248 NA
ATOM     45  C   UNL     1       3.911  -5.087  -8.697  1.00  0.00     0.031 C 
ATOM     46  C   UNL     1       4.170  -0.817 -11.355  1.00  0.00     0.029 A 
ATOM     47  N   UNL     1       2.987  -2.505 -12.221  1.00  0.00    -0.354 N 
ATOM     48  C   UNL     1       2.693  -6.308 -10.202  1.00  0.00     0.074 A 
ATOM     49  C   UNL     1       3.380  -6.280  -8.929  1.00  0.00     0.031 C 
ATOM     50  C   UNL     1       3.606  -0.372 -12.489  1.00  0.00     0.029 A 
ATOM     51  C   UNL     1       2.845  -1.457 -13.100  1.00  0.00     0.049 A 
ATOM     52  H   UNL     1       2.572  -3.386 -12.361  1.00  0.00     0.167 HD
ATOM     53  C   UNL     1       2.000  -7.373 -10.671  1.00  0.00     0.037 A 
ATOM     54  C   UNL     1       2.188  -1.381 -14.273  1.00  0.00     0.037 A 
ATOM     55  C   UNL     1       1.292  -7.393 -11.926  1.00  0.00     0.049 A 
ATOM     56  C   UNL     1       1.463  -2.591 -14.792  1.00  0.00     0.074 A 
ATOM     57  C   UNL     1       0.557  -8.426 -12.484  1.00  0.00     0.029 A 
ATOM     58  N   UNL     1       1.221  -6.330 -12.812  1.00  0.00    -0.354 N 
ATOM     59  N   UNL     1       1.325  -3.770 -14.236  1.00  0.00    -0.248 NA
ATOM     60  C   UNL     1       0.817  -2.463 -16.106  1.00  0.00     0.031 C 
ATOM     61  C   UNL     1       0.066  -7.996 -13.721  1.00  0.00     0.029 A 
ATOM     62  C   UNL     1       0.464  -6.684 -13.918  1.00  0.00     0.049 A 
ATOM     63  H   UNL     1       1.645  -5.452 -12.677  1.00  0.00     0.167 HD
ATOM     64  C   UNL     1       0.573  -4.524 -15.129  1.00  0.00     0.074 A 
ATOM     65  C   UNL     1       0.266  -3.661 -16.251  1.00  0.00     0.031 C 
ATOM     66  C   UNL     1       0.179  -5.818 -15.033  1.00  0.00     0.037 A 
BRANCH  53  67
ATOM     67  C   UNL     1       1.971  -8.617  -9.827  1.00  0.00     0.058 A 
ATOM     68  C   UNL     1       1.182  -8.700  -8.669  1.00  0.00     0.135 A 
ATOM     69  C   UNL     1       2.697  -9.757 -10.209  1.00  0.00     0.135 A 
ATOM     70  F   UNL     1       0.484  -7.633  -8.249  1.00  0.00    -0.206 F 
ATOM     71  C   UNL     1       1.124  -9.866  -7.912  1.00  0.00     0.059 A 
ATOM     72  C   UNL     1       2.637 -10.940  -9.479  1.00  0.00     0.059 A 
ATOM     73  F   UNL     1       3.469  -9.729 -11.307  1.00  0.00    -0.206 F 
ATOM     74  C   UNL     1       1.854 -10.982  -8.326  1.00  0.00     0.060 A 
BRANCH  74  75
ATOM     75  S   UNL     1       1.752 -12.492  -7.342  1.00  0.00     0.124 S 
ATOM     76  O   UNL     1       2.528 -12.123  -6.162  1.00  0.00    -0.237 OA
ATOM     77  O   UNL     1       0.314 -12.633  -7.135  1.00  0.00    -0.237 OA
ATOM     78  O   UNL     1       2.360 -13.502  -8.202  1.00  0.00    -0.744 OA
ENDBRANCH  74  75
ENDBRANCH  53  67
BRANCH  54  79
ATOM     79  C   UNL     1       2.196  -0.110 -15.043  1.00  0.00     0.058 A 
ATOM     80  C   UNL     1       1.040   0.677 -15.144  1.00  0.00     0.135 A 
ATOM     81  C   UNL     1       3.362   0.351 -15.673  1.00  0.00     0.135 A 
ATOM     82  F   UNL     1      -0.101   0.271 -14.567  1.00  0.00    -0.206 F 
ATOM     83  C   UNL     1       1.038   1.877 -15.848  1.00  0.00     0.059 A 
ATOM     84  C   UNL     1       3.390   1.558 -16.362  1.00  0.00     0.059 A 
ATOM     85  F   UNL     1       4.496  -0.363 -15.595  1.00  0.00    -0.206 F 
ATOM     86  C   UNL     1       2.220   2.311 -16.450  1.00  0.00     0.060 A 
BRANCH  86  87
ATOM     87  S   UNL     1       2.224   3.901 -17.307  1.00  0.00     0.124 S 
ATOM     88  O   UNL     1       1.505   3.575 -18.533  1.00  0.00    -0.237 OA
ATOM     89  O   UNL     1       1.519   4.761 -16.362  1.00  0.00    -0.237 OA
ATOM     90  O   UNL     1       3.646   4.192 -17.465  1.00  0.00    -0.744 OA
ENDBRANCH  86  87
ENDBRANCH  54  79
BRANCH  66  91
ATOM     91  C   UNL     1      -0.628  -6.374 -16.170  1.00  0.00     0.058 A 
ATOM     92  C   UNL     1      -0.029  -6.705 -17.396  1.00  0.00     0.135 A 
ATOM     93  C   UNL     1      -2.004  -6.607 -16.026  1.00  0.00     0.135 A 
ATOM     94  F   UNL     1       1.283  -6.495 -17.585  1.00  0.00    -0.206 F 
ATOM     95  C   UNL     1      -0.773  -7.225 -18.450  1.00  0.00     0.059 A 
ATOM     96  C   UNL     1      -2.764  -7.147 -17.059  1.00  0.00     0.059 A 
ATOM     97  F   UNL     1      -2.622  -6.317 -14.870  1.00  0.00    -0.206 F 
ATOM     98  C   UNL     1      -2.142  -7.439 -18.273  1.00  0.00     0.060 A 
BRANCH  98  99
ATOM     99  S   UNL     1      -3.094  -8.128 -19.643  1.00  0.00     0.124 S 
ATOM    100  O   UNL     1      -3.212  -6.974 -20.527  1.00  0.00    -0.237 OA
ATOM    101  O   UNL     1      -2.229  -9.204 -20.117  1.00  0.00    -0.237 OA
ATOM    102  O   UNL     1      -4.335  -8.563 -19.009  1.00  0.00    -0.744 OA
ENDBRANCH  98  99
ENDBRANCH  66  91
ENDBRANCH  40  41
ENDBRANCH  32  35
ENDBRANCH  30  31
ENDBRANCH   1  30
TORSDOF 17
