REMARK SMILES O=C(NCCCNC(=O)[C@H]1CC(=O)N(CCS(=O)(=O)c2ccc(F)cc2)C1)c1ccc(-c2c3nc(c(-c4c(F)cc(S(=O)(=O)[O-])cc4F)c4ccc([nH]4)c(-c4c(F)cc(S(=O)(=O)[O-])cc4F)c4nc(c(-c5c(F)cc(S(=O)(=O)[O-])cc5F)c5ccc2[nH]5)C=C4)C=C3)cc1
REMARK SMILES IDX 5 1 4 2 3 3 1 4 2 5 28 7 29 8 93 9 30 10 92 11 31 12 32 13
REMARK SMILES IDX 33 14 86 15 34 16 91 17 85 18 87 19 35 20 90 21 84 22 83 23
REMARK SMILES IDX 36 25 70 26 49 27 69 28 50 29 53 30 68 31 88 32 51 33 52 34
REMARK SMILES IDX 67 36 89 37 54 38 37 39 38 40 47 41 39 42 40 43 46 44 48 45
REMARK SMILES IDX 41 46 42 47 43 48 44 49 45 50 71 51 72 52 81 53 73 54 74 55
REMARK SMILES IDX 80 56 82 57 75 58 76 59 77 60 78 61 79 62 55 63 56 64 65 65
REMARK SMILES IDX 57 66 58 67 64 68 66 69 59 70 60 71 61 72 62 73 63 74 6 75
REMARK SMILES IDX 7 76 8 77 9 79 10 80 11 81 27 82 12 83 14 84 13 85 15 86
REMARK SMILES IDX 16 87 17 88 18 89 19 90 20 91 21 92 26 93 22 94 25 95 23 96
REMARK SMILES IDX 24 97
REMARK H PARENT 3 6 87 24 53 35 7 78
REMARK Flexibility Score: inf
ROOT
ATOM      1  C   UNL     1       9.147   1.888  -4.069  1.00  0.00     0.042 C 
ENDROOT
BRANCH   1   2
ATOM      2  C   UNL     1      10.407   2.197  -4.885  1.00  0.00     0.118 C 
BRANCH   2   3
ATOM      3  N   UNL     1      10.910   3.544  -4.695  1.00  0.00    -0.352 N 
ATOM      4  O   UNL     1      12.226   5.189  -3.929  1.00  0.00    -0.269 OA
ATOM      5  C   UNL     1      12.079   3.982  -4.114  1.00  0.00     0.251 C 
ATOM      6  H   UNL     1      10.323   4.257  -5.034  1.00  0.00     0.163 HD
BRANCH   5   7
ATOM      7  C   UNL     1      13.153   3.044  -3.690  1.00  0.00     0.039 A 
ATOM      8  C   UNL     1      13.595   1.997  -4.504  1.00  0.00     0.014 A 
ATOM      9  C   UNL     1      13.813   3.290  -2.479  1.00  0.00     0.014 A 
ATOM     10  C   UNL     1      14.626   1.153  -4.069  1.00  0.00     0.010 A 
ATOM     11  C   UNL     1      14.885   2.482  -2.073  1.00  0.00     0.010 A 
ATOM     12  C   UNL     1      15.299   1.397  -2.859  1.00  0.00    -0.014 A 
BRANCH  12  13
ATOM     13  C   UNL     1      16.483   0.574  -2.474  1.00  0.00     0.031 A 
ATOM     14  C   UNL     1      16.462  -0.316  -1.257  1.00  0.00     0.074 A 
ATOM     15  C   UNL     1      17.597   0.628  -3.234  1.00  0.00     0.049 A 
ATOM     16  N   UNL     1      17.408  -1.091  -0.787  1.00  0.00    -0.248 NA
ATOM     17  C   UNL     1      15.224  -0.339  -0.463  1.00  0.00     0.031 C 
ATOM     18  C   UNL     1      17.760   1.460  -4.429  1.00  0.00     0.029 A 
ATOM     19  N   UNL     1      18.797  -0.033  -3.130  1.00  0.00    -0.354 N 
ATOM     20  C   UNL     1      16.883  -1.696   0.350  1.00  0.00     0.074 A 
ATOM     21  C   UNL     1      15.545  -1.169   0.522  1.00  0.00     0.031 C 
ATOM     22  C   UNL     1      18.965   1.224  -4.971  1.00  0.00     0.029 A 
ATOM     23  C   UNL     1      19.685   0.266  -4.138  1.00  0.00     0.049 A 
ATOM     24  H   UNL     1      19.002  -0.663  -2.401  1.00  0.00     0.167 HD
ATOM     25  C   UNL     1      17.455  -2.617   1.164  1.00  0.00     0.037 A 
ATOM     26  C   UNL     1      20.939  -0.171  -4.368  1.00  0.00     0.037 A 
ATOM     27  C   UNL     1      18.785  -3.148   0.991  1.00  0.00     0.049 A 
ATOM     28  C   UNL     1      21.565  -1.156  -3.420  1.00  0.00     0.074 A 
ATOM     29  C   UNL     1      19.438  -4.095   1.764  1.00  0.00     0.029 A 
ATOM     30  N   UNL     1      19.663  -2.788  -0.019  1.00  0.00    -0.354 N 
ATOM     31  N   UNL     1      21.043  -1.725  -2.361  1.00  0.00    -0.248 NA
ATOM     32  C   UNL     1      22.954  -1.554  -3.694  1.00  0.00     0.031 C 
ATOM     33  C   UNL     1      20.723  -4.279   1.244  1.00  0.00     0.029 A 
ATOM     34  C   UNL     1      20.856  -3.482   0.120  1.00  0.00     0.049 A 
ATOM     35  H   UNL     1      19.469  -2.136  -0.731  1.00  0.00     0.167 HD
ATOM     36  C   UNL     1      22.031  -2.563  -1.855  1.00  0.00     0.074 A 
ATOM     37  C   UNL     1      23.177  -2.439  -2.732  1.00  0.00     0.031 C 
ATOM     38  C   UNL     1      21.991  -3.360  -0.760  1.00  0.00     0.037 A 
BRANCH  25  39
ATOM     39  C   UNL     1      16.649  -3.141   2.323  1.00  0.00     0.058 A 
ATOM     40  C   UNL     1      16.997  -2.817   3.644  1.00  0.00     0.135 A 
ATOM     41  C   UNL     1      15.602  -4.056   2.127  1.00  0.00     0.135 A 
ATOM     42  F   UNL     1      17.988  -1.946   3.889  1.00  0.00    -0.206 F 
ATOM     43  C   UNL     1      16.352  -3.401   4.731  1.00  0.00     0.059 A 
ATOM     44  C   UNL     1      14.929  -4.636   3.199  1.00  0.00     0.059 A 
ATOM     45  F   UNL     1      15.220  -4.387   0.884  1.00  0.00    -0.206 F 
ATOM     46  C   UNL     1      15.324  -4.316   4.498  1.00  0.00     0.060 A 
BRANCH  46  47
ATOM     47  S   UNL     1      14.498  -5.065   5.919  1.00  0.00     0.124 S 
ATOM     48  O   UNL     1      15.547  -5.920   6.461  1.00  0.00    -0.237 OA
ATOM     49  O   UNL     1      14.151  -3.895   6.721  1.00  0.00    -0.237 OA
ATOM     50  O   UNL     1      13.362  -5.762   5.322  1.00  0.00    -0.744 OA
ENDBRANCH  46  47
ENDBRANCH  25  39
BRANCH  26  51
ATOM     51  C   UNL     1      21.686   0.310  -5.561  1.00  0.00     0.058 A 
ATOM     52  C   UNL     1      22.126   1.639  -5.662  1.00  0.00     0.135 A 
ATOM     53  C   UNL     1      21.971  -0.555  -6.629  1.00  0.00     0.135 A 
ATOM     54  F   UNL     1      21.874   2.509  -4.672  1.00  0.00    -0.206 F 
ATOM     55  C   UNL     1      22.802   2.098  -6.787  1.00  0.00     0.059 A 
ATOM     56  C   UNL     1      22.670  -0.126  -7.753  1.00  0.00     0.059 A 
ATOM     57  F   UNL     1      21.584  -1.839  -6.571  1.00  0.00    -0.206 F 
ATOM     58  C   UNL     1      23.069   1.208  -7.828  1.00  0.00     0.060 A 
BRANCH  58  59
ATOM     59  S   UNL     1      23.961   1.820  -9.273  1.00  0.00     0.124 S 
ATOM     60  O   UNL     1      22.945   2.649  -9.912  1.00  0.00    -0.237 OA
ATOM     61  O   UNL     1      25.076   2.537  -8.664  1.00  0.00    -0.237 OA
ATOM     62  O   UNL     1      24.320   0.600  -9.989  1.00  0.00    -0.744 OA
ENDBRANCH  58  59
ENDBRANCH  26  51
BRANCH  38  63
ATOM     63  C   UNL     1      23.209  -4.185  -0.451  1.00  0.00     0.058 A 
ATOM     64  C   UNL     1      23.189  -5.579  -0.622  1.00  0.00     0.135 A 
ATOM     65  C   UNL     1      24.376  -3.606   0.072  1.00  0.00     0.135 A 
ATOM     66  F   UNL     1      22.097  -6.184  -1.116  1.00  0.00    -0.206 F 
ATOM     67  C   UNL     1      24.277  -6.371  -0.271  1.00  0.00     0.059 A 
ATOM     68  C   UNL     1      25.486  -4.377   0.406  1.00  0.00     0.059 A 
ATOM     69  F   UNL     1      24.452  -2.277   0.242  1.00  0.00    -0.206 F 
ATOM     70  C   UNL     1      25.421  -5.761   0.246  1.00  0.00     0.060 A 
BRANCH  70  71
ATOM     71  S   UNL     1      26.831  -6.802   0.681  1.00  0.00     0.124 S 
ATOM     72  O   UNL     1      26.349  -7.470   1.885  1.00  0.00    -0.237 OA
ATOM     73  O   UNL     1      26.969  -7.647  -0.502  1.00  0.00    -0.237 OA
ATOM     74  O   UNL     1      27.911  -5.841   0.885  1.00  0.00    -0.744 OA
ENDBRANCH  70  71
ENDBRANCH  38  63
ENDBRANCH  12  13
ENDBRANCH   5   7
ENDBRANCH   2   3
ENDBRANCH   1   2
BRANCH   1  75
ATOM     75  C   UNL     1       7.817   2.331  -4.685  1.00  0.00     0.117 C 
BRANCH  75  76
ATOM     76  N   UNL     1       7.622   1.864  -6.049  1.00  0.00    -0.356 N 
ATOM     77  C   UNL     1       6.657   1.097  -6.623  1.00  0.00     0.225 C 
ATOM     78  H   UNL     1       8.323   2.158  -6.675  1.00  0.00     0.163 HD
ATOM     79  O   UNL     1       6.665   1.027  -7.853  1.00  0.00    -0.275 OA
BRANCH  77  80
ATOM     80  C   UNL     1       5.608   0.382  -5.788  1.00  0.00     0.107 C 
ATOM     81  C   UNL     1       4.612  -0.397  -6.668  1.00  0.00     0.115 C 
ATOM     82  C   UNL     1       6.232  -0.706  -4.932  1.00  0.00     0.133 C 
ATOM     83  C   UNL     1       4.317  -1.652  -5.889  1.00  0.00     0.223 C 
ATOM     84  N   UNL     1       5.255  -1.761  -4.878  1.00  0.00    -0.341 N 
ATOM     85  O   UNL     1       3.428  -2.448  -6.137  1.00  0.00    -0.275 OA
BRANCH  84  86
ATOM     86  C   UNL     1       5.293  -2.853  -3.910  1.00  0.00     0.136 C 
BRANCH  86  87
ATOM     87  C   UNL     1       6.097  -4.075  -4.329  1.00  0.00     0.163 C 
BRANCH  87  88
ATOM     88  S   UNL     1       7.813  -4.040  -3.857  1.00  0.00     0.180 S 
ATOM     89  O   UNL     1       7.937  -3.188  -2.679  1.00  0.00    -0.224 OA
ATOM     90  O   UNL     1       8.305  -5.396  -3.847  1.00  0.00    -0.224 OA
BRANCH  88  91
ATOM     91  C   UNL     1       8.660  -3.220  -5.187  1.00  0.00     0.067 A 
ATOM     92  C   UNL     1       9.414  -2.069  -4.930  1.00  0.00     0.023 A 
ATOM     93  C   UNL     1       8.504  -3.698  -6.493  1.00  0.00     0.023 A 
ATOM     94  C   UNL     1       9.933  -1.345  -6.003  1.00  0.00     0.040 A 
ATOM     95  C   UNL     1       9.025  -2.963  -7.558  1.00  0.00     0.040 A 
ATOM     96  C   UNL     1       9.713  -1.781  -7.305  1.00  0.00     0.123 A 
ATOM     97  F   UNL     1      10.164  -1.045  -8.328  1.00  0.00    -0.207 F 
ENDBRANCH  88  91
ENDBRANCH  87  88
ENDBRANCH  86  87
ENDBRANCH  84  86
ENDBRANCH  77  80
ENDBRANCH  75  76
ENDBRANCH   1  75
TORSDOF 17
