REMARK SMILES Cc1ccccc1OC1(C(=O)NCCCNC(=O)c2ccc(-c3c4nc(c(-c5c(F)cc(S(=O)(=O)[O-])cc5F)c5ccc([nH]5)c(-c5c(F)cc(S(=O)(=O)[O-])cc5F)c5nc(c(-c6c(F)cc(S(=O)(=O)[O-])cc6F)c6ccc3[nH]6)C=C5)C=C4)cc2)CCN(C(=O)[C@H]2CCCCO2)CC1
REMARK SMILES IDX 14 1 13 2 12 3 10 4 11 5 9 7 85 8 97 9 86 10 96 11 87 12
REMARK SMILES IDX 88 13 89 14 8 15 7 16 1 17 2 18 3 19 4 20 6 21 5 22 90 23
REMARK SMILES IDX 91 24 95 25 92 26 94 27 93 28 15 29 16 30 17 31 18 33 19 34
REMARK SMILES IDX 20 35 84 36 21 37 83 38 22 39 23 40 24 41 77 42 25 43 82 44
REMARK SMILES IDX 76 45 78 46 26 47 81 48 75 49 74 50 27 52 61 53 40 54 60 55
REMARK SMILES IDX 41 56 44 57 59 58 79 59 42 60 43 61 58 63 80 64 45 65 28 66
REMARK SMILES IDX 29 67 38 68 30 69 31 70 37 71 39 72 32 73 33 74 34 75 35 76
REMARK SMILES IDX 36 77 62 78 63 79 72 80 64 81 65 82 71 83 73 84 66 85 67 86
REMARK SMILES IDX 68 87 69 88 70 89 46 90 47 91 56 92 48 93 49 94 55 95 57 96
REMARK SMILES IDX 50 97 51 98 52 99 53 100 54 101
REMARK H PARENT 12 6 16 32 78 51 44 62
REMARK Flexibility Score: inf
ROOT
ATOM      1  C   UNL     1       8.233  -2.654  -2.508  1.00  0.00     0.042 C 
ENDROOT
BRANCH   1   2
ATOM      2  C   UNL     1       6.896  -3.491  -2.946  1.00  0.00     0.118 C 
BRANCH   2   3
ATOM      3  N   UNL     1       6.821  -4.964  -3.211  1.00  0.00    -0.353 N 
ATOM      4  C   UNL     1       5.965  -6.007  -2.840  1.00  0.00     0.264 C 
ATOM      5  O   UNL     1       5.852  -6.987  -3.589  1.00  0.00    -0.270 OA
ATOM      6  H   UNL     1       7.556  -5.274  -3.789  1.00  0.00     0.163 HD
BRANCH   4   7
ATOM      7  C   UNL     1       5.221  -6.006  -1.426  1.00  0.00     0.190 C 
ATOM      8  C   UNL     1       6.407  -6.016  -0.469  1.00  0.00     0.080 C 
ATOM      9  C   UNL     1       4.225  -4.858  -1.483  1.00  0.00     0.080 C 
ATOM     10  C   UNL     1       6.739  -4.682   0.162  1.00  0.00     0.124 C 
ATOM     11  C   UNL     1       4.538  -3.639  -0.648  1.00  0.00     0.124 C 
ATOM     12  N   UNL     1       5.640  -3.711   0.312  1.00  0.00    -0.340 N 
ATOM     13  C   UNL     1       5.817  -2.760   1.324  1.00  0.00     0.251 C 
ATOM     14  O   UNL     1       6.769  -2.829   2.106  1.00  0.00    -0.272 OA
BRANCH   7  15
ATOM     15  O   UNL     1       4.458  -7.246  -1.192  1.00  0.00    -0.477 OA
BRANCH  15  16
ATOM     16  C   UNL     1       3.557  -7.548  -0.182  1.00  0.00     0.123 A 
ATOM     17  C   UNL     1       4.013  -5.869   1.764  1.00  0.00     0.048 C 
ATOM     18  C   UNL     1       3.299  -6.977   1.082  1.00  0.00    -0.009 A 
ATOM     19  C   UNL     1       2.259  -7.479   1.913  1.00  0.00     0.007 A 
ATOM     20  C   UNL     1       1.500  -8.574   1.553  1.00  0.00     0.001 A 
ATOM     21  C   UNL     1       2.773  -8.675  -0.507  1.00  0.00     0.047 A 
ATOM     22  C   UNL     1       1.768  -9.184   0.341  1.00  0.00     0.004 A 
ENDBRANCH  15  16
ENDBRANCH   7  15
BRANCH  13  23
ATOM     23  C   UNL     1       4.759  -1.645   1.462  1.00  0.00     0.207 C 
ATOM     24  C   UNL     1       3.548  -2.192   2.232  1.00  0.00     0.042 C 
ATOM     25  O   UNL     1       5.365  -0.555   2.166  1.00  0.00    -0.368 OA
ATOM     26  C   UNL     1       2.593  -1.098   2.676  1.00  0.00     0.006 C 
ATOM     27  C   UNL     1       4.471   0.507   2.455  1.00  0.00     0.161 C 
ATOM     28  C   UNL     1       3.359   0.015   3.365  1.00  0.00     0.029 C 
ENDBRANCH  13  23
ENDBRANCH   4   7
ENDBRANCH   2   3
ENDBRANCH   1   2
BRANCH   1  29
ATOM     29  C   UNL     1       8.842  -1.663  -3.620  1.00  0.00     0.118 C 
BRANCH  29  30
ATOM     30  N   UNL     1      10.200  -0.810  -3.627  1.00  0.00    -0.352 N 
ATOM     31  C   UNL     1      11.456  -0.571  -4.356  1.00  0.00     0.251 C 
ATOM     32  H   UNL     1      10.190  -0.219  -2.840  1.00  0.00     0.163 HD
ATOM     33  O   UNL     1      11.681   0.648  -4.505  1.00  0.00    -0.269 OA
BRANCH  31  34
ATOM     34  C   UNL     1      12.575  -1.472  -5.049  1.00  0.00     0.039 A 
ATOM     35  C   UNL     1      13.037  -1.244  -6.382  1.00  0.00     0.014 A 
ATOM     36  C   UNL     1      13.183  -2.573  -4.488  1.00  0.00     0.014 A 
ATOM     37  C   UNL     1      13.336  -2.362  -7.239  1.00  0.00     0.010 A 
ATOM     38  C   UNL     1      13.522  -3.674  -5.318  1.00  0.00     0.010 A 
ATOM     39  C   UNL     1      13.332  -3.649  -6.706  1.00  0.00    -0.014 A 
BRANCH  39  40
ATOM     40  C   UNL     1      13.041  -4.924  -7.475  1.00  0.00     0.031 A 
ATOM     41  C   UNL     1      14.122  -5.852  -7.785  1.00  0.00     0.074 A 
ATOM     42  C   UNL     1      11.828  -5.455  -7.823  1.00  0.00     0.049 A 
ATOM     43  N   UNL     1      14.340  -6.370  -8.948  1.00  0.00    -0.248 NA
ATOM     44  C   UNL     1      15.012  -6.322  -6.741  1.00  0.00     0.031 C 
ATOM     45  C   UNL     1      11.414  -6.733  -8.440  1.00  0.00     0.029 A 
ATOM     46  N   UNL     1      10.577  -4.908  -7.631  1.00  0.00    -0.354 N 
ATOM     47  C   UNL     1      15.155  -7.460  -8.725  1.00  0.00     0.074 A 
ATOM     48  C   UNL     1      15.689  -7.266  -7.394  1.00  0.00     0.031 C 
ATOM     49  C   UNL     1      10.152  -6.618  -8.923  1.00  0.00     0.029 A 
ATOM     50  C   UNL     1       9.709  -5.268  -8.655  1.00  0.00     0.049 A 
ATOM     51  H   UNL     1      10.331  -4.337  -6.868  1.00  0.00     0.167 HD
ATOM     52  C   UNL     1      15.114  -8.549  -9.549  1.00  0.00     0.037 A 
ATOM     53  C   UNL     1       9.280  -4.287  -9.508  1.00  0.00     0.037 A 
ATOM     54  C   UNL     1      13.985  -8.455 -10.487  1.00  0.00     0.049 A 
ATOM     55  C   UNL     1       9.918  -4.471 -10.850  1.00  0.00     0.074 A 
ATOM     56  C   UNL     1      12.757  -9.102 -10.528  1.00  0.00     0.029 A 
ATOM     57  N   UNL     1      13.876  -7.377 -11.361  1.00  0.00    -0.354 N 
ATOM     58  N   UNL     1      10.895  -5.307 -11.037  1.00  0.00    -0.248 NA
ATOM     59  C   UNL     1       9.529  -3.793 -12.078  1.00  0.00     0.031 C 
ATOM     60  C   UNL     1      11.885  -8.352 -11.360  1.00  0.00     0.029 A 
ATOM     61  C   UNL     1      12.586  -7.264 -11.851  1.00  0.00     0.049 A 
ATOM     62  H   UNL     1      14.618  -6.775 -11.599  1.00  0.00     0.167 HD
ATOM     63  C   UNL     1      11.246  -5.345 -12.346  1.00  0.00     0.074 A 
ATOM     64  C   UNL     1      10.361  -4.373 -12.966  1.00  0.00     0.031 C 
ATOM     65  C   UNL     1      12.223  -6.193 -12.776  1.00  0.00     0.037 A 
BRANCH  52  66
ATOM     66  C   UNL     1      15.876  -9.838  -9.270  1.00  0.00     0.058 A 
ATOM     67  C   UNL     1      15.475 -11.073  -9.823  1.00  0.00     0.135 A 
ATOM     68  C   UNL     1      17.050  -9.912  -8.487  1.00  0.00     0.135 A 
ATOM     69  F   UNL     1      14.460 -11.158 -10.694  1.00  0.00    -0.206 F 
ATOM     70  C   UNL     1      16.119 -12.283  -9.542  1.00  0.00     0.059 A 
ATOM     71  C   UNL     1      17.667 -11.115  -8.130  1.00  0.00     0.059 A 
ATOM     72  F   UNL     1      17.706  -8.808  -8.104  1.00  0.00    -0.206 F 
ATOM     73  C   UNL     1      17.200 -12.300  -8.673  1.00  0.00     0.060 A 
BRANCH  73  74
ATOM     74  S   UNL     1      18.046 -13.858  -8.353  1.00  0.00     0.124 S 
ATOM     75  O   UNL     1      16.970 -14.697  -7.837  1.00  0.00    -0.237 OA
ATOM     76  O   UNL     1      18.545 -14.209  -9.679  1.00  0.00    -0.237 OA
ATOM     77  O   UNL     1      19.073 -13.498  -7.379  1.00  0.00    -0.744 OA
ENDBRANCH  73  74
ENDBRANCH  52  66
BRANCH  53  78
ATOM     78  C   UNL     1       8.940  -2.958  -8.833  1.00  0.00     0.058 A 
ATOM     79  C   UNL     1       7.945  -3.110  -7.853  1.00  0.00     0.135 A 
ATOM     80  C   UNL     1      10.015  -2.223  -8.366  1.00  0.00     0.135 A 
ATOM     81  F   UNL     1       6.669  -3.283  -8.213  1.00  0.00    -0.206 F 
ATOM     82  C   UNL     1       8.290  -3.315  -6.518  1.00  0.00     0.059 A 
ATOM     83  C   UNL     1      10.295  -2.242  -6.993  1.00  0.00     0.059 A 
ATOM     84  F   UNL     1      10.858  -1.607  -9.211  1.00  0.00    -0.206 F 
ATOM     85  C   UNL     1       9.602  -3.083  -6.136  1.00  0.00     0.060 A 
BRANCH  85  86
ATOM     86  S   UNL     1      10.277  -4.213  -4.629  1.00  0.00     0.124 S 
ATOM     87  O   UNL     1       9.026  -4.845  -4.249  1.00  0.00    -0.237 OA
ATOM     88  O   UNL     1      11.189  -5.202  -5.193  1.00  0.00    -0.237 OA
ATOM     89  O   UNL     1      10.847  -3.365  -3.615  1.00  0.00    -0.744 OA
ENDBRANCH  85  86
ENDBRANCH  53  78
BRANCH  65  90
ATOM     90  C   UNL     1      12.846  -6.183 -14.141  1.00  0.00     0.058 A 
ATOM     91  C   UNL     1      12.919  -5.047 -14.960  1.00  0.00     0.135 A 
ATOM     92  C   UNL     1      13.522  -7.333 -14.617  1.00  0.00     0.135 A 
ATOM     93  F   UNL     1      12.435  -3.861 -14.566  1.00  0.00    -0.206 F 
ATOM     94  C   UNL     1      13.537  -5.075 -16.207  1.00  0.00     0.059 A 
ATOM     95  C   UNL     1      14.207  -7.360 -15.822  1.00  0.00     0.059 A 
ATOM     96  F   UNL     1      13.550  -8.479 -13.920  1.00  0.00    -0.206 F 
ATOM     97  C   UNL     1      14.175  -6.237 -16.630  1.00  0.00     0.060 A 
BRANCH  97  98
ATOM     98  S   UNL     1      14.992  -6.264 -18.229  1.00  0.00     0.124 S 
ATOM     99  O   UNL     1      13.870  -6.541 -19.120  1.00  0.00    -0.237 OA
ATOM    100  O   UNL     1      15.554  -4.920 -18.322  1.00  0.00    -0.237 OA
ATOM    101  O   UNL     1      15.971  -7.337 -18.092  1.00  0.00    -0.744 OA
ENDBRANCH  97  98
ENDBRANCH  65  90
ENDBRANCH  39  40
ENDBRANCH  31  34
ENDBRANCH  29  30
ENDBRANCH   1  29
TORSDOF 16
