REMARK SMILES O=C(COc1ccccc1/C=C1\C(=O)Nc2ccccc21)NCCCNC(=O)c1ccc(-c2c3nc(c(-c4c(F)cc(S(=O)(=O)[O-])cc4F)c4ccc([nH]4)c(-c4c(F)cc(S(=O)(=O)[O-])cc4F)c4nc(c(-c5c(F)cc(S(=O)(=O)[O-])cc5F)c5ccc2[nH]5)C=C4)C=C3)cc1
REMARK SMILES IDX 24 1 23 2 22 3 1 4 2 5 3 7 4 8 5 9 6 10 10 11 7 12 9 13 8 14
REMARK SMILES IDX 11 15 12 16 13 17 21 18 14 19 15 20 16 21 20 22 17 24 19 25
REMARK SMILES IDX 18 26 25 27 26 28 27 29 28 31 29 32 30 33 94 34 31 35 93 36
REMARK SMILES IDX 32 37 33 38 34 39 87 40 35 41 92 42 86 43 88 44 36 45 91 46
REMARK SMILES IDX 85 47 84 48 37 50 71 51 50 52 70 53 51 54 54 55 69 56 89 57
REMARK SMILES IDX 52 58 53 59 68 61 90 62 55 63 38 64 39 65 48 66 40 67 41 68
REMARK SMILES IDX 47 69 49 70 42 71 43 72 44 73 45 74 46 75 72 76 73 77 82 78
REMARK SMILES IDX 74 79 75 80 81 81 83 82 76 83 77 84 78 85 79 86 80 87 56 88
REMARK SMILES IDX 57 89 66 90 58 91 59 92 65 93 67 94 60 95 61 96 62 97 63 98
REMARK SMILES IDX 64 99
REMARK H PARENT 22 6 15 23 26 30 88 49 54 60
REMARK Flexibility Score: inf
ROOT
ATOM      1  C   UNL     1       2.824   3.580  -1.355  1.00  0.00     0.042 C 
ENDROOT
BRANCH   1   2
ATOM      2  C   UNL     1       2.232   2.202  -1.206  1.00  0.00     0.117 C 
BRANCH   2   3
ATOM      3  N   UNL     1       2.878   1.338  -0.258  1.00  0.00    -0.353 N 
ATOM      4  O   UNL     1       0.967   0.696   0.873  1.00  0.00    -0.271 OA
ATOM      5  C   UNL     1       2.120   0.478   0.523  1.00  0.00     0.257 C 
ATOM      6  H   UNL     1       3.858   1.357  -0.162  1.00  0.00     0.163 HD
BRANCH   5   7
ATOM      7  C   UNL     1       2.862  -0.805   0.853  1.00  0.00     0.329 C 
BRANCH   7   8
ATOM      8  O   UNL     1       3.491  -1.193  -0.380  1.00  0.00    -0.483 OA
BRANCH   8   9
ATOM      9  C   UNL     1       2.985  -2.353  -0.907  1.00  0.00     0.127 A 
ATOM     10  C   UNL     1       3.447  -3.552  -0.344  1.00  0.00     0.047 A 
ATOM     11  C   UNL     1       2.189  -2.347  -2.075  1.00  0.00     0.017 A 
ATOM     12  C   UNL     1       3.148  -4.768  -0.949  1.00  0.00     0.004 A 
ATOM     13  C   UNL     1       2.002  -3.578  -2.717  1.00  0.00     0.012 A 
ATOM     14  C   UNL     1       2.450  -4.777  -2.151  1.00  0.00     0.001 A 
BRANCH  11  15
ATOM     15  C   UNL     1       1.597  -1.108  -2.657  1.00  0.00     0.026 C 
ATOM     16  C   UNL     1       0.340  -0.907  -3.115  1.00  0.00     0.050 C 
ATOM     17  C   UNL     1      -0.770  -1.948  -3.168  1.00  0.00     0.256 C 
ATOM     18  C   UNL     1      -0.281   0.358  -3.603  1.00  0.00     0.011 A 
ATOM     19  O   UNL     1      -0.759  -3.118  -2.854  1.00  0.00    -0.269 OA
ATOM     20  N   UNL     1      -1.873  -1.289  -3.678  1.00  0.00    -0.321 N 
ATOM     21  C   UNL     1      -1.617   0.054  -3.891  1.00  0.00     0.049 A 
ATOM     22  C   UNL     1       0.135   1.667  -3.788  1.00  0.00     0.011 A 
ATOM     23  H   UNL     1      -2.736  -1.723  -3.867  1.00  0.00     0.170 HD
ATOM     24  C   UNL     1      -2.553   0.987  -4.304  1.00  0.00     0.027 A 
ATOM     25  C   UNL     1      -0.806   2.651  -4.143  1.00  0.00     0.001 A 
ATOM     26  C   UNL     1      -2.142   2.312  -4.397  1.00  0.00     0.002 A 
ENDBRANCH  11  15
ENDBRANCH   8   9
ENDBRANCH   7   8
ENDBRANCH   5   7
ENDBRANCH   2   3
ENDBRANCH   1   2
BRANCH   1  27
ATOM     27  C   UNL     1       4.277   3.581  -1.801  1.00  0.00     0.118 C 
BRANCH  27  28
ATOM     28  N   UNL     1       4.508   3.080  -3.157  1.00  0.00    -0.352 N 
ATOM     29  C   UNL     1       5.112   3.693  -4.236  1.00  0.00     0.251 C 
ATOM     30  H   UNL     1       4.183   2.166  -3.325  1.00  0.00     0.163 HD
ATOM     31  O   UNL     1       5.153   3.117  -5.320  1.00  0.00    -0.269 OA
BRANCH  29  32
ATOM     32  C   UNL     1       5.664   5.059  -4.097  1.00  0.00     0.039 A 
ATOM     33  C   UNL     1       5.423   6.004  -5.098  1.00  0.00     0.014 A 
ATOM     34  C   UNL     1       6.362   5.427  -2.949  1.00  0.00     0.014 A 
ATOM     35  C   UNL     1       5.790   7.337  -4.890  1.00  0.00     0.010 A 
ATOM     36  C   UNL     1       6.587   6.770  -2.682  1.00  0.00     0.010 A 
ATOM     37  C   UNL     1       6.323   7.742  -3.655  1.00  0.00    -0.014 A 
BRANCH  37  38
ATOM     38  C   UNL     1       6.651   9.164  -3.364  1.00  0.00     0.031 A 
ATOM     39  C   UNL     1       8.059   9.539  -2.976  1.00  0.00     0.074 A 
ATOM     40  C   UNL     1       5.680  10.100  -3.376  1.00  0.00     0.049 A 
ATOM     41  N   UNL     1       8.533  10.699  -2.603  1.00  0.00    -0.248 NA
ATOM     42  C   UNL     1       9.059   8.457  -2.965  1.00  0.00     0.031 C 
ATOM     43  C   UNL     1       4.266   9.855  -3.672  1.00  0.00     0.029 A 
ATOM     44  N   UNL     1       5.733  11.449  -3.124  1.00  0.00    -0.354 N 
ATOM     45  C   UNL     1       9.872  10.480  -2.298  1.00  0.00     0.074 A 
ATOM     46  C   UNL     1      10.115   9.064  -2.449  1.00  0.00     0.031 C 
ATOM     47  C   UNL     1       3.596  11.019  -3.622  1.00  0.00     0.029 A 
ATOM     48  C   UNL     1       4.519  12.085  -3.246  1.00  0.00     0.049 A 
ATOM     49  H   UNL     1       6.563  11.918  -2.879  1.00  0.00     0.167 HD
ATOM     50  C   UNL     1      10.825  11.380  -1.960  1.00  0.00     0.037 A 
ATOM     51  C   UNL     1       4.186  13.380  -3.071  1.00  0.00     0.037 A 
ATOM     52  C   UNL     1      10.584  12.793  -1.847  1.00  0.00     0.049 A 
ATOM     53  C   UNL     1       5.263  14.364  -2.697  1.00  0.00     0.074 A 
ATOM     54  C   UNL     1      11.491  13.800  -1.571  1.00  0.00     0.029 A 
ATOM     55  N   UNL     1       9.347  13.400  -2.006  1.00  0.00    -0.354 N 
ATOM     56  N   UNL     1       6.540  14.149  -2.481  1.00  0.00    -0.248 NA
ATOM     57  C   UNL     1       4.858  15.769  -2.552  1.00  0.00     0.031 C 
ATOM     58  C   UNL     1      10.793  15.009  -1.508  1.00  0.00     0.029 A 
ATOM     59  C   UNL     1       9.463  14.766  -1.811  1.00  0.00     0.049 A 
ATOM     60  H   UNL     1       8.510  12.930  -2.225  1.00  0.00     0.167 HD
ATOM     61  C   UNL     1       7.096  15.395  -2.211  1.00  0.00     0.074 A 
ATOM     62  C   UNL     1       6.018  16.359  -2.301  1.00  0.00     0.031 C 
ATOM     63  C   UNL     1       8.381  15.714  -1.918  1.00  0.00     0.037 A 
BRANCH  50  64
ATOM     64  C   UNL     1      12.214  10.862  -1.699  1.00  0.00     0.058 A 
ATOM     65  C   UNL     1      13.007  10.319  -2.725  1.00  0.00     0.135 A 
ATOM     66  C   UNL     1      12.772  10.932  -0.412  1.00  0.00     0.135 A 
ATOM     67  F   UNL     1      12.519  10.208  -3.971  1.00  0.00    -0.206 F 
ATOM     68  C   UNL     1      14.286   9.834  -2.478  1.00  0.00     0.059 A 
ATOM     69  C   UNL     1      14.064  10.485  -0.150  1.00  0.00     0.059 A 
ATOM     70  F   UNL     1      12.060  11.438   0.607  1.00  0.00    -0.206 F 
ATOM     71  C   UNL     1      14.807   9.923  -1.187  1.00  0.00     0.060 A 
BRANCH  71  72
ATOM     72  S   UNL     1      16.473   9.297  -0.887  1.00  0.00     0.124 S 
ATOM     73  O   UNL     1      16.266   7.856  -0.997  1.00  0.00    -0.237 OA
ATOM     74  O   UNL     1      17.235   9.911  -1.970  1.00  0.00    -0.237 OA
ATOM     75  O   UNL     1      16.785   9.786   0.452  1.00  0.00    -0.744 OA
ENDBRANCH  71  72
ENDBRANCH  50  64
BRANCH  51  76
ATOM     76  C   UNL     1       2.780  13.826  -3.277  1.00  0.00     0.058 A 
ATOM     77  C   UNL     1       2.434  14.653  -4.357  1.00  0.00     0.135 A 
ATOM     78  C   UNL     1       1.754  13.435  -2.403  1.00  0.00     0.135 A 
ATOM     79  F   UNL     1       3.379  15.060  -5.219  1.00  0.00    -0.206 F 
ATOM     80  C   UNL     1       1.129  15.093  -4.553  1.00  0.00     0.059 A 
ATOM     81  C   UNL     1       0.435  13.837  -2.594  1.00  0.00     0.059 A 
ATOM     82  F   UNL     1       2.026  12.631  -1.363  1.00  0.00    -0.206 F 
ATOM     83  C   UNL     1       0.135  14.676  -3.666  1.00  0.00     0.060 A 
BRANCH  83  84
ATOM     84  S   UNL     1      -1.564  15.217  -3.955  1.00  0.00     0.124 S 
ATOM     85  O   UNL     1      -1.484  16.633  -3.614  1.00  0.00    -0.237 OA
ATOM     86  O   UNL     1      -1.745  14.910  -5.370  1.00  0.00    -0.237 OA
ATOM     87  O   UNL     1      -2.341  14.390  -3.037  1.00  0.00    -0.744 OA
ENDBRANCH  83  84
ENDBRANCH  51  76
BRANCH  63  88
ATOM     88  C   UNL     1       8.711  17.169  -1.722  1.00  0.00     0.058 A 
ATOM     89  C   UNL     1       8.280  17.885  -0.595  1.00  0.00     0.135 A 
ATOM     90  C   UNL     1       9.521  17.840  -2.655  1.00  0.00     0.135 A 
ATOM     91  F   UNL     1       7.502  17.293   0.325  1.00  0.00    -0.206 F 
ATOM     92  C   UNL     1       8.616  19.222  -0.412  1.00  0.00     0.059 A 
ATOM     93  C   UNL     1       9.897  19.166  -2.475  1.00  0.00     0.059 A 
ATOM     94  F   UNL     1       9.971  17.199  -3.745  1.00  0.00    -0.206 F 
ATOM     95  C   UNL     1       9.428  19.854  -1.357  1.00  0.00     0.060 A 
BRANCH  95  96
ATOM     96  S   UNL     1       9.881  21.580  -1.092  1.00  0.00     0.124 S 
ATOM     97  O   UNL     1       8.618  22.260  -1.360  1.00  0.00    -0.237 OA
ATOM     98  O   UNL     1      10.316  21.577   0.301  1.00  0.00    -0.237 OA
ATOM     99  O   UNL     1      10.938  21.810  -2.072  1.00  0.00    -0.744 OA
ENDBRANCH  95  96
ENDBRANCH  63  88
ENDBRANCH  37  38
ENDBRANCH  29  32
ENDBRANCH  27  28
ENDBRANCH   1  27
TORSDOF 16
