REMARK SMILES O=C(NCCCNC(=O)c1ccc(-c2c3nc(c(-c4c(F)cc(S(=O)(=O)[O-])cc4F)c4ccc([nH]4)c(-c4c(F)cc(S(=O)(=O)[O-])cc4F)c4nc(c(-c5c(F)cc(S(=O)(=O)[O-])cc5F)c5ccc2[nH]5)C=C4)C=C3)cc1)C1=Cc2cc(C(F)(F)F)ccc2O[C@@H]1C(F)(F)F
REMARK SMILES IDX 6 1 5 2 4 3 3 4 1 5 2 6 76 8 77 9 89 10 78 11 88 12 79 13
REMARK SMILES IDX 87 14 80 15 86 16 85 17 90 18 91 19 92 20 93 21 81 22 82 23
REMARK SMILES IDX 83 24 84 25 7 26 8 27 9 29 10 30 11 31 75 32 12 33 74 34
REMARK SMILES IDX 13 35 14 36 15 37 68 38 16 39 73 40 67 41 69 42 17 43 72 44
REMARK SMILES IDX 66 45 65 46 18 48 52 49 31 50 51 51 32 52 35 53 50 54 70 55
REMARK SMILES IDX 33 56 34 57 49 59 71 60 36 61 19 62 20 63 29 64 21 65 22 66
REMARK SMILES IDX 28 67 30 68 23 69 24 70 25 71 26 72 27 73 53 74 54 75 63 76
REMARK SMILES IDX 55 77 56 78 62 79 64 80 57 81 58 82 59 83 60 84 61 85 37 86
REMARK SMILES IDX 38 87 47 88 39 89 40 90 46 91 48 92 41 93 42 94 43 95 44 96
REMARK SMILES IDX 45 97
REMARK H PARENT 3 7 7 28 69 47 35 58
REMARK Flexibility Score: inf
ROOT
ATOM      1  C   UNL     1       4.069  -1.685   3.644  1.00  0.00     0.118 C 
ENDROOT
BRANCH   1   2
ATOM      2  C   UNL     1       4.064  -0.545   2.633  1.00  0.00     0.042 C 
BRANCH   2   3
ATOM      3  C   UNL     1       3.206  -0.855   1.410  1.00  0.00     0.118 C 
BRANCH   3   4
ATOM      4  N   UNL     1       2.229   0.196   1.109  1.00  0.00    -0.352 N 
ATOM      5  O   UNL     1       1.096   1.659  -0.208  1.00  0.00    -0.270 OA
ATOM      6  C   UNL     1       2.094   0.980  -0.011  1.00  0.00     0.251 C 
ATOM      7  H   UNL     1       1.568   0.366   1.819  1.00  0.00     0.163 HD
BRANCH   6   8
ATOM      8  C   UNL     1       3.188   0.921  -0.994  1.00  0.00     0.067 C 
ATOM      9  C   UNL     1       4.365   1.412  -0.591  1.00  0.00     0.025 C 
ATOM     10  C   UNL     1       3.032  -0.021  -2.146  1.00  0.00     0.314 C 
ATOM     11  C   UNL     1       5.500   0.546  -0.918  1.00  0.00     0.018 A 
ATOM     12  O   UNL     1       4.106  -0.993  -2.222  1.00  0.00    -0.475 OA
ATOM     13  C   UNL     1       6.673   0.732  -0.180  1.00  0.00     0.025 A 
ATOM     14  C   UNL     1       5.279  -0.670  -1.586  1.00  0.00     0.128 A 
ATOM     15  C   UNL     1       7.556  -0.338   0.020  1.00  0.00     0.056 A 
ATOM     16  C   UNL     1       6.194  -1.713  -1.453  1.00  0.00     0.048 A 
ATOM     17  C   UNL     1       7.308  -1.560  -0.626  1.00  0.00     0.017 A 
BRANCH  10  18
ATOM     18  C   UNL     1       2.885   0.727  -3.479  1.00  0.00     0.429 C 
ATOM     19  F   UNL     1       2.581  -0.132  -4.485  1.00  0.00    -0.167 F 
ATOM     20  F   UNL     1       1.891   1.644  -3.442  1.00  0.00    -0.167 F 
ATOM     21  F   UNL     1       4.018   1.375  -3.838  1.00  0.00    -0.167 F 
ENDBRANCH  10  18
BRANCH  15  22
ATOM     22  C   UNL     1       8.703  -0.181   0.990  1.00  0.00     0.416 C 
ATOM     23  F   UNL     1       9.777   0.426   0.423  1.00  0.00    -0.166 F 
ATOM     24  F   UNL     1       8.362   0.576   2.070  1.00  0.00    -0.166 F 
ATOM     25  F   UNL     1       9.147  -1.365   1.490  1.00  0.00    -0.166 F 
ENDBRANCH  15  22
ENDBRANCH   6   8
ENDBRANCH   3   4
ENDBRANCH   2   3
ENDBRANCH   1   2
BRANCH   1  26
ATOM     26  N   UNL     1       4.691  -2.913   3.164  1.00  0.00    -0.352 N 
ATOM     27  C   UNL     1       5.513  -3.801   3.827  1.00  0.00     0.251 C 
ATOM     28  H   UNL     1       4.495  -3.143   2.227  1.00  0.00     0.163 HD
ATOM     29  O   UNL     1       5.978  -4.760   3.211  1.00  0.00    -0.269 OA
BRANCH  27  30
ATOM     30  C   UNL     1       5.873  -3.585   5.249  1.00  0.00     0.039 A 
ATOM     31  C   UNL     1       7.176  -3.866   5.673  1.00  0.00     0.014 A 
ATOM     32  C   UNL     1       4.948  -3.082   6.163  1.00  0.00     0.014 A 
ATOM     33  C   UNL     1       7.564  -3.563   6.984  1.00  0.00     0.010 A 
ATOM     34  C   UNL     1       5.368  -2.663   7.420  1.00  0.00     0.010 A 
ATOM     35  C   UNL     1       6.676  -2.913   7.856  1.00  0.00    -0.014 A 
BRANCH  35  36
ATOM     36  C   UNL     1       7.070  -2.515   9.235  1.00  0.00     0.031 A 
ATOM     37  C   UNL     1       6.282  -3.025  10.417  1.00  0.00     0.074 A 
ATOM     38  C   UNL     1       8.070  -1.629   9.422  1.00  0.00     0.049 A 
ATOM     39  N   UNL     1       6.386  -2.708  11.682  1.00  0.00    -0.248 NA
ATOM     40  C   UNL     1       5.194  -3.976  10.131  1.00  0.00     0.031 C 
ATOM     41  C   UNL     1       8.853  -0.993   8.359  1.00  0.00     0.029 A 
ATOM     42  N   UNL     1       8.592  -1.099  10.576  1.00  0.00    -0.354 N 
ATOM     43  C   UNL     1       5.355  -3.383  12.328  1.00  0.00     0.074 A 
ATOM     44  C   UNL     1       4.596  -4.070  11.308  1.00  0.00     0.031 C 
ATOM     45  C   UNL     1       9.777  -0.190   8.911  1.00  0.00     0.029 A 
ATOM     46  C   UNL     1       9.633  -0.225  10.362  1.00  0.00     0.049 A 
ATOM     47  H   UNL     1       8.254  -1.324  11.473  1.00  0.00     0.167 HD
ATOM     48  C   UNL     1       5.085  -3.456  13.653  1.00  0.00     0.037 A 
ATOM     49  C   UNL     1      10.388   0.467  11.239  1.00  0.00     0.037 A 
ATOM     50  C   UNL     1       5.893  -2.832  14.667  1.00  0.00     0.049 A 
ATOM     51  C   UNL     1      10.128   0.301  12.711  1.00  0.00     0.074 A 
ATOM     52  C   UNL     1       5.769  -2.919  16.042  1.00  0.00     0.029 A 
ATOM     53  N   UNL     1       6.987  -2.019  14.412  1.00  0.00    -0.354 N 
ATOM     54  N   UNL     1       9.193  -0.400  13.309  1.00  0.00    -0.248 NA
ATOM     55  C   UNL     1      11.032   1.005  13.629  1.00  0.00     0.031 C 
ATOM     56  C   UNL     1       6.774  -2.134  16.619  1.00  0.00     0.029 A 
ATOM     57  C   UNL     1       7.546  -1.592  15.604  1.00  0.00     0.049 A 
ATOM     58  H   UNL     1       7.318  -1.780  13.516  1.00  0.00     0.167 HD
ATOM     59  C   UNL     1       9.411  -0.240  14.672  1.00  0.00     0.074 A 
ATOM     60  C   UNL     1      10.575   0.611  14.810  1.00  0.00     0.031 C 
ATOM     61  C   UNL     1       8.712  -0.751  15.716  1.00  0.00     0.037 A 
BRANCH  48  62
ATOM     62  C   UNL     1       3.883  -4.258  14.076  1.00  0.00     0.058 A 
ATOM     63  C   UNL     1       3.842  -5.656  13.942  1.00  0.00     0.135 A 
ATOM     64  C   UNL     1       2.759  -3.623  14.630  1.00  0.00     0.135 A 
ATOM     65  F   UNL     1       4.881  -6.314  13.404  1.00  0.00    -0.206 F 
ATOM     66  C   UNL     1       2.716  -6.390  14.297  1.00  0.00     0.059 A 
ATOM     67  C   UNL     1       1.633  -4.342  15.023  1.00  0.00     0.059 A 
ATOM     68  F   UNL     1       2.742  -2.290  14.784  1.00  0.00    -0.206 F 
ATOM     69  C   UNL     1       1.614  -5.723  14.834  1.00  0.00     0.060 A 
BRANCH  69  70
ATOM     70  S   UNL     1       0.156  -6.689  15.282  1.00  0.00     0.124 S 
ATOM     71  O   UNL     1      -0.418  -6.971  13.970  1.00  0.00    -0.237 OA
ATOM     72  O   UNL     1       0.738  -7.832  15.977  1.00  0.00    -0.237 OA
ATOM     73  O   UNL     1      -0.613  -5.774  16.120  1.00  0.00    -0.744 OA
ENDBRANCH  69  70
ENDBRANCH  48  62
BRANCH  49  74
ATOM     74  C   UNL     1      11.492   1.333  10.746  1.00  0.00     0.058 A 
ATOM     75  C   UNL     1      12.832   0.952  10.908  1.00  0.00     0.135 A 
ATOM     76  C   UNL     1      11.233   2.541  10.079  1.00  0.00     0.135 A 
ATOM     77  F   UNL     1      13.131  -0.193  11.542  1.00  0.00    -0.206 F 
ATOM     78  C   UNL     1      13.878   1.742  10.441  1.00  0.00     0.059 A 
ATOM     79  C   UNL     1      12.262   3.337   9.583  1.00  0.00     0.059 A 
ATOM     80  F   UNL     1       9.968   2.941   9.881  1.00  0.00    -0.206 F 
ATOM     81  C   UNL     1      13.582   2.933   9.777  1.00  0.00     0.060 A 
BRANCH  81  82
ATOM     82  S   UNL     1      14.946   3.922   9.123  1.00  0.00     0.124 S 
ATOM     83  O   UNL     1      15.489   4.513  10.341  1.00  0.00    -0.237 OA
ATOM     84  O   UNL     1      15.778   2.911   8.478  1.00  0.00    -0.237 OA
ATOM     85  O   UNL     1      14.280   4.848   8.213  1.00  0.00    -0.744 OA
ENDBRANCH  81  82
ENDBRANCH  49  74
BRANCH  61  86
ATOM     86  C   UNL     1       9.208  -0.431  17.097  1.00  0.00     0.058 A 
ATOM     87  C   UNL     1       9.045   0.843  17.661  1.00  0.00     0.135 A 
ATOM     88  C   UNL     1       9.812  -1.426  17.882  1.00  0.00     0.135 A 
ATOM     89  F   UNL     1       8.476   1.830  16.950  1.00  0.00    -0.206 F 
ATOM     90  C   UNL     1       9.492   1.129  18.947  1.00  0.00     0.059 A 
ATOM     91  C   UNL     1      10.243  -1.170  19.179  1.00  0.00     0.059 A 
ATOM     92  F   UNL     1       9.978  -2.666  17.392  1.00  0.00    -0.206 F 
ATOM     93  C   UNL     1      10.091   0.115  19.697  1.00  0.00     0.060 A 
BRANCH  93  94
ATOM     94  S   UNL     1      10.649   0.491  21.372  1.00  0.00     0.124 S 
ATOM     95  O   UNL     1      11.873   1.241  21.112  1.00  0.00    -0.237 OA
ATOM     96  O   UNL     1       9.533   1.264  21.909  1.00  0.00    -0.237 OA
ATOM     97  O   UNL     1      10.834  -0.827  21.971  1.00  0.00    -0.744 OA
ENDBRANCH  93  94
ENDBRANCH  61  86
ENDBRANCH  35  36
ENDBRANCH  27  30
ENDBRANCH   1  26
TORSDOF 15
