REMARK SMILES C[C@@H](C(=O)NCCCNC(=O)c1ccc(-c2c3nc(c(-c4c(F)cc(S(=O)(=O)[O-])cc4F)c4ccc([nH]4)c(-c4c(F)cc(S(=O)(=O)[O-])cc4F)c4nc(c(-c5c(F)cc(S(=O)(=O)[O-])cc5F)c5ccc2[nH]5)C=C4)C=C3)cc1)c1ccc(Cc2cccs2)cc1F
REMARK SMILES IDX 7 1 6 2 5 3 3 4 4 5 2 7 1 8 78 9 79 10 89 11 80 12 88 13
REMARK SMILES IDX 90 14 81 15 82 16 83 17 84 18 87 19 85 20 86 21 8 22 9 23
REMARK SMILES IDX 10 24 11 26 12 27 13 28 77 29 14 30 76 31 15 32 16 33 17 34
REMARK SMILES IDX 70 35 18 36 75 37 69 38 71 39 19 40 74 41 68 42 67 43 20 45
REMARK SMILES IDX 54 46 33 47 53 48 34 49 37 50 52 51 72 52 35 53 36 54 51 56
REMARK SMILES IDX 73 57 38 58 21 59 22 60 31 61 23 62 24 63 30 64 32 65 25 66
REMARK SMILES IDX 26 67 27 68 28 69 29 70 55 71 56 72 65 73 57 74 58 75 64 76
REMARK SMILES IDX 66 77 59 78 60 79 61 80 62 81 63 82 39 83 40 84 49 85 41 86
REMARK SMILES IDX 42 87 48 88 50 89 43 90 44 91 45 92 46 93 47 94
REMARK H PARENT 5 6 9 25 71 44 37 55
REMARK Flexibility Score: inf
ROOT
ATOM      1  C   UNL     1       4.380   1.096  -0.755  1.00  0.00     0.042 C 
ENDROOT
BRANCH   1   2
ATOM      2  C   UNL     1       3.459   2.039   0.022  1.00  0.00     0.117 C 
BRANCH   2   3
ATOM      3  N   UNL     1       2.349   2.493  -0.797  1.00  0.00    -0.356 N 
ATOM      4  C   UNL     1       1.046   2.084  -0.841  1.00  0.00     0.227 C 
ATOM      5  O   UNL     1       0.365   2.539  -1.763  1.00  0.00    -0.274 OA
ATOM      6  H   UNL     1       2.572   3.216  -1.426  1.00  0.00     0.163 HD
BRANCH   4   7
ATOM      7  C   UNL     1       0.476   1.152   0.252  1.00  0.00     0.108 C 
ATOM      8  C   UNL     1       1.029  -0.261   0.053  1.00  0.00     0.023 C 
BRANCH   7   9
ATOM      9  C   UNL     1      -1.055   1.229   0.347  1.00  0.00    -0.000 A 
ATOM     10  C   UNL     1      -1.680   2.488   0.395  1.00  0.00     0.008 A 
ATOM     11  C   UNL     1      -1.894   0.108   0.410  1.00  0.00     0.127 A 
ATOM     12  C   UNL     1      -3.075   2.611   0.431  1.00  0.00     0.004 A 
ATOM     13  C   UNL     1      -3.284   0.224   0.482  1.00  0.00     0.043 A 
ATOM     14  F   UNL     1      -1.399  -1.137   0.398  1.00  0.00    -0.207 F 
ATOM     15  C   UNL     1      -3.896   1.479   0.476  1.00  0.00    -0.040 A 
BRANCH  15  16
ATOM     16  C   UNL     1      -5.403   1.597   0.474  1.00  0.00     0.082 C 
BRANCH  16  17
ATOM     17  C   UNL     1      -5.982   2.130   1.756  1.00  0.00     0.009 A 
ATOM     18  C   UNL     1      -5.883   3.403   2.286  1.00  0.00     0.016 A 
ATOM     19  S   UNL     1      -6.958   1.123   2.746  1.00  0.00    -0.149 S 
ATOM     20  C   UNL     1      -6.602   3.547   3.506  1.00  0.00     0.012 A 
ATOM     21  C   UNL     1      -7.243   2.384   3.864  1.00  0.00     0.065 A 
ENDBRANCH  16  17
ENDBRANCH  15  16
ENDBRANCH   7   9
ENDBRANCH   4   7
ENDBRANCH   2   3
ENDBRANCH   1   2
BRANCH   1  22
ATOM     22  C   UNL     1       5.093   1.746  -1.938  1.00  0.00     0.118 C 
BRANCH  22  23
ATOM     23  N   UNL     1       6.057   2.755  -1.526  1.00  0.00    -0.352 N 
ATOM     24  C   UNL     1       7.423   2.780  -1.665  1.00  0.00     0.251 C 
ATOM     25  H   UNL     1       5.670   3.542  -1.077  1.00  0.00     0.163 HD
ATOM     26  O   UNL     1       8.073   3.637  -1.067  1.00  0.00    -0.269 OA
BRANCH  24  27
ATOM     27  C   UNL     1       8.118   1.775  -2.500  1.00  0.00     0.039 A 
ATOM     28  C   UNL     1       9.279   1.177  -2.004  1.00  0.00     0.014 A 
ATOM     29  C   UNL     1       7.640   1.425  -3.766  1.00  0.00     0.014 A 
ATOM     30  C   UNL     1       9.906   0.164  -2.735  1.00  0.00     0.010 A 
ATOM     31  C   UNL     1       8.226   0.368  -4.463  1.00  0.00     0.010 A 
ATOM     32  C   UNL     1       9.353  -0.288  -3.945  1.00  0.00    -0.014 A 
BRANCH  32  33
ATOM     33  C   UNL     1       9.891  -1.491  -4.635  1.00  0.00     0.031 A 
ATOM     34  C   UNL     1      10.485  -1.389  -6.013  1.00  0.00     0.074 A 
ATOM     35  C   UNL     1       9.761  -2.696  -4.041  1.00  0.00     0.049 A 
ATOM     36  N   UNL     1      10.916  -2.345  -6.795  1.00  0.00    -0.248 NA
ATOM     37  C   UNL     1      10.595  -0.043  -6.598  1.00  0.00     0.031 C 
ATOM     38  C   UNL     1       9.159  -2.929  -2.725  1.00  0.00     0.029 A 
ATOM     39  N   UNL     1      10.106  -3.955  -4.469  1.00  0.00    -0.354 N 
ATOM     40  C   UNL     1      11.331  -1.724  -7.967  1.00  0.00     0.074 A 
ATOM     41  C   UNL     1      11.076  -0.309  -7.806  1.00  0.00     0.031 C 
ATOM     42  C   UNL     1       9.181  -4.243  -2.453  1.00  0.00     0.029 A 
ATOM     43  C   UNL     1       9.752  -4.955  -3.591  1.00  0.00     0.049 A 
ATOM     44  H   UNL     1      10.563  -4.126  -5.324  1.00  0.00     0.167 HD
ATOM     45  C   UNL     1      11.884  -2.285  -9.068  1.00  0.00     0.037 A 
ATOM     46  C   UNL     1       9.847  -6.295  -3.699  1.00  0.00     0.037 A 
ATOM     47  C   UNL     1      12.162  -3.693  -9.206  1.00  0.00     0.049 A 
ATOM     48  C   UNL     1      10.445  -6.887  -4.947  1.00  0.00     0.074 A 
ATOM     49  C   UNL     1      12.808  -4.339 -10.246  1.00  0.00     0.029 A 
ATOM     50  N   UNL     1      11.800  -4.670  -8.293  1.00  0.00    -0.354 N 
ATOM     51  N   UNL     1      10.929  -6.273  -6.000  1.00  0.00    -0.248 NA
ATOM     52  C   UNL     1      10.506  -8.354  -5.027  1.00  0.00     0.031 C 
ATOM     53  C   UNL     1      12.777  -5.713  -9.994  1.00  0.00     0.029 A 
ATOM     54  C   UNL     1      12.165  -5.919  -8.768  1.00  0.00     0.049 A 
ATOM     55  H   UNL     1      11.349  -4.502  -7.434  1.00  0.00     0.167 HD
ATOM     56  C   UNL     1      11.366  -7.277  -6.857  1.00  0.00     0.074 A 
ATOM     57  C   UNL     1      11.117  -8.537  -6.189  1.00  0.00     0.031 C 
ATOM     58  C   UNL     1      11.916  -7.167  -8.091  1.00  0.00     0.037 A 
BRANCH  45  59
ATOM     59  C   UNL     1      12.239  -1.395 -10.228  1.00  0.00     0.058 A 
ATOM     60  C   UNL     1      13.344  -0.532 -10.185  1.00  0.00     0.135 A 
ATOM     61  C   UNL     1      11.536  -1.501 -11.440  1.00  0.00     0.135 A 
ATOM     62  F   UNL     1      14.042  -0.382  -9.048  1.00  0.00    -0.206 F 
ATOM     63  C   UNL     1      13.742   0.193 -11.303  1.00  0.00     0.059 A 
ATOM     64  C   UNL     1      11.932  -0.804 -12.578  1.00  0.00     0.059 A 
ATOM     65  F   UNL     1      10.470  -2.311 -11.534  1.00  0.00    -0.206 F 
ATOM     66  C   UNL     1      13.037   0.041 -12.499  1.00  0.00     0.060 A 
BRANCH  66  67
ATOM     67  S   UNL     1      13.612   0.938 -13.957  1.00  0.00     0.124 S 
ATOM     68  O   UNL     1      13.276   2.314 -13.604  1.00  0.00    -0.237 OA
ATOM     69  O   UNL     1      15.036   0.619 -13.976  1.00  0.00    -0.237 OA
ATOM     70  O   UNL     1      12.828   0.361 -15.045  1.00  0.00    -0.744 OA
ENDBRANCH  66  67
ENDBRANCH  45  59
BRANCH  46  71
ATOM     71  C   UNL     1       9.335  -7.179  -2.615  1.00  0.00     0.058 A 
ATOM     72  C   UNL     1      10.204  -7.986  -1.865  1.00  0.00     0.135 A 
ATOM     73  C   UNL     1       7.962  -7.264  -2.334  1.00  0.00     0.135 A 
ATOM     74  F   UNL     1      11.525  -7.946  -2.098  1.00  0.00    -0.206 F 
ATOM     75  C   UNL     1       9.729  -8.875  -0.906  1.00  0.00     0.059 A 
ATOM     76  C   UNL     1       7.466  -8.121  -1.357  1.00  0.00     0.059 A 
ATOM     77  F   UNL     1       7.088  -6.500  -3.007  1.00  0.00    -0.206 F 
ATOM     78  C   UNL     1       8.356  -8.939  -0.663  1.00  0.00     0.060 A 
BRANCH  78  79
ATOM     79  S   UNL     1       7.748 -10.097   0.581  1.00  0.00     0.124 S 
ATOM     80  O   UNL     1       7.910 -11.374  -0.104  1.00  0.00    -0.237 OA
ATOM     81  O   UNL     1       8.654  -9.850   1.699  1.00  0.00    -0.237 OA
ATOM     82  O   UNL     1       6.370  -9.665   0.795  1.00  0.00    -0.744 OA
ENDBRANCH  78  79
ENDBRANCH  46  71
BRANCH  58  83
ATOM     83  C   UNL     1      12.298  -8.437  -8.799  1.00  0.00     0.058 A 
ATOM     84  C   UNL     1      11.326  -9.303  -9.325  1.00  0.00     0.135 A 
ATOM     85  C   UNL     1      13.648  -8.761  -9.010  1.00  0.00     0.135 A 
ATOM     86  F   UNL     1      10.022  -9.046  -9.142  1.00  0.00    -0.206 F 
ATOM     87  C   UNL     1      11.680 -10.453 -10.023  1.00  0.00     0.059 A 
ATOM     88  C   UNL     1      14.024  -9.889  -9.732  1.00  0.00     0.059 A 
ATOM     89  F   UNL     1      14.617  -7.963  -8.534  1.00  0.00    -0.206 F 
ATOM     90  C   UNL     1      13.032 -10.734 -10.227  1.00  0.00     0.060 A 
BRANCH  90  91
ATOM     91  S   UNL     1      13.473 -12.202 -11.180  1.00  0.00     0.124 S 
ATOM     92  O   UNL     1      13.131 -13.272 -10.249  1.00  0.00    -0.237 OA
ATOM     93  O   UNL     1      12.611 -12.082 -12.352  1.00  0.00    -0.237 OA
ATOM     94  O   UNL     1      14.899 -12.027 -11.437  1.00  0.00    -0.744 OA
ENDBRANCH  90  91
ENDBRANCH  58  83
ENDBRANCH  32  33
ENDBRANCH  24  27
ENDBRANCH  22  23
ENDBRANCH   1  22
TORSDOF 16
