REMARK SMILES O=C(/C=C/C(=O)NNC(=O)CSc1ccc2ccccc2n1)NCCCNC(=O)c1ccc(-c2c3nc(c(-c4c(F)cc(S(=O)(=O)[O-])cc4F)c4ccc([nH]4)c(-c4c(F)cc(S(=O)(=O)[O-])cc4F)c4nc(c(-c5c(F)cc(S(=O)(=O)[O-])cc5F)c5ccc2[nH]5)C=C4)C=C3)cc1
REMARK SMILES IDX 24 1 23 2 1 3 2 4 3 6 4 7 5 8 6 9 7 10 8 12 9 13 10 15 11 16
REMARK SMILES IDX 12 17 13 18 14 19 22 20 15 21 21 22 16 23 20 24 17 25 19 26
REMARK SMILES IDX 18 27 25 28 26 29 27 30 28 31 29 33 30 34 31 35 95 36 32 37
REMARK SMILES IDX 94 38 33 39 34 40 35 41 88 42 36 43 93 44 87 45 89 46 37 47
REMARK SMILES IDX 92 48 86 49 85 50 38 52 72 53 51 54 71 55 52 56 55 57 70 58
REMARK SMILES IDX 90 59 53 60 54 61 69 63 91 64 56 65 39 66 40 67 49 68 41 69
REMARK SMILES IDX 42 70 48 71 50 72 43 73 44 74 45 75 46 76 47 77 73 78 74 79
REMARK SMILES IDX 83 80 75 81 76 82 82 83 84 84 77 85 78 86 79 87 80 88 81 89
REMARK SMILES IDX 57 90 58 91 67 92 59 93 60 94 66 95 68 96 61 97 62 98 63 99
REMARK SMILES IDX 64 100 65 101
REMARK H PARENT 23 5 7 11 8 14 27 32 89 51 55 62
REMARK Flexibility Score: inf
ROOT
ATOM      1  C   UNL     1       2.160  -1.700  -1.823  1.00  0.00     0.118 C 
ENDROOT
BRANCH   1   2
ATOM      2  N   UNL     1       2.789  -0.919  -0.774  1.00  0.00    -0.352 N 
ATOM      3  O   UNL     1       0.868   0.130  -0.051  1.00  0.00    -0.270 OA
ATOM      4  C   UNL     1       2.067  -0.086   0.040  1.00  0.00     0.244 C 
ATOM      5  H   UNL     1       3.763  -0.991  -0.643  1.00  0.00     0.163 HD
BRANCH   4   6
ATOM      6  C   UNL     1       2.829   0.499   1.165  1.00  0.00     0.077 C 
ATOM      7  C   UNL     1       3.990   1.137   0.976  1.00  0.00     0.078 C 
BRANCH   7   8
ATOM      8  C   UNL     1       4.795   1.732   2.066  1.00  0.00     0.262 C 
ATOM      9  O   UNL     1       6.008   1.531   2.072  1.00  0.00    -0.268 OA
ATOM     10  N   UNL     1       4.225   2.547   3.008  1.00  0.00    -0.264 N 
ATOM     11  H   UNL     1       4.830   2.938   3.679  1.00  0.00     0.191 HD
BRANCH  10  12
ATOM     12  N   UNL     1       2.876   2.877   3.111  1.00  0.00    -0.267 N 
ATOM     13  C   UNL     1       2.303   3.435   4.229  1.00  0.00     0.248 C 
ATOM     14  H   UNL     1       2.297   2.700   2.335  1.00  0.00     0.191 HD
ATOM     15  O   UNL     1       1.073   3.476   4.322  1.00  0.00    -0.272 OA
BRANCH  13  16
ATOM     16  C   UNL     1       3.175   4.108   5.270  1.00  0.00     0.178 C 
BRANCH  16  17
ATOM     17  S   UNL     1       4.276   2.988   6.171  1.00  0.00    -0.096 SA
BRANCH  17  18
ATOM     18  C   UNL     1       3.130   1.847   6.907  1.00  0.00     0.097 A 
ATOM     19  C   UNL     1       2.052   2.257   7.676  1.00  0.00     0.036 A 
ATOM     20  N   UNL     1       3.455   0.546   6.740  1.00  0.00    -0.241 NA
ATOM     21  C   UNL     1       1.278   1.286   8.307  1.00  0.00     0.013 A 
ATOM     22  C   UNL     1       2.717  -0.390   7.359  1.00  0.00     0.072 A 
ATOM     23  C   UNL     1       1.608  -0.067   8.167  1.00  0.00     0.000 A 
ATOM     24  C   UNL     1       3.060  -1.728   7.219  1.00  0.00     0.029 A 
ATOM     25  C   UNL     1       0.881  -1.085   8.811  1.00  0.00     0.010 A 
ATOM     26  C   UNL     1       2.342  -2.743   7.860  1.00  0.00     0.002 A 
ATOM     27  C   UNL     1       1.251  -2.420   8.659  1.00  0.00     0.001 A 
ENDBRANCH  17  18
ENDBRANCH  16  17
ENDBRANCH  13  16
ENDBRANCH  10  12
ENDBRANCH   7   8
ENDBRANCH   4   6
ENDBRANCH   1   2
BRANCH   1  28
ATOM     28  C   UNL     1       2.459  -1.180  -3.224  1.00  0.00     0.042 C 
BRANCH  28  29
ATOM     29  C   UNL     1       3.933  -1.223  -3.617  1.00  0.00     0.118 C 
BRANCH  29  30
ATOM     30  N   UNL     1       4.486  -2.572  -3.643  1.00  0.00    -0.352 N 
ATOM     31  C   UNL     1       5.139  -3.241  -4.653  1.00  0.00     0.251 C 
ATOM     32  H   UNL     1       4.375  -3.083  -2.809  1.00  0.00     0.163 HD
ATOM     33  O   UNL     1       5.412  -4.427  -4.518  1.00  0.00    -0.269 OA
BRANCH  31  34
ATOM     34  C   UNL     1       5.481  -2.539  -5.910  1.00  0.00     0.039 A 
ATOM     35  C   UNL     1       5.199  -3.159  -7.131  1.00  0.00     0.014 A 
ATOM     36  C   UNL     1       6.070  -1.273  -5.887  1.00  0.00     0.014 A 
ATOM     37  C   UNL     1       5.422  -2.471  -8.327  1.00  0.00     0.010 A 
ATOM     38  C   UNL     1       6.229  -0.564  -7.074  1.00  0.00     0.010 A 
ATOM     39  C   UNL     1       5.894  -1.149  -8.306  1.00  0.00    -0.014 A 
BRANCH  39  40
ATOM     40  C   UNL     1       6.026  -0.342  -9.547  1.00  0.00     0.031 A 
ATOM     41  C   UNL     1       7.376   0.161  -9.976  1.00  0.00     0.074 A 
ATOM     42  C   UNL     1       4.919   0.025 -10.225  1.00  0.00     0.049 A 
ATOM     43  N   UNL     1       7.678   1.008 -10.926  1.00  0.00    -0.248 NA
ATOM     44  C   UNL     1       8.536  -0.330  -9.217  1.00  0.00     0.031 C 
ATOM     45  C   UNL     1       3.549  -0.369  -9.888  1.00  0.00     0.029 A 
ATOM     46  N   UNL     1       4.769   0.834 -11.324  1.00  0.00    -0.354 N 
ATOM     47  C   UNL     1       9.057   1.170 -10.864  1.00  0.00     0.074 A 
ATOM     48  C   UNL     1       9.527   0.364  -9.757  1.00  0.00     0.031 C 
ATOM     49  C   UNL     1       2.701   0.192 -10.764  1.00  0.00     0.029 A 
ATOM     50  C   UNL     1       3.458   1.022 -11.696  1.00  0.00     0.049 A 
ATOM     51  H   UNL     1       5.528   1.241 -11.801  1.00  0.00     0.167 HD
ATOM     52  C   UNL     1       9.858   1.911 -11.665  1.00  0.00     0.037 A 
ATOM     53  C   UNL     1       2.922   1.793 -12.664  1.00  0.00     0.037 A 
ATOM     54  C   UNL     1       9.386   2.687 -12.783  1.00  0.00     0.049 A 
ATOM     55  C   UNL     1       3.832   2.610 -13.540  1.00  0.00     0.074 A 
ATOM     56  C   UNL     1      10.125   3.430 -13.687  1.00  0.00     0.029 A 
ATOM     57  N   UNL     1       8.055   2.818 -13.151  1.00  0.00    -0.354 N 
ATOM     58  N   UNL     1       5.139   2.717 -13.495  1.00  0.00    -0.248 NA
ATOM     59  C   UNL     1       3.200   3.408 -14.600  1.00  0.00     0.031 C 
ATOM     60  C   UNL     1       9.238   4.040 -14.579  1.00  0.00     0.029 A 
ATOM     61  C   UNL     1       7.950   3.640 -14.260  1.00  0.00     0.049 A 
ATOM     62  H   UNL     1       7.297   2.390 -12.691  1.00  0.00     0.167 HD
ATOM     63  C   UNL     1       5.487   3.566 -14.540  1.00  0.00     0.074 A 
ATOM     64  C   UNL     1       4.254   3.945 -15.200  1.00  0.00     0.031 C 
ATOM     65  C   UNL     1       6.717   3.988 -14.921  1.00  0.00     0.037 A 
BRANCH  52  66
ATOM     66  C   UNL     1      11.332   1.919 -11.364  1.00  0.00     0.058 A 
ATOM     67  C   UNL     1      12.137   0.792 -11.595  1.00  0.00     0.135 A 
ATOM     68  C   UNL     1      11.954   3.078 -10.872  1.00  0.00     0.135 A 
ATOM     69  F   UNL     1      11.591  -0.346 -12.051  1.00  0.00    -0.206 F 
ATOM     70  C   UNL     1      13.500   0.803 -11.319  1.00  0.00     0.059 A 
ATOM     71  C   UNL     1      13.321   3.121 -10.615  1.00  0.00     0.059 A 
ATOM     72  F   UNL     1      11.232   4.185 -10.634  1.00  0.00    -0.206 F 
ATOM     73  C   UNL     1      14.083   1.972 -10.827  1.00  0.00     0.060 A 
BRANCH  73  74
ATOM     74  S   UNL     1      15.853   1.971 -10.475  1.00  0.00     0.124 S 
ATOM     75  O   UNL     1      15.903   1.183  -9.247  1.00  0.00    -0.237 OA
ATOM     76  O   UNL     1      16.409   1.329 -11.662  1.00  0.00    -0.237 OA
ATOM     77  O   UNL     1      16.172   3.387 -10.325  1.00  0.00    -0.744 OA
ENDBRANCH  73  74
ENDBRANCH  52  66
BRANCH  53  78
ATOM     78  C   UNL     1       1.449   1.817 -12.863  1.00  0.00     0.058 A 
ATOM     79  C   UNL     1       0.866   1.209 -13.985  1.00  0.00     0.135 A 
ATOM     80  C   UNL     1       0.594   2.428 -11.933  1.00  0.00     0.135 A 
ATOM     81  F   UNL     1       1.642   0.617 -14.905  1.00  0.00    -0.206 F 
ATOM     82  C   UNL     1      -0.510   1.218 -14.187  1.00  0.00     0.059 A 
ATOM     83  C   UNL     1      -0.788   2.430 -12.100  1.00  0.00     0.059 A 
ATOM     84  F   UNL     1       1.101   3.009 -10.834  1.00  0.00    -0.206 F 
ATOM     85  C   UNL     1      -1.330   1.830 -13.236  1.00  0.00     0.060 A 
BRANCH  85  86
ATOM     86  S   UNL     1      -3.119   1.794 -13.484  1.00  0.00     0.124 S 
ATOM     87  O   UNL     1      -3.287   2.774 -14.551  1.00  0.00    -0.237 OA
ATOM     88  O   UNL     1      -3.350   0.401 -13.853  1.00  0.00    -0.237 OA
ATOM     89  O   UNL     1      -3.644   2.184 -12.179  1.00  0.00    -0.744 OA
ENDBRANCH  85  86
ENDBRANCH  53  78
BRANCH  65  90
ATOM     90  C   UNL     1       6.811   4.866 -16.137  1.00  0.00     0.058 A 
ATOM     91  C   UNL     1       6.454   6.221 -16.100  1.00  0.00     0.135 A 
ATOM     92  C   UNL     1       7.352   4.359 -17.331  1.00  0.00     0.135 A 
ATOM     93  F   UNL     1       5.925   6.751 -14.986  1.00  0.00    -0.206 F 
ATOM     94  C   UNL     1       6.626   7.046 -17.208  1.00  0.00     0.059 A 
ATOM     95  C   UNL     1       7.555   5.171 -18.442  1.00  0.00     0.059 A 
ATOM     96  F   UNL     1       7.716   3.070 -17.414  1.00  0.00    -0.206 F 
ATOM     97  C   UNL     1       7.185   6.513 -18.372  1.00  0.00     0.060 A 
BRANCH  97  98
ATOM     98  S   UNL     1       7.469   7.610 -19.778  1.00  0.00     0.124 S 
ATOM     99  O   UNL     1       6.114   7.793 -20.287  1.00  0.00    -0.237 OA
ATOM    100  O   UNL     1       8.071   8.780 -19.145  1.00  0.00    -0.237 OA
ATOM    101  O   UNL     1       8.363   6.839 -20.636  1.00  0.00    -0.744 OA
ENDBRANCH  97  98
ENDBRANCH  65  90
ENDBRANCH  39  40
ENDBRANCH  31  34
ENDBRANCH  29  30
ENDBRANCH  28  29
ENDBRANCH   1  28
TORSDOF 18
