REMARK SMILES Cc1n[nH]c(SCC[C@@H]2CCC[C@]2([NH2+]C(C)C)C(=O)NCCCNC(=O)c2ccc(-c3c4nc(c(-c5c(F)cc(S(=O)(=O)[O-])cc5F)c5ccc([nH]5)c(-c5c(F)cc(S(=O)(=O)[O-])cc5F)c5nc(c(-c6c(F)cc(S(=O)(=O)[O-])cc6F)c6ccc3[nH]6)C=C5)C=C4)cc2)n1
REMARK SMILES IDX 21 1 20 2 18 3 19 4 13 6 9 7 10 8 11 9 12 10 8 11 7 12 6 13
REMARK SMILES IDX 5 14 1 15 2 16 3 17 93 18 4 19 14 21 15 24 16 25 17 26 22 27
REMARK SMILES IDX 23 28 24 29 25 30 26 32 27 33 28 34 92 35 29 36 91 37 30 38
REMARK SMILES IDX 31 39 32 40 85 41 33 42 90 43 84 44 86 45 34 46 89 47 83 48
REMARK SMILES IDX 82 49 35 51 69 52 48 53 68 54 49 55 52 56 67 57 87 58 50 59
REMARK SMILES IDX 51 60 66 62 88 63 53 64 36 65 37 66 46 67 38 68 39 69 45 70
REMARK SMILES IDX 47 71 40 72 41 73 42 74 43 75 44 76 70 77 71 78 80 79 72 80
REMARK SMILES IDX 73 81 79 82 81 83 74 84 75 85 76 86 77 87 78 88 54 89 55 90
REMARK SMILES IDX 64 91 56 92 57 93 63 94 65 95 58 96 59 97 60 98 61 99 62 100
REMARK H PARENT 20 5 4 20 14 22 14 23 24 31 86 50 52 61
REMARK Flexibility Score: inf
ROOT
ATOM      1  C   UNL     1      -2.301  -2.038   7.847  1.00  0.00     0.118 C 
ENDROOT
BRANCH   1   2
ATOM      2  N   UNL     1      -3.435  -2.436   7.017  1.00  0.00    -0.351 N 
ATOM      3  C   UNL     1      -3.535  -2.845   5.713  1.00  0.00     0.281 C 
ATOM      4  O   UNL     1      -4.643  -3.270   5.369  1.00  0.00    -0.268 OA
ATOM      5  H   UNL     1      -4.299  -2.406   7.488  1.00  0.00     0.163 HD
BRANCH   3   6
ATOM      6  C   UNL     1      -2.342  -2.772   4.692  1.00  0.00     0.178 C 
ATOM      7  C   UNL     1      -2.164  -1.319   4.115  1.00  0.00     0.061 C 
ATOM      8  C   UNL     1      -3.265  -1.230   3.048  1.00  0.00     0.011 C 
ATOM      9  C   UNL     1      -3.178  -2.550   2.329  1.00  0.00     0.008 C 
ATOM     10  C   UNL     1      -2.677  -3.545   3.370  1.00  0.00     0.079 C 
BRANCH   7  11
ATOM     11  C   UNL     1      -2.268  -0.056   4.983  1.00  0.00     0.022 C 
BRANCH  11  12
ATOM     12  C   UNL     1      -0.954   0.442   5.591  1.00  0.00     0.079 C 
BRANCH  12  13
ATOM     13  S   UNL     1      -0.077   1.682   4.587  1.00  0.00    -0.087 SA
BRANCH  13  14
ATOM     14  C   UNL     1       0.415   0.804   3.202  1.00  0.00     0.183 A 
ATOM     15  C   UNL     1       0.941   0.097  -0.198  1.00  0.00     0.092 C 
ATOM     16  C   UNL     1       0.845   0.115   1.274  1.00  0.00     0.148 A 
ATOM     17  N   UNL     1       1.342  -0.862   2.047  1.00  0.00    -0.158 NA
ATOM     18  N   UNL     1       0.268   1.157   1.952  1.00  0.00    -0.206 NA
ATOM     19  N   UNL     1       1.082  -0.377   3.275  1.00  0.00    -0.254 N 
ATOM     20  H   UNL     1       1.340  -0.820   4.115  1.00  0.00     0.192 HD
ENDBRANCH  13  14
ENDBRANCH  12  13
ENDBRANCH  11  12
ENDBRANCH   7  11
BRANCH   6  21
ATOM     21  N   UNL     1      -1.102  -3.367   5.293  1.00  0.00    -0.331 N 
ATOM     22  H   UNL     1      -0.813  -2.774   6.071  1.00  0.00     0.347 HD
ATOM     23  H   UNL     1      -0.416  -3.413   4.540  1.00  0.00     0.347 HD
BRANCH  21  24
ATOM     24  C   UNL     1      -1.250  -4.760   5.805  1.00  0.00     0.176 C 
ATOM     25  C   UNL     1      -1.158  -5.862   4.738  1.00  0.00     0.075 C 
ATOM     26  C   UNL     1      -0.132  -5.013   6.824  1.00  0.00     0.075 C 
ENDBRANCH  21  24
ENDBRANCH   6  21
ENDBRANCH   3   6
ENDBRANCH   1   2
BRANCH   1  27
ATOM     27  C   UNL     1      -2.425  -0.643   8.474  1.00  0.00     0.042 C 
BRANCH  27  28
ATOM     28  C   UNL     1      -3.621  -0.445   9.375  1.00  0.00     0.118 C 
BRANCH  28  29
ATOM     29  N   UNL     1      -3.380  -0.841  10.752  1.00  0.00    -0.352 N 
ATOM     30  C   UNL     1      -4.187  -0.547  11.840  1.00  0.00     0.251 C 
ATOM     31  H   UNL     1      -2.567  -1.367  10.929  1.00  0.00     0.163 HD
ATOM     32  O   UNL     1      -3.727  -0.545  12.968  1.00  0.00    -0.269 OA
BRANCH  30  33
ATOM     33  C   UNL     1      -5.611  -0.230  11.593  1.00  0.00     0.039 A 
ATOM     34  C   UNL     1      -6.282   0.731  12.354  1.00  0.00     0.014 A 
ATOM     35  C   UNL     1      -6.274  -0.908  10.571  1.00  0.00     0.014 A 
ATOM     36  C   UNL     1      -7.604   1.038  12.036  1.00  0.00     0.010 A 
ATOM     37  C   UNL     1      -7.511  -0.493  10.155  1.00  0.00     0.010 A 
ATOM     38  C   UNL     1      -8.207   0.428  10.924  1.00  0.00    -0.014 A 
BRANCH  38  39
ATOM     39  C   UNL     1      -9.540   0.814  10.480  1.00  0.00     0.031 A 
ATOM     40  C   UNL     1      -9.682   2.260  10.168  1.00  0.00     0.074 A 
ATOM     41  C   UNL     1     -10.495  -0.091  10.168  1.00  0.00     0.049 A 
ATOM     42  N   UNL     1     -10.346   3.138  10.839  1.00  0.00    -0.248 NA
ATOM     43  C   UNL     1      -8.856   2.839   9.095  1.00  0.00     0.031 C 
ATOM     44  C   UNL     1     -10.384  -1.554  10.138  1.00  0.00     0.029 A 
ATOM     45  N   UNL     1     -11.752   0.113   9.693  1.00  0.00    -0.354 N 
ATOM     46  C   UNL     1     -10.228   4.332  10.134  1.00  0.00     0.074 A 
ATOM     47  C   UNL     1      -9.139   4.139   9.214  1.00  0.00     0.031 C 
ATOM     48  C   UNL     1     -11.421  -2.074   9.447  1.00  0.00     0.029 A 
ATOM     49  C   UNL     1     -12.350  -1.008   9.120  1.00  0.00     0.049 A 
ATOM     50  H   UNL     1     -12.205   0.986   9.749  1.00  0.00     0.167 HD
ATOM     51  C   UNL     1     -11.200   5.285  10.203  1.00  0.00     0.037 A 
ATOM     52  C   UNL     1     -13.504  -1.040   8.402  1.00  0.00     0.037 A 
ATOM     53  C   UNL     1     -12.120   4.995  11.278  1.00  0.00     0.049 A 
ATOM     54  C   UNL     1     -14.251   0.203   8.740  1.00  0.00     0.074 A 
ATOM     55  C   UNL     1     -11.987   4.821  12.643  1.00  0.00     0.029 A 
ATOM     56  N   UNL     1     -13.330   4.434  10.940  1.00  0.00    -0.354 N 
ATOM     57  N   UNL     1     -14.776   0.431   9.913  1.00  0.00    -0.248 NA
ATOM     58  C   UNL     1     -13.994   1.390   7.936  1.00  0.00     0.031 C 
ATOM     59  C   UNL     1     -12.868   3.748  12.962  1.00  0.00     0.029 A 
ATOM     60  C   UNL     1     -13.558   3.393  11.802  1.00  0.00     0.049 A 
ATOM     61  H   UNL     1     -13.924   4.728  10.211  1.00  0.00     0.167 HD
ATOM     62  C   UNL     1     -14.492   1.764  10.174  1.00  0.00     0.074 A 
ATOM     63  C   UNL     1     -14.093   2.327   8.885  1.00  0.00     0.031 C 
ATOM     64  C   UNL     1     -14.313   2.210  11.453  1.00  0.00     0.037 A 
BRANCH  51  65
ATOM     65  C   UNL     1     -11.556   6.263   9.106  1.00  0.00     0.058 A 
ATOM     66  C   UNL     1     -12.504   7.274   9.377  1.00  0.00     0.135 A 
ATOM     67  C   UNL     1     -11.229   6.088   7.745  1.00  0.00     0.135 A 
ATOM     68  F   UNL     1     -12.889   7.534  10.636  1.00  0.00    -0.206 F 
ATOM     69  C   UNL     1     -13.142   7.993   8.367  1.00  0.00     0.059 A 
ATOM     70  C   UNL     1     -11.813   6.833   6.725  1.00  0.00     0.059 A 
ATOM     71  F   UNL     1     -10.402   5.125   7.322  1.00  0.00    -0.206 F 
ATOM     72  C   UNL     1     -12.799   7.753   7.041  1.00  0.00     0.060 A 
BRANCH  72  73
ATOM     73  S   UNL     1     -13.684   8.615   5.732  1.00  0.00     0.124 S 
ATOM     74  O   UNL     1     -15.006   8.008   5.827  1.00  0.00    -0.237 OA
ATOM     75  O   UNL     1     -13.583  10.005   6.165  1.00  0.00    -0.237 OA
ATOM     76  O   UNL     1     -12.919   8.280   4.534  1.00  0.00    -0.744 OA
ENDBRANCH  72  73
ENDBRANCH  51  65
BRANCH  52  77
ATOM     77  C   UNL     1     -13.882  -1.915   7.255  1.00  0.00     0.058 A 
ATOM     78  C   UNL     1     -15.192  -1.908   6.738  1.00  0.00     0.135 A 
ATOM     79  C   UNL     1     -12.914  -2.560   6.459  1.00  0.00     0.135 A 
ATOM     80  F   UNL     1     -16.185  -1.315   7.420  1.00  0.00    -0.206 F 
ATOM     81  C   UNL     1     -15.507  -2.435   5.479  1.00  0.00     0.059 A 
ATOM     82  C   UNL     1     -13.205  -3.104   5.207  1.00  0.00     0.059 A 
ATOM     83  F   UNL     1     -11.625  -2.597   6.827  1.00  0.00    -0.206 F 
ATOM     84  C   UNL     1     -14.497  -3.006   4.706  1.00  0.00     0.060 A 
BRANCH  84  85
ATOM     85  S   UNL     1     -14.844  -3.482   2.995  1.00  0.00     0.124 S 
ATOM     86  O   UNL     1     -15.688  -4.659   3.171  1.00  0.00    -0.237 OA
ATOM     87  O   UNL     1     -15.509  -2.292   2.473  1.00  0.00    -0.237 OA
ATOM     88  O   UNL     1     -13.518  -3.742   2.440  1.00  0.00    -0.744 OA
ENDBRANCH  84  85
ENDBRANCH  52  77
BRANCH  64  89
ATOM     89  C   UNL     1     -14.734   1.322  12.597  1.00  0.00     0.058 A 
ATOM     90  C   UNL     1     -14.211   0.043  12.862  1.00  0.00     0.135 A 
ATOM     91  C   UNL     1     -15.603   1.867  13.556  1.00  0.00     0.135 A 
ATOM     92  F   UNL     1     -13.288  -0.508  12.063  1.00  0.00    -0.206 F 
ATOM     93  C   UNL     1     -14.579  -0.679  14.000  1.00  0.00     0.059 A 
ATOM     94  C   UNL     1     -15.951   1.182  14.714  1.00  0.00     0.059 A 
ATOM     95  F   UNL     1     -16.087   3.110  13.396  1.00  0.00    -0.206 F 
ATOM     96  C   UNL     1     -15.452  -0.101  14.920  1.00  0.00     0.060 A 
BRANCH  96  97
ATOM     97  S   UNL     1     -15.890  -1.012  16.415  1.00  0.00     0.124 S 
ATOM     98  O   UNL     1     -16.763  -2.057  15.891  1.00  0.00    -0.237 OA
ATOM     99  O   UNL     1     -14.591  -1.459  16.910  1.00  0.00    -0.237 OA
ATOM    100  O   UNL     1     -16.550  -0.007  17.246  1.00  0.00    -0.744 OA
ENDBRANCH  96  97
ENDBRANCH  64  89
ENDBRANCH  38  39
ENDBRANCH  30  33
ENDBRANCH  28  29
ENDBRANCH  27  28
ENDBRANCH   1  27
TORSDOF 19
