REMARK SMILES CC(C)[C@H](NC(=O)N1c2ccccc2[NH+]=C(NCCCNC(=O)c2ccc(-c3c4nc(c(-c5c(F)cc(S(=O)(=O)[O-])cc5F)c5ccc([nH]5)c(-c5c(F)cc(S(=O)(=O)[O-])cc5F)c5nc(c(-c6c(F)cc(S(=O)(=O)[O-])cc6F)c6ccc3[nH]6)C=C5)C=C4)cc2)[C@@H]1C(C)C)C(=O)N1CCC(C(=O)[O-])CC1
REMARK SMILES IDX 19 1 18 2 17 3 8 4 9 5 90 6 10 7 14 8 16 9 11 10 13 11 15 12
REMARK SMILES IDX 12 13 6 16 5 17 7 19 4 20 2 21 1 22 3 23 94 24 95 25 96 26
REMARK SMILES IDX 97 27 104 28 98 29 103 30 99 31 100 32 101 33 102 34 91 35
REMARK SMILES IDX 92 36 93 37 20 38 21 39 22 40 23 42 24 43 25 44 89 45 26 46
REMARK SMILES IDX 88 47 27 48 28 49 29 50 82 51 30 52 87 53 81 54 83 55 31 56
REMARK SMILES IDX 86 57 80 58 79 59 32 61 66 62 45 63 65 64 46 65 49 66 64 67
REMARK SMILES IDX 84 68 47 69 48 70 63 72 85 73 50 74 33 75 34 76 43 77 35 78
REMARK SMILES IDX 36 79 42 80 44 81 37 82 38 83 39 84 40 85 41 86 67 87 68 88
REMARK SMILES IDX 77 89 69 90 70 91 76 92 78 93 71 94 72 95 73 96 74 97 75 98
REMARK SMILES IDX 51 99 52 100 61 101 53 102 54 103 60 104 62 105 55 106
REMARK SMILES IDX 56 107 57 108 58 109 59 110
REMARK H PARENT 15 14 17 15 5 18 21 41 83 60 49 71
REMARK Flexibility Score: inf
ROOT
ATOM      1  C   UNL     1       0.483   4.679   6.208  1.00  0.00     0.067 C 
ENDROOT
BRANCH   1   2
ATOM      2  C   UNL     1       0.942   3.386   6.850  1.00  0.00     0.235 C 
BRANCH   2   3
ATOM      3  N   UNL     1      -0.069   2.379   6.714  1.00  0.00    -0.276 N 
ATOM      4  N   UNL     1       0.480  -0.458   4.242  1.00  0.00    -0.275 N 
ATOM      5  C   UNL     1      -0.653  -1.392   4.707  1.00  0.00     0.093 A 
ATOM      6  C   UNL     1       0.954   0.327   5.427  1.00  0.00     0.208 C 
ATOM      7  C   UNL     1      -1.123  -3.277   4.457  1.00  0.00     0.031 A 
ATOM      8  C   UNL     1      -1.834  -0.371   5.505  1.00  0.00     0.148 A 
ATOM      9  C   UNL     1      -0.212   1.239   5.978  1.00  0.00     0.271 C 
ATOM     10  C   UNL     1      -2.685  -3.898   5.013  1.00  0.00     0.002 A 
ATOM     11  C   UNL     1      -3.355  -1.083   6.003  1.00  0.00     0.054 A 
ATOM     12  N   UNL     1      -1.486   0.897   5.954  1.00  0.00    -0.241 N 
ATOM     13  C   UNL     1      -3.766  -2.758   5.753  1.00  0.00     0.005 A 
ATOM     14  H   UNL     1      -2.180   1.530   6.250  1.00  0.00     0.312 HD
ATOM     15  H   UNL     1      -0.848   2.552   7.290  1.00  0.00     0.304 HD
BRANCH   4  16
ATOM     16  C   UNL     1       0.397   0.388   3.066  1.00  0.00     0.323 C 
ATOM     17  N   UNL     1       0.488  -0.232   1.813  1.00  0.00    -0.326 N 
ATOM     18  H   UNL     1       1.349  -0.585   1.492  1.00  0.00     0.166 HD
ATOM     19  O   UNL     1       0.609   1.603   3.091  1.00  0.00    -0.248 OA
BRANCH  17  20
ATOM     20  C   UNL     1      -0.722  -0.348   0.985  1.00  0.00     0.175 C 
BRANCH  20  21
ATOM     21  C   UNL     1      -0.753  -1.146  -0.363  1.00  0.00     0.015 C 
ATOM     22  C   UNL     1       0.524  -1.104  -1.185  1.00  0.00     0.010 C 
ATOM     23  C   UNL     1      -1.259  -2.607  -0.292  1.00  0.00     0.010 C 
ENDBRANCH  20  21
BRANCH  20  24
ATOM     24  C   UNL     1      -1.757  -0.992   1.849  1.00  0.00     0.245 C 
ATOM     25  O   UNL     1      -2.950  -0.712   1.707  1.00  0.00    -0.272 OA
ATOM     26  N   UNL     1      -1.304  -1.962   2.747  1.00  0.00    -0.341 N 
ATOM     27  C   UNL     1      -2.450  -1.951   4.155  1.00  0.00     0.120 C 
ATOM     28  C   UNL     1       0.356  -2.675   2.862  1.00  0.00     0.120 C 
ATOM     29  C   UNL     1      -1.563  -2.426   6.108  1.00  0.00     0.031 C 
ATOM     30  C   UNL     1       1.177  -2.967   4.528  1.00  0.00     0.031 C 
ATOM     31  C   UNL     1       0.252  -3.031   6.111  1.00  0.00     0.038 C 
BRANCH  31  32
ATOM     32  C   UNL     1       1.024  -2.543   7.324  1.00  0.00     0.045 C 
ATOM     33  O   UNL     1       2.131  -2.932   7.660  1.00  0.00    -0.550 OA
ATOM     34  O   UNL     1       0.376  -1.634   8.073  1.00  0.00    -0.550 OA
ENDBRANCH  31  32
ENDBRANCH  20  24
ENDBRANCH  17  20
ENDBRANCH   4  16
BRANCH   6  35
ATOM     35  C   UNL     1       2.387   0.941   5.314  1.00  0.00     0.018 C 
ATOM     36  C   UNL     1       3.055   0.988   6.710  1.00  0.00     0.010 C 
ATOM     37  C   UNL     1       3.378   0.216   4.396  1.00  0.00     0.010 C 
ENDBRANCH   6  35
ENDBRANCH   2   3
ENDBRANCH   1   2
BRANCH   1  38
ATOM     38  C   UNL     1      -0.847   5.159   6.765  1.00  0.00     0.120 C 
BRANCH  38  39
ATOM     39  N   UNL     1      -0.807   5.309   8.222  1.00  0.00    -0.352 N 
ATOM     40  C   UNL     1      -0.504   6.423   8.970  1.00  0.00     0.251 C 
ATOM     41  H   UNL     1      -1.028   4.500   8.738  1.00  0.00     0.163 HD
ATOM     42  O   UNL     1      -0.190   6.321  10.150  1.00  0.00    -0.269 OA
BRANCH  40  43
ATOM     43  C   UNL     1      -0.550   7.737   8.306  1.00  0.00     0.039 A 
ATOM     44  C   UNL     1       0.468   8.670   8.500  1.00  0.00     0.014 A 
ATOM     45  C   UNL     1      -1.595   7.996   7.422  1.00  0.00     0.014 A 
ATOM     46  C   UNL     1       0.470   9.837   7.734  1.00  0.00     0.010 A 
ATOM     47  C   UNL     1      -1.497   9.062   6.551  1.00  0.00     0.010 A 
ATOM     48  C   UNL     1      -0.489  10.019   6.723  1.00  0.00    -0.014 A 
BRANCH  48  49
ATOM     49  C   UNL     1      -0.517  11.219   5.855  1.00  0.00     0.031 A 
ATOM     50  C   UNL     1      -1.771  12.056   5.803  1.00  0.00     0.074 A 
ATOM     51  C   UNL     1       0.519  11.482   5.037  1.00  0.00     0.049 A 
ATOM     52  N   UNL     1      -2.067  13.055   5.015  1.00  0.00    -0.248 NA
ATOM     53  C   UNL     1      -2.865  11.671   6.714  1.00  0.00     0.031 C 
ATOM     54  C   UNL     1       1.742  10.682   4.929  1.00  0.00     0.029 A 
ATOM     55  N   UNL     1       0.701  12.488   4.124  1.00  0.00    -0.354 N 
ATOM     56  C   UNL     1      -3.389  13.377   5.301  1.00  0.00     0.074 A 
ATOM     57  C   UNL     1      -3.862  12.416   6.269  1.00  0.00     0.031 C 
ATOM     58  C   UNL     1       2.559  11.247   4.026  1.00  0.00     0.029 A 
ATOM     59  C   UNL     1       1.904  12.423   3.464  1.00  0.00     0.049 A 
ATOM     60  H   UNL     1       0.032  13.191   3.957  1.00  0.00     0.167 HD
ATOM     61  C   UNL     1      -4.131  14.406   4.830  1.00  0.00     0.037 A 
ATOM     62  C   UNL     1       2.417  13.224   2.510  1.00  0.00     0.037 A 
ATOM     63  C   UNL     1      -3.619  15.392   3.920  1.00  0.00     0.049 A 
ATOM     64  C   UNL     1       1.616  14.412   2.059  1.00  0.00     0.074 A 
ATOM     65  C   UNL     1      -4.231  16.542   3.460  1.00  0.00     0.029 A 
ATOM     66  N   UNL     1      -2.361  15.341   3.334  1.00  0.00    -0.354 N 
ATOM     67  N   UNL     1       0.402  14.767   2.412  1.00  0.00    -0.248 NA
ATOM     68  C   UNL     1       2.253  15.317   1.095  1.00  0.00     0.031 C 
ATOM     69  C   UNL     1      -3.357  17.166   2.562  1.00  0.00     0.029 A 
ATOM     70  C   UNL     1      -2.183  16.430   2.500  1.00  0.00     0.049 A 
ATOM     71  H   UNL     1      -1.694  14.634   3.489  1.00  0.00     0.167 HD
ATOM     72  C   UNL     1       0.133  15.945   1.726  1.00  0.00     0.074 A 
ATOM     73  C   UNL     1       1.320  16.250   0.950  1.00  0.00     0.031 C 
ATOM     74  C   UNL     1      -0.990  16.706   1.736  1.00  0.00     0.037 A 
BRANCH  61  75
ATOM     75  C   UNL     1      -5.556  14.507   5.307  1.00  0.00     0.058 A 
ATOM     76  C   UNL     1      -5.875  14.774   6.650  1.00  0.00     0.135 A 
ATOM     77  C   UNL     1      -6.621  14.301   4.415  1.00  0.00     0.135 A 
ATOM     78  F   UNL     1      -4.899  14.964   7.553  1.00  0.00    -0.206 F 
ATOM     79  C   UNL     1      -7.190  14.769   7.103  1.00  0.00     0.059 A 
ATOM     80  C   UNL     1      -7.947  14.330   4.839  1.00  0.00     0.059 A 
ATOM     81  F   UNL     1      -6.379  14.047   3.119  1.00  0.00    -0.206 F 
ATOM     82  C   UNL     1      -8.220  14.537   6.191  1.00  0.00     0.060 A 
BRANCH  82  83
ATOM     83  S   UNL     1      -9.919  14.501   6.798  1.00  0.00     0.124 S 
ATOM     84  O   UNL     1      -9.960  13.203   7.465  1.00  0.00    -0.237 OA
ATOM     85  O   UNL     1      -9.963  15.665   7.677  1.00  0.00    -0.237 OA
ATOM     86  O   UNL     1     -10.717  14.608   5.581  1.00  0.00    -0.744 OA
ENDBRANCH  82  83
ENDBRANCH  61  75
BRANCH  62  87
ATOM     87  C   UNL     1       3.774  12.940   1.974  1.00  0.00     0.058 A 
ATOM     88  C   UNL     1       4.876  13.721   2.352  1.00  0.00     0.135 A 
ATOM     89  C   UNL     1       4.012  11.835   1.142  1.00  0.00     0.135 A 
ATOM     90  F   UNL     1       4.700  14.790   3.143  1.00  0.00    -0.206 F 
ATOM     91  C   UNL     1       6.167  13.413   1.932  1.00  0.00     0.059 A 
ATOM     92  C   UNL     1       5.296  11.494   0.726  1.00  0.00     0.059 A 
ATOM     93  F   UNL     1       2.994  11.044   0.768  1.00  0.00    -0.206 F 
ATOM     94  C   UNL     1       6.368  12.290   1.128  1.00  0.00     0.060 A 
BRANCH  94  95
ATOM     95  S   UNL     1       8.059  11.842   0.675  1.00  0.00     0.124 S 
ATOM     96  O   UNL     1       8.387  12.876  -0.299  1.00  0.00    -0.237 OA
ATOM     97  O   UNL     1       8.752  11.929   1.957  1.00  0.00    -0.237 OA
ATOM     98  O   UNL     1       7.917  10.492   0.140  1.00  0.00    -0.744 OA
ENDBRANCH  94  95
ENDBRANCH  62  87
BRANCH  74  99
ATOM     99  C   UNL     1      -0.985  17.952   0.897  1.00  0.00     0.058 A 
ATOM    100  C   UNL     1      -1.080  17.896  -0.502  1.00  0.00     0.135 A 
ATOM    101  C   UNL     1      -0.954  19.216   1.506  1.00  0.00     0.135 A 
ATOM    102  F   UNL     1      -1.108  16.710  -1.131  1.00  0.00    -0.206 F 
ATOM    103  C   UNL     1      -1.125  19.053  -1.271  1.00  0.00     0.059 A 
ATOM    104  C   UNL     1      -1.026  20.386   0.759  1.00  0.00     0.059 A 
ATOM    105  F   UNL     1      -0.877  19.322   2.842  1.00  0.00    -0.206 F 
ATOM    106  C   UNL     1      -1.101  20.294  -0.630  1.00  0.00     0.060 A 
BRANCH 106 107
ATOM    107  S   UNL     1      -1.198  21.788  -1.637  1.00  0.00     0.124 S 
ATOM    108  O   UNL     1       0.139  21.837  -2.219  1.00  0.00    -0.237 OA
ATOM    109  O   UNL     1      -2.281  21.472  -2.563  1.00  0.00    -0.237 OA
ATOM    110  O   UNL     1      -1.498  22.835  -0.665  1.00  0.00    -0.744 OA
ENDBRANCH 106 107
ENDBRANCH  74  99
ENDBRANCH  48  49
ENDBRANCH  40  43
ENDBRANCH  38  39
ENDBRANCH   1  38
TORSDOF 18
