REMARK SMILES CS(=O)(=O)c1ccc(C2=NN(c3ccc(C(=O)NCCCNC(=O)c4ccc(-c5c6nc(c(-c7c(F)cc(S(=O)(=O)[O-])cc7F)c7ccc([nH]7)c(-c7c(F)cc(S(=O)(=O)[O-])cc7F)c7nc(c(-c8c(F)cc(S(=O)(=O)[O-])cc8F)c8ccc5[nH]8)C=C7)C=C6)cc4)cc3)[C@H](c3ccccc3)C2)cc1
REMARK SMILES IDX 20 1 19 2 18 3 16 4 17 5 15 7 12 8 13 9 92 10 14 11 91 12
REMARK SMILES IDX 11 13 9 14 10 15 100 16 93 17 8 18 5 19 6 20 102 21 7 22
REMARK SMILES IDX 101 23 2 24 1 25 3 26 4 27 94 28 95 29 99 30 96 31 98 32
REMARK SMILES IDX 97 33 21 34 22 35 23 36 24 38 25 39 26 40 90 41 27 42 89 43
REMARK SMILES IDX 28 44 29 45 30 46 83 47 31 48 88 49 82 50 84 51 32 52 87 53
REMARK SMILES IDX 81 54 80 55 33 57 67 58 46 59 66 60 47 61 50 62 65 63 85 64
REMARK SMILES IDX 48 65 49 66 64 68 86 69 51 70 34 71 35 72 44 73 36 74 37 75
REMARK SMILES IDX 43 76 45 77 38 78 39 79 40 80 41 81 42 82 68 83 69 84 78 85
REMARK SMILES IDX 70 86 71 87 77 88 79 89 72 90 73 91 74 92 75 93 76 94 52 95
REMARK SMILES IDX 53 96 62 97 54 98 55 99 61 100 63 101 56 102 57 103 58 104
REMARK SMILES IDX 59 105 60 106
REMARK H PARENT 18 6 22 37 84 56 50 67
REMARK Flexibility Score: inf
ROOT
ATOM      1  C   UNL     1       5.085  -9.894  10.136  1.00  0.00     0.042 C 
ENDROOT
BRANCH   1   2
ATOM      2  C   UNL     1       5.533  -8.616  10.841  1.00  0.00     0.118 C 
BRANCH   2   3
ATOM      3  N   UNL     1       6.715  -8.038  10.222  1.00  0.00    -0.352 N 
ATOM      4  C   UNL     1       6.864  -6.935   9.418  1.00  0.00     0.251 C 
ATOM      5  O   UNL     1       8.003  -6.553   9.152  1.00  0.00    -0.269 OA
ATOM      6  H   UNL     1       7.552  -8.520  10.413  1.00  0.00     0.163 HD
BRANCH   4   7
ATOM      7  C   UNL     1       5.702  -6.162   8.909  1.00  0.00     0.039 A 
ATOM      8  C   UNL     1       3.554  -4.583   7.991  1.00  0.00     0.060 A 
ATOM      9  C   UNL     1       4.775  -3.991   8.329  1.00  0.00     0.029 A 
ATOM     10  C   UNL     1       3.441  -5.973   8.061  1.00  0.00     0.029 A 
ATOM     11  C   UNL     1       5.842  -4.773   8.786  1.00  0.00     0.016 A 
ATOM     12  C   UNL     1       4.510  -6.758   8.496  1.00  0.00     0.016 A 
BRANCH   8  13
ATOM     13  N   UNL     1       2.453  -3.833   7.599  1.00  0.00    -0.257 N 
ATOM     14  C   UNL     1       1.636  -2.267   6.417  1.00  0.00     0.071 C 
ATOM     15  N   UNL     1       2.465  -3.260   6.371  1.00  0.00    -0.176 NA
ATOM     16  C   UNL     1       1.012  -1.988   7.755  1.00  0.00     0.091 C 
ATOM     17  C   UNL     1       1.617  -3.135   8.582  1.00  0.00     0.144 C 
BRANCH  14  18
ATOM     18  C   UNL     1       1.305  -1.476   5.224  1.00  0.00    -0.002 A 
ATOM     19  C   UNL     1       0.666  -0.069   2.915  1.00  0.00     0.067 A 
ATOM     20  C   UNL     1       0.687  -1.465   2.884  1.00  0.00     0.021 A 
ATOM     21  C   UNL     1       0.972   0.627   4.093  1.00  0.00     0.021 A 
ATOM     22  C   UNL     1       1.025  -2.167   4.040  1.00  0.00     0.011 A 
ATOM     23  C   UNL     1       1.281  -0.081   5.258  1.00  0.00     0.011 A 
BRANCH  19  24
ATOM     24  S   UNL     1       0.249   0.853   1.452  1.00  0.00     0.175 S 
ATOM     25  C   UNL     1       1.040   0.016   0.104  1.00  0.00     0.163 C 
ATOM     26  O   UNL     1       0.878   2.154   1.574  1.00  0.00    -0.224 OA
ATOM     27  O   UNL     1      -1.188   0.732   1.288  1.00  0.00    -0.224 OA
ENDBRANCH  19  24
ENDBRANCH  14  18
BRANCH  17  28
ATOM     28  C   UNL     1       0.659  -4.109   9.258  1.00  0.00    -0.023 A 
ATOM     29  C   UNL     1      -0.638  -4.376   8.796  1.00  0.00     0.006 A 
ATOM     30  C   UNL     1       1.124  -4.845  10.368  1.00  0.00     0.006 A 
ATOM     31  C   UNL     1      -1.446  -5.324   9.434  1.00  0.00     0.000 A 
ATOM     32  C   UNL     1       0.326  -5.808  10.988  1.00  0.00     0.000 A 
ATOM     33  C   UNL     1      -0.963  -6.043  10.525  1.00  0.00     0.000 A 
ENDBRANCH  17  28
ENDBRANCH   8  13
ENDBRANCH   4   7
ENDBRANCH   2   3
ENDBRANCH   1   2
BRANCH   1  34
ATOM     34  C   UNL     1       5.991 -11.092  10.397  1.00  0.00     0.118 C 
BRANCH  34  35
ATOM     35  N   UNL     1       5.853 -11.602  11.753  1.00  0.00    -0.352 N 
ATOM     36  C   UNL     1       5.527 -12.864  12.185  1.00  0.00     0.251 C 
ATOM     37  H   UNL     1       6.018 -10.944  12.466  1.00  0.00     0.163 HD
ATOM     38  O   UNL     1       5.263 -13.043  13.372  1.00  0.00    -0.269 OA
BRANCH  36  39
ATOM     39  C   UNL     1       5.473 -13.999  11.235  1.00  0.00     0.039 A 
ATOM     40  C   UNL     1       4.436 -14.930  11.354  1.00  0.00     0.014 A 
ATOM     41  C   UNL     1       6.454 -14.172  10.254  1.00  0.00     0.014 A 
ATOM     42  C   UNL     1       4.351 -15.998  10.456  1.00  0.00     0.010 A 
ATOM     43  C   UNL     1       6.332 -15.198   9.319  1.00  0.00     0.010 A 
ATOM     44  C   UNL     1       5.282 -16.124   9.412  1.00  0.00    -0.014 A 
BRANCH  44  45
ATOM     45  C   UNL     1       5.182 -17.216   8.410  1.00  0.00     0.031 A 
ATOM     46  C   UNL     1       6.263 -18.259   8.320  1.00  0.00     0.074 A 
ATOM     47  C   UNL     1       4.159 -17.227   7.533  1.00  0.00     0.049 A 
ATOM     48  N   UNL     1       6.415 -19.221   7.447  1.00  0.00    -0.248 NA
ATOM     49  C   UNL     1       7.330 -18.193   9.332  1.00  0.00     0.031 C 
ATOM     50  C   UNL     1       3.068 -16.250   7.494  1.00  0.00     0.029 A 
ATOM     51  N   UNL     1       3.878 -18.079   6.494  1.00  0.00    -0.354 N 
ATOM     52  C   UNL     1       7.600 -19.861   7.789  1.00  0.00     0.074 A 
ATOM     53  C   UNL     1       8.149 -19.152   8.925  1.00  0.00     0.031 C 
ATOM     54  C   UNL     1       2.231 -16.566   6.492  1.00  0.00     0.029 A 
ATOM     55  C   UNL     1       2.743 -17.741   5.795  1.00  0.00     0.049 A 
ATOM     56  H   UNL     1       4.436 -18.858   6.271  1.00  0.00     0.167 HD
ATOM     57  C   UNL     1       8.169 -20.951   7.221  1.00  0.00     0.037 A 
ATOM     58  C   UNL     1       2.184 -18.307   4.707  1.00  0.00     0.037 A 
ATOM     59  C   UNL     1       7.604 -21.670   6.109  1.00  0.00     0.049 A 
ATOM     60  C   UNL     1       2.831 -19.520   4.097  1.00  0.00     0.074 A 
ATOM     61  C   UNL     1       8.077 -22.814   5.491  1.00  0.00     0.029 A 
ATOM     62  N   UNL     1       6.436 -21.314   5.448  1.00  0.00    -0.354 N 
ATOM     63  N   UNL     1       3.930 -20.138   4.460  1.00  0.00    -0.248 NA
ATOM     64  C   UNL     1       2.161 -20.116   2.932  1.00  0.00     0.031 C 
ATOM     65  C   UNL     1       7.213 -23.133   4.438  1.00  0.00     0.029 A 
ATOM     66  C   UNL     1       6.180 -22.210   4.423  1.00  0.00     0.049 A 
ATOM     67  H   UNL     1       5.873 -20.539   5.675  1.00  0.00     0.167 HD
ATOM     68  C   UNL     1       4.068 -21.211   3.586  1.00  0.00     0.074 A 
ATOM     69  C   UNL     1       2.938 -21.161   2.681  1.00  0.00     0.031 C 
ATOM     70  C   UNL     1       5.043 -22.152   3.539  1.00  0.00     0.037 A 
BRANCH  57  71
ATOM     71  C   UNL     1       9.472 -21.434   7.797  1.00  0.00     0.058 A 
ATOM     72  C   UNL     1       9.536 -22.052   9.056  1.00  0.00     0.135 A 
ATOM     73  C   UNL     1      10.669 -21.296   7.075  1.00  0.00     0.135 A 
ATOM     74  F   UNL     1       8.424 -22.196   9.795  1.00  0.00    -0.206 F 
ATOM     75  C   UNL     1      10.743 -22.485   9.594  1.00  0.00     0.059 A 
ATOM     76  C   UNL     1      11.885 -21.747   7.582  1.00  0.00     0.059 A 
ATOM     77  F   UNL     1      10.666 -20.714   5.865  1.00  0.00    -0.206 F 
ATOM     78  C   UNL     1      11.914 -22.324   8.851  1.00  0.00     0.060 A 
BRANCH  78  79
ATOM     79  S   UNL     1      13.475 -22.883   9.566  1.00  0.00     0.124 S 
ATOM     80  O   UNL     1      13.736 -21.834  10.546  1.00  0.00    -0.237 OA
ATOM     81  O   UNL     1      13.120 -24.188  10.115  1.00  0.00    -0.237 OA
ATOM     82  O   UNL     1      14.380 -22.913   8.422  1.00  0.00    -0.744 OA
ENDBRANCH  78  79
ENDBRANCH  57  71
BRANCH  58  83
ATOM     83  C   UNL     1       0.930 -17.745   4.143  1.00  0.00     0.058 A 
ATOM     84  C   UNL     1      -0.290 -18.420   4.291  1.00  0.00     0.135 A 
ATOM     85  C   UNL     1       0.919 -16.515   3.466  1.00  0.00     0.135 A 
ATOM     86  F   UNL     1      -0.329 -19.602   4.925  1.00  0.00    -0.206 F 
ATOM     87  C   UNL     1      -1.476 -17.904   3.780  1.00  0.00     0.059 A 
ATOM     88  C   UNL     1      -0.257 -15.967   2.966  1.00  0.00     0.059 A 
ATOM     89  F   UNL     1       2.059 -15.823   3.313  1.00  0.00    -0.206 F 
ATOM     90  C   UNL     1      -1.450 -16.673   3.121  1.00  0.00     0.060 A 
BRANCH  90  91
ATOM     91  S   UNL     1      -3.004 -15.982   2.513  1.00  0.00     0.124 S 
ATOM     92  O   UNL     1      -3.250 -16.806   1.335  1.00  0.00    -0.237 OA
ATOM     93  O   UNL     1      -3.901 -16.200   3.644  1.00  0.00    -0.237 OA
ATOM     94  O   UNL     1      -2.669 -14.586   2.250  1.00  0.00    -0.744 OA
ENDBRANCH  90  91
ENDBRANCH  58  83
BRANCH  70  95
ATOM     95  C   UNL     1       4.912 -23.230   2.500  1.00  0.00     0.058 A 
ATOM     96  C   UNL     1       5.175 -22.984   1.144  1.00  0.00     0.135 A 
ATOM     97  C   UNL     1       4.571 -24.539   2.877  1.00  0.00     0.135 A 
ATOM     98  F   UNL     1       5.498 -21.747   0.733  1.00  0.00    -0.206 F 
ATOM     99  C   UNL     1       5.087 -23.995   0.193  1.00  0.00     0.059 A 
ATOM    100  C   UNL     1       4.499 -25.571   1.946  1.00  0.00     0.059 A 
ATOM    101  F   UNL     1       4.318 -24.829   4.163  1.00  0.00    -0.206 F 
ATOM    102  C   UNL     1       4.749 -25.286   0.604  1.00  0.00     0.060 A 
BRANCH 102 103
ATOM    103  S   UNL     1       4.674 -26.599  -0.633  1.00  0.00     0.124 S 
ATOM    104  O   UNL     1       3.406 -26.308  -1.294  1.00  0.00    -0.237 OA
ATOM    105  O   UNL     1       5.874 -26.351  -1.427  1.00  0.00    -0.237 OA
ATOM    106  O   UNL     1       4.701 -27.820   0.166  1.00  0.00    -0.744 OA
ENDBRANCH 102 103
ENDBRANCH  70  95
ENDBRANCH  44  45
ENDBRANCH  36  39
ENDBRANCH  34  35
ENDBRANCH   1  34
TORSDOF 17
