REMARK SMILES COc1cccc([C@H]2[NH2+][C@@](CC(C)C)(C(=O)NCCCNC(=O)c3ccc(-c4c5nc(c(-c6c(F)cc(S(=O)(=O)[O-])cc6F)c6ccc([nH]6)c(-c6c(F)cc(S(=O)(=O)[O-])cc6F)c6nc(c(-c7c(F)cc(S(=O)(=O)[O-])cc7F)c7ccc4[nH]7)C=C6)C=C5)cc3)[C@H]3C(=O)N(C(C)C)C(=O)[C@H]23)c1O
REMARK SMILES IDX 19 1 18 2 17 3 15 4 16 5 10 7 8 8 9 9 99 10 90 13 97 14
REMARK SMILES IDX 91 15 93 16 98 17 92 18 7 19 3 20 4 21 100 22 5 23 6 24 2 25
REMARK SMILES IDX 1 26 101 27 11 29 12 30 13 31 14 32 94 33 95 34 96 35 20 36
REMARK SMILES IDX 21 37 22 38 23 40 24 41 25 42 89 43 26 44 88 45 27 46 28 47
REMARK SMILES IDX 29 48 82 49 30 50 87 51 81 52 83 53 31 54 86 55 80 56 79 57
REMARK SMILES IDX 32 59 66 60 45 61 65 62 46 63 49 64 64 65 84 66 47 67 48 68
REMARK SMILES IDX 63 70 85 71 50 72 33 73 34 74 43 75 35 76 36 77 42 78 44 79
REMARK SMILES IDX 37 80 38 81 39 82 40 83 41 84 67 85 68 86 77 87 69 88 70 89
REMARK SMILES IDX 76 90 78 91 71 92 72 93 73 94 74 95 75 96 51 97 52 98 61 99
REMARK SMILES IDX 53 100 54 101 60 102 62 103 55 104 56 105 57 106 58 107
REMARK SMILES IDX 59 108
REMARK H PARENT 17 6 9 11 9 12 101 28 21 39 83 58 49 69
REMARK Flexibility Score: inf
ROOT
ATOM      1  C   UNL     1      -0.251  -7.857   4.698  1.00  0.00     0.042 C 
ENDROOT
BRANCH   1   2
ATOM      2  C   UNL     1       0.333  -6.475   4.525  1.00  0.00     0.118 C 
BRANCH   2   3
ATOM      3  N   UNL     1       1.777  -6.423   4.387  1.00  0.00    -0.351 N 
ATOM      4  C   UNL     1       2.564  -5.403   3.916  1.00  0.00     0.282 C 
ATOM      5  O   UNL     1       3.780  -5.500   4.106  1.00  0.00    -0.268 OA
ATOM      6  H   UNL     1       2.259  -7.233   4.671  1.00  0.00     0.163 HD
BRANCH   4   7
ATOM      7  C   UNL     1       1.944  -4.200   3.127  1.00  0.00     0.189 C 
ATOM      8  C   UNL     1       2.030  -4.945   0.742  1.00  0.00     0.232 C 
ATOM      9  N   UNL     1       1.130  -4.816   1.972  1.00  0.00    -0.326 N 
ATOM     10  C   UNL     1       3.340  -4.457   1.258  1.00  0.00     0.161 C 
ATOM     11  H   UNL     1       0.792  -5.738   2.246  1.00  0.00     0.347 HD
ATOM     12  H   UNL     1       0.333  -4.218   1.755  1.00  0.00     0.347 HD
ATOM     13  C   UNL     1       2.963  -3.440   2.289  1.00  0.00     0.169 C 
ATOM     14  C   UNL     1       4.335  -3.674   0.482  1.00  0.00     0.240 C 
ATOM     15  C   UNL     1       4.343  -2.959   2.652  1.00  0.00     0.240 C 
ATOM     16  N   UNL     1       5.064  -3.030   1.466  1.00  0.00    -0.279 N 
ATOM     17  O   UNL     1       4.475  -3.634  -0.726  1.00  0.00    -0.274 OA
ATOM     18  O   UNL     1       4.677  -2.448   3.706  1.00  0.00    -0.274 OA
BRANCH   8  19
ATOM     19  C   UNL     1       2.059  -6.326   0.074  1.00  0.00     0.056 A 
ATOM     20  C   UNL     1       3.207  -8.249  -1.002  1.00  0.00     0.161 A 
ATOM     21  C   UNL     1       1.971  -8.719  -1.443  1.00  0.00     0.050 A 
ATOM     22  C   UNL     1       3.236  -7.062  -0.248  1.00  0.00     0.166 A 
ATOM     23  C   UNL     1       0.796  -8.039  -1.129  1.00  0.00     0.005 A 
ATOM     24  C   UNL     1       0.840  -6.858  -0.380  1.00  0.00     0.014 A 
BRANCH  20  25
ATOM     25  O   UNL     1       4.251  -9.040  -1.403  1.00  0.00    -0.493 OA
ATOM     26  C   UNL     1       5.576  -8.746  -0.989  1.00  0.00     0.278 C 
ENDBRANCH  20  25
BRANCH  22  27
ATOM     27  O   UNL     1       4.450  -6.613   0.190  1.00  0.00    -0.504 OA
ATOM     28  H   UNL     1       5.229  -7.090  -0.017  1.00  0.00     0.293 HD
ENDBRANCH  22  27
ENDBRANCH   8  19
BRANCH   7  29
ATOM     29  C   UNL     1       1.248  -3.098   4.011  1.00  0.00     0.083 C 
BRANCH  29  30
ATOM     30  C   UNL     1       0.452  -3.404   5.295  1.00  0.00    -0.011 C 
ATOM     31  C   UNL     1       1.329  -3.862   6.472  1.00  0.00     0.007 C 
ATOM     32  C   UNL     1      -0.335  -2.177   5.778  1.00  0.00     0.007 C 
ENDBRANCH  29  30
ENDBRANCH   7  29
BRANCH  16  33
ATOM     33  C   UNL     1       6.409  -2.508   1.274  1.00  0.00     0.087 C 
ATOM     34  C   UNL     1       7.378  -3.655   0.972  1.00  0.00     0.031 C 
ATOM     35  C   UNL     1       6.465  -1.446   0.177  1.00  0.00     0.031 C 
ENDBRANCH  16  33
ENDBRANCH   4   7
ENDBRANCH   2   3
ENDBRANCH   1   2
BRANCH   1  36
ATOM     36  C   UNL     1       0.211  -8.526   5.984  1.00  0.00     0.118 C 
BRANCH  36  37
ATOM     37  N   UNL     1      -0.235  -7.862   7.215  1.00  0.00    -0.352 N 
ATOM     38  C   UNL     1      -1.081  -8.303   8.212  1.00  0.00     0.251 C 
ATOM     39  H   UNL     1       0.127  -6.957   7.351  1.00  0.00     0.163 HD
ATOM     40  O   UNL     1      -1.394  -7.561   9.136  1.00  0.00    -0.269 OA
BRANCH  38  41
ATOM     41  C   UNL     1      -1.644  -9.664   8.120  1.00  0.00     0.039 A 
ATOM     42  C   UNL     1      -3.017  -9.860   8.280  1.00  0.00     0.014 A 
ATOM     43  C   UNL     1      -0.820 -10.721   7.749  1.00  0.00     0.014 A 
ATOM     44  C   UNL     1      -3.578 -11.090   7.925  1.00  0.00     0.010 A 
ATOM     45  C   UNL     1      -1.395 -11.874   7.242  1.00  0.00     0.010 A 
ATOM     46  C   UNL     1      -2.780 -12.081   7.331  1.00  0.00    -0.014 A 
BRANCH  46  47
ATOM     47  C   UNL     1      -3.330 -13.362   6.817  1.00  0.00     0.031 A 
ATOM     48  C   UNL     1      -2.751 -14.658   7.324  1.00  0.00     0.074 A 
ATOM     49  C   UNL     1      -4.245 -13.369   5.827  1.00  0.00     0.049 A 
ATOM     50  N   UNL     1      -2.927 -15.874   6.880  1.00  0.00    -0.248 NA
ATOM     51  C   UNL     1      -1.799 -14.561   8.445  1.00  0.00     0.031 C 
ATOM     52  C   UNL     1      -4.853 -12.184   5.216  1.00  0.00     0.029 A 
ATOM     53  N   UNL     1      -4.814 -14.416   5.144  1.00  0.00    -0.354 N 
ATOM     54  C   UNL     1      -2.083 -16.674   7.642  1.00  0.00     0.074 A 
ATOM     55  C   UNL     1      -1.333 -15.797   8.511  1.00  0.00     0.031 C 
ATOM     56  C   UNL     1      -5.733 -12.571   4.279  1.00  0.00     0.029 A 
ATOM     57  C   UNL     1      -5.713 -14.027   4.178  1.00  0.00     0.049 A 
ATOM     58  H   UNL     1      -4.599 -15.358   5.330  1.00  0.00     0.167 HD
ATOM     59  C   UNL     1      -1.968 -18.023   7.647  1.00  0.00     0.037 A 
ATOM     60  C   UNL     1      -6.430 -14.760   3.303  1.00  0.00     0.037 A 
ATOM     61  C   UNL     1      -2.750 -18.890   6.810  1.00  0.00     0.049 A 
ATOM     62  C   UNL     1      -6.284 -16.260   3.317  1.00  0.00     0.074 A 
ATOM     63  C   UNL     1      -2.755 -20.271   6.768  1.00  0.00     0.029 A 
ATOM     64  N   UNL     1      -3.675 -18.455   5.870  1.00  0.00    -0.354 N 
ATOM     65  N   UNL     1      -5.512 -17.006   4.072  1.00  0.00    -0.248 NA
ATOM     66  C   UNL     1      -7.105 -17.018   2.363  1.00  0.00     0.031 C 
ATOM     67  C   UNL     1      -3.647 -20.672   5.770  1.00  0.00     0.029 A 
ATOM     68  C   UNL     1      -4.247 -19.542   5.234  1.00  0.00     0.049 A 
ATOM     69  H   UNL     1      -3.892 -17.513   5.685  1.00  0.00     0.167 HD
ATOM     70  C   UNL     1      -5.790 -18.322   3.718  1.00  0.00     0.074 A 
ATOM     71  C   UNL     1      -6.795 -18.270   2.676  1.00  0.00     0.031 C 
ATOM     72  C   UNL     1      -5.269 -19.469   4.219  1.00  0.00     0.037 A 
BRANCH  59  73
ATOM     73  C   UNL     1      -0.965 -18.628   8.593  1.00  0.00     0.058 A 
ATOM     74  C   UNL     1      -1.121 -18.546   9.988  1.00  0.00     0.135 A 
ATOM     75  C   UNL     1       0.172 -19.289   8.102  1.00  0.00     0.135 A 
ATOM     76  F   UNL     1      -2.180 -17.911  10.515  1.00  0.00    -0.206 F 
ATOM     77  C   UNL     1      -0.160 -19.047  10.859  1.00  0.00     0.059 A 
ATOM     78  C   UNL     1       1.127 -19.833   8.956  1.00  0.00     0.059 A 
ATOM     79  F   UNL     1       0.373 -19.399   6.780  1.00  0.00    -0.206 F 
ATOM     80  C   UNL     1       0.964 -19.686  10.332  1.00  0.00     0.060 A 
BRANCH  80  81
ATOM     81  S   UNL     1       2.212 -20.310  11.476  1.00  0.00     0.124 S 
ATOM     82  O   UNL     1       2.829 -19.069  11.937  1.00  0.00    -0.237 OA
ATOM     83  O   UNL     1       1.403 -21.019  12.463  1.00  0.00    -0.237 OA
ATOM     84  O   UNL     1       3.053 -21.154  10.634  1.00  0.00    -0.744 OA
ENDBRANCH  80  81
ENDBRANCH  59  73
BRANCH  60  85
ATOM     85  C   UNL     1      -7.383 -14.092   2.374  1.00  0.00     0.058 A 
ATOM     86  C   UNL     1      -8.768 -14.232   2.547  1.00  0.00     0.135 A 
ATOM     87  C   UNL     1      -6.938 -13.285   1.315  1.00  0.00     0.135 A 
ATOM     88  F   UNL     1      -9.245 -14.999   3.539  1.00  0.00    -0.206 F 
ATOM     89  C   UNL     1      -9.678 -13.608   1.700  1.00  0.00     0.059 A 
ATOM     90  C   UNL     1      -7.829 -12.628   0.470  1.00  0.00     0.059 A 
ATOM     91  F   UNL     1      -5.623 -13.104   1.114  1.00  0.00    -0.206 F 
ATOM     92  C   UNL     1      -9.198 -12.802   0.667  1.00  0.00     0.060 A 
BRANCH  92  93
ATOM     93  S   UNL     1     -10.391 -11.948  -0.387  1.00  0.00     0.124 S 
ATOM     94  O   UNL     1     -10.958 -13.055  -1.148  1.00  0.00    -0.237 OA
ATOM     95  O   UNL     1     -11.275 -11.327   0.594  1.00  0.00    -0.237 OA
ATOM     96  O   UNL     1      -9.561 -11.018  -1.148  1.00  0.00    -0.744 OA
ENDBRANCH  92  93
ENDBRANCH  60  85
BRANCH  72  97
ATOM     97  C   UNL     1      -5.817 -20.773   3.709  1.00  0.00     0.058 A 
ATOM     98  C   UNL     1      -5.509 -21.263   2.432  1.00  0.00     0.135 A 
ATOM     99  C   UNL     1      -6.583 -21.589   4.560  1.00  0.00     0.135 A 
ATOM    100  F   UNL     1      -4.787 -20.521   1.578  1.00  0.00    -0.206 F 
ATOM    101  C   UNL     1      -5.946 -22.516   2.013  1.00  0.00     0.059 A 
ATOM    102  C   UNL     1      -7.004 -22.856   4.173  1.00  0.00     0.059 A 
ATOM    103  F   UNL     1      -6.897 -21.169   5.796  1.00  0.00    -0.206 F 
ATOM    104  C   UNL     1      -6.684 -23.309   2.894  1.00  0.00     0.060 A 
BRANCH 104 105
ATOM    105  S   UNL     1      -7.181 -24.961   2.363  1.00  0.00     0.124 S 
ATOM    106  O   UNL     1      -8.219 -24.655   1.384  1.00  0.00    -0.237 OA
ATOM    107  O   UNL     1      -5.937 -25.500   1.822  1.00  0.00    -0.237 OA
ATOM    108  O   UNL     1      -7.646 -25.590   3.595  1.00  0.00    -0.744 OA
ENDBRANCH 104 105
ENDBRANCH  72  97
ENDBRANCH  46  47
ENDBRANCH  38  41
ENDBRANCH  36  37
ENDBRANCH   1  36
TORSDOF 19
