REMARK SMILES CC[C@@H]1CCCN(S(=O)(=O)c2cc(C(=O)NCCCNC(=O)c3ccc(-c4c5nc(c(-c6c(F)cc(S(=O)(=O)[O-])cc6F)c6ccc([nH]6)c(-c6c(F)cc(S(=O)(=O)[O-])cc6F)c6nc(c(-c7c(F)cc(S(=O)(=O)[O-])cc7F)c7ccc4[nH]7)C=C6)C=C5)cc3)ccc2F)C1
REMARK SMILES IDX 18 1 17 2 16 3 14 4 15 5 13 7 11 8 12 9 91 10 90 11 92 12
REMARK SMILES IDX 89 13 8 14 9 15 10 16 7 17 3 18 4 19 93 20 5 21 6 22 2 23
REMARK SMILES IDX 1 24 19 25 20 26 21 27 22 29 23 30 24 31 88 32 25 33 87 34
REMARK SMILES IDX 26 35 27 36 28 37 81 38 29 39 86 40 80 41 82 42 30 43 85 44
REMARK SMILES IDX 79 45 78 46 31 48 65 49 44 50 64 51 45 52 48 53 63 54 83 55
REMARK SMILES IDX 46 56 47 57 62 59 84 60 49 61 32 62 33 63 42 64 34 65 35 66
REMARK SMILES IDX 41 67 43 68 36 69 37 70 38 71 39 72 40 73 66 74 67 75 76 76
REMARK SMILES IDX 68 77 69 78 75 79 77 80 70 81 71 82 72 83 73 84 74 85 50 86
REMARK SMILES IDX 51 87 60 88 52 89 53 90 59 91 61 92 54 93 55 94 56 95 57 96
REMARK SMILES IDX 58 97
REMARK H PARENT 16 6 20 28 82 47 48 58
REMARK Flexibility Score: inf
ROOT
ATOM      1  C   UNL     1       3.293   7.864  -5.487  1.00  0.00     0.042 C 
ENDROOT
BRANCH   1   2
ATOM      2  C   UNL     1       2.662   6.474  -5.588  1.00  0.00     0.118 C 
BRANCH   2   3
ATOM      3  N   UNL     1       3.620   5.410  -5.348  1.00  0.00    -0.352 N 
ATOM      4  C   UNL     1       3.915   4.641  -4.252  1.00  0.00     0.251 C 
ATOM      5  O   UNL     1       4.688   3.697  -4.429  1.00  0.00    -0.269 OA
ATOM      6  H   UNL     1       4.172   5.197  -6.135  1.00  0.00     0.163 HD
BRANCH   4   7
ATOM      7  C   UNL     1       3.373   4.867  -2.876  1.00  0.00     0.041 A 
ATOM      8  C   UNL     1       3.143   3.983  -0.604  1.00  0.00     0.119 A 
ATOM      9  C   UNL     1       3.512   3.813  -1.948  1.00  0.00     0.038 A 
ATOM     10  C   UNL     1       2.643   5.205  -0.180  1.00  0.00     0.143 A 
ATOM     11  C   UNL     1       2.468   6.244  -1.085  1.00  0.00     0.041 A 
ATOM     12  F   UNL     1       2.308   5.424   1.098  1.00  0.00    -0.206 F 
ATOM     13  C   UNL     1       2.848   6.081  -2.420  1.00  0.00     0.017 A 
BRANCH   8  14
ATOM     14  S   UNL     1       3.531   2.743   0.591  1.00  0.00     0.246 S 
ATOM     15  O   UNL     1       4.033   3.398   1.785  1.00  0.00    -0.207 OA
ATOM     16  O   UNL     1       4.338   1.741  -0.070  1.00  0.00    -0.207 OA
BRANCH  14  17
ATOM     17  N   UNL     1       2.036   1.971   1.010  1.00  0.00    -0.197 NA
ATOM     18  C   UNL     1       1.045   0.008   2.251  1.00  0.00     0.004 C 
ATOM     19  C   UNL     1      -0.046   0.938   2.795  1.00  0.00     0.006 C 
ATOM     20  C   UNL     1       2.313   0.803   1.918  1.00  0.00     0.106 C 
ATOM     21  C   UNL     1      -0.287   2.130   1.886  1.00  0.00     0.017 C 
ATOM     22  C   UNL     1       1.008   2.879   1.594  1.00  0.00     0.102 C 
BRANCH  18  23
ATOM     23  C   UNL     1       0.545  -0.934   1.132  1.00  0.00     0.001 C 
ATOM     24  C   UNL     1       0.731  -0.485  -0.310  1.00  0.00     0.004 C 
ENDBRANCH  18  23
ENDBRANCH  14  17
ENDBRANCH   8  14
ENDBRANCH   4   7
ENDBRANCH   2   3
ENDBRANCH   1   2
BRANCH   1  25
ATOM     25  C   UNL     1       4.145   8.259  -6.694  1.00  0.00     0.118 C 
BRANCH  25  26
ATOM     26  N   UNL     1       3.338   8.484  -7.884  1.00  0.00    -0.352 N 
ATOM     27  C   UNL     1       3.172   9.612  -8.649  1.00  0.00     0.251 C 
ATOM     28  H   UNL     1       2.829   7.699  -8.191  1.00  0.00     0.163 HD
ATOM     29  O   UNL     1       2.264   9.633  -9.478  1.00  0.00    -0.269 OA
BRANCH  27  30
ATOM     30  C   UNL     1       4.052  10.795  -8.493  1.00  0.00     0.039 A 
ATOM     31  C   UNL     1       3.486  12.069  -8.615  1.00  0.00     0.014 A 
ATOM     32  C   UNL     1       5.432  10.667  -8.311  1.00  0.00     0.014 A 
ATOM     33  C   UNL     1       4.290  13.208  -8.506  1.00  0.00     0.010 A 
ATOM     34  C   UNL     1       6.225  11.804  -8.146  1.00  0.00     0.010 A 
ATOM     35  C   UNL     1       5.664  13.086  -8.247  1.00  0.00    -0.014 A 
BRANCH  35  36
ATOM     36  C   UNL     1       6.528  14.285  -8.086  1.00  0.00     0.031 A 
ATOM     37  C   UNL     1       7.607  14.584  -9.093  1.00  0.00     0.074 A 
ATOM     38  C   UNL     1       6.373  15.081  -7.009  1.00  0.00     0.049 A 
ATOM     39  N   UNL     1       8.516  15.524  -9.073  1.00  0.00    -0.248 NA
ATOM     40  C   UNL     1       7.684  13.700 -10.267  1.00  0.00     0.031 C 
ATOM     41  C   UNL     1       5.377  14.887  -5.953  1.00  0.00     0.029 A 
ATOM     42  N   UNL     1       7.053  16.207  -6.620  1.00  0.00    -0.354 N 
ATOM     43  C   UNL     1       9.281  15.339 -10.219  1.00  0.00     0.074 A 
ATOM     44  C   UNL     1       8.753  14.173 -10.894  1.00  0.00     0.031 C 
ATOM     45  C   UNL     1       5.498  15.872  -5.048  1.00  0.00     0.029 A 
ATOM     46  C   UNL     1       6.602  16.745  -5.438  1.00  0.00     0.049 A 
ATOM     47  H   UNL     1       7.795  16.594  -7.138  1.00  0.00     0.167 HD
ATOM     48  C   UNL     1      10.316  16.083 -10.676  1.00  0.00     0.037 A 
ATOM     49  C   UNL     1       7.032  17.815  -4.740  1.00  0.00     0.037 A 
ATOM     50  C   UNL     1      10.819  17.261 -10.019  1.00  0.00     0.049 A 
ATOM     51  C   UNL     1       8.187  18.621  -5.265  1.00  0.00     0.074 A 
ATOM     52  C   UNL     1      11.844  18.100 -10.423  1.00  0.00     0.029 A 
ATOM     53  N   UNL     1      10.328  17.775  -8.828  1.00  0.00    -0.354 N 
ATOM     54  N   UNL     1       8.888  18.437  -6.357  1.00  0.00    -0.248 NA
ATOM     55  C   UNL     1       8.612  19.778  -4.464  1.00  0.00     0.031 C 
ATOM     56  C   UNL     1      11.990  19.107  -9.463  1.00  0.00     0.029 A 
ATOM     57  C   UNL     1      11.033  18.915  -8.479  1.00  0.00     0.049 A 
ATOM     58  H   UNL     1       9.588  17.387  -8.307  1.00  0.00     0.167 HD
ATOM     59  C   UNL     1       9.823  19.465  -6.385  1.00  0.00     0.074 A 
ATOM     60  C   UNL     1       9.594  20.274  -5.206  1.00  0.00     0.031 C 
ATOM     61  C   UNL     1      10.786  19.715  -7.306  1.00  0.00     0.037 A 
BRANCH  48  62
ATOM     62  C   UNL     1      10.971  15.662 -11.961  1.00  0.00     0.058 A 
ATOM     63  C   UNL     1      12.264  15.115 -11.961  1.00  0.00     0.135 A 
ATOM     64  C   UNL     1      10.344  15.862 -13.201  1.00  0.00     0.135 A 
ATOM     65  F   UNL     1      12.907  14.897 -10.803  1.00  0.00    -0.206 F 
ATOM     66  C   UNL     1      12.919  14.796 -13.147  1.00  0.00     0.059 A 
ATOM     67  C   UNL     1      10.971  15.530 -14.398  1.00  0.00     0.059 A 
ATOM     68  F   UNL     1       9.099  16.362 -13.254  1.00  0.00    -0.206 F 
ATOM     69  C   UNL     1      12.265  15.011 -14.361  1.00  0.00     0.060 A 
BRANCH  69  70
ATOM     70  S   UNL     1      13.114  14.566 -15.892  1.00  0.00     0.124 S 
ATOM     71  O   UNL     1      14.120  15.616 -15.993  1.00  0.00    -0.237 OA
ATOM     72  O   UNL     1      13.615  13.229 -15.588  1.00  0.00    -0.237 OA
ATOM     73  O   UNL     1      12.051  14.612 -16.892  1.00  0.00    -0.744 OA
ENDBRANCH  69  70
ENDBRANCH  48  62
BRANCH  49  74
ATOM     74  C   UNL     1       6.344  18.198  -3.480  1.00  0.00     0.058 A 
ATOM     75  C   UNL     1       6.477  17.433  -2.312  1.00  0.00     0.135 A 
ATOM     76  C   UNL     1       5.514  19.328  -3.432  1.00  0.00     0.135 A 
ATOM     77  F   UNL     1       7.252  16.337  -2.309  1.00  0.00    -0.206 F 
ATOM     78  C   UNL     1       5.793  17.760  -1.146  1.00  0.00     0.059 A 
ATOM     79  C   UNL     1       4.836  19.689  -2.272  1.00  0.00     0.059 A 
ATOM     80  F   UNL     1       5.367  20.097  -4.522  1.00  0.00    -0.206 F 
ATOM     81  C   UNL     1       4.969  18.887  -1.138  1.00  0.00     0.060 A 
BRANCH  81  82
ATOM     82  S   UNL     1       4.079  19.291   0.380  1.00  0.00     0.124 S 
ATOM     83  O   UNL     1       3.054  18.253   0.399  1.00  0.00    -0.237 OA
ATOM     84  O   UNL     1       5.124  19.171   1.391  1.00  0.00    -0.237 OA
ATOM     85  O   UNL     1       3.598  20.647   0.138  1.00  0.00    -0.744 OA
ENDBRANCH  81  82
ENDBRANCH  49  74
BRANCH  61  86
ATOM     86  C   UNL     1      11.654  20.922  -7.097  1.00  0.00     0.058 A 
ATOM     87  C   UNL     1      11.495  22.060  -7.902  1.00  0.00     0.135 A 
ATOM     88  C   UNL     1      12.695  20.920  -6.157  1.00  0.00     0.135 A 
ATOM     89  F   UNL     1      10.514  22.110  -8.818  1.00  0.00    -0.206 F 
ATOM     90  C   UNL     1      12.352  23.150  -7.796  1.00  0.00     0.059 A 
ATOM     91  C   UNL     1      13.553  22.007  -6.019  1.00  0.00     0.059 A 
ATOM     92  F   UNL     1      12.879  19.858  -5.355  1.00  0.00    -0.206 F 
ATOM     93  C   UNL     1      13.384  23.110  -6.856  1.00  0.00     0.060 A 
BRANCH  93  94
ATOM     94  S   UNL     1      14.489  24.533  -6.729  1.00  0.00     0.124 S 
ATOM     95  O   UNL     1      15.302  24.387  -7.931  1.00  0.00    -0.237 OA
ATOM     96  O   UNL     1      13.553  25.654  -6.726  1.00  0.00    -0.237 OA
ATOM     97  O   UNL     1      15.186  24.306  -5.466  1.00  0.00    -0.744 OA
ENDBRANCH  93  94
ENDBRANCH  61  86
ENDBRANCH  35  36
ENDBRANCH  27  30
ENDBRANCH  25  26
ENDBRANCH   1  25
TORSDOF 16
