REMARK SMILES O=C(NCCCNC(=O)[C@H]1SC=C[C@@H]1S(=O)(=O)NCCC1=c2ccccc2=NC1)c1ccc(-c2c3nc(c(-c4c(F)cc(S(=O)(=O)[O-])cc4F)c4ccc([nH]4)c(-c4c(F)cc(S(=O)(=O)[O-])cc4F)c4nc(c(-c5c(F)cc(S(=O)(=O)[O-])cc5F)c5ccc2[nH]5)C=C4)C=C3)cc1
REMARK SMILES IDX 6 1 5 2 4 3 3 4 1 5 2 6 30 8 31 9 95 10 32 11 94 12 33 13
REMARK SMILES IDX 34 14 35 15 88 16 36 17 93 18 87 19 89 20 37 21 92 22 86 23
REMARK SMILES IDX 85 24 38 26 72 27 51 28 71 29 52 30 55 31 70 32 90 33 53 34
REMARK SMILES IDX 54 35 69 37 91 38 56 39 39 40 40 41 49 42 41 43 42 44 48 45
REMARK SMILES IDX 50 46 43 47 44 48 45 49 46 50 47 51 73 52 74 53 83 54 75 55
REMARK SMILES IDX 76 56 82 57 84 58 77 59 78 60 79 61 80 62 81 63 57 64 58 65
REMARK SMILES IDX 67 66 59 67 60 68 66 69 68 70 61 71 62 72 63 73 64 74 65 75
REMARK SMILES IDX 7 76 8 77 9 79 10 80 11 81 14 82 12 83 13 84 15 85 16 86
REMARK SMILES IDX 17 87 18 88 19 90 20 91 21 92 22 93 29 94 23 95 27 96 28 97
REMARK SMILES IDX 24 98 26 99 25 100
REMARK H PARENT 3 7 89 25 55 36 7 78 18 89
REMARK Flexibility Score: inf
ROOT
ATOM      1  C   UNL     1       4.133  -0.190   3.709  1.00  0.00     0.117 C 
ENDROOT
BRANCH   1   2
ATOM      2  C   UNL     1       4.689   0.352   2.395  1.00  0.00     0.042 C 
BRANCH   2   3
ATOM      3  C   UNL     1       4.416  -0.548   1.205  1.00  0.00     0.118 C 
BRANCH   3   4
ATOM      4  N   UNL     1       2.996  -0.612   0.908  1.00  0.00    -0.352 N 
ATOM      5  O   UNL     1       1.088  -0.038  -0.106  1.00  0.00    -0.269 OA
ATOM      6  C   UNL     1       2.306  -0.177  -0.192  1.00  0.00     0.251 C 
ATOM      7  H   UNL     1       2.444  -1.034   1.605  1.00  0.00     0.163 HD
BRANCH   6   8
ATOM      8  C   UNL     1       3.001   0.101  -1.469  1.00  0.00     0.039 A 
ATOM      9  C   UNL     1       2.454   1.053  -2.335  1.00  0.00     0.014 A 
ATOM     10  C   UNL     1       4.119  -0.639  -1.866  1.00  0.00     0.014 A 
ATOM     11  C   UNL     1       3.019   1.248  -3.596  1.00  0.00     0.010 A 
ATOM     12  C   UNL     1       4.745  -0.367  -3.076  1.00  0.00     0.010 A 
ATOM     13  C   UNL     1       4.166   0.535  -3.976  1.00  0.00    -0.014 A 
BRANCH  13  14
ATOM     14  C   UNL     1       4.703   0.621  -5.354  1.00  0.00     0.031 A 
ATOM     15  C   UNL     1       4.677  -0.605  -6.232  1.00  0.00     0.074 A 
ATOM     16  C   UNL     1       5.217   1.779  -5.807  1.00  0.00     0.049 A 
ATOM     17  N   UNL     1       5.148  -0.767  -7.440  1.00  0.00    -0.248 NA
ATOM     18  C   UNL     1       4.063  -1.819  -5.664  1.00  0.00     0.031 C 
ATOM     19  C   UNL     1       5.301   3.023  -5.040  1.00  0.00     0.029 A 
ATOM     20  N   UNL     1       5.757   2.100  -7.025  1.00  0.00    -0.354 N 
ATOM     21  C   UNL     1       4.894  -2.094  -7.769  1.00  0.00     0.074 A 
ATOM     22  C   UNL     1       4.300  -2.715  -6.609  1.00  0.00     0.031 C 
ATOM     23  C   UNL     1       5.822   3.983  -5.821  1.00  0.00     0.029 A 
ATOM     24  C   UNL     1       6.151   3.413  -7.124  1.00  0.00     0.049 A 
ATOM     25  H   UNL     1       5.855   1.451  -7.759  1.00  0.00     0.167 HD
ATOM     26  C   UNL     1       5.101  -2.729  -8.947  1.00  0.00     0.037 A 
ATOM     27  C   UNL     1       6.713   4.077  -8.152  1.00  0.00     0.037 A 
ATOM     28  C   UNL     1       5.664  -2.091 -10.106  1.00  0.00     0.049 A 
ATOM     29  C   UNL     1       6.977   3.339  -9.436  1.00  0.00     0.074 A 
ATOM     30  C   UNL     1       5.895  -2.631 -11.358  1.00  0.00     0.029 A 
ATOM     31  N   UNL     1       6.075  -0.766 -10.157  1.00  0.00    -0.354 N 
ATOM     32  N   UNL     1       6.711   2.090  -9.739  1.00  0.00    -0.248 NA
ATOM     33  C   UNL     1       7.616   4.098 -10.519  1.00  0.00     0.031 C 
ATOM     34  C   UNL     1       6.489  -1.647 -12.153  1.00  0.00     0.029 A 
ATOM     35  C   UNL     1       6.578  -0.477 -11.414  1.00  0.00     0.049 A 
ATOM     36  H   UNL     1       6.018  -0.127  -9.411  1.00  0.00     0.167 HD
ATOM     37  C   UNL     1       7.130   1.919 -11.054  1.00  0.00     0.074 A 
ATOM     38  C   UNL     1       7.652   3.198 -11.492  1.00  0.00     0.031 C 
ATOM     39  C   UNL     1       7.089   0.806 -11.828  1.00  0.00     0.037 A 
BRANCH  26  40
ATOM     40  C   UNL     1       4.701  -4.176  -9.043  1.00  0.00     0.058 A 
ATOM     41  C   UNL     1       3.352  -4.568  -9.028  1.00  0.00     0.135 A 
ATOM     42  C   UNL     1       5.670  -5.181  -9.190  1.00  0.00     0.135 A 
ATOM     43  F   UNL     1       2.383  -3.651  -8.869  1.00  0.00    -0.206 F 
ATOM     44  C   UNL     1       2.979  -5.904  -9.129  1.00  0.00     0.059 A 
ATOM     45  C   UNL     1       5.319  -6.522  -9.325  1.00  0.00     0.059 A 
ATOM     46  F   UNL     1       6.975  -4.866  -9.206  1.00  0.00    -0.206 F 
ATOM     47  C   UNL     1       3.971  -6.874  -9.282  1.00  0.00     0.060 A 
BRANCH  47  48
ATOM     48  S   UNL     1       3.464  -8.600  -9.426  1.00  0.00     0.124 S 
ATOM     49  O   UNL     1       2.960  -8.869  -8.083  1.00  0.00    -0.237 OA
ATOM     50  O   UNL     1       2.457  -8.540 -10.480  1.00  0.00    -0.237 OA
ATOM     51  O   UNL     1       4.700  -9.290  -9.780  1.00  0.00    -0.744 OA
ENDBRANCH  47  48
ENDBRANCH  26  40
BRANCH  27  52
ATOM     52  C   UNL     1       7.026   5.524  -8.014  1.00  0.00     0.058 A 
ATOM     53  C   UNL     1       6.294   6.487  -8.724  1.00  0.00     0.135 A 
ATOM     54  C   UNL     1       8.032   5.978  -7.145  1.00  0.00     0.135 A 
ATOM     55  F   UNL     1       5.327   6.102  -9.571  1.00  0.00    -0.206 F 
ATOM     56  C   UNL     1       6.550   7.847  -8.585  1.00  0.00     0.059 A 
ATOM     57  C   UNL     1       8.288   7.335  -6.969  1.00  0.00     0.059 A 
ATOM     58  F   UNL     1       8.751   5.099  -6.430  1.00  0.00    -0.206 F 
ATOM     59  C   UNL     1       7.544   8.261  -7.698  1.00  0.00     0.060 A 
BRANCH  59  60
ATOM     60  S   UNL     1       7.822  10.032  -7.481  1.00  0.00     0.124 S 
ATOM     61  O   UNL     1       8.382  10.404  -8.775  1.00  0.00    -0.237 OA
ATOM     62  O   UNL     1       6.473  10.518  -7.205  1.00  0.00    -0.237 OA
ATOM     63  O   UNL     1       8.745  10.093  -6.352  1.00  0.00    -0.744 OA
ENDBRANCH  59  60
ENDBRANCH  27  52
BRANCH  39  64
ATOM     64  C   UNL     1       7.606   0.918 -13.236  1.00  0.00     0.058 A 
ATOM     65  C   UNL     1       8.979   1.024 -13.506  1.00  0.00     0.135 A 
ATOM     66  C   UNL     1       6.725   0.833 -14.327  1.00  0.00     0.135 A 
ATOM     67  F   UNL     1       9.862   1.114 -12.499  1.00  0.00    -0.206 F 
ATOM     68  C   UNL     1       9.460   1.059 -14.810  1.00  0.00     0.059 A 
ATOM     69  C   UNL     1       7.187   0.835 -15.639  1.00  0.00     0.059 A 
ATOM     70  F   UNL     1       5.404   0.718 -14.122  1.00  0.00    -0.206 F 
ATOM     71  C   UNL     1       8.556   0.955 -15.870  1.00  0.00     0.060 A 
BRANCH  71  72
ATOM     72  S   UNL     1       9.204   0.954 -17.554  1.00  0.00     0.124 S 
ATOM     73  O   UNL     1       9.668   2.330 -17.692  1.00  0.00    -0.237 OA
ATOM     74  O   UNL     1      10.249  -0.063 -17.482  1.00  0.00    -0.237 OA
ATOM     75  O   UNL     1       8.045   0.598 -18.366  1.00  0.00    -0.744 OA
ENDBRANCH  71  72
ENDBRANCH  39  64
ENDBRANCH  13  14
ENDBRANCH   6   8
ENDBRANCH   3   4
ENDBRANCH   2   3
ENDBRANCH   1   2
BRANCH   1  76
ATOM     76  N   UNL     1       5.047  -1.081   4.400  1.00  0.00    -0.355 N 
ATOM     77  C   UNL     1       6.023  -0.873   5.327  1.00  0.00     0.235 C 
ATOM     78  H   UNL     1       4.941  -2.027   4.148  1.00  0.00     0.163 HD
ATOM     79  O   UNL     1       6.559  -1.895   5.773  1.00  0.00    -0.274 OA
BRANCH  77  80
ATOM     80  C   UNL     1       6.442   0.490   5.885  1.00  0.00     0.163 C 
ATOM     81  S   UNL     1       6.873   1.690   4.571  1.00  0.00    -0.119 SA
ATOM     82  C   UNL     1       5.367   1.154   6.732  1.00  0.00     0.170 C 
ATOM     83  C   UNL     1       5.439   2.631   4.834  1.00  0.00     0.038 C 
ATOM     84  C   UNL     1       4.776   2.297   5.947  1.00  0.00     0.002 C 
BRANCH  82  85
ATOM     85  S   UNL     1       6.029   1.771   8.306  1.00  0.00     0.219 S 
ATOM     86  O   UNL     1       4.956   2.402   9.040  1.00  0.00    -0.212 OA
ATOM     87  O   UNL     1       6.771   0.689   8.923  1.00  0.00    -0.212 OA
BRANCH  85  88
ATOM     88  N   UNL     1       7.184   2.924   7.973  1.00  0.00    -0.214 NA
ATOM     89  H   UNL     1       7.903   2.427   7.446  1.00  0.00     0.141 HD
BRANCH  88  90
ATOM     90  C   UNL     1       7.003   4.195   7.253  1.00  0.00     0.103 C 
BRANCH  90  91
ATOM     91  C   UNL     1       5.762   5.009   7.620  1.00  0.00     0.050 C 
BRANCH  91  92
ATOM     92  C   UNL     1       6.004   5.922   8.774  1.00  0.00    -0.038 C 
ATOM     93  C   UNL     1       5.717   7.218   8.850  1.00  0.00     0.001 A 
ATOM     94  C   UNL     1       6.680   5.452  10.028  1.00  0.00     0.174 C 
ATOM     95  C   UNL     1       5.073   8.165   8.000  1.00  0.00     0.010 A 
ATOM     96  C   UNL     1       6.285   7.596  10.152  1.00  0.00     0.065 A 
ATOM     97  N   UNL     1       6.837   6.666  10.869  1.00  0.00    -0.280 NA
ATOM     98  C   UNL     1       5.006   9.445   8.401  1.00  0.00     0.001 A 
ATOM     99  C   UNL     1       6.196   9.027  10.511  1.00  0.00     0.028 A 
ATOM    100  C   UNL     1       5.590   9.874   9.661  1.00  0.00     0.002 A 
ENDBRANCH  91  92
ENDBRANCH  90  91
ENDBRANCH  88  90
ENDBRANCH  85  88
ENDBRANCH  82  85
ENDBRANCH  77  80
ENDBRANCH   1  76
TORSDOF 18
