REMARK SMILES CCC[C@@](C)(NC(=O)N1CCN(C)C(=O)C1(C)C)C(=O)NCCCNC(=O)c1ccc(-c2c3nc(c(-c4c(F)cc(S(=O)(=O)[O-])cc4F)c4ccc([nH]4)c(-c4c(F)cc(S(=O)(=O)[O-])cc4F)c4nc(c(-c5c(F)cc(S(=O)(=O)[O-])cc5F)c5ccc2[nH]5)C=C4)C=C3)cc1
REMARK SMILES IDX 23 1 22 2 21 3 19 4 20 5 4 7 5 8 3 9 2 10 1 11 6 12 7 13
REMARK SMILES IDX 8 15 9 16 10 17 16 18 11 19 14 20 17 21 18 22 12 23 15 24
REMARK SMILES IDX 13 25 24 26 25 27 26 28 27 30 28 31 29 32 93 33 30 34 92 35
REMARK SMILES IDX 31 36 32 37 33 38 86 39 34 40 91 41 85 42 87 43 35 44 90 45
REMARK SMILES IDX 84 46 83 47 36 49 70 50 49 51 69 52 50 53 53 54 68 55 88 56
REMARK SMILES IDX 51 57 52 58 67 60 89 61 54 62 37 63 38 64 47 65 39 66 40 67
REMARK SMILES IDX 46 68 48 69 41 70 42 71 43 72 44 73 45 74 71 75 72 76 81 77
REMARK SMILES IDX 73 78 74 79 80 80 82 81 75 82 76 83 77 84 78 85 79 86 55 87
REMARK SMILES IDX 56 88 65 89 57 90 58 91 64 92 66 93 59 94 60 95 61 96 62 97
REMARK SMILES IDX 63 98
REMARK H PARENT 21 6 6 14 25 29 87 48 53 59
REMARK Flexibility Score: inf
ROOT
ATOM      1  C   UNL     1      -1.560   4.934  -3.539  1.00  0.00     0.042 C 
ENDROOT
BRANCH   1   2
ATOM      2  C   UNL     1      -1.804   3.448  -3.120  1.00  0.00     0.117 C 
BRANCH   2   3
ATOM      3  N   UNL     1      -0.889   2.481  -2.406  1.00  0.00    -0.354 N 
ATOM      4  C   UNL     1      -0.424   1.935  -1.243  1.00  0.00     0.245 C 
ATOM      5  O   UNL     1      -0.689   0.712  -1.247  1.00  0.00    -0.272 OA
ATOM      6  H   UNL     1      -0.388   2.026  -3.121  1.00  0.00     0.163 HD
BRANCH   4   7
ATOM      7  C   UNL     1       0.264   2.491   0.128  1.00  0.00     0.117 C 
ATOM      8  C   UNL     1      -0.935   2.985   0.971  1.00  0.00     0.045 C 
BRANCH   7   9
ATOM      9  C   UNL     1       0.976   1.292   0.897  1.00  0.00     0.038 C 
BRANCH   9  10
ATOM     10  C   UNL     1       0.206   0.044   1.369  1.00  0.00    -0.000 C 
ATOM     11  C   UNL     1       0.639  -1.236   0.652  1.00  0.00     0.004 C 
ENDBRANCH   9  10
ENDBRANCH   7   9
BRANCH   7  12
ATOM     12  N   UNL     1       1.314   3.610   0.233  1.00  0.00    -0.324 N 
ATOM     13  C   UNL     1       2.672   3.599  -0.008  1.00  0.00     0.319 C 
ATOM     14  H   UNL     1       0.956   4.481   0.522  1.00  0.00     0.166 HD
ATOM     15  O   UNL     1       3.433   3.571   0.960  1.00  0.00    -0.249 OA
BRANCH  13  16
ATOM     16  N   UNL     1       3.129   3.824  -1.295  1.00  0.00    -0.309 N 
ATOM     17  C   UNL     1       4.534   3.699  -1.600  1.00  0.00     0.144 C 
ATOM     18  C   UNL     1       2.259   3.762  -2.457  1.00  0.00     0.118 C 
ATOM     19  C   UNL     1       4.769   2.275  -2.098  1.00  0.00     0.140 C 
ATOM     20  C   UNL     1       2.290   2.208  -2.767  1.00  0.00     0.247 C 
ATOM     21  C   UNL     1       1.141   4.756  -2.138  1.00  0.00     0.045 C 
ATOM     22  C   UNL     1       2.748   4.233  -3.857  1.00  0.00     0.045 C 
ATOM     23  N   UNL     1       3.607   1.656  -2.776  1.00  0.00    -0.342 N 
ATOM     24  O   UNL     1       1.371   1.597  -3.309  1.00  0.00    -0.272 OA
ATOM     25  C   UNL     1       3.887   0.510  -3.620  1.00  0.00     0.146 C 
ENDBRANCH  13  16
ENDBRANCH   7  12
ENDBRANCH   4   7
ENDBRANCH   2   3
ENDBRANCH   1   2
BRANCH   1  26
ATOM     26  C   UNL     1      -0.759   5.317  -4.823  1.00  0.00     0.118 C 
BRANCH  26  27
ATOM     27  N   UNL     1      -1.326   4.911  -6.099  1.00  0.00    -0.352 N 
ATOM     28  C   UNL     1      -1.024   5.392  -7.358  1.00  0.00     0.251 C 
ATOM     29  H   UNL     1      -2.012   4.206  -6.061  1.00  0.00     0.163 HD
ATOM     30  O   UNL     1      -1.655   4.983  -8.337  1.00  0.00    -0.269 OA
BRANCH  28  31
ATOM     31  C   UNL     1       0.031   6.417  -7.564  1.00  0.00     0.039 A 
ATOM     32  C   UNL     1      -0.321   7.662  -8.099  1.00  0.00     0.014 A 
ATOM     33  C   UNL     1       1.379   6.122  -7.337  1.00  0.00     0.014 A 
ATOM     34  C   UNL     1       0.666   8.625  -8.360  1.00  0.00     0.010 A 
ATOM     35  C   UNL     1       2.363   7.097  -7.578  1.00  0.00     0.010 A 
ATOM     36  C   UNL     1       2.019   8.359  -8.094  1.00  0.00    -0.014 A 
BRANCH  36  37
ATOM     37  C   UNL     1       3.068   9.378  -8.409  1.00  0.00     0.031 A 
ATOM     38  C   UNL     1       4.043   9.140  -9.538  1.00  0.00     0.074 A 
ATOM     39  C   UNL     1       3.144  10.523  -7.696  1.00  0.00     0.049 A 
ATOM     40  N   UNL     1       5.024   9.896  -9.962  1.00  0.00    -0.248 NA
ATOM     41  C   UNL     1       3.902   7.876 -10.279  1.00  0.00     0.031 C 
ATOM     42  C   UNL     1       2.280  10.871  -6.566  1.00  0.00     0.029 A 
ATOM     43  N   UNL     1       3.981  11.608  -7.814  1.00  0.00    -0.354 N 
ATOM     44  C   UNL     1       5.612   9.206 -11.018  1.00  0.00     0.074 A 
ATOM     45  C   UNL     1       4.916   7.943 -11.131  1.00  0.00     0.031 C 
ATOM     46  C   UNL     1       2.618  12.090  -6.109  1.00  0.00     0.029 A 
ATOM     47  C   UNL     1       3.737  12.605  -6.894  1.00  0.00     0.049 A 
ATOM     48  H   UNL     1       4.691  11.668  -8.494  1.00  0.00     0.167 HD
ATOM     49  C   UNL     1       6.615   9.599 -11.842  1.00  0.00     0.037 A 
ATOM     50  C   UNL     1       4.343  13.796  -6.705  1.00  0.00     0.037 A 
ATOM     51  C   UNL     1       7.292  10.866 -11.746  1.00  0.00     0.049 A 
ATOM     52  C   UNL     1       5.469  14.201  -7.626  1.00  0.00     0.074 A 
ATOM     53  C   UNL     1       8.316  11.360 -12.536  1.00  0.00     0.029 A 
ATOM     54  N   UNL     1       7.001  11.849 -10.811  1.00  0.00    -0.354 N 
ATOM     55  N   UNL     1       5.984  13.543  -8.638  1.00  0.00    -0.248 NA
ATOM     56  C   UNL     1       6.089  15.513  -7.388  1.00  0.00     0.031 C 
ATOM     57  C   UNL     1       8.662  12.630 -12.064  1.00  0.00     0.029 A 
ATOM     58  C   UNL     1       7.824  12.945 -11.006  1.00  0.00     0.049 A 
ATOM     59  H   UNL     1       6.311  11.778 -10.113  1.00  0.00     0.167 HD
ATOM     60  C   UNL     1       6.957  14.378  -9.179  1.00  0.00     0.074 A 
ATOM     61  C   UNL     1       6.955  15.591  -8.390  1.00  0.00     0.031 C 
ATOM     62  C   UNL     1       7.781  14.159 -10.233  1.00  0.00     0.037 A 
BRANCH  49  63
ATOM     63  C   UNL     1       7.027   8.660 -12.944  1.00  0.00     0.058 A 
ATOM     64  C   UNL     1       6.202   8.440 -14.059  1.00  0.00     0.135 A 
ATOM     65  C   UNL     1       8.278   8.022 -12.923  1.00  0.00     0.135 A 
ATOM     66  F   UNL     1       4.989   9.013 -14.126  1.00  0.00    -0.206 F 
ATOM     67  C   UNL     1       6.592   7.606 -15.102  1.00  0.00     0.059 A 
ATOM     68  C   UNL     1       8.701   7.204 -13.968  1.00  0.00     0.059 A 
ATOM     69  F   UNL     1       9.109   8.198 -11.883  1.00  0.00    -0.206 F 
ATOM     70  C   UNL     1       7.845   6.995 -15.049  1.00  0.00     0.060 A 
BRANCH  70  71
ATOM     71  S   UNL     1       8.344   5.935 -16.424  1.00  0.00     0.124 S 
ATOM     72  O   UNL     1       7.489   4.769 -16.218  1.00  0.00    -0.237 OA
ATOM     73  O   UNL     1       8.022   6.759 -17.584  1.00  0.00    -0.237 OA
ATOM     74  O   UNL     1       9.768   5.718 -16.187  1.00  0.00    -0.744 OA
ENDBRANCH  70  71
ENDBRANCH  49  63
BRANCH  50  75
ATOM     75  C   UNL     1       3.906  14.711  -5.612  1.00  0.00     0.058 A 
ATOM     76  C   UNL     1       3.306  15.949  -5.894  1.00  0.00     0.135 A 
ATOM     77  C   UNL     1       4.128  14.391  -4.263  1.00  0.00     0.135 A 
ATOM     78  F   UNL     1       3.076  16.307  -7.166  1.00  0.00    -0.206 F 
ATOM     79  C   UNL     1       2.982  16.853  -4.886  1.00  0.00     0.059 A 
ATOM     80  C   UNL     1       3.785  15.266  -3.235  1.00  0.00     0.059 A 
ATOM     81  F   UNL     1       4.682  13.214  -3.933  1.00  0.00    -0.206 F 
ATOM     82  C   UNL     1       3.234  16.505  -3.558  1.00  0.00     0.060 A 
BRANCH  82  83
ATOM     83  S   UNL     1       2.818  17.684  -2.254  1.00  0.00     0.124 S 
ATOM     84  O   UNL     1       3.891  18.662  -2.392  1.00  0.00    -0.237 OA
ATOM     85  O   UNL     1       1.488  18.133  -2.656  1.00  0.00    -0.237 OA
ATOM     86  O   UNL     1       2.856  16.870  -1.043  1.00  0.00    -0.744 OA
ENDBRANCH  82  83
ENDBRANCH  50  75
BRANCH  62  87
ATOM     87  C   UNL     1       8.707  15.273 -10.639  1.00  0.00     0.058 A 
ATOM     88  C   UNL     1       9.846  15.598  -9.888  1.00  0.00     0.135 A 
ATOM     89  C   UNL     1       8.485  15.975 -11.835  1.00  0.00     0.135 A 
ATOM     90  F   UNL     1      10.100  14.959  -8.735  1.00  0.00    -0.206 F 
ATOM     91  C   UNL     1      10.726  16.593 -10.300  1.00  0.00     0.059 A 
ATOM     92  C   UNL     1       9.366  16.956 -12.279  1.00  0.00     0.059 A 
ATOM     93  F   UNL     1       7.415  15.695 -12.595  1.00  0.00    -0.206 F 
ATOM     94  C   UNL     1      10.479  17.264 -11.499  1.00  0.00     0.060 A 
BRANCH  94  95
ATOM     95  S   UNL     1      11.656  18.519 -12.047  1.00  0.00     0.124 S 
ATOM     96  O   UNL     1      11.350  19.623 -11.144  1.00  0.00    -0.237 OA
ATOM     97  O   UNL     1      12.940  17.859 -11.829  1.00  0.00    -0.237 OA
ATOM     98  O   UNL     1      11.299  18.733 -13.446  1.00  0.00    -0.744 OA
ENDBRANCH  94  95
ENDBRANCH  62  87
ENDBRANCH  36  37
ENDBRANCH  28  31
ENDBRANCH  26  27
ENDBRANCH   1  26
TORSDOF 17
