REMARK SMILES CCOc1ccc(C(=O)NCC(=O)NCCCNC(=O)c2ccc(-c3c4nc(c(-c5c(F)cc(S(=O)(=O)[O-])cc5F)c5ccc([nH]5)c(-c5c(F)cc(S(=O)(=O)[O-])cc5F)c5nc(c(-c6c(F)cc(S(=O)(=O)[O-])cc6F)c6ccc3[nH]6)C=C5)C=C4)cc2)c2ccccc12
REMARK SMILES IDX 15 1 14 2 12 3 13 4 11 6 10 7 8 8 9 9 7 11 4 12 5 13 92 14
REMARK SMILES IDX 6 15 87 16 91 17 88 18 90 19 89 20 3 21 2 22 1 23 16 24
REMARK SMILES IDX 17 25 18 26 19 27 20 29 21 30 22 31 86 32 23 33 85 34 24 35
REMARK SMILES IDX 25 36 26 37 79 38 27 39 84 40 78 41 80 42 28 43 83 44 77 45
REMARK SMILES IDX 76 46 29 48 63 49 42 50 62 51 43 52 46 53 61 54 81 55 44 56
REMARK SMILES IDX 45 57 60 59 82 60 47 61 30 62 31 63 40 64 32 65 33 66 39 67
REMARK SMILES IDX 41 68 34 69 35 70 36 71 37 72 38 73 64 74 65 75 74 76 66 77
REMARK SMILES IDX 67 78 73 79 75 80 68 81 69 82 70 83 71 84 72 85 48 86 49 87
REMARK SMILES IDX 58 88 50 89 51 90 57 91 59 92 52 93 53 94 54 95 55 96 56 97
REMARK H PARENT 14 5 10 10 18 28 80 47 46 58
REMARK Flexibility Score: inf
ROOT
ATOM      1  C   UNL     1       6.143   3.369   2.335  1.00  0.00     0.117 C 
ENDROOT
BRANCH   1   2
ATOM      2  N   UNL     1       6.954   3.386   1.138  1.00  0.00    -0.355 N 
ATOM      3  C   UNL     1       7.502   2.379   0.409  1.00  0.00     0.239 C 
ATOM      4  O   UNL     1       7.960   2.690  -0.698  1.00  0.00    -0.273 OA
ATOM      5  H   UNL     1       7.144   4.287   0.790  1.00  0.00     0.163 HD
BRANCH   3   6
ATOM      6  C   UNL     1       7.441   0.893   0.805  1.00  0.00     0.216 C 
BRANCH   6   7
ATOM      7  N   UNL     1       7.451   0.508   2.208  1.00  0.00    -0.343 N 
ATOM      8  C   UNL     1       6.570   0.009   3.134  1.00  0.00     0.252 C 
ATOM      9  O   UNL     1       7.134  -0.414   4.143  1.00  0.00    -0.269 OA
ATOM     10  H   UNL     1       8.342   0.643   2.604  1.00  0.00     0.164 HD
BRANCH   8  11
ATOM     11  C   UNL     1       5.057  -0.015   3.015  1.00  0.00     0.047 A 
ATOM     12  C   UNL     1       2.245   0.018   2.710  1.00  0.00     0.127 A 
ATOM     13  C   UNL     1       3.067   0.474   1.697  1.00  0.00     0.048 A 
ATOM     14  C   UNL     1       2.789  -0.365   3.951  1.00  0.00     0.025 A 
ATOM     15  C   UNL     1       4.443   0.413   1.832  1.00  0.00     0.018 A 
ATOM     16  C   UNL     1       4.210  -0.368   4.132  1.00  0.00    -0.002 A 
ATOM     17  C   UNL     1       1.937  -0.708   5.025  1.00  0.00     0.012 A 
ATOM     18  C   UNL     1       4.661  -0.688   5.445  1.00  0.00     0.010 A 
ATOM     19  C   UNL     1       2.433  -1.021   6.287  1.00  0.00     0.001 A 
ATOM     20  C   UNL     1       3.798  -1.000   6.499  1.00  0.00     0.001 A 
BRANCH  12  21
ATOM     21  O   UNL     1       0.885   0.083   2.520  1.00  0.00    -0.493 OA
BRANCH  21  22
ATOM     22  C   UNL     1       0.414  -0.846   1.530  1.00  0.00     0.226 C 
ATOM     23  C   UNL     1       0.422  -0.264   0.121  1.00  0.00     0.049 C 
ENDBRANCH  21  22
ENDBRANCH  12  21
ENDBRANCH   8  11
ENDBRANCH   6   7
ENDBRANCH   3   6
ENDBRANCH   1   2
BRANCH   1  24
ATOM     24  C   UNL     1       6.896   3.739   3.598  1.00  0.00     0.042 C 
BRANCH  24  25
ATOM     25  C   UNL     1       7.262   5.213   3.665  1.00  0.00     0.118 C 
BRANCH  25  26
ATOM     26  N   UNL     1       6.092   6.084   3.680  1.00  0.00    -0.352 N 
ATOM     27  C   UNL     1       5.716   7.051   4.580  1.00  0.00     0.251 C 
ATOM     28  H   UNL     1       5.474   5.958   2.924  1.00  0.00     0.163 HD
ATOM     29  O   UNL     1       4.600   7.550   4.493  1.00  0.00    -0.269 OA
BRANCH  27  30
ATOM     30  C   UNL     1       6.642   7.474   5.652  1.00  0.00     0.039 A 
ATOM     31  C   UNL     1       6.127   7.725   6.927  1.00  0.00     0.014 A 
ATOM     32  C   UNL     1       8.006   7.640   5.406  1.00  0.00     0.014 A 
ATOM     33  C   UNL     1       6.991   8.079   7.965  1.00  0.00     0.010 A 
ATOM     34  C   UNL     1       8.876   7.899   6.460  1.00  0.00     0.010 A 
ATOM     35  C   UNL     1       8.378   8.132   7.749  1.00  0.00    -0.014 A 
BRANCH  35  36
ATOM     36  C   UNL     1       9.320   8.433   8.857  1.00  0.00     0.031 A 
ATOM     37  C   UNL     1      10.203   9.653   8.787  1.00  0.00     0.074 A 
ATOM     38  C   UNL     1       9.430   7.573   9.890  1.00  0.00     0.049 A 
ATOM     39  N   UNL     1      11.131  10.047   9.620  1.00  0.00    -0.248 NA
ATOM     40  C   UNL     1      10.043  10.531   7.615  1.00  0.00     0.031 C 
ATOM     41  C   UNL     1       8.673   6.327  10.039  1.00  0.00     0.029 A 
ATOM     42  N   UNL     1      10.230   7.606  11.005  1.00  0.00    -0.354 N 
ATOM     43  C   UNL     1      11.681  11.195   9.062  1.00  0.00     0.074 A 
ATOM     44  C   UNL     1      11.012  11.416   7.800  1.00  0.00     0.031 C 
ATOM     45  C   UNL     1       9.031   5.726  11.185  1.00  0.00     0.029 A 
ATOM     46  C   UNL     1      10.072   6.517  11.832  1.00  0.00     0.049 A 
ATOM     47  H   UNL     1      10.858   8.339  11.195  1.00  0.00     0.167 HD
ATOM     48  C   UNL     1      12.643  12.002   9.567  1.00  0.00     0.037 A 
ATOM     49  C   UNL     1      10.705   6.186  12.975  1.00  0.00     0.037 A 
ATOM     50  C   UNL     1      13.271  11.800  10.847  1.00  0.00     0.049 A 
ATOM     51  C   UNL     1      11.756   7.117  13.522  1.00  0.00     0.074 A 
ATOM     52  C   UNL     1      14.186  12.615  11.490  1.00  0.00     0.029 A 
ATOM     53  N   UNL     1      13.055  10.709  11.675  1.00  0.00    -0.354 N 
ATOM     54  N   UNL     1      12.192   8.251  13.028  1.00  0.00    -0.248 NA
ATOM     55  C   UNL     1      12.394   6.729  14.788  1.00  0.00     0.031 C 
ATOM     56  C   UNL     1      14.571  11.986  12.678  1.00  0.00     0.029 A 
ATOM     57  C   UNL     1      13.846  10.813  12.807  1.00  0.00     0.049 A 
ATOM     58  H   UNL     1      12.433   9.970  11.486  1.00  0.00     0.167 HD
ATOM     59  C   UNL     1      13.129   8.728  13.939  1.00  0.00     0.074 A 
ATOM     60  C   UNL     1      13.184   7.768  15.021  1.00  0.00     0.031 C 
ATOM     61  C   UNL     1      13.876   9.858  13.886  1.00  0.00     0.037 A 
BRANCH  48  62
ATOM     62  C   UNL     1      13.087  13.184   8.749  1.00  0.00     0.058 A 
ATOM     63  C   UNL     1      12.269  14.309   8.565  1.00  0.00     0.135 A 
ATOM     64  C   UNL     1      14.388  13.227   8.220  1.00  0.00     0.135 A 
ATOM     65  F   UNL     1      11.011  14.316   9.033  1.00  0.00    -0.206 F 
ATOM     66  C   UNL     1      12.723  15.434   7.883  1.00  0.00     0.059 A 
ATOM     67  C   UNL     1      14.872  14.351   7.559  1.00  0.00     0.059 A 
ATOM     68  F   UNL     1      15.210  12.175   8.362  1.00  0.00    -0.206 F 
ATOM     69  C   UNL     1      14.030  15.449   7.392  1.00  0.00     0.060 A 
BRANCH  69  70
ATOM     70  S   UNL     1      14.620  16.938   6.560  1.00  0.00     0.124 S 
ATOM     71  O   UNL     1      13.866  16.893   5.311  1.00  0.00    -0.237 OA
ATOM     72  O   UNL     1      14.234  17.990   7.495  1.00  0.00    -0.237 OA
ATOM     73  O   UNL     1      16.056  16.712   6.433  1.00  0.00    -0.744 OA
ENDBRANCH  69  70
ENDBRANCH  48  62
BRANCH  49  74
ATOM     74  C   UNL     1      10.373   4.918  13.683  1.00  0.00     0.058 A 
ATOM     75  C   UNL     1       9.766   4.930  14.948  1.00  0.00     0.135 A 
ATOM     76  C   UNL     1      10.689   3.670  13.124  1.00  0.00     0.135 A 
ATOM     77  F   UNL     1       9.445   6.097  15.528  1.00  0.00    -0.206 F 
ATOM     78  C   UNL     1       9.527   3.755  15.654  1.00  0.00     0.059 A 
ATOM     79  C   UNL     1      10.428   2.479  13.796  1.00  0.00     0.059 A 
ATOM     80  F   UNL     1      11.251   3.599  11.908  1.00  0.00    -0.206 F 
ATOM     81  C   UNL     1       9.867   2.534  15.070  1.00  0.00     0.060 A 
BRANCH  81  82
ATOM     82  S   UNL     1       9.557   1.014  15.995  1.00  0.00     0.124 S 
ATOM     83  O   UNL     1      10.596   1.076  17.016  1.00  0.00    -0.237 OA
ATOM     84  O   UNL     1       8.189   1.213  16.463  1.00  0.00    -0.237 OA
ATOM     85  O   UNL     1       9.722  -0.031  14.989  1.00  0.00    -0.744 OA
ENDBRANCH  81  82
ENDBRANCH  49  74
BRANCH  61  86
ATOM     86  C   UNL     1      14.779  10.150  15.053  1.00  0.00     0.058 A 
ATOM     87  C   UNL     1      15.937   9.398  15.304  1.00  0.00     0.135 A 
ATOM     88  C   UNL     1      14.503  11.231  15.906  1.00  0.00     0.135 A 
ATOM     89  F   UNL     1      16.246   8.351  14.522  1.00  0.00    -0.206 F 
ATOM     90  C   UNL     1      16.772   9.687  16.378  1.00  0.00     0.059 A 
ATOM     91  C   UNL     1      15.342  11.560  16.965  1.00  0.00     0.059 A 
ATOM     92  F   UNL     1      13.416  11.993  15.704  1.00  0.00    -0.206 F 
ATOM     93  C   UNL     1      16.467  10.771  17.203  1.00  0.00     0.060 A 
BRANCH  93  94
ATOM     94  S   UNL     1      17.572  11.151  18.578  1.00  0.00     0.124 S 
ATOM     95  O   UNL     1      17.267  10.068  19.508  1.00  0.00    -0.237 OA
ATOM     96  O   UNL     1      18.887  11.094  17.947  1.00  0.00    -0.237 OA
ATOM     97  O   UNL     1      17.144  12.481  19.002  1.00  0.00    -0.744 OA
ENDBRANCH  93  94
ENDBRANCH  61  86
ENDBRANCH  35  36
ENDBRANCH  27  30
ENDBRANCH  25  26
ENDBRANCH  24  25
ENDBRANCH   1  24
TORSDOF 17
