REMARK SMILES C[C@@H](C(=O)NCCCNC(=O)c1ccc(-c2c3nc(c(-c4c(F)cc(S(=O)(=O)[O-])cc4F)c4ccc([nH]4)c(-c4c(F)cc(S(=O)(=O)[O-])cc4F)c4nc(c(-c5c(F)cc(S(=O)(=O)[O-])cc5F)c5ccc2[nH]5)C=C4)C=C3)cc1)c1ccc(-c2cccc(OC(=O)Nc3ccccc3)c2)c(F)c1
REMARK SMILES IDX 6 1 5 2 3 3 4 4 2 6 1 7 78 8 79 9 100 10 80 11 98 12 81 13
REMARK SMILES IDX 99 14 82 15 83 16 97 17 84 18 86 19 85 20 87 21 88 22 89 23
REMARK SMILES IDX 90 24 91 26 92 27 96 28 93 29 95 30 94 31 7 32 8 33 9 34
REMARK SMILES IDX 10 35 11 37 12 38 13 39 77 40 14 41 76 42 15 43 16 44 17 45
REMARK SMILES IDX 70 46 18 47 75 48 69 49 71 50 19 51 74 52 68 53 67 54 20 56
REMARK SMILES IDX 54 57 33 58 53 59 34 60 37 61 52 62 72 63 35 64 36 65 51 67
REMARK SMILES IDX 73 68 38 69 21 70 22 71 31 72 23 73 24 74 30 75 32 76 25 77
REMARK SMILES IDX 26 78 27 79 28 80 29 81 55 82 56 83 65 84 57 85 58 86 64 87
REMARK SMILES IDX 66 88 59 89 60 90 61 91 62 92 63 93 39 94 40 95 49 96 41 97
REMARK SMILES IDX 42 98 48 99 50 100 43 101 44 102 45 103 46 104 47 105
REMARK H PARENT 5 5 90 25 9 36 71 55 37 66
REMARK Flexibility Score: inf
ROOT
ATOM      1  C   UNL     1       3.473  -2.036  -0.640  1.00  0.00     0.117 C 
ENDROOT
BRANCH   1   2
ATOM      2  N   UNL     1       2.399  -2.668   0.105  1.00  0.00    -0.356 N 
ATOM      3  C   UNL     1       1.103  -2.282   0.290  1.00  0.00     0.227 C 
ATOM      4  O   UNL     1       0.458  -2.904   1.137  1.00  0.00    -0.274 OA
ATOM      5  H   UNL     1       2.646  -3.511   0.549  1.00  0.00     0.163 HD
BRANCH   3   6
ATOM      6  C   UNL     1       0.509  -1.135  -0.553  1.00  0.00     0.105 C 
ATOM      7  C   UNL     1       0.998   0.195   0.036  1.00  0.00     0.023 C 
BRANCH   6   8
ATOM      8  C   UNL     1      -1.019  -1.204  -0.686  1.00  0.00    -0.033 A 
ATOM      9  C   UNL     1      -1.823  -0.053  -0.655  1.00  0.00     0.005 A 
ATOM     10  C   UNL     1      -1.669  -2.437  -0.863  1.00  0.00     0.044 A 
ATOM     11  C   UNL     1      -3.219  -0.138  -0.686  1.00  0.00     0.012 A 
ATOM     12  C   UNL     1      -3.062  -2.518  -0.880  1.00  0.00     0.131 A 
ATOM     13  C   UNL     1      -3.865  -1.378  -0.760  1.00  0.00     0.018 A 
ATOM     14  F   UNL     1      -3.627  -3.732  -0.987  1.00  0.00    -0.206 F 
BRANCH  13  15
ATOM     15  C   UNL     1      -5.322  -1.459  -0.606  1.00  0.00    -0.012 A 
ATOM     16  C   UNL     1      -6.194  -0.762  -1.458  1.00  0.00     0.009 A 
ATOM     17  C   UNL     1      -5.867  -2.176   0.474  1.00  0.00     0.056 A 
ATOM     18  C   UNL     1      -7.573  -0.773  -1.235  1.00  0.00     0.004 A 
ATOM     19  C   UNL     1      -7.238  -2.162   0.710  1.00  0.00     0.133 A 
ATOM     20  C   UNL     1      -8.095  -1.469  -0.147  1.00  0.00     0.047 A 
BRANCH  19  21
ATOM     21  O   UNL     1      -7.867  -2.792   1.810  1.00  0.00    -0.410 OA
BRANCH  21  22
ATOM     22  C   UNL     1      -7.234  -3.274   2.955  1.00  0.00     0.417 C 
ATOM     23  O   UNL     1      -6.021  -3.324   3.136  1.00  0.00    -0.224 OA
ATOM     24  N   UNL     1      -8.079  -3.616   3.980  1.00  0.00    -0.291 N 
ATOM     25  H   UNL     1      -7.628  -3.844   4.824  1.00  0.00     0.173 HD
BRANCH  24  26
ATOM     26  C   UNL     1      -9.479  -3.697   4.027  1.00  0.00     0.044 A 
ATOM     27  C   UNL     1     -10.072  -3.663   5.294  1.00  0.00     0.026 A 
ATOM     28  C   UNL     1     -10.294  -3.832   2.901  1.00  0.00     0.026 A 
ATOM     29  C   UNL     1     -11.461  -3.713   5.431  1.00  0.00     0.002 A 
ATOM     30  C   UNL     1     -11.684  -3.899   3.040  1.00  0.00     0.002 A 
ATOM     31  C   UNL     1     -12.267  -3.829   4.302  1.00  0.00     0.000 A 
ENDBRANCH  24  26
ENDBRANCH  21  22
ENDBRANCH  19  21
ENDBRANCH  13  15
ENDBRANCH   6   8
ENDBRANCH   3   6
ENDBRANCH   1   2
BRANCH   1  32
ATOM     32  C   UNL     1       4.431  -1.281   0.282  1.00  0.00     0.042 C 
BRANCH  32  33
ATOM     33  C   UNL     1       5.163  -2.160   1.290  1.00  0.00     0.118 C 
BRANCH  33  34
ATOM     34  N   UNL     1       6.108  -3.061   0.657  1.00  0.00    -0.352 N 
ATOM     35  C   UNL     1       7.452  -3.225   0.883  1.00  0.00     0.251 C 
ATOM     36  H   UNL     1       5.728  -3.643  -0.041  1.00  0.00     0.163 HD
ATOM     37  O   UNL     1       8.107  -3.905   0.097  1.00  0.00    -0.269 OA
BRANCH  35  38
ATOM     38  C   UNL     1       8.117  -2.588   2.045  1.00  0.00     0.039 A 
ATOM     39  C   UNL     1       9.412  -2.087   1.878  1.00  0.00     0.014 A 
ATOM     40  C   UNL     1       7.510  -2.533   3.304  1.00  0.00     0.014 A 
ATOM     41  C   UNL     1      10.083  -1.510   2.959  1.00  0.00     0.010 A 
ATOM     42  C   UNL     1       8.151  -1.889   4.363  1.00  0.00     0.010 A 
ATOM     43  C   UNL     1       9.453  -1.392   4.208  1.00  0.00    -0.014 A 
BRANCH  43  44
ATOM     44  C   UNL     1      10.166  -0.797   5.369  1.00  0.00     0.031 A 
ATOM     45  C   UNL     1      10.497  -1.646   6.569  1.00  0.00     0.074 A 
ATOM     46  C   UNL     1      10.488   0.511   5.360  1.00  0.00     0.049 A 
ATOM     47  N   UNL     1      11.087  -1.305   7.686  1.00  0.00    -0.248 NA
ATOM     48  C   UNL     1      10.088  -3.059   6.516  1.00  0.00     0.031 C 
ATOM     49  C   UNL     1      10.175   1.452   4.282  1.00  0.00     0.029 A 
ATOM     50  N   UNL     1      11.144   1.278   6.289  1.00  0.00    -0.354 N 
ATOM     51  C   UNL     1      11.107  -2.452   8.471  1.00  0.00     0.074 A 
ATOM     52  C   UNL     1      10.421  -3.485   7.725  1.00  0.00     0.031 C 
ATOM     53  C   UNL     1      10.657   2.664   4.602  1.00  0.00     0.029 A 
ATOM     54  C   UNL     1      11.290   2.594   5.916  1.00  0.00     0.049 A 
ATOM     55  H   UNL     1      11.480   0.920   7.143  1.00  0.00     0.167 HD
ATOM     56  C   UNL     1      11.670  -2.639   9.690  1.00  0.00     0.037 A 
ATOM     57  C   UNL     1      11.871   3.626   6.558  1.00  0.00     0.037 A 
ATOM     58  C   UNL     1      12.378  -1.618  10.416  1.00  0.00     0.049 A 
ATOM     59  C   UNL     1      12.521   3.388   7.893  1.00  0.00     0.074 A 
ATOM     60  C   UNL     1      13.020  -1.716  11.639  1.00  0.00     0.029 A 
ATOM     61  N   UNL     1      12.544  -0.310   9.983  1.00  0.00    -0.354 N 
ATOM     62  N   UNL     1      12.576   2.282   8.598  1.00  0.00    -0.248 NA
ATOM     63  C   UNL     1      13.204   4.531   8.514  1.00  0.00     0.031 C 
ATOM     64  C   UNL     1      13.551  -0.461  11.957  1.00  0.00     0.029 A 
ATOM     65  C   UNL     1      13.274   0.409  10.914  1.00  0.00     0.049 A 
ATOM     66  H   UNL     1      12.194   0.053   9.137  1.00  0.00     0.167 HD
ATOM     67  C   UNL     1      13.320   2.590   9.732  1.00  0.00     0.074 A 
ATOM     68  C   UNL     1      13.704   3.982   9.612  1.00  0.00     0.031 C 
ATOM     69  C   UNL     1      13.655   1.792  10.776  1.00  0.00     0.037 A 
BRANCH  56  70
ATOM     70  C   UNL     1      11.548  -4.006  10.305  1.00  0.00     0.058 A 
ATOM     71  C   UNL     1      12.252  -5.108   9.792  1.00  0.00     0.135 A 
ATOM     72  C   UNL     1      10.731  -4.218  11.427  1.00  0.00     0.135 A 
ATOM     73  F   UNL     1      13.036  -4.965   8.711  1.00  0.00    -0.206 F 
ATOM     74  C   UNL     1      12.123  -6.377  10.345  1.00  0.00     0.059 A 
ATOM     75  C   UNL     1      10.608  -5.475  12.015  1.00  0.00     0.059 A 
ATOM     76  F   UNL     1      10.036  -3.201  11.960  1.00  0.00    -0.206 F 
ATOM     77  C   UNL     1      11.295  -6.552  11.455  1.00  0.00     0.060 A 
BRANCH  77  78
ATOM     78  S   UNL     1      11.130  -8.207  12.157  1.00  0.00     0.124 S 
ATOM     79  O   UNL     1      10.257  -8.851  11.180  1.00  0.00    -0.237 OA
ATOM     80  O   UNL     1      12.511  -8.678  12.180  1.00  0.00    -0.237 OA
ATOM     81  O   UNL     1      10.534  -7.962  13.467  1.00  0.00    -0.744 OA
ENDBRANCH  77  78
ENDBRANCH  56  70
BRANCH  57  82
ATOM     82  C   UNL     1      11.893   4.970   5.925  1.00  0.00     0.058 A 
ATOM     83  C   UNL     1      13.079   5.499   5.394  1.00  0.00     0.135 A 
ATOM     84  C   UNL     1      10.726   5.740   5.814  1.00  0.00     0.135 A 
ATOM     85  F   UNL     1      14.222   4.801   5.480  1.00  0.00    -0.206 F 
ATOM     86  C   UNL     1      13.111   6.750   4.787  1.00  0.00     0.059 A 
ATOM     87  C   UNL     1      10.728   6.985   5.191  1.00  0.00     0.059 A 
ATOM     88  F   UNL     1       9.562   5.270   6.290  1.00  0.00    -0.206 F 
ATOM     89  C   UNL     1      11.929   7.485   4.688  1.00  0.00     0.060 A 
BRANCH  89  90
ATOM     90  S   UNL     1      11.966   9.081   3.844  1.00  0.00     0.124 S 
ATOM     91  O   UNL     1      12.601   9.928   4.847  1.00  0.00    -0.237 OA
ATOM     92  O   UNL     1      12.766   8.785   2.659  1.00  0.00    -0.237 OA
ATOM     93  O   UNL     1      10.556   9.355   3.585  1.00  0.00    -0.744 OA
ENDBRANCH  89  90
ENDBRANCH  57  82
BRANCH  69  94
ATOM     94  C   UNL     1      14.509   2.395  11.855  1.00  0.00     0.058 A 
ATOM     95  C   UNL     1      13.991   3.316  12.779  1.00  0.00     0.135 A 
ATOM     96  C   UNL     1      15.856   2.019  11.987  1.00  0.00     0.135 A 
ATOM     97  F   UNL     1      12.711   3.711  12.693  1.00  0.00    -0.206 F 
ATOM     98  C   UNL     1      14.786   3.865  13.780  1.00  0.00     0.059 A 
ATOM     99  C   UNL     1      16.663   2.537  12.995  1.00  0.00     0.059 A 
ATOM    100  F   UNL     1      16.397   1.133  11.136  1.00  0.00    -0.206 F 
ATOM    101  C   UNL     1      16.122   3.471  13.877  1.00  0.00     0.060 A 
BRANCH 101 102
ATOM    102  S   UNL     1      17.142   4.177  15.190  1.00  0.00     0.124 S 
ATOM    103  O   UNL     1      17.423   5.507  14.659  1.00  0.00    -0.237 OA
ATOM    104  O   UNL     1      16.248   4.131  16.343  1.00  0.00    -0.237 OA
ATOM    105  O   UNL     1      18.285   3.271  15.255  1.00  0.00    -0.744 OA
ENDBRANCH 101 102
ENDBRANCH  69  94
ENDBRANCH  43  44
ENDBRANCH  35  38
ENDBRANCH  33  34
ENDBRANCH  32  33
ENDBRANCH   1  32
TORSDOF 18
