REMARK SMILES CC(C)Cc1cc2c(cc1Cl)C=C(C(=O)NCCCNC(=O)c1ccc(-c3c4nc(c(-c5c(F)cc(S(=O)(=O)[O-])cc5F)c5ccc([nH]5)c(-c5c(F)cc(S(=O)(=O)[O-])cc5F)c5nc(c(-c6c(F)cc(S(=O)(=O)[O-])cc6F)c6ccc3[nH]6)C=C5)C=C4)cc1)[C@H](C(F)(F)F)O2
REMARK SMILES IDX 18 1 17 2 16 3 14 4 15 5 13 7 5 8 6 9 10 10 7 11 9 12 11 13
REMARK SMILES IDX 8 14 94 15 12 16 89 17 4 18 2 19 1 20 3 21 90 22 91 23 92 24
REMARK SMILES IDX 93 25 19 26 20 27 21 28 22 30 23 31 24 32 88 33 25 34 87 35
REMARK SMILES IDX 26 36 27 37 28 38 81 39 29 40 86 41 80 42 82 43 30 44 85 45
REMARK SMILES IDX 79 46 78 47 31 49 65 50 44 51 64 52 45 53 48 54 63 55 83 56
REMARK SMILES IDX 46 57 47 58 62 60 84 61 49 62 32 63 33 64 42 65 34 66 35 67
REMARK SMILES IDX 41 68 43 69 36 70 37 71 38 72 39 73 40 74 66 75 67 76 76 77
REMARK SMILES IDX 68 78 69 79 75 80 77 81 70 82 71 83 72 84 73 85 74 86 50 87
REMARK SMILES IDX 51 88 60 89 52 90 53 91 59 92 61 93 54 94 55 95 56 96 57 97
REMARK SMILES IDX 58 98
REMARK H PARENT 16 6 20 29 82 48 48 59
REMARK Flexibility Score: inf
ROOT
ATOM      1  C   UNL     1      -0.883  -6.755   5.178  1.00  0.00     0.042 C 
ENDROOT
BRANCH   1   2
ATOM      2  C   UNL     1      -2.279  -6.165   5.013  1.00  0.00     0.118 C 
BRANCH   2   3
ATOM      3  N   UNL     1      -2.504  -5.044   5.913  1.00  0.00    -0.352 N 
ATOM      4  C   UNL     1      -2.541  -3.694   5.826  1.00  0.00     0.251 C 
ATOM      5  O   UNL     1      -2.875  -3.110   6.862  1.00  0.00    -0.270 OA
ATOM      6  H   UNL     1      -2.676  -5.350   6.832  1.00  0.00     0.163 HD
BRANCH   4   7
ATOM      7  C   UNL     1      -2.218  -2.899   4.608  1.00  0.00     0.067 C 
ATOM      8  C   UNL     1      -1.465   0.812   1.290  1.00  0.00    -0.025 A 
ATOM      9  C   UNL     1      -1.490  -0.589   1.216  1.00  0.00     0.052 A 
ATOM     10  C   UNL     1      -1.875   1.421   2.488  1.00  0.00     0.045 A 
ATOM     11  C   UNL     1      -1.813  -1.351   2.330  1.00  0.00     0.128 A 
ATOM     12  C   UNL     1      -2.272   0.645   3.588  1.00  0.00     0.032 A 
ATOM     13  Cl  UNL     1      -1.907   3.139   2.673  1.00  0.00    -0.084 Cl
ATOM     14  C   UNL     1      -2.218  -0.749   3.518  1.00  0.00     0.019 A 
ATOM     15  O   UNL     1      -1.702  -2.705   2.192  1.00  0.00    -0.475 OA
ATOM     16  C   UNL     1      -2.579  -1.600   4.646  1.00  0.00     0.025 C 
ATOM     17  C   UNL     1      -1.441  -3.422   3.430  1.00  0.00     0.314 C 
BRANCH   8  18
ATOM     18  C   UNL     1      -0.921   1.566   0.097  1.00  0.00     0.040 C 
BRANCH  18  19
ATOM     19  C   UNL     1       0.622   1.672   0.086  1.00  0.00    -0.013 C 
ATOM     20  C   UNL     1       1.324   0.313  -0.022  1.00  0.00     0.008 C 
ATOM     21  C   UNL     1       1.067   2.551  -1.085  1.00  0.00     0.008 C 
ENDBRANCH  18  19
ENDBRANCH   8  18
BRANCH  17  22
ATOM     22  C   UNL     1       0.070  -3.549   3.696  1.00  0.00     0.429 C 
ATOM     23  F   UNL     1       0.769  -2.468   3.288  1.00  0.00    -0.167 F 
ATOM     24  F   UNL     1       0.345  -3.728   5.009  1.00  0.00    -0.167 F 
ATOM     25  F   UNL     1       0.568  -4.628   3.042  1.00  0.00    -0.167 F 
ENDBRANCH  17  22
ENDBRANCH   4   7
ENDBRANCH   2   3
ENDBRANCH   1   2
BRANCH   1  26
ATOM     26  C   UNL     1      -0.780  -7.671   6.394  1.00  0.00     0.118 C 
BRANCH  26  27
ATOM     27  N   UNL     1      -1.488  -8.931   6.187  1.00  0.00    -0.352 N 
ATOM     28  C   UNL     1      -1.001 -10.210   6.065  1.00  0.00     0.251 C 
ATOM     29  H   UNL     1      -2.467  -8.851   6.126  1.00  0.00     0.163 HD
ATOM     30  O   UNL     1      -1.744 -11.101   5.657  1.00  0.00    -0.269 OA
BRANCH  28  31
ATOM     31  C   UNL     1       0.406 -10.510   6.404  1.00  0.00     0.039 A 
ATOM     32  C   UNL     1       1.008  -9.924   7.517  1.00  0.00     0.014 A 
ATOM     33  C   UNL     1       1.134 -11.396   5.604  1.00  0.00     0.014 A 
ATOM     34  C   UNL     1       2.374 -10.067   7.719  1.00  0.00     0.010 A 
ATOM     35  C   UNL     1       2.487 -11.627   5.875  1.00  0.00     0.010 A 
ATOM     36  C   UNL     1       3.132 -10.924   6.905  1.00  0.00    -0.014 A 
BRANCH  36  37
ATOM     37  C   UNL     1       4.590 -11.066   7.159  1.00  0.00     0.031 A 
ATOM     38  C   UNL     1       5.598 -10.652   6.119  1.00  0.00     0.074 A 
ATOM     39  C   UNL     1       5.006 -11.508   8.362  1.00  0.00     0.049 A 
ATOM     40  N   UNL     1       6.905 -10.688   6.178  1.00  0.00    -0.248 NA
ATOM     41  C   UNL     1       5.072 -10.138   4.845  1.00  0.00     0.031 C 
ATOM     42  C   UNL     1       4.124 -11.921   9.457  1.00  0.00     0.029 A 
ATOM     43  N   UNL     1       6.267 -11.651   8.882  1.00  0.00    -0.354 N 
ATOM     44  C   UNL     1       7.357 -10.219   4.950  1.00  0.00     0.074 A 
ATOM     45  C   UNL     1       6.184  -9.941   4.150  1.00  0.00     0.031 C 
ATOM     46  C   UNL     1       4.865 -12.199  10.538  1.00  0.00     0.029 A 
ATOM     47  C   UNL     1       6.276 -12.063  10.194  1.00  0.00     0.049 A 
ATOM     48  H   UNL     1       7.087 -11.476   8.366  1.00  0.00     0.167 HD
ATOM     49  C   UNL     1       8.632 -10.023   4.533  1.00  0.00     0.037 A 
ATOM     50  C   UNL     1       7.302 -12.316  11.028  1.00  0.00     0.037 A 
ATOM     51  C   UNL     1       9.794 -10.288   5.343  1.00  0.00     0.049 A 
ATOM     52  C   UNL     1       8.706 -12.147  10.527  1.00  0.00     0.074 A 
ATOM     53  C   UNL     1      11.128 -10.118   5.016  1.00  0.00     0.029 A 
ATOM     54  N   UNL     1       9.761 -10.779   6.641  1.00  0.00    -0.354 N 
ATOM     55  N   UNL     1       9.114 -11.717   9.357  1.00  0.00    -0.248 NA
ATOM     56  C   UNL     1       9.788 -12.512  11.449  1.00  0.00     0.031 C 
ATOM     57  C   UNL     1      11.902 -10.548   6.099  1.00  0.00     0.029 A 
ATOM     58  C   UNL     1      11.052 -10.939   7.121  1.00  0.00     0.049 A 
ATOM     59  H   UNL     1       8.942 -10.983   7.147  1.00  0.00     0.167 HD
ATOM     60  C   UNL     1      10.502 -11.754   9.402  1.00  0.00     0.074 A 
ATOM     61  C   UNL     1      10.863 -12.230  10.723  1.00  0.00     0.031 C 
ATOM     62  C   UNL     1      11.395 -11.427   8.435  1.00  0.00     0.037 A 
BRANCH  49  63
ATOM     63  C   UNL     1       8.834  -9.514   3.130  1.00  0.00     0.058 A 
ATOM     64  C   UNL     1       8.504  -8.198   2.766  1.00  0.00     0.135 A 
ATOM     65  C   UNL     1       9.378 -10.347   2.139  1.00  0.00     0.135 A 
ATOM     66  F   UNL     1       7.968  -7.361   3.669  1.00  0.00    -0.206 F 
ATOM     67  C   UNL     1       8.668  -7.740   1.462  1.00  0.00     0.059 A 
ATOM     68  C   UNL     1       9.577  -9.901   0.835  1.00  0.00     0.059 A 
ATOM     69  F   UNL     1       9.715 -11.613   2.430  1.00  0.00    -0.206 F 
ATOM     70  C   UNL     1       9.201  -8.601   0.502  1.00  0.00     0.060 A 
BRANCH  70  71
ATOM     71  S   UNL     1       9.380  -7.999  -1.191  1.00  0.00     0.124 S 
ATOM     72  O   UNL     1       7.987  -7.935  -1.625  1.00  0.00    -0.237 OA
ATOM     73  O   UNL     1      10.041  -6.713  -0.996  1.00  0.00    -0.237 OA
ATOM     74  O   UNL     1      10.190  -9.027  -1.836  1.00  0.00    -0.744 OA
ENDBRANCH  70  71
ENDBRANCH  49  63
BRANCH  50  75
ATOM     75  C   UNL     1       7.017 -12.746  12.422  1.00  0.00     0.058 A 
ATOM     76  C   UNL     1       7.242 -11.880  13.501  1.00  0.00     0.135 A 
ATOM     77  C   UNL     1       6.438 -13.996  12.694  1.00  0.00     0.135 A 
ATOM     78  F   UNL     1       7.802 -10.678  13.291  1.00  0.00    -0.206 F 
ATOM     79  C   UNL     1       6.889 -12.230  14.800  1.00  0.00     0.059 A 
ATOM     80  C   UNL     1       6.053 -14.358  13.980  1.00  0.00     0.059 A 
ATOM     81  F   UNL     1       6.191 -14.855  11.693  1.00  0.00    -0.206 F 
ATOM     82  C   UNL     1       6.280 -13.466  15.027  1.00  0.00     0.060 A 
BRANCH  82  83
ATOM     83  S   UNL     1       5.732 -13.863  16.701  1.00  0.00     0.124 S 
ATOM     84  O   UNL     1       7.003 -14.053  17.390  1.00  0.00    -0.237 OA
ATOM     85  O   UNL     1       4.980 -12.667  17.066  1.00  0.00    -0.237 OA
ATOM     86  O   UNL     1       4.928 -15.067  16.515  1.00  0.00    -0.744 OA
ENDBRANCH  82  83
ENDBRANCH  50  75
BRANCH  62  87
ATOM     87  C   UNL     1      12.854 -11.570   8.767  1.00  0.00     0.058 A 
ATOM     88  C   UNL     1      13.466 -12.830   8.847  1.00  0.00     0.135 A 
ATOM     89  C   UNL     1      13.661 -10.435   8.941  1.00  0.00     0.135 A 
ATOM     90  F   UNL     1      12.736 -13.947   8.698  1.00  0.00    -0.206 F 
ATOM     91  C   UNL     1      14.827 -12.961   9.102  1.00  0.00     0.059 A 
ATOM     92  C   UNL     1      15.029 -10.541   9.172  1.00  0.00     0.059 A 
ATOM     93  F   UNL     1      13.126  -9.206   8.867  1.00  0.00    -0.206 F 
ATOM     94  C   UNL     1      15.602 -11.809   9.258  1.00  0.00     0.060 A 
BRANCH  94  95
ATOM     95  S   UNL     1      17.374 -11.996   9.542  1.00  0.00     0.124 S 
ATOM     96  O   UNL     1      17.401 -12.514  10.906  1.00  0.00    -0.237 OA
ATOM     97  O   UNL     1      17.759 -12.941   8.498  1.00  0.00    -0.237 OA
ATOM     98  O   UNL     1      17.891 -10.641   9.375  1.00  0.00    -0.744 OA
ENDBRANCH  94  95
ENDBRANCH  62  87
ENDBRANCH  36  37
ENDBRANCH  28  31
ENDBRANCH  26  27
ENDBRANCH   1  26
TORSDOF 16
