REMARK SMILES CC(C)Cn1c([C@@H](O)[C@@H](O)C(=O)NCCCNC(=O)c2ccc(-c3c4nc(c(-c5c(F)cc(S(=O)(=O)[O-])cc5F)c5ccc([nH]5)c(-c5c(F)cc(S(=O)(=O)[O-])cc5F)c5nc(c(-c6c(F)cc(S(=O)(=O)[O-])cc6F)c6ccc3[nH]6)C=C5)C=C4)cc2)nc2cc(Cl)ccc21
REMARK SMILES IDX 14 1 13 2 11 3 12 4 9 6 7 7 6 8 5 9 93 10 86 11 87 12 92 13
REMARK SMILES IDX 88 14 91 15 89 16 90 17 4 18 2 19 1 20 3 21 8 22 10 24 15 26
REMARK SMILES IDX 16 27 17 28 18 29 19 31 20 32 21 33 85 34 22 35 84 36 23 37
REMARK SMILES IDX 24 38 25 39 78 40 26 41 83 42 77 43 79 44 27 45 82 46 76 47
REMARK SMILES IDX 75 48 28 50 62 51 41 52 61 53 42 54 45 55 60 56 80 57 43 58
REMARK SMILES IDX 44 59 59 61 81 62 46 63 29 64 30 65 39 66 31 67 32 68 38 69
REMARK SMILES IDX 40 70 33 71 34 72 35 73 36 74 37 75 63 76 64 77 73 78 65 79
REMARK SMILES IDX 66 80 72 81 74 82 67 83 68 84 69 85 70 86 71 87 47 88 48 89
REMARK SMILES IDX 57 90 49 91 50 92 56 93 58 94 51 95 52 96 53 97 54 98 55 99
REMARK H PARENT 13 5 8 23 10 25 17 30 79 49 45 60
REMARK Flexibility Score: inf
ROOT
ATOM      1  C   UNL     1       1.626  -3.327   3.307  1.00  0.00     0.117 C 
ENDROOT
BRANCH   1   2
ATOM      2  N   UNL     1       1.524  -4.685   2.811  1.00  0.00    -0.354 N 
ATOM      3  C   UNL     1       1.014  -5.173   1.643  1.00  0.00     0.252 C 
ATOM      4  O   UNL     1       1.109  -6.394   1.464  1.00  0.00    -0.272 OA
ATOM      5  H   UNL     1       1.883  -5.371   3.419  1.00  0.00     0.163 HD
BRANCH   3   6
ATOM      6  C   UNL     1       0.400  -4.259   0.568  1.00  0.00     0.239 C 
BRANCH   6   7
ATOM      7  C   UNL     1      -0.875  -3.536   1.040  1.00  0.00     0.219 C 
BRANCH   7   8
ATOM      8  C   UNL     1      -1.425  -2.649  -0.052  1.00  0.00     0.142 A 
ATOM      9  N   UNL     1      -1.526  -1.272   0.020  1.00  0.00    -0.325 N 
ATOM     10  C   UNL     1      -2.121  -0.828  -1.142  1.00  0.00     0.068 A 
ATOM     11  N   UNL     1      -1.877  -3.089  -1.214  1.00  0.00    -0.230 NA
ATOM     12  C   UNL     1      -2.290  -1.978  -1.905  1.00  0.00     0.090 A 
ATOM     13  C   UNL     1      -2.497   0.443  -1.597  1.00  0.00     0.030 A 
ATOM     14  C   UNL     1      -2.821  -1.881  -3.199  1.00  0.00     0.051 A 
ATOM     15  C   UNL     1      -3.035   0.524  -2.885  1.00  0.00     0.023 A 
ATOM     16  C   UNL     1      -3.183  -0.617  -3.673  1.00  0.00     0.043 A 
ATOM     17  Cl  UNL     1      -3.823  -0.469  -5.267  1.00  0.00    -0.084 Cl
BRANCH   9  18
ATOM     18  C   UNL     1      -1.060  -0.407   1.094  1.00  0.00     0.127 C 
BRANCH  18  19
ATOM     19  C   UNL     1       0.462  -0.186   1.082  1.00  0.00     0.003 C 
ATOM     20  C   UNL     1       0.959   0.518  -0.180  1.00  0.00     0.009 C 
ATOM     21  C   UNL     1       0.898   0.582   2.328  1.00  0.00     0.009 C 
ENDBRANCH  18  19
ENDBRANCH   9  18
ENDBRANCH   7   8
BRANCH   7  22
ATOM     22  O   UNL     1      -1.903  -4.477   1.376  1.00  0.00    -0.382 OA
ATOM     23  H   UNL     1      -2.138  -4.994   0.590  1.00  0.00     0.211 HD
ENDBRANCH   7  22
ENDBRANCH   6   7
BRANCH   6  24
ATOM     24  O   UNL     1       1.398  -3.344   0.097  1.00  0.00    -0.380 OA
ATOM     25  H   UNL     1       1.692  -2.781   0.830  1.00  0.00     0.211 HD
ENDBRANCH   6  24
ENDBRANCH   3   6
ENDBRANCH   1   2
BRANCH   1  26
ATOM     26  C   UNL     1       0.676  -3.070   4.476  1.00  0.00     0.042 C 
BRANCH  26  27
ATOM     27  C   UNL     1       0.981  -3.922   5.707  1.00  0.00     0.118 C 
BRANCH  27  28
ATOM     28  N   UNL     1       2.310  -3.727   6.250  1.00  0.00    -0.352 N 
ATOM     29  C   UNL     1       2.883  -2.816   7.092  1.00  0.00     0.251 C 
ATOM     30  H   UNL     1       2.949  -4.409   5.939  1.00  0.00     0.163 HD
ATOM     31  O   UNL     1       4.049  -3.047   7.423  1.00  0.00    -0.269 OA
BRANCH  29  32
ATOM     32  C   UNL     1       2.237  -1.560   7.562  1.00  0.00     0.039 A 
ATOM     33  C   UNL     1       0.903  -1.205   7.359  1.00  0.00     0.014 A 
ATOM     34  C   UNL     1       3.085  -0.642   8.210  1.00  0.00     0.014 A 
ATOM     35  C   UNL     1       0.460   0.076   7.667  1.00  0.00     0.010 A 
ATOM     36  C   UNL     1       2.640   0.628   8.550  1.00  0.00     0.010 A 
ATOM     37  C   UNL     1       1.342   1.005   8.218  1.00  0.00    -0.014 A 
BRANCH  37  38
ATOM     38  C   UNL     1       0.839   2.348   8.489  1.00  0.00     0.031 A 
ATOM     39  C   UNL     1      -0.239   2.432   9.519  1.00  0.00     0.074 A 
ATOM     40  C   UNL     1       1.398   3.446   7.942  1.00  0.00     0.049 A 
ATOM     41  N   UNL     1      -1.437   2.911   9.408  1.00  0.00    -0.248 NA
ATOM     42  C   UNL     1       0.032   1.802  10.822  1.00  0.00     0.031 C 
ATOM     43  C   UNL     1       2.631   3.529   7.153  1.00  0.00     0.029 A 
ATOM     44  N   UNL     1       1.035   4.751   8.077  1.00  0.00    -0.354 N 
ATOM     45  C   UNL     1      -2.005   2.820  10.679  1.00  0.00     0.074 A 
ATOM     46  C   UNL     1      -1.116   2.005  11.467  1.00  0.00     0.031 C 
ATOM     47  C   UNL     1       3.030   4.819   7.086  1.00  0.00     0.029 A 
ATOM     48  C   UNL     1       2.022   5.658   7.709  1.00  0.00     0.049 A 
ATOM     49  H   UNL     1       0.150   5.029   8.406  1.00  0.00     0.167 HD
ATOM     50  C   UNL     1      -3.067   3.579  11.068  1.00  0.00     0.037 A 
ATOM     51  C   UNL     1       2.039   6.988   7.980  1.00  0.00     0.037 A 
ATOM     52  C   UNL     1      -3.784   4.119   9.947  1.00  0.00     0.049 A 
ATOM     53  C   UNL     1       0.644   7.390   8.300  1.00  0.00     0.074 A 
ATOM     54  C   UNL     1      -4.488   3.574   8.891  1.00  0.00     0.029 A 
ATOM     55  N   UNL     1      -3.565   5.431   9.609  1.00  0.00    -0.354 N 
ATOM     56  N   UNL     1      -0.336   7.394   7.439  1.00  0.00    -0.248 NA
ATOM     57  C   UNL     1       0.244   7.393   9.699  1.00  0.00     0.031 C 
ATOM     58  C   UNL     1      -4.228   4.437   7.787  1.00  0.00     0.029 A 
ATOM     59  C   UNL     1      -3.417   5.476   8.246  1.00  0.00     0.049 A 
ATOM     60  H   UNL     1      -3.522   6.196  10.228  1.00  0.00     0.167 HD
ATOM     61  C   UNL     1      -1.449   6.992   8.163  1.00  0.00     0.074 A 
ATOM     62  C   UNL     1      -1.050   7.098   9.563  1.00  0.00     0.031 C 
ATOM     63  C   UNL     1      -2.495   6.354   7.559  1.00  0.00     0.037 A 
BRANCH  50  64
ATOM     64  C   UNL     1      -3.266   4.079  12.479  1.00  0.00     0.058 A 
ATOM     65  C   UNL     1      -4.502   4.629  12.872  1.00  0.00     0.135 A 
ATOM     66  C   UNL     1      -2.195   4.278  13.380  1.00  0.00     0.135 A 
ATOM     67  F   UNL     1      -5.580   4.523  12.079  1.00  0.00    -0.206 F 
ATOM     68  C   UNL     1      -4.651   5.361  14.053  1.00  0.00     0.059 A 
ATOM     69  C   UNL     1      -2.334   4.954  14.586  1.00  0.00     0.059 A 
ATOM     70  F   UNL     1      -0.942   3.908  13.084  1.00  0.00    -0.206 F 
ATOM     71  C   UNL     1      -3.556   5.527  14.898  1.00  0.00     0.060 A 
BRANCH  71  72
ATOM     72  S   UNL     1      -3.715   6.559  16.367  1.00  0.00     0.124 S 
ATOM     73  O   UNL     1      -3.872   7.883  15.776  1.00  0.00    -0.237 OA
ATOM     74  O   UNL     1      -4.900   5.997  17.005  1.00  0.00    -0.237 OA
ATOM     75  O   UNL     1      -2.460   6.328  17.076  1.00  0.00    -0.744 OA
ENDBRANCH  71  72
ENDBRANCH  50  64
BRANCH  51  76
ATOM     76  C   UNL     1       3.208   7.836   8.338  1.00  0.00     0.058 A 
ATOM     77  C   UNL     1       3.094   9.237   8.393  1.00  0.00     0.135 A 
ATOM     78  C   UNL     1       4.370   7.287   8.918  1.00  0.00     0.135 A 
ATOM     79  F   UNL     1       2.013   9.846   7.880  1.00  0.00    -0.206 F 
ATOM     80  C   UNL     1       4.039  10.039   9.041  1.00  0.00     0.059 A 
ATOM     81  C   UNL     1       5.333   8.066   9.556  1.00  0.00     0.059 A 
ATOM     82  F   UNL     1       4.561   5.960   8.971  1.00  0.00    -0.206 F 
ATOM     83  C   UNL     1       5.144   9.440   9.644  1.00  0.00     0.060 A 
BRANCH  83  84
ATOM     84  S   UNL     1       6.259  10.444  10.651  1.00  0.00     0.124 S 
ATOM     85  O   UNL     1       6.885  11.299   9.648  1.00  0.00    -0.237 OA
ATOM     86  O   UNL     1       5.333  11.105  11.565  1.00  0.00    -0.237 OA
ATOM     87  O   UNL     1       7.141   9.457  11.268  1.00  0.00    -0.744 OA
ENDBRANCH  83  84
ENDBRANCH  51  76
BRANCH  63  88
ATOM     88  C   UNL     1      -2.546   6.345   6.051  1.00  0.00     0.058 A 
ATOM     89  C   UNL     1      -1.599   5.699   5.237  1.00  0.00     0.135 A 
ATOM     90  C   UNL     1      -3.683   6.868   5.416  1.00  0.00     0.135 A 
ATOM     91  F   UNL     1      -0.537   5.080   5.771  1.00  0.00    -0.206 F 
ATOM     92  C   UNL     1      -1.758   5.604   3.854  1.00  0.00     0.059 A 
ATOM     93  C   UNL     1      -3.879   6.756   4.040  1.00  0.00     0.059 A 
ATOM     94  F   UNL     1      -4.654   7.444   6.144  1.00  0.00    -0.206 F 
ATOM     95  C   UNL     1      -2.907   6.127   3.264  1.00  0.00     0.060 A 
BRANCH  95  96
ATOM     96  S   UNL     1      -3.163   5.892   1.491  1.00  0.00     0.124 S 
ATOM     97  O   UNL     1      -2.166   6.793   0.914  1.00  0.00    -0.237 OA
ATOM     98  O   UNL     1      -2.890   4.463   1.317  1.00  0.00    -0.237 OA
ATOM     99  O   UNL     1      -4.550   6.280   1.289  1.00  0.00    -0.744 OA
ENDBRANCH  95  96
ENDBRANCH  63  88
ENDBRANCH  37  38
ENDBRANCH  29  32
ENDBRANCH  27  28
ENDBRANCH  26  27
ENDBRANCH   1  26
TORSDOF 19
