REMARK SMILES CCc1cc(Nc2ccc(C(=O)NCCCNC(=O)c3ccc(-c4c5nc(c(-c6c(F)cc(S(=O)(=O)[O-])cc6F)c6ccc([nH]6)c(-c6c(F)cc(S(=O)(=O)[O-])cc6F)c6nc(c(-c7c(F)cc(S(=O)(=O)[O-])cc7F)c7ccc4[nH]7)C=C6)C=C5)cc3)cc2)nc(C(C)C)n1
REMARK SMILES IDX 15 1 14 2 13 3 11 4 12 5 10 7 7 8 8 9 87 10 9 11 86 12 6 13
REMARK SMILES IDX 5 15 3 16 4 17 93 18 89 19 88 20 2 21 1 22 90 23 91 24 92 25
REMARK SMILES IDX 16 26 17 27 18 28 19 30 20 31 21 32 85 33 22 34 84 35 23 36
REMARK SMILES IDX 24 37 25 38 78 39 26 40 83 41 77 42 79 43 27 44 82 45 76 46
REMARK SMILES IDX 75 47 28 49 62 50 41 51 61 52 42 53 45 54 60 55 80 56 43 57
REMARK SMILES IDX 44 58 59 60 81 61 46 62 29 63 30 64 39 65 31 66 32 67 38 68
REMARK SMILES IDX 40 69 33 70 34 71 35 72 36 73 37 74 63 75 64 76 73 77 65 78
REMARK SMILES IDX 66 79 72 80 74 81 67 82 68 83 69 84 70 85 71 86 47 87 48 88
REMARK SMILES IDX 57 89 49 90 50 91 56 92 58 93 51 94 52 95 53 96 54 97 55 98
REMARK H PARENT 13 6 6 14 17 29 79 48 45 59
REMARK Flexibility Score: inf
ROOT
ATOM      1  C   UNL     1       7.084  -1.286   9.283  1.00  0.00     0.042 C 
ENDROOT
BRANCH   1   2
ATOM      2  C   UNL     1       5.633  -1.546   9.684  1.00  0.00     0.118 C 
BRANCH   2   3
ATOM      3  N   UNL     1       5.069  -0.401  10.380  1.00  0.00    -0.352 N 
ATOM      4  C   UNL     1       4.211   0.590   9.978  1.00  0.00     0.251 C 
ATOM      5  O   UNL     1       3.848   1.413  10.820  1.00  0.00    -0.269 OA
ATOM      6  H   UNL     1       5.359  -0.323  11.318  1.00  0.00     0.163 HD
BRANCH   4   7
ATOM      7  C   UNL     1       3.652   0.670   8.602  1.00  0.00     0.039 A 
ATOM      8  C   UNL     1       2.373   0.731   6.092  1.00  0.00     0.040 A 
ATOM      9  C   UNL     1       1.742   1.265   7.215  1.00  0.00     0.027 A 
ATOM     10  C   UNL     1       3.691   0.280   6.212  1.00  0.00     0.027 A 
ATOM     11  C   UNL     1       2.366   1.214   8.465  1.00  0.00     0.016 A 
ATOM     12  C   UNL     1       4.334   0.268   7.453  1.00  0.00     0.016 A 
BRANCH   8  13
ATOM     13  N   UNL     1       1.732   0.762   4.843  1.00  0.00    -0.340 N 
ATOM     14  H   UNL     1       1.387   1.630   4.530  1.00  0.00     0.168 HD
BRANCH  13  15
ATOM     15  C   UNL     1       1.543  -0.354   4.005  1.00  0.00     0.134 A 
ATOM     16  C   UNL     1       0.891  -1.275   1.930  1.00  0.00     0.046 A 
ATOM     17  C   UNL     1       1.093  -0.155   2.714  1.00  0.00     0.071 A 
ATOM     18  N   UNL     1       1.052  -2.521   2.420  1.00  0.00    -0.238 NA
ATOM     19  C   UNL     1       1.453  -2.633   3.699  1.00  0.00     0.133 A 
ATOM     20  N   UNL     1       1.714  -1.590   4.502  1.00  0.00    -0.216 NA
BRANCH  16  21
ATOM     21  C   UNL     1       0.412  -1.188   0.503  1.00  0.00     0.053 C 
ATOM     22  C   UNL     1       0.938   0.001  -0.292  1.00  0.00     0.011 C 
ENDBRANCH  16  21
BRANCH  19  23
ATOM     23  C   UNL     1       1.569  -4.013   4.306  1.00  0.00     0.051 C 
ATOM     24  C   UNL     1       0.203  -4.697   4.357  1.00  0.00     0.016 C 
ATOM     25  C   UNL     1       2.586  -4.868   3.553  1.00  0.00     0.016 C 
ENDBRANCH  19  23
ENDBRANCH  13  15
ENDBRANCH   8  13
ENDBRANCH   4   7
ENDBRANCH   2   3
ENDBRANCH   1   2
BRANCH   1  26
ATOM     26  C   UNL     1       8.053  -1.316  10.463  1.00  0.00     0.118 C 
BRANCH  26  27
ATOM     27  N   UNL     1       8.222  -2.661  10.995  1.00  0.00    -0.352 N 
ATOM     28  C   UNL     1       9.365  -3.398  11.176  1.00  0.00     0.251 C 
ATOM     29  H   UNL     1       7.388  -3.110  11.265  1.00  0.00     0.163 HD
ATOM     30  O   UNL     1       9.272  -4.595  11.431  1.00  0.00    -0.269 OA
BRANCH  28  31
ATOM     31  C   UNL     1      10.699  -2.767  11.058  1.00  0.00     0.039 A 
ATOM     32  C   UNL     1      11.724  -3.477  10.425  1.00  0.00     0.014 A 
ATOM     33  C   UNL     1      10.960  -1.509  11.608  1.00  0.00     0.014 A 
ATOM     34  C   UNL     1      12.994  -2.907  10.303  1.00  0.00     0.010 A 
ATOM     35  C   UNL     1      12.208  -0.915  11.429  1.00  0.00     0.010 A 
ATOM     36  C   UNL     1      13.239  -1.610  10.780  1.00  0.00    -0.014 A 
BRANCH  36  37
ATOM     37  C   UNL     1      14.569  -0.968  10.614  1.00  0.00     0.031 A 
ATOM     38  C   UNL     1      15.403  -0.630  11.820  1.00  0.00     0.074 A 
ATOM     39  C   UNL     1      14.995  -0.633   9.380  1.00  0.00     0.049 A 
ATOM     40  N   UNL     1      16.550  -0.003  11.882  1.00  0.00    -0.248 NA
ATOM     41  C   UNL     1      14.867  -1.029  13.131  1.00  0.00     0.031 C 
ATOM     42  C   UNL     1      14.256  -0.869   8.138  1.00  0.00     0.029 A 
ATOM     43  N   UNL     1      16.146  -0.011   8.967  1.00  0.00    -0.354 N 
ATOM     44  C   UNL     1      16.863   0.084  13.233  1.00  0.00     0.074 A 
ATOM     45  C   UNL     1      15.764  -0.515  13.960  1.00  0.00     0.031 C 
ATOM     46  C   UNL     1      14.978  -0.412   7.103  1.00  0.00     0.029 A 
ATOM     47  C   UNL     1      16.213   0.180   7.607  1.00  0.00     0.049 A 
ATOM     48  H   UNL     1      16.858   0.271   9.586  1.00  0.00     0.167 HD
ATOM     49  C   UNL     1      17.974   0.598  13.814  1.00  0.00     0.037 A 
ATOM     50  C   UNL     1      17.157   0.775   6.853  1.00  0.00     0.037 A 
ATOM     51  C   UNL     1      19.076   1.168  13.083  1.00  0.00     0.049 A 
ATOM     52  C   UNL     1      18.385   1.332   7.519  1.00  0.00     0.074 A 
ATOM     53  C   UNL     1      20.272   1.663  13.574  1.00  0.00     0.029 A 
ATOM     54  N   UNL     1      19.118   1.320  11.704  1.00  0.00    -0.354 N 
ATOM     55  N   UNL     1      18.691   1.354   8.795  1.00  0.00    -0.248 NA
ATOM     56  C   UNL     1      19.398   1.939   6.646  1.00  0.00     0.031 C 
ATOM     57  C   UNL     1      21.020   2.149  12.496  1.00  0.00     0.029 A 
ATOM     58  C   UNL     1      20.310   1.917  11.329  1.00  0.00     0.049 A 
ATOM     59  H   UNL     1      18.404   1.045  11.084  1.00  0.00     0.167 HD
ATOM     60  C   UNL     1      19.943   1.954   8.875  1.00  0.00     0.074 A 
ATOM     61  C   UNL     1      20.341   2.269   7.518  1.00  0.00     0.031 C 
ATOM     62  C   UNL     1      20.694   2.218   9.972  1.00  0.00     0.037 A 
BRANCH  49  63
ATOM     63  C   UNL     1      18.056   0.564  15.316  1.00  0.00     0.058 A 
ATOM     64  C   UNL     1      18.237  -0.640  16.017  1.00  0.00     0.135 A 
ATOM     65  C   UNL     1      17.984   1.750  16.064  1.00  0.00     0.135 A 
ATOM     66  F   UNL     1      18.299  -1.806  15.353  1.00  0.00    -0.206 F 
ATOM     67  C   UNL     1      18.313  -0.670  17.405  1.00  0.00     0.059 A 
ATOM     68  C   UNL     1      18.084   1.747  17.453  1.00  0.00     0.059 A 
ATOM     69  F   UNL     1      17.812   2.929  15.446  1.00  0.00    -0.206 F 
ATOM     70  C   UNL     1      18.233   0.529  18.115  1.00  0.00     0.060 A 
BRANCH  70  71
ATOM     71  S   UNL     1      18.334   0.473  19.917  1.00  0.00     0.124 S 
ATOM     72  O   UNL     1      17.020  -0.060  20.265  1.00  0.00    -0.237 OA
ATOM     73  O   UNL     1      19.461  -0.426  20.140  1.00  0.00    -0.237 OA
ATOM     74  O   UNL     1      18.564   1.866  20.288  1.00  0.00    -0.744 OA
ENDBRANCH  70  71
ENDBRANCH  49  63
BRANCH  50  75
ATOM     75  C   UNL     1      16.986   0.852   5.378  1.00  0.00     0.058 A 
ATOM     76  C   UNL     1      17.772   0.070   4.519  1.00  0.00     0.135 A 
ATOM     77  C   UNL     1      16.021   1.692   4.799  1.00  0.00     0.135 A 
ATOM     78  F   UNL     1      18.711  -0.744   5.025  1.00  0.00    -0.206 F 
ATOM     79  C   UNL     1      17.619   0.127   3.137  1.00  0.00     0.059 A 
ATOM     80  C   UNL     1      15.834   1.748   3.421  1.00  0.00     0.059 A 
ATOM     81  F   UNL     1      15.232   2.447   5.578  1.00  0.00    -0.206 F 
ATOM     82  C   UNL     1      16.645   0.968   2.598  1.00  0.00     0.060 A 
BRANCH  82  83
ATOM     83  S   UNL     1      16.418   0.995   0.806  1.00  0.00     0.124 S 
ATOM     84  O   UNL     1      17.583   1.757   0.374  1.00  0.00    -0.237 OA
ATOM     85  O   UNL     1      16.424  -0.426   0.474  1.00  0.00    -0.237 OA
ATOM     86  O   UNL     1      15.129   1.661   0.642  1.00  0.00    -0.744 OA
ENDBRANCH  82  83
ENDBRANCH  50  75
BRANCH  62  87
ATOM     87  C   UNL     1      22.039   2.853   9.751  1.00  0.00     0.058 A 
ATOM     88  C   UNL     1      22.166   4.204   9.394  1.00  0.00     0.135 A 
ATOM     89  C   UNL     1      23.215   2.112   9.950  1.00  0.00     0.135 A 
ATOM     90  F   UNL     1      21.072   4.954   9.185  1.00  0.00    -0.206 F 
ATOM     91  C   UNL     1      23.414   4.794   9.219  1.00  0.00     0.059 A 
ATOM     92  C   UNL     1      24.473   2.688   9.806  1.00  0.00     0.059 A 
ATOM     93  F   UNL     1      23.148   0.818  10.302  1.00  0.00    -0.206 F 
ATOM     94  C   UNL     1      24.562   4.027   9.429  1.00  0.00     0.060 A 
BRANCH  94  95
ATOM     95  S   UNL     1      26.176   4.813   9.234  1.00  0.00     0.124 S 
ATOM     96  O   UNL     1      26.286   4.900   7.781  1.00  0.00    -0.237 OA
ATOM     97  O   UNL     1      25.994   6.081   9.934  1.00  0.00    -0.237 OA
ATOM     98  O   UNL     1      27.090   3.874   9.878  1.00  0.00    -0.744 OA
ENDBRANCH  94  95
ENDBRANCH  62  87
ENDBRANCH  36  37
ENDBRANCH  28  31
ENDBRANCH  26  27
ENDBRANCH   1  26
TORSDOF 17
