REMARK SMILES C[C@@H]1OCC[C@@H]1C#CC(=O)NCCCNC(=O)c1ccc(-c2c3nc(c(-c4c(F)cc(S(=O)(=O)[O-])cc4F)c4ccc([nH]4)c(-c4c(F)cc(S(=O)(=O)[O-])cc4F)c4nc(c(-c5c(F)cc(S(=O)(=O)[O-])cc5F)c5ccc2[nH]5)C=C4)C=C3)cc1
REMARK SMILES IDX 14 1 13 2 12 3 11 4 9 5 10 6 8 8 7 9 6 10 1 11 2 12 3 13
REMARK SMILES IDX 4 14 5 15 15 16 16 17 17 19 18 20 19 21 83 22 20 23 82 24
REMARK SMILES IDX 21 25 22 26 23 27 76 28 24 29 81 30 75 31 77 32 25 33 80 34
REMARK SMILES IDX 74 35 73 36 26 38 60 39 39 40 59 41 40 42 43 43 58 44 78 45
REMARK SMILES IDX 41 46 42 47 57 49 79 50 44 51 27 52 28 53 37 54 29 55 30 56
REMARK SMILES IDX 36 57 38 58 31 59 32 60 33 61 34 62 35 63 61 64 62 65 71 66
REMARK SMILES IDX 63 67 64 68 70 69 72 70 65 71 66 72 67 73 68 74 69 75 45 76
REMARK SMILES IDX 46 77 55 78 47 79 48 80 54 81 56 82 49 83 50 84 51 85 52 86
REMARK SMILES IDX 53 87
REMARK H PARENT 11 7 15 18 77 37 43 48
REMARK Flexibility Score: inf
ROOT
ATOM      1  C   UNL     1       2.484  -3.012   5.623  1.00  0.00     0.118 C 
ENDROOT
BRANCH   1   2
ATOM      2  C   UNL     1       2.512  -2.657   4.139  1.00  0.00     0.042 C 
BRANCH   2   3
ATOM      3  C   UNL     1       1.940  -3.734   3.226  1.00  0.00     0.118 C 
BRANCH   3   4
ATOM      4  N   UNL     1       0.524  -3.962   3.453  1.00  0.00    -0.345 N 
ATOM      5  C   UNL     1      -0.498  -3.771   2.563  1.00  0.00     0.295 C 
ATOM      6  O   UNL     1      -1.657  -4.032   2.859  1.00  0.00    -0.260 OA
ATOM      7  H   UNL     1       0.272  -4.290   4.346  1.00  0.00     0.164 HD
BRANCH   5   8
ATOM      8  C   UNL     1      -0.189  -3.266   1.248  1.00  0.00    -0.005 C 
ATOM      9  C   UNL     1       0.123  -2.830   0.171  1.00  0.00    -0.087 C 
BRANCH   9  10
ATOM     10  C   UNL     1       0.548  -2.269  -1.123  1.00  0.00     0.096 C 
ATOM     11  C   UNL     1       0.922   0.025   0.037  1.00  0.00     0.040 C 
ATOM     12  C   UNL     1       0.467  -0.743  -1.192  1.00  0.00     0.130 C 
ATOM     13  O   UNL     1      -0.900  -0.422  -1.511  1.00  0.00    -0.377 OA
ATOM     14  C   UNL     1      -1.507  -1.585  -2.096  1.00  0.00     0.162 C 
ATOM     15  C   UNL     1      -0.430  -2.649  -2.218  1.00  0.00     0.048 C 
ENDBRANCH   9  10
ENDBRANCH   5   8
ENDBRANCH   3   4
ENDBRANCH   2   3
ENDBRANCH   1   2
BRANCH   1  16
ATOM     16  N   UNL     1       3.283  -4.186   5.938  1.00  0.00    -0.352 N 
ATOM     17  C   UNL     1       4.336  -4.345   6.806  1.00  0.00     0.251 C 
ATOM     18  H   UNL     1       3.027  -5.001   5.449  1.00  0.00     0.163 HD
ATOM     19  O   UNL     1       4.974  -5.396   6.777  1.00  0.00    -0.269 OA
BRANCH  17  20
ATOM     20  C   UNL     1       4.722  -3.272   7.751  1.00  0.00     0.039 A 
ATOM     21  C   UNL     1       6.081  -3.064   8.004  1.00  0.00     0.014 A 
ATOM     22  C   UNL     1       3.769  -2.501   8.421  1.00  0.00     0.014 A 
ATOM     23  C   UNL     1       6.481  -2.052   8.881  1.00  0.00     0.010 A 
ATOM     24  C   UNL     1       4.171  -1.434   9.224  1.00  0.00     0.010 A 
ATOM     25  C   UNL     1       5.532  -1.202   9.473  1.00  0.00    -0.014 A 
BRANCH  25  26
ATOM     26  C   UNL     1       5.956  -0.076  10.349  1.00  0.00     0.031 A 
ATOM     27  C   UNL     1       5.540  -0.031  11.796  1.00  0.00     0.074 A 
ATOM     28  C   UNL     1       6.696   0.927   9.832  1.00  0.00     0.049 A 
ATOM     29  N   UNL     1       5.806   0.874  12.704  1.00  0.00    -0.248 NA
ATOM     30  C   UNL     1       4.697  -1.135  12.284  1.00  0.00     0.031 C 
ATOM     31  C   UNL     1       7.126   1.025   8.435  1.00  0.00     0.029 A 
ATOM     32  N   UNL     1       7.218   2.054  10.416  1.00  0.00    -0.354 N 
ATOM     33  C   UNL     1       5.164   0.453  13.864  1.00  0.00     0.074 A 
ATOM     34  C   UNL     1       4.442  -0.755  13.528  1.00  0.00     0.031 C 
ATOM     35  C   UNL     1       7.873   2.129   8.280  1.00  0.00     0.029 A 
ATOM     36  C   UNL     1       7.937   2.845   9.550  1.00  0.00     0.049 A 
ATOM     37  H   UNL     1       7.089   2.277  11.367  1.00  0.00     0.167 HD
ATOM     38  C   UNL     1       5.193   1.006  15.100  1.00  0.00     0.037 A 
ATOM     39  C   UNL     1       8.570   4.018   9.749  1.00  0.00     0.037 A 
ATOM     40  C   UNL     1       5.922   2.205  15.430  1.00  0.00     0.049 A 
ATOM     41  C   UNL     1       8.562   4.629  11.126  1.00  0.00     0.074 A 
ATOM     42  C   UNL     1       6.055   2.817  16.664  1.00  0.00     0.029 A 
ATOM     43  N   UNL     1       6.632   2.980  14.523  1.00  0.00    -0.354 N 
ATOM     44  N   UNL     1       8.011   4.175  12.227  1.00  0.00    -0.248 NA
ATOM     45  C   UNL     1       9.268   5.906  11.290  1.00  0.00     0.031 C 
ATOM     46  C   UNL     1       6.787   3.996  16.492  1.00  0.00     0.029 A 
ATOM     47  C   UNL     1       7.175   4.082  15.164  1.00  0.00     0.049 A 
ATOM     48  H   UNL     1       6.734   2.776  13.565  1.00  0.00     0.167 HD
ATOM     49  C   UNL     1       8.329   5.098  13.219  1.00  0.00     0.074 A 
ATOM     50  C   UNL     1       9.137   6.122  12.591  1.00  0.00     0.031 C 
ATOM     51  C   UNL     1       7.982   5.096  14.530  1.00  0.00     0.037 A 
BRANCH  38  52
ATOM     52  C   UNL     1       4.414   0.324  16.195  1.00  0.00     0.058 A 
ATOM     53  C   UNL     1       4.789  -0.933  16.699  1.00  0.00     0.135 A 
ATOM     54  C   UNL     1       3.306   0.957  16.784  1.00  0.00     0.135 A 
ATOM     55  F   UNL     1       5.831  -1.592  16.167  1.00  0.00    -0.206 F 
ATOM     56  C   UNL     1       4.078  -1.549  17.724  1.00  0.00     0.059 A 
ATOM     57  C   UNL     1       2.602   0.374  17.834  1.00  0.00     0.059 A 
ATOM     58  F   UNL     1       2.901   2.159  16.345  1.00  0.00    -0.206 F 
ATOM     59  C   UNL     1       2.988  -0.885  18.288  1.00  0.00     0.060 A 
BRANCH  59  60
ATOM     60  S   UNL     1       2.087  -1.696  19.627  1.00  0.00     0.124 S 
ATOM     61  O   UNL     1       1.439  -2.795  18.918  1.00  0.00    -0.237 OA
ATOM     62  O   UNL     1       3.162  -2.075  20.537  1.00  0.00    -0.237 OA
ATOM     63  O   UNL     1       1.192  -0.652  20.117  1.00  0.00    -0.744 OA
ENDBRANCH  59  60
ENDBRANCH  38  52
BRANCH  39  64
ATOM     64  C   UNL     1       9.273   4.690   8.621  1.00  0.00     0.058 A 
ATOM     65  C   UNL     1      10.670   4.826   8.613  1.00  0.00     0.135 A 
ATOM     66  C   UNL     1       8.562   5.213   7.529  1.00  0.00     0.135 A 
ATOM     67  F   UNL     1      11.396   4.351   9.637  1.00  0.00    -0.206 F 
ATOM     68  C   UNL     1      11.335   5.475   7.577  1.00  0.00     0.059 A 
ATOM     69  C   UNL     1       9.207   5.836   6.465  1.00  0.00     0.059 A 
ATOM     70  F   UNL     1       7.226   5.098   7.477  1.00  0.00    -0.206 F 
ATOM     71  C   UNL     1      10.594   5.973   6.505  1.00  0.00     0.060 A 
BRANCH  71  72
ATOM     72  S   UNL     1      11.471   6.776   5.146  1.00  0.00     0.124 S 
ATOM     73  O   UNL     1      11.921   8.012   5.775  1.00  0.00    -0.237 OA
ATOM     74  O   UNL     1      12.511   5.800   4.837  1.00  0.00    -0.237 OA
ATOM     75  O   UNL     1      10.440   6.927   4.123  1.00  0.00    -0.744 OA
ENDBRANCH  71  72
ENDBRANCH  39  64
BRANCH  51  76
ATOM     76  C   UNL     1       8.504   6.219  15.389  1.00  0.00     0.058 A 
ATOM     77  C   UNL     1       8.048   7.539  15.245  1.00  0.00     0.135 A 
ATOM     78  C   UNL     1       9.442   5.960  16.403  1.00  0.00     0.135 A 
ATOM     79  F   UNL     1       7.156   7.846  14.289  1.00  0.00    -0.206 F 
ATOM     80  C   UNL     1       8.527   8.567  16.051  1.00  0.00     0.059 A 
ATOM     81  C   UNL     1       9.906   6.965  17.245  1.00  0.00     0.059 A 
ATOM     82  F   UNL     1       9.905   4.715  16.595  1.00  0.00    -0.206 F 
ATOM     83  C   UNL     1       9.454   8.269  17.052  1.00  0.00     0.060 A 
BRANCH  83  84
ATOM     84  S   UNL     1      10.043   9.608  18.109  1.00  0.00     0.124 S 
ATOM     85  O   UNL     1      10.875  10.370  17.183  1.00  0.00    -0.237 OA
ATOM     86  O   UNL     1       8.799  10.251  18.519  1.00  0.00    -0.237 OA
ATOM     87  O   UNL     1      10.763   8.913  19.172  1.00  0.00    -0.744 OA
ENDBRANCH  83  84
ENDBRANCH  51  76
ENDBRANCH  25  26
ENDBRANCH  17  20
ENDBRANCH   1  16
TORSDOF 14
