REMARK SMILES CC1(C)C(C(=O)Nc2ccc(CC(=O)NCCCNC(=O)c3ccc(-c4c5nc(c(-c6c(F)cc(S(=O)(=O)[O-])cc6F)c6ccc([nH]6)c(-c6c(F)cc(S(=O)(=O)[O-])cc6F)c6nc(c(-c7c(F)cc(S(=O)(=O)[O-])cc7F)c7ccc4[nH]7)C=C6)C=C5)cc3)cc2)C1(C)C
REMARK SMILES IDX 17 1 16 2 15 3 13 4 14 5 12 7 11 8 8 9 9 10 89 11 10 12
REMARK SMILES IDX 88 13 7 14 5 15 6 16 4 18 1 19 2 20 3 21 90 22 91 23 92 24
REMARK SMILES IDX 18 25 19 26 20 27 21 29 22 30 23 31 87 32 24 33 86 34 25 35
REMARK SMILES IDX 26 36 27 37 80 38 28 39 85 40 79 41 81 42 29 43 84 44 78 45
REMARK SMILES IDX 77 46 30 48 64 49 43 50 63 51 44 52 47 53 62 54 82 55 45 56
REMARK SMILES IDX 46 57 61 59 83 60 48 61 31 62 32 63 41 64 33 65 34 66 40 67
REMARK SMILES IDX 42 68 35 69 36 70 37 71 38 72 39 73 65 74 66 75 75 76 67 77
REMARK SMILES IDX 68 78 74 79 76 80 69 81 70 82 71 83 72 84 73 85 49 86 50 87
REMARK SMILES IDX 59 88 51 89 52 90 58 91 60 92 53 93 54 94 55 95 56 96 57 97
REMARK H PARENT 15 6 7 17 19 28 81 47 47 58
REMARK Flexibility Score: inf
ROOT
ATOM      1  C   UNL     1      -5.595   1.103  -2.801  1.00  0.00     0.042 C 
ENDROOT
BRANCH   1   2
ATOM      2  C   UNL     1      -6.092  -0.257  -2.317  1.00  0.00     0.117 C 
BRANCH   2   3
ATOM      3  N   UNL     1      -6.490  -1.115  -3.417  1.00  0.00    -0.356 N 
ATOM      4  C   UNL     1      -5.755  -2.027  -4.118  1.00  0.00     0.224 C 
ATOM      5  O   UNL     1      -6.303  -2.625  -5.047  1.00  0.00    -0.275 OA
ATOM      6  H   UNL     1      -7.428  -1.026  -3.699  1.00  0.00     0.163 HD
BRANCH   4   7
ATOM      7  C   UNL     1      -4.335  -2.354  -3.710  1.00  0.00     0.135 C 
BRANCH   7   8
ATOM      8  C   UNL     1      -3.302  -1.307  -4.039  1.00  0.00    -0.039 A 
ATOM      9  C   UNL     1      -1.099   0.365  -4.429  1.00  0.00     0.041 A 
ATOM     10  C   UNL     1      -1.605  -0.364  -5.504  1.00  0.00     0.026 A 
ATOM     11  C   UNL     1      -1.834   0.453  -3.262  1.00  0.00     0.026 A 
ATOM     12  C   UNL     1      -2.715  -1.201  -5.307  1.00  0.00     0.006 A 
ATOM     13  C   UNL     1      -2.866  -0.441  -3.035  1.00  0.00     0.006 A 
BRANCH   9  14
ATOM     14  N   UNL     1       0.186   0.923  -4.479  1.00  0.00    -0.326 N 
ATOM     15  C   UNL     1       0.905   1.307  -3.363  1.00  0.00     0.228 C 
ATOM     16  O   UNL     1       1.221   2.485  -3.221  1.00  0.00    -0.274 OA
ATOM     17  H   UNL     1       0.601   1.050  -5.362  1.00  0.00     0.169 HD
BRANCH  15  18
ATOM     18  C   UNL     1       1.605   0.296  -2.491  1.00  0.00     0.091 C 
ATOM     19  C   UNL     1       2.098   0.010   0.025  1.00  0.00     0.012 C 
ATOM     20  C   UNL     1       1.129  -0.219  -1.124  1.00  0.00    -0.017 C 
ATOM     21  C   UNL     1      -0.278  -0.156  -0.586  1.00  0.00     0.012 C 
ATOM     22  C   UNL     1       1.477  -1.204  -2.278  1.00  0.00    -0.017 C 
ATOM     23  C   UNL     1       2.762  -2.001  -2.154  1.00  0.00     0.012 C 
ATOM     24  C   UNL     1       0.454  -2.013  -3.037  1.00  0.00     0.012 C 
ENDBRANCH  15  18
ENDBRANCH   9  14
ENDBRANCH   7   8
ENDBRANCH   4   7
ENDBRANCH   2   3
ENDBRANCH   1   2
BRANCH   1  25
ATOM     25  C   UNL     1      -6.694   2.000  -3.335  1.00  0.00     0.118 C 
BRANCH  25  26
ATOM     26  N   UNL     1      -7.608   2.431  -2.291  1.00  0.00    -0.352 N 
ATOM     27  C   UNL     1      -7.983   3.707  -1.941  1.00  0.00     0.251 C 
ATOM     28  H   UNL     1      -8.017   1.709  -1.761  1.00  0.00     0.163 HD
ATOM     29  O   UNL     1      -8.612   3.895  -0.910  1.00  0.00    -0.269 OA
BRANCH  27  30
ATOM     30  C   UNL     1      -7.599   4.843  -2.809  1.00  0.00     0.039 A 
ATOM     31  C   UNL     1      -7.117   6.016  -2.222  1.00  0.00     0.014 A 
ATOM     32  C   UNL     1      -7.708   4.744  -4.199  1.00  0.00     0.014 A 
ATOM     33  C   UNL     1      -6.686   7.068  -3.033  1.00  0.00     0.010 A 
ATOM     34  C   UNL     1      -7.199   5.755  -5.003  1.00  0.00     0.010 A 
ATOM     35  C   UNL     1      -6.693   6.932  -4.430  1.00  0.00    -0.014 A 
BRANCH  35  36
ATOM     36  C   UNL     1      -6.212   8.005  -5.336  1.00  0.00     0.031 A 
ATOM     37  C   UNL     1      -7.174   8.622  -6.314  1.00  0.00     0.074 A 
ATOM     38  C   UNL     1      -4.908   8.341  -5.356  1.00  0.00     0.049 A 
ATOM     39  N   UNL     1      -6.933   9.419  -7.322  1.00  0.00    -0.248 NA
ATOM     40  C   UNL     1      -8.594   8.264  -6.158  1.00  0.00     0.031 C 
ATOM     41  C   UNL     1      -3.877   7.796  -4.469  1.00  0.00     0.029 A 
ATOM     42  N   UNL     1      -4.218   9.201  -6.175  1.00  0.00    -0.354 N 
ATOM     43  C   UNL     1      -8.162   9.631  -7.936  1.00  0.00     0.074 A 
ATOM     44  C   UNL     1      -9.138   8.844  -7.217  1.00  0.00     0.031 C 
ATOM     45  C   UNL     1      -2.691   8.337  -4.789  1.00  0.00     0.029 A 
ATOM     46  C   UNL     1      -2.864   9.224  -5.936  1.00  0.00     0.049 A 
ATOM     47  H   UNL     1      -4.653   9.750  -6.867  1.00  0.00     0.167 HD
ATOM     48  C   UNL     1      -8.450  10.425  -8.994  1.00  0.00     0.037 A 
ATOM     49  C   UNL     1      -1.872   9.864  -6.586  1.00  0.00     0.037 A 
ATOM     50  C   UNL     1      -7.472  11.226  -9.681  1.00  0.00     0.049 A 
ATOM     51  C   UNL     1      -2.212  10.726  -7.775  1.00  0.00     0.074 A 
ATOM     52  C   UNL     1      -7.667  12.102 -10.733  1.00  0.00     0.029 A 
ATOM     53  N   UNL     1      -6.117  11.249  -9.384  1.00  0.00    -0.354 N 
ATOM     54  N   UNL     1      -3.385  10.949  -8.321  1.00  0.00    -0.248 NA
ATOM     55  C   UNL     1      -1.101  11.423  -8.437  1.00  0.00     0.031 C 
ATOM     56  C   UNL     1      -6.422  12.617 -11.106  1.00  0.00     0.029 A 
ATOM     57  C   UNL     1      -5.461  12.111 -10.245  1.00  0.00     0.049 A 
ATOM     58  H   UNL     1      -5.686  10.729  -8.668  1.00  0.00     0.167 HD
ATOM     59  C   UNL     1      -3.157  11.846  -9.359  1.00  0.00     0.074 A 
ATOM     60  C   UNL     1      -1.736  12.118  -9.372  1.00  0.00     0.031 C 
ATOM     61  C   UNL     1      -4.048  12.399 -10.218  1.00  0.00     0.037 A 
BRANCH  48  62
ATOM     62  C   UNL     1      -9.875  10.464  -9.475  1.00  0.00     0.058 A 
ATOM     63  C   UNL     1     -10.897  11.053  -8.714  1.00  0.00     0.135 A 
ATOM     64  C   UNL     1     -10.217   9.937 -10.731  1.00  0.00     0.135 A 
ATOM     65  F   UNL     1     -10.631  11.559  -7.499  1.00  0.00    -0.206 F 
ATOM     66  C   UNL     1     -12.212  11.091  -9.166  1.00  0.00     0.059 A 
ATOM     67  C   UNL     1     -11.519   9.992 -11.218  1.00  0.00     0.059 A 
ATOM     68  F   UNL     1      -9.280   9.360 -11.501  1.00  0.00    -0.206 F 
ATOM     69  C   UNL     1     -12.513  10.558 -10.421  1.00  0.00     0.060 A 
BRANCH  69  70
ATOM     70  S   UNL     1     -14.223  10.619 -10.993  1.00  0.00     0.124 S 
ATOM     71  O   UNL     1     -14.854   9.622 -10.133  1.00  0.00    -0.237 OA
ATOM     72  O   UNL     1     -14.591  12.007 -10.728  1.00  0.00    -0.237 OA
ATOM     73  O   UNL     1     -14.124  10.258 -12.404  1.00  0.00    -0.744 OA
ENDBRANCH  69  70
ENDBRANCH  48  62
BRANCH  49  74
ATOM     74  C   UNL     1      -0.465   9.726  -6.120  1.00  0.00     0.058 A 
ATOM     75  C   UNL     1       0.207  10.809  -5.534  1.00  0.00     0.135 A 
ATOM     76  C   UNL     1       0.234   8.514  -6.239  1.00  0.00     0.135 A 
ATOM     77  F   UNL     1      -0.414  11.991  -5.402  1.00  0.00    -0.206 F 
ATOM     78  C   UNL     1       1.525  10.704  -5.103  1.00  0.00     0.059 A 
ATOM     79  C   UNL     1       1.543   8.375  -5.788  1.00  0.00     0.059 A 
ATOM     80  F   UNL     1      -0.368   7.442  -6.780  1.00  0.00    -0.206 F 
ATOM     81  C   UNL     1       2.185   9.481  -5.233  1.00  0.00     0.060 A 
BRANCH  81  82
ATOM     82  S   UNL     1       3.888   9.355  -4.644  1.00  0.00     0.124 S 
ATOM     83  O   UNL     1       4.598  10.167  -5.626  1.00  0.00    -0.237 OA
ATOM     84  O   UNL     1       3.789   9.920  -3.302  1.00  0.00    -0.237 OA
ATOM     85  O   UNL     1       4.160   7.922  -4.698  1.00  0.00    -0.744 OA
ENDBRANCH  81  82
ENDBRANCH  49  74
BRANCH  61  86
ATOM     86  C   UNL     1      -3.544  13.414 -11.206  1.00  0.00     0.058 A 
ATOM     87  C   UNL     1      -2.817  13.043 -12.347  1.00  0.00     0.135 A 
ATOM     88  C   UNL     1      -3.909  14.764 -11.068  1.00  0.00     0.135 A 
ATOM     89  F   UNL     1      -2.436  11.768 -12.522  1.00  0.00    -0.206 F 
ATOM     90  C   UNL     1      -2.474  13.976 -13.321  1.00  0.00     0.059 A 
ATOM     91  C   UNL     1      -3.600  15.707 -12.041  1.00  0.00     0.059 A 
ATOM     92  F   UNL     1      -4.611  15.167  -9.997  1.00  0.00    -0.206 F 
ATOM     93  C   UNL     1      -2.884  15.303 -13.166  1.00  0.00     0.060 A 
BRANCH  93  94
ATOM     94  S   UNL     1      -2.518  16.481 -14.485  1.00  0.00     0.124 S 
ATOM     95  O   UNL     1      -1.077  16.657 -14.332  1.00  0.00    -0.237 OA
ATOM     96  O   UNL     1      -2.946  15.755 -15.677  1.00  0.00    -0.237 OA
ATOM     97  O   UNL     1      -3.331  17.643 -14.140  1.00  0.00    -0.744 OA
ENDBRANCH  93  94
ENDBRANCH  61  86
ENDBRANCH  35  36
ENDBRANCH  27  30
ENDBRANCH  25  26
ENDBRANCH   1  25
TORSDOF 16
