REMARK SMILES CC[C@](C)(NC(=O)CCOc1ccc(Cl)c(Cl)c1)C(=O)NCCCNC(=O)c1ccc(-c2c3nc(c(-c4c(F)cc(S(=O)(=O)[O-])cc4F)c4ccc([nH]4)c(-c4c(F)cc(S(=O)(=O)[O-])cc4F)c4nc(c(-c5c(F)cc(S(=O)(=O)[O-])cc5F)c5ccc2[nH]5)C=C4)C=C3)cc1
REMARK SMILES IDX 22 1 21 2 19 3 20 4 3 6 4 7 2 8 1 9 5 10 6 11 7 13 8 14 9 15
REMARK SMILES IDX 10 16 11 17 12 18 18 19 13 20 16 21 14 22 17 23 15 24 23 25
REMARK SMILES IDX 24 26 25 27 26 28 27 30 28 31 29 32 93 33 30 34 92 35 31 36
REMARK SMILES IDX 32 37 33 38 86 39 34 40 91 41 85 42 87 43 35 44 90 45 84 46
REMARK SMILES IDX 83 47 36 49 70 50 49 51 69 52 50 53 53 54 68 55 88 56 51 57
REMARK SMILES IDX 52 58 67 60 89 61 54 62 37 63 38 64 47 65 39 66 40 67 46 68
REMARK SMILES IDX 48 69 41 70 42 71 43 72 44 73 45 74 71 75 72 76 81 77 73 78
REMARK SMILES IDX 74 79 80 80 82 81 75 82 76 83 77 84 78 85 79 86 55 87 56 88
REMARK SMILES IDX 65 89 57 90 58 91 64 92 66 93 59 94 60 95 61 96 62 97 63 98
REMARK H PARENT 21 5 5 12 25 29 87 48 53 59
REMARK Flexibility Score: inf
ROOT
ATOM      1  C   UNL     1       2.485  -1.324  -5.561  1.00  0.00     0.117 C 
ENDROOT
BRANCH   1   2
ATOM      2  N   UNL     1       3.057  -1.336  -4.223  1.00  0.00    -0.354 N 
ATOM      3  C   UNL     1       2.515  -1.043  -3.008  1.00  0.00     0.245 C 
ATOM      4  O   UNL     1       3.195  -1.326  -2.017  1.00  0.00    -0.272 OA
ATOM      5  H   UNL     1       4.004  -1.604  -4.190  1.00  0.00     0.163 HD
BRANCH   3   6
ATOM      6  C   UNL     1       1.075  -0.474  -2.877  1.00  0.00     0.116 C 
ATOM      7  C   UNL     1       0.837  -0.018  -1.433  1.00  0.00     0.045 C 
BRANCH   6   8
ATOM      8  C   UNL     1       0.090  -1.653  -3.157  1.00  0.00     0.035 C 
ATOM      9  C   UNL     1      -1.379  -1.272  -3.309  1.00  0.00     0.007 C 
ENDBRANCH   6   8
BRANCH   6  10
ATOM     10  N   UNL     1       0.870   0.643  -3.827  1.00  0.00    -0.342 N 
ATOM     11  C   UNL     1       1.502   1.839  -3.984  1.00  0.00     0.224 C 
ATOM     12  H   UNL     1       0.136   0.492  -4.466  1.00  0.00     0.164 HD
ATOM     13  O   UNL     1       1.007   2.630  -4.792  1.00  0.00    -0.275 OA
BRANCH  11  14
ATOM     14  C   UNL     1       2.812   2.164  -3.300  1.00  0.00     0.141 C 
BRANCH  14  15
ATOM     15  C   UNL     1       2.783   3.468  -2.500  1.00  0.00     0.239 C 
BRANCH  15  16
ATOM     16  O   UNL     1       2.158   3.343  -1.215  1.00  0.00    -0.493 OA
BRANCH  16  17
ATOM     17  C   UNL     1       0.794   3.385  -1.142  1.00  0.00     0.120 A 
ATOM     18  C   UNL     1      -0.063   3.787  -2.161  1.00  0.00     0.048 A 
ATOM     19  C   UNL     1       0.250   2.904   0.053  1.00  0.00     0.068 A 
ATOM     20  C   UNL     1      -1.438   3.562  -2.059  1.00  0.00     0.026 A 
ATOM     21  C   UNL     1      -1.129   2.701   0.174  1.00  0.00     0.063 A 
ATOM     22  C   UNL     1      -1.972   2.996  -0.902  1.00  0.00     0.059 A 
ATOM     23  Cl  UNL     1      -1.718   2.010   1.645  1.00  0.00    -0.083 Cl
ATOM     24  Cl  UNL     1      -3.663   2.650  -0.883  1.00  0.00    -0.083 Cl
ENDBRANCH  16  17
ENDBRANCH  15  16
ENDBRANCH  14  15
ENDBRANCH  11  14
ENDBRANCH   6  10
ENDBRANCH   3   6
ENDBRANCH   1   2
BRANCH   1  25
ATOM     25  C   UNL     1       2.973  -0.181  -6.438  1.00  0.00     0.042 C 
BRANCH  25  26
ATOM     26  C   UNL     1       4.477   0.028  -6.403  1.00  0.00     0.118 C 
BRANCH  26  27
ATOM     27  N   UNL     1       5.192  -1.144  -6.890  1.00  0.00    -0.352 N 
ATOM     28  C   UNL     1       5.716  -1.372  -8.135  1.00  0.00     0.251 C 
ATOM     29  H   UNL     1       5.315  -1.870  -6.236  1.00  0.00     0.163 HD
ATOM     30  O   UNL     1       6.002  -2.522  -8.480  1.00  0.00    -0.269 OA
BRANCH  28  31
ATOM     31  C   UNL     1       5.925  -0.240  -9.056  1.00  0.00     0.039 A 
ATOM     32  C   UNL     1       5.551  -0.358 -10.396  1.00  0.00     0.014 A 
ATOM     33  C   UNL     1       6.499   0.943  -8.584  1.00  0.00     0.014 A 
ATOM     34  C   UNL     1       5.696   0.739 -11.250  1.00  0.00     0.010 A 
ATOM     35  C   UNL     1       6.558   2.057  -9.410  1.00  0.00     0.010 A 
ATOM     36  C   UNL     1       6.172   1.964 -10.755  1.00  0.00    -0.014 A 
BRANCH  36  37
ATOM     37  C   UNL     1       6.314   3.163 -11.618  1.00  0.00     0.031 A 
ATOM     38  C   UNL     1       7.678   3.769 -11.819  1.00  0.00     0.074 A 
ATOM     39  C   UNL     1       5.221   3.759 -12.132  1.00  0.00     0.049 A 
ATOM     40  N   UNL     1       8.006   4.898 -12.390  1.00  0.00    -0.248 NA
ATOM     41  C   UNL     1       8.822   3.020 -11.269  1.00  0.00     0.031 C 
ATOM     42  C   UNL     1       3.844   3.285 -11.976  1.00  0.00     0.029 A 
ATOM     43  N   UNL     1       5.093   4.908 -12.871  1.00  0.00    -0.354 N 
ATOM     44  C   UNL     1       9.384   5.007 -12.245  1.00  0.00     0.074 A 
ATOM     45  C   UNL     1       9.824   3.857 -11.487  1.00  0.00     0.031 C 
ATOM     46  C   UNL     1       3.013   4.129 -12.608  1.00  0.00     0.029 A 
ATOM     47  C   UNL     1       3.790   5.229 -13.173  1.00  0.00     0.049 A 
ATOM     48  H   UNL     1       5.862   5.452 -13.158  1.00  0.00     0.167 HD
ATOM     49  C   UNL     1      10.210   5.969 -12.720  1.00  0.00     0.037 A 
ATOM     50  C   UNL     1       3.278   6.299 -13.813  1.00  0.00     0.037 A 
ATOM     51  C   UNL     1       9.764   7.092 -13.501  1.00  0.00     0.049 A 
ATOM     52  C   UNL     1       4.215   7.359 -14.329  1.00  0.00     0.074 A 
ATOM     53  C   UNL     1      10.523   8.095 -14.076  1.00  0.00     0.029 A 
ATOM     54  N   UNL     1       8.440   7.358 -13.820  1.00  0.00    -0.354 N 
ATOM     55  N   UNL     1       5.521   7.425 -14.224  1.00  0.00    -0.248 NA
ATOM     56  C   UNL     1       3.613   8.487 -15.053  1.00  0.00     0.031 C 
ATOM     57  C   UNL     1       9.655   8.992 -14.704  1.00  0.00     0.029 A 
ATOM     58  C   UNL     1       8.360   8.518 -14.571  1.00  0.00     0.049 A 
ATOM     59  H   UNL     1       7.671   6.804 -13.552  1.00  0.00     0.167 HD
ATOM     60  C   UNL     1       5.900   8.578 -14.904  1.00  0.00     0.074 A 
ATOM     61  C   UNL     1       4.686   9.180 -15.413  1.00  0.00     0.031 C 
ATOM     62  C   UNL     1       7.142   9.086 -15.095  1.00  0.00     0.037 A 
BRANCH  49  63
ATOM     63  C   UNL     1      11.677   5.849 -12.410  1.00  0.00     0.058 A 
ATOM     64  C   UNL     1      12.473   4.841 -12.979  1.00  0.00     0.135 A 
ATOM     65  C   UNL     1      12.305   6.774 -11.559  1.00  0.00     0.135 A 
ATOM     66  F   UNL     1      11.924   3.921 -13.787  1.00  0.00    -0.206 F 
ATOM     67  C   UNL     1      13.830   4.735 -12.691  1.00  0.00     0.059 A 
ATOM     68  C   UNL     1      13.667   6.706 -11.281  1.00  0.00     0.059 A 
ATOM     69  F   UNL     1      11.592   7.757 -10.986  1.00  0.00    -0.206 F 
ATOM     70  C   UNL     1      14.418   5.673 -11.841  1.00  0.00     0.060 A 
BRANCH  70  71
ATOM     71  S   UNL     1      16.180   5.523 -11.482  1.00  0.00     0.124 S 
ATOM     72  O   UNL     1      16.200   4.355 -10.606  1.00  0.00    -0.237 OA
ATOM     73  O   UNL     1      16.753   5.328 -12.810  1.00  0.00    -0.237 OA
ATOM     74  O   UNL     1      16.507   6.793 -10.841  1.00  0.00    -0.744 OA
ENDBRANCH  70  71
ENDBRANCH  49  63
BRANCH  50  75
ATOM     75  C   UNL     1       1.809   6.410 -14.019  1.00  0.00     0.058 A 
ATOM     76  C   UNL     1       1.249   6.272 -15.298  1.00  0.00     0.135 A 
ATOM     77  C   UNL     1       0.935   6.638 -12.945  1.00  0.00     0.135 A 
ATOM     78  F   UNL     1       2.043   6.058 -16.358  1.00  0.00    -0.206 F 
ATOM     79  C   UNL     1      -0.122   6.373 -15.509  1.00  0.00     0.059 A 
ATOM     80  C   UNL     1      -0.443   6.717 -13.127  1.00  0.00     0.059 A 
ATOM     81  F   UNL     1       1.417   6.760 -11.699  1.00  0.00    -0.206 F 
ATOM     82  C   UNL     1      -0.961   6.593 -14.415  1.00  0.00     0.060 A 
BRANCH  82  83
ATOM     83  S   UNL     1      -2.743   6.677 -14.695  1.00  0.00     0.124 S 
ATOM     84  O   UNL     1      -2.876   7.969 -15.359  1.00  0.00    -0.237 OA
ATOM     85  O   UNL     1      -2.977   5.503 -15.530  1.00  0.00    -0.237 OA
ATOM     86  O   UNL     1      -3.299   6.600 -13.348  1.00  0.00    -0.744 OA
ENDBRANCH  82  83
ENDBRANCH  50  75
BRANCH  62  87
ATOM     87  C   UNL     1       7.273  10.321 -15.942  1.00  0.00     0.058 A 
ATOM     88  C   UNL     1       6.904  11.589 -15.470  1.00  0.00     0.135 A 
ATOM     89  C   UNL     1       7.869  10.240 -17.212  1.00  0.00     0.135 A 
ATOM     90  F   UNL     1       6.323  11.720 -14.267  1.00  0.00    -0.206 F 
ATOM     91  C   UNL     1       7.116  12.735 -16.230  1.00  0.00     0.059 A 
ATOM     92  C   UNL     1       8.115  11.374 -17.977  1.00  0.00     0.059 A 
ATOM     93  F   UNL     1       8.248   9.050 -17.706  1.00  0.00    -0.206 F 
ATOM     94  C   UNL     1       7.731  12.618 -17.479  1.00  0.00     0.060 A 
BRANCH  94  95
ATOM     95  S   UNL     1       8.065  14.120 -18.423  1.00  0.00     0.124 S 
ATOM     96  O   UNL     1       6.726  14.492 -18.869  1.00  0.00    -0.237 OA
ATOM     97  O   UNL     1       8.664  14.993 -17.418  1.00  0.00    -0.237 OA
ATOM     98  O   UNL     1       8.973  13.668 -19.472  1.00  0.00    -0.744 OA
ENDBRANCH  94  95
ENDBRANCH  62  87
ENDBRANCH  36  37
ENDBRANCH  28  31
ENDBRANCH  26  27
ENDBRANCH  25  26
ENDBRANCH   1  25
TORSDOF 19
