REMARK SMILES C[C@@H](C(=O)NCCCNC(=O)c1ccc(-c2c3nc(c(-c4c(F)cc(S(=O)(=O)[O-])cc4F)c4ccc([nH]4)c(-c4c(F)cc(S(=O)(=O)[O-])cc4F)c4nc(c(-c5c(F)cc(S(=O)(=O)[O-])cc5F)c5ccc2[nH]5)C=C4)C=C3)cc1)c1ccc(C[C@H]2CCCC2=O)cc1F
REMARK SMILES IDX 7 1 6 2 5 3 3 4 4 5 2 7 1 8 78 9 79 10 90 11 80 12 89 13
REMARK SMILES IDX 91 14 81 15 82 16 83 17 84 18 87 19 85 20 86 21 88 22 8 23
REMARK SMILES IDX 9 24 10 25 11 27 12 28 13 29 77 30 14 31 76 32 15 33 16 34
REMARK SMILES IDX 17 35 70 36 18 37 75 38 69 39 71 40 19 41 74 42 68 43 67 44
REMARK SMILES IDX 20 46 54 47 33 48 53 49 34 50 37 51 52 52 72 53 35 54 36 55
REMARK SMILES IDX 51 57 73 58 38 59 21 60 22 61 31 62 23 63 24 64 30 65 32 66
REMARK SMILES IDX 25 67 26 68 27 69 28 70 29 71 55 72 56 73 65 74 57 75 58 76
REMARK SMILES IDX 64 77 66 78 59 79 60 80 61 81 62 82 63 83 39 84 40 85 49 86
REMARK SMILES IDX 41 87 42 88 48 89 50 90 43 91 44 92 45 93 46 94 47 95
REMARK H PARENT 5 6 9 26 71 45 37 56
REMARK Flexibility Score: inf
ROOT
ATOM      1  C   UNL     1       4.299   0.830   0.953  1.00  0.00     0.042 C 
ENDROOT
BRANCH   1   2
ATOM      2  C   UNL     1       3.431   0.182   2.028  1.00  0.00     0.117 C 
BRANCH   2   3
ATOM      3  N   UNL     1       2.386   1.072   2.494  1.00  0.00    -0.356 N 
ATOM      4  C   UNL     1       1.046   1.086   2.244  1.00  0.00     0.227 C 
ATOM      5  O   UNL     1       0.404   1.981   2.799  1.00  0.00    -0.274 OA
ATOM      6  H   UNL     1       2.697   1.789   3.093  1.00  0.00     0.163 HD
BRANCH   4   7
ATOM      7  C   UNL     1       0.403   0.006   1.353  1.00  0.00     0.108 C 
ATOM      8  C   UNL     1       0.813   0.126  -0.116  1.00  0.00     0.023 C 
BRANCH   7   9
ATOM      9  C   UNL     1      -1.119   0.005   1.430  1.00  0.00    -0.000 A 
ATOM     10  C   UNL     1      -1.871   1.156   1.145  1.00  0.00     0.008 A 
ATOM     11  C   UNL     1      -1.810  -1.167   1.744  1.00  0.00     0.127 A 
ATOM     12  C   UNL     1      -3.264   1.139   1.219  1.00  0.00     0.004 A 
ATOM     13  C   UNL     1      -3.202  -1.194   1.818  1.00  0.00     0.043 A 
ATOM     14  F   UNL     1      -1.136  -2.301   1.983  1.00  0.00    -0.207 F 
ATOM     15  C   UNL     1      -3.944  -0.031   1.578  1.00  0.00    -0.044 A 
BRANCH  15  16
ATOM     16  C   UNL     1      -5.445  -0.024   1.732  1.00  0.00     0.047 C 
BRANCH  16  17
ATOM     17  C   UNL     1      -5.981   0.547   3.050  1.00  0.00     0.060 C 
ATOM     18  C   UNL     1      -5.452  -0.094   4.337  1.00  0.00     0.012 C 
ATOM     19  C   UNL     1      -5.615   2.000   3.251  1.00  0.00     0.136 C 
ATOM     20  C   UNL     1      -4.316   0.799   4.822  1.00  0.00     0.009 C 
ATOM     21  C   UNL     1      -4.723   2.216   4.444  1.00  0.00     0.076 C 
ATOM     22  O   UNL     1      -6.028   2.907   2.537  1.00  0.00    -0.299 OA
ENDBRANCH  16  17
ENDBRANCH  15  16
ENDBRANCH   7   9
ENDBRANCH   4   7
ENDBRANCH   2   3
ENDBRANCH   1   2
BRANCH   1  23
ATOM     23  C   UNL     1       5.011   2.103   1.399  1.00  0.00     0.118 C 
BRANCH  23  24
ATOM     24  N   UNL     1       6.006   1.864   2.434  1.00  0.00    -0.352 N 
ATOM     25  C   UNL     1       7.360   2.102   2.415  1.00  0.00     0.251 C 
ATOM     26  H   UNL     1       5.660   1.474   3.269  1.00  0.00     0.163 HD
ATOM     27  O   UNL     1       8.068   1.675   3.323  1.00  0.00    -0.269 OA
BRANCH  25  28
ATOM     28  C   UNL     1       7.963   2.849   1.290  1.00  0.00     0.039 A 
ATOM     29  C   UNL     1       9.120   2.350   0.684  1.00  0.00     0.014 A 
ATOM     30  C   UNL     1       7.386   4.035   0.832  1.00  0.00     0.014 A 
ATOM     31  C   UNL     1       9.652   2.998  -0.434  1.00  0.00     0.010 A 
ATOM     32  C   UNL     1       7.874   4.639  -0.322  1.00  0.00     0.010 A 
ATOM     33  C   UNL     1       9.009   4.125  -0.970  1.00  0.00    -0.014 A 
BRANCH  33  34
ATOM     34  C   UNL     1       9.490   4.794  -2.206  1.00  0.00     0.031 A 
ATOM     35  C   UNL     1       9.949   6.224  -2.149  1.00  0.00     0.074 A 
ATOM     36  C   UNL     1       9.399   4.160  -3.391  1.00  0.00     0.049 A 
ATOM     37  N   UNL     1      10.230   7.043  -3.129  1.00  0.00    -0.248 NA
ATOM     38  C   UNL     1      10.073   6.820  -0.810  1.00  0.00     0.031 C 
ATOM     39  C   UNL     1       8.927   2.787  -3.581  1.00  0.00     0.029 A 
ATOM     40  N   UNL     1       9.663   4.600  -4.664  1.00  0.00    -0.354 N 
ATOM     41  C   UNL     1      10.531   8.259  -2.528  1.00  0.00     0.074 A 
ATOM     42  C   UNL     1      10.359   8.080  -1.102  1.00  0.00     0.031 C 
ATOM     43  C   UNL     1       8.926   2.501  -4.893  1.00  0.00     0.029 A 
ATOM     44  C   UNL     1       9.354   3.681  -5.639  1.00  0.00     0.049 A 
ATOM     45  H   UNL     1      10.038   5.489  -4.861  1.00  0.00     0.167 HD
ATOM     46  C   UNL     1      10.927   9.416  -3.111  1.00  0.00     0.037 A 
ATOM     47  C   UNL     1       9.381   3.784  -6.983  1.00  0.00     0.037 A 
ATOM     48  C   UNL     1      11.120   9.577  -4.528  1.00  0.00     0.049 A 
ATOM     49  C   UNL     1       9.838   5.069  -7.614  1.00  0.00     0.074 A 
ATOM     50  C   UNL     1      11.582  10.687  -5.214  1.00  0.00     0.029 A 
ATOM     51  N   UNL     1      10.855   8.601  -5.479  1.00  0.00    -0.354 N 
ATOM     52  N   UNL     1      10.180   6.193  -7.031  1.00  0.00    -0.248 NA
ATOM     53  C   UNL     1       9.920   5.103  -9.081  1.00  0.00     0.031 C 
ATOM     54  C   UNL     1      11.560  10.394  -6.582  1.00  0.00     0.029 A 
ATOM     55  C   UNL     1      11.128   9.087  -6.746  1.00  0.00     0.049 A 
ATOM     56  H   UNL     1      10.523   7.696  -5.281  1.00  0.00     0.167 HD
ATOM     57  C   UNL     1      10.540   7.061  -8.056  1.00  0.00     0.074 A 
ATOM     58  C   UNL     1      10.376   6.331  -9.297  1.00  0.00     0.031 C 
ATOM     59  C   UNL     1      10.972   8.343  -7.973  1.00  0.00     0.037 A 
BRANCH  46  60
ATOM     60  C   UNL     1      11.161  10.597  -2.209  1.00  0.00     0.058 A 
ATOM     61  C   UNL     1      12.239  10.638  -1.310  1.00  0.00     0.135 A 
ATOM     62  C   UNL     1      10.287  11.696  -2.232  1.00  0.00     0.135 A 
ATOM     63  F   UNL     1      13.099   9.609  -1.238  1.00  0.00    -0.206 F 
ATOM     64  C   UNL     1      12.411  11.699  -0.427  1.00  0.00     0.059 A 
ATOM     65  C   UNL     1      10.457  12.783  -1.379  1.00  0.00     0.059 A 
ATOM     66  F   UNL     1       9.244  11.713  -3.076  1.00  0.00    -0.206 F 
ATOM     67  C   UNL     1      11.507  12.761  -0.462  1.00  0.00     0.060 A 
BRANCH  67  68
ATOM     68  S   UNL     1      11.712  14.110   0.721  1.00  0.00     0.124 S 
ATOM     69  O   UNL     1      11.202  13.499   1.945  1.00  0.00    -0.237 OA
ATOM     70  O   UNL     1      13.152  14.346   0.684  1.00  0.00    -0.237 OA
ATOM     71  O   UNL     1      10.890  15.178   0.163  1.00  0.00    -0.744 OA
ENDBRANCH  67  68
ENDBRANCH  46  60
BRANCH  47  72
ATOM     72  C   UNL     1       8.966   2.619  -7.808  1.00  0.00     0.058 A 
ATOM     73  C   UNL     1       9.915   1.832  -8.475  1.00  0.00     0.135 A 
ATOM     74  C   UNL     1       7.620   2.228  -7.884  1.00  0.00     0.135 A 
ATOM     75  F   UNL     1      11.213   2.171  -8.437  1.00  0.00    -0.206 F 
ATOM     76  C   UNL     1       9.548   0.692  -9.183  1.00  0.00     0.059 A 
ATOM     77  C   UNL     1       7.230   1.081  -8.569  1.00  0.00     0.059 A 
ATOM     78  F   UNL     1       6.676   2.939  -7.248  1.00  0.00    -0.206 F 
ATOM     79  C   UNL     1       8.203   0.318  -9.214  1.00  0.00     0.060 A 
BRANCH  79  80
ATOM     80  S   UNL     1       7.750  -1.218 -10.050  1.00  0.00     0.124 S 
ATOM     81  O   UNL     1       7.877  -0.839 -11.452  1.00  0.00    -0.237 OA
ATOM     82  O   UNL     1       8.755  -2.149  -9.546  1.00  0.00    -0.237 OA
ATOM     83  O   UNL     1       6.389  -1.466  -9.582  1.00  0.00    -0.744 OA
ENDBRANCH  79  80
ENDBRANCH  47  72
BRANCH  59  84
ATOM     84  C   UNL     1      11.339   9.044  -9.250  1.00  0.00     0.058 A 
ATOM     85  C   UNL     1      10.362   9.545 -10.122  1.00  0.00     0.135 A 
ATOM     86  C   UNL     1      12.686   9.313  -9.545  1.00  0.00     0.135 A 
ATOM     87  F   UNL     1       9.062   9.307  -9.889  1.00  0.00    -0.206 F 
ATOM     88  C   UNL     1      10.707  10.294 -11.243  1.00  0.00     0.059 A 
ATOM     89  C   UNL     1      13.052  10.078 -10.648  1.00  0.00     0.059 A 
ATOM     90  F   UNL     1      13.658   8.860  -8.738  1.00  0.00    -0.206 F 
ATOM     91  C   UNL     1      12.055  10.564 -11.492  1.00  0.00     0.060 A 
BRANCH  91  92
ATOM     92  S   UNL     1      12.484  11.609 -12.900  1.00  0.00     0.124 S 
ATOM     93  O   UNL     1      12.266  10.699 -14.020  1.00  0.00    -0.237 OA
ATOM     94  O   UNL     1      11.528  12.706 -12.779  1.00  0.00    -0.237 OA
ATOM     95  O   UNL     1      13.876  11.969 -12.645  1.00  0.00    -0.744 OA
ENDBRANCH  91  92
ENDBRANCH  59  84
ENDBRANCH  33  34
ENDBRANCH  25  28
ENDBRANCH  23  24
ENDBRANCH   1  23
TORSDOF 16
