REMARK SMILES COc1ccc([C@@H]2CC[NH2+][C@H]2C(=O)NCCCNC(=O)c2ccc(-c3c4nc(c(-c5c(F)cc(S(=O)(=O)[O-])cc5F)c5ccc([nH]5)c(-c5c(F)cc(S(=O)(=O)[O-])cc5F)c5nc(c(-c6c(F)cc(S(=O)(=O)[O-])cc6F)c6ccc3[nH]6)C=C5)C=C4)cc2)c2ccccc12
REMARK SMILES IDX 16 1 15 2 14 3 12 4 13 5 11 7 7 8 8 9 9 10 10 11 6 14 3 15
REMARK SMILES IDX 4 16 92 17 5 18 87 19 91 20 88 21 90 22 89 23 2 24 1 25
REMARK SMILES IDX 17 26 18 27 19 28 20 30 21 31 22 32 86 33 23 34 85 35 24 36
REMARK SMILES IDX 25 37 26 38 79 39 27 40 84 41 78 42 80 43 28 44 83 45 77 46
REMARK SMILES IDX 76 47 29 49 63 50 42 51 62 52 43 53 46 54 61 55 81 56 44 57
REMARK SMILES IDX 45 58 60 60 82 61 47 62 30 63 31 64 40 65 32 66 33 67 39 68
REMARK SMILES IDX 41 69 34 70 35 71 36 72 37 73 38 74 64 75 65 76 74 77 66 78
REMARK SMILES IDX 67 79 73 80 75 81 68 82 69 83 70 84 71 85 72 86 48 87 49 88
REMARK SMILES IDX 58 89 50 90 51 91 57 92 59 93 52 94 53 95 54 96 55 97 56 98
REMARK H PARENT 14 6 10 12 10 13 18 29 80 48 46 59
REMARK Flexibility Score: inf
ROOT
ATOM      1  C   UNL     1       2.173  -6.074   7.934  1.00  0.00     0.042 C 
ENDROOT
BRANCH   1   2
ATOM      2  C   UNL     1       3.207  -6.459   6.883  1.00  0.00     0.118 C 
BRANCH   2   3
ATOM      3  N   UNL     1       2.600  -6.931   5.653  1.00  0.00    -0.351 N 
ATOM      4  C   UNL     1       2.428  -6.356   4.430  1.00  0.00     0.278 C 
ATOM      5  O   UNL     1       1.831  -7.035   3.587  1.00  0.00    -0.268 OA
ATOM      6  H   UNL     1       2.243  -7.847   5.714  1.00  0.00     0.163 HD
BRANCH   4   7
ATOM      7  C   UNL     1       2.923  -4.935   4.079  1.00  0.00     0.280 C 
ATOM      8  C   UNL     1       2.136  -3.820   4.787  1.00  0.00     0.094 C 
ATOM      9  C   UNL     1       3.157  -3.168   5.723  1.00  0.00     0.076 C 
ATOM     10  C   UNL     1       4.523  -3.549   5.176  1.00  0.00     0.262 C 
ATOM     11  N   UNL     1       4.369  -4.760   4.370  1.00  0.00    -0.335 N 
ATOM     12  H   UNL     1       4.718  -5.567   4.887  1.00  0.00     0.346 HD
ATOM     13  H   UNL     1       4.898  -4.679   3.502  1.00  0.00     0.346 HD
BRANCH   8  14
ATOM     14  C   UNL     1       1.534  -2.779   3.834  1.00  0.00    -0.030 A 
ATOM     15  C   UNL     1       0.636  -0.733   2.112  1.00  0.00     0.126 A 
ATOM     16  C   UNL     1       1.963  -1.145   2.069  1.00  0.00     0.047 A 
ATOM     17  C   UNL     1      -0.271  -1.319   3.023  1.00  0.00     0.024 A 
ATOM     18  C   UNL     1       2.399  -2.160   2.908  1.00  0.00     0.009 A 
ATOM     19  C   UNL     1       0.166  -2.365   3.889  1.00  0.00    -0.011 A 
ATOM     20  C   UNL     1      -1.614  -0.883   3.083  1.00  0.00     0.012 A 
ATOM     21  C   UNL     1      -0.804  -2.926   4.759  1.00  0.00     0.009 A 
ATOM     22  C   UNL     1      -2.534  -1.456   3.956  1.00  0.00     0.001 A 
ATOM     23  C   UNL     1      -2.130  -2.482   4.791  1.00  0.00     0.001 A 
BRANCH  15  24
ATOM     24  O   UNL     1       0.184   0.297   1.317  1.00  0.00    -0.496 OA
ATOM     25  C   UNL     1       0.627   0.219  -0.035  1.00  0.00     0.278 C 
ENDBRANCH  15  24
ENDBRANCH   8  14
ENDBRANCH   4   7
ENDBRANCH   2   3
ENDBRANCH   1   2
BRANCH   1  26
ATOM     26  C   UNL     1       1.522  -7.274   8.612  1.00  0.00     0.118 C 
BRANCH  26  27
ATOM     27  N   UNL     1       2.483  -8.053   9.383  1.00  0.00    -0.352 N 
ATOM     28  C   UNL     1       2.549  -8.299  10.729  1.00  0.00     0.251 C 
ATOM     29  H   UNL     1       3.199  -8.469   8.851  1.00  0.00     0.163 HD
ATOM     30  O   UNL     1       3.585  -8.777  11.199  1.00  0.00    -0.269 OA
BRANCH  28  31
ATOM     31  C   UNL     1       1.406  -7.997  11.616  1.00  0.00     0.039 A 
ATOM     32  C   UNL     1       1.657  -7.501  12.899  1.00  0.00     0.014 A 
ATOM     33  C   UNL     1       0.092  -8.248  11.210  1.00  0.00     0.014 A 
ATOM     34  C   UNL     1       0.590  -7.206  13.750  1.00  0.00     0.010 A 
ATOM     35  C   UNL     1      -0.972  -7.878  12.028  1.00  0.00     0.010 A 
ATOM     36  C   UNL     1      -0.735  -7.363  13.310  1.00  0.00    -0.014 A 
BRANCH  36  37
ATOM     37  C   UNL     1      -1.884  -7.003  14.178  1.00  0.00     0.031 A 
ATOM     38  C   UNL     1      -2.853  -8.063  14.628  1.00  0.00     0.074 A 
ATOM     39  C   UNL     1      -2.088  -5.712  14.508  1.00  0.00     0.049 A 
ATOM     40  N   UNL     1      -3.953  -7.934  15.324  1.00  0.00    -0.248 NA
ATOM     41  C   UNL     1      -2.562  -9.447  14.219  1.00  0.00     0.031 C 
ATOM     42  C   UNL     1      -1.243  -4.590  14.093  1.00  0.00     0.029 A 
ATOM     43  N   UNL     1      -3.073  -5.124  15.260  1.00  0.00    -0.354 N 
ATOM     44  C   UNL     1      -4.491  -9.213  15.424  1.00  0.00     0.074 A 
ATOM     45  C   UNL     1      -3.625 -10.095  14.672  1.00  0.00     0.031 C 
ATOM     46  C   UNL     1      -1.732  -3.454  14.616  1.00  0.00     0.029 A 
ATOM     47  C   UNL     1      -2.943  -3.760  15.370  1.00  0.00     0.049 A 
ATOM     48  H   UNL     1      -3.804  -5.632  15.681  1.00  0.00     0.167 HD
ATOM     49  C   UNL     1      -5.591  -9.618  16.102  1.00  0.00     0.037 A 
ATOM     50  C   UNL     1      -3.716  -2.857  16.004  1.00  0.00     0.037 A 
ATOM     51  C   UNL     1      -6.433  -8.738  16.870  1.00  0.00     0.049 A 
ATOM     52  C   UNL     1      -4.931  -3.332  16.752  1.00  0.00     0.074 A 
ATOM     53  C   UNL     1      -7.542  -9.056  17.634  1.00  0.00     0.029 A 
ATOM     54  N   UNL     1      -6.256  -7.366  16.975  1.00  0.00    -0.354 N 
ATOM     55  N   UNL     1      -5.396  -4.552  16.879  1.00  0.00    -0.248 NA
ATOM     56  C   UNL     1      -5.724  -2.310  17.448  1.00  0.00     0.031 C 
ATOM     57  C   UNL     1      -8.058  -7.872  18.170  1.00  0.00     0.029 A 
ATOM     58  C   UNL     1      -7.244  -6.821  17.778  1.00  0.00     0.049 A 
ATOM     59  H   UNL     1      -5.535  -6.854  16.542  1.00  0.00     0.167 HD
ATOM     60  C   UNL     1      -6.520  -4.448  17.691  1.00  0.00     0.074 A 
ATOM     61  C   UNL     1      -6.657  -3.047  18.034  1.00  0.00     0.031 C 
ATOM     62  C   UNL     1      -7.362  -5.423  18.114  1.00  0.00     0.037 A 
BRANCH  49  63
ATOM     63  C   UNL     1      -5.942 -11.081  16.050  1.00  0.00     0.058 A 
ATOM     64  C   UNL     1      -5.161 -12.048  16.703  1.00  0.00     0.135 A 
ATOM     65  C   UNL     1      -7.088 -11.519  15.366  1.00  0.00     0.135 A 
ATOM     66  F   UNL     1      -4.046 -11.687  17.359  1.00  0.00    -0.206 F 
ATOM     67  C   UNL     1      -5.486 -13.400  16.656  1.00  0.00     0.059 A 
ATOM     68  C   UNL     1      -7.447 -12.864  15.329  1.00  0.00     0.059 A 
ATOM     69  F   UNL     1      -7.870 -10.638  14.724  1.00  0.00    -0.206 F 
ATOM     70  C   UNL     1      -6.631 -13.798  15.964  1.00  0.00     0.060 A 
BRANCH  70  71
ATOM     71  S   UNL     1      -7.039 -15.556  15.914  1.00  0.00     0.124 S 
ATOM     72  O   UNL     1      -6.035 -16.061  14.982  1.00  0.00    -0.237 OA
ATOM     73  O   UNL     1      -6.868 -15.957  17.307  1.00  0.00    -0.237 OA
ATOM     74  O   UNL     1      -8.414 -15.572  15.425  1.00  0.00    -0.744 OA
ENDBRANCH  70  71
ENDBRANCH  49  63
BRANCH  50  75
ATOM     75  C   UNL     1      -3.344  -1.418  15.983  1.00  0.00     0.058 A 
ATOM     76  C   UNL     1      -2.862  -0.784  17.138  1.00  0.00     0.135 A 
ATOM     77  C   UNL     1      -3.444  -0.653  14.811  1.00  0.00     0.135 A 
ATOM     78  F   UNL     1      -2.753  -1.472  18.285  1.00  0.00    -0.206 F 
ATOM     79  C   UNL     1      -2.507   0.561  17.137  1.00  0.00     0.059 A 
ATOM     80  C   UNL     1      -3.071   0.687  14.778  1.00  0.00     0.059 A 
ATOM     81  F   UNL     1      -3.882  -1.218  13.675  1.00  0.00    -0.206 F 
ATOM     82  C   UNL     1      -2.613   1.288  15.950  1.00  0.00     0.060 A 
BRANCH  82  83
ATOM     83  S   UNL     1      -2.101   3.019  15.947  1.00  0.00     0.124 S 
ATOM     84  O   UNL     1      -3.199   3.651  16.669  1.00  0.00    -0.237 OA
ATOM     85  O   UNL     1      -0.823   2.963  16.650  1.00  0.00    -0.237 OA
ATOM     86  O   UNL     1      -2.011   3.339  14.525  1.00  0.00    -0.744 OA
ENDBRANCH  82  83
ENDBRANCH  50  75
BRANCH  62  87
ATOM     87  C   UNL     1      -8.487  -5.015  19.024  1.00  0.00     0.058 A 
ATOM     88  C   UNL     1      -9.601  -4.308  18.547  1.00  0.00     0.135 A 
ATOM     89  C   UNL     1      -8.469  -5.377  20.381  1.00  0.00     0.135 A 
ATOM     90  F   UNL     1      -9.663  -3.933  17.259  1.00  0.00    -0.206 F 
ATOM     91  C   UNL     1     -10.648  -3.951  19.390  1.00  0.00     0.059 A 
ATOM     92  C   UNL     1      -9.518  -5.053  21.235  1.00  0.00     0.059 A 
ATOM     93  F   UNL     1      -7.431  -6.063  20.884  1.00  0.00    -0.206 F 
ATOM     94  C   UNL     1     -10.597  -4.329  20.733  1.00  0.00     0.060 A 
BRANCH  94  95
ATOM     95  S   UNL     1     -11.976  -3.884  21.810  1.00  0.00     0.124 S 
ATOM     96  O   UNL     1     -11.742  -2.458  22.013  1.00  0.00    -0.237 OA
ATOM     97  O   UNL     1     -13.136  -4.227  20.993  1.00  0.00    -0.237 OA
ATOM     98  O   UNL     1     -11.774  -4.728  22.985  1.00  0.00    -0.744 OA
ENDBRANCH  94  95
ENDBRANCH  62  87
ENDBRANCH  36  37
ENDBRANCH  28  31
ENDBRANCH  26  27
ENDBRANCH   1  26
TORSDOF 15
