REMARK SMILES Cc1occc1C(=O)NN1C(=O)/C(=C\c2ccc(O[C@H](C)C(=O)NCCCNC(=O)c3ccc(-c4c5nc(c(-c6c(F)cc(S(=O)(=O)[O-])cc6F)c6ccc([nH]6)c(-c6c(F)cc(S(=O)(=O)[O-])cc6F)c6nc(c(-c7c(F)cc(S(=O)(=O)[O-])cc7F)c7ccc4[nH]7)C=C6)C=C5)cc3)cc2)SC1=S
REMARK SMILES IDX 25 1 24 2 22 3 23 4 20 6 21 7 19 8 18 9 15 10 16 11 98 12
REMARK SMILES IDX 17 13 97 14 14 15 10 16 11 17 100 18 12 19 13 20 99 21
REMARK SMILES IDX 101 22 9 23 7 24 8 25 6 27 1 28 2 29 3 30 4 31 5 32 26 33
REMARK SMILES IDX 27 34 28 35 29 36 30 38 31 39 32 40 96 41 33 42 95 43 34 44
REMARK SMILES IDX 35 45 36 46 89 47 37 48 94 49 88 50 90 51 38 52 93 53 87 54
REMARK SMILES IDX 86 55 39 57 73 58 52 59 72 60 53 61 56 62 71 63 91 64 54 65
REMARK SMILES IDX 55 66 70 68 92 69 57 70 40 71 41 72 50 73 42 74 43 75 49 76
REMARK SMILES IDX 51 77 44 78 45 79 46 80 47 81 48 82 74 83 75 84 84 85 76 86
REMARK SMILES IDX 77 87 83 88 85 89 78 90 79 91 80 92 81 93 82 94 58 95 59 96
REMARK SMILES IDX 68 97 60 98 61 99 67 100 69 101 62 102 63 103 64 104 65 105
REMARK SMILES IDX 66 106
REMARK H PARENT 24 5 9 26 28 37 90 56 56 67
REMARK Flexibility Score: inf
ROOT
ATOM      1  C   UNL     1       4.648  -2.419  -5.838  1.00  0.00     0.118 C 
ENDROOT
BRANCH   1   2
ATOM      2  N   UNL     1       5.389  -2.816  -7.014  1.00  0.00    -0.353 N 
ATOM      3  C   UNL     1       5.956  -4.002  -7.356  1.00  0.00     0.260 C 
ATOM      4  O   UNL     1       6.372  -4.086  -8.520  1.00  0.00    -0.271 OA
ATOM      5  H   UNL     1       5.501  -2.103  -7.684  1.00  0.00     0.163 HD
BRANCH   3   6
ATOM      6  C   UNL     1       6.203  -5.176  -6.367  1.00  0.00     0.258 C 
ATOM      7  C   UNL     1       7.630  -5.085  -5.830  1.00  0.00     0.064 C 
BRANCH   6   8
ATOM      8  O   UNL     1       5.180  -5.655  -5.507  1.00  0.00    -0.481 OA
BRANCH   8   9
ATOM      9  C   UNL     1       4.949  -5.262  -4.228  1.00  0.00     0.120 A 
ATOM     10  C   UNL     1       4.122  -4.450  -1.658  1.00  0.00    -0.024 A 
ATOM     11  C   UNL     1       5.449  -4.302  -2.067  1.00  0.00     0.012 A 
ATOM     12  C   UNL     1       3.200  -5.013  -2.540  1.00  0.00     0.012 A 
ATOM     13  C   UNL     1       5.859  -4.713  -3.337  1.00  0.00     0.047 A 
ATOM     14  C   UNL     1       3.622  -5.434  -3.807  1.00  0.00     0.047 A 
BRANCH  10  15
ATOM     15  C   UNL     1       3.809  -4.072  -0.279  1.00  0.00     0.029 C 
ATOM     16  N   UNL     1       3.209  -6.971   1.831  1.00  0.00    -0.198 N 
ATOM     17  C   UNL     1       3.486  -6.432   0.584  1.00  0.00     0.285 C 
ATOM     18  C   UNL     1       3.328  -6.160   2.939  1.00  0.00     0.168 C 
ATOM     19  O   UNL     1       3.599  -7.082  -0.440  1.00  0.00    -0.266 OA
ATOM     20  C   UNL     1       3.619  -4.952   0.713  1.00  0.00     0.082 C 
ATOM     21  S   UNL     1       3.540  -4.497   2.384  1.00  0.00    -0.052 SA
ATOM     22  S   UNL     1       3.287  -6.602   4.544  1.00  0.00    -0.050 S 
BRANCH  16  23
ATOM     23  N   UNL     1       3.042  -8.348   1.885  1.00  0.00    -0.254 N 
ATOM     24  C   UNL     1       1.854  -9.035   1.977  1.00  0.00     0.273 C 
ATOM     25  O   UNL     1       1.892 -10.245   1.740  1.00  0.00    -0.267 OA
ATOM     26  H   UNL     1       3.862  -8.891   1.853  1.00  0.00     0.192 HD
BRANCH  24  27
ATOM     27  C   UNL     1       0.618  -8.431   2.464  1.00  0.00     0.082 A 
ATOM     28  C   UNL     1       0.220  -6.009   1.412  1.00  0.00     0.088 C 
ATOM     29  C   UNL     1      -0.008  -7.211   2.238  1.00  0.00     0.113 A 
ATOM     30  O   UNL     1      -1.177  -7.143   2.945  1.00  0.00    -0.469 OA
ATOM     31  C   UNL     1      -1.348  -8.322   3.579  1.00  0.00     0.196 A 
ATOM     32  C   UNL     1      -0.299  -9.155   3.301  1.00  0.00     0.056 A 
ENDBRANCH  24  27
ENDBRANCH  16  23
ENDBRANCH  10  15
ENDBRANCH   8   9
ENDBRANCH   6   8
ENDBRANCH   3   6
ENDBRANCH   1   2
BRANCH   1  33
ATOM     33  C   UNL     1       5.487  -1.634  -4.835  1.00  0.00     0.042 C 
BRANCH  33  34
ATOM     34  C   UNL     1       5.514  -0.135  -5.122  1.00  0.00     0.118 C 
BRANCH  34  35
ATOM     35  N   UNL     1       4.202   0.477  -4.940  1.00  0.00    -0.352 N 
ATOM     36  C   UNL     1       3.809   1.544  -4.173  1.00  0.00     0.251 C 
ATOM     37  H   UNL     1       3.477   0.053  -5.454  1.00  0.00     0.163 HD
ATOM     38  O   UNL     1       2.609   1.748  -4.009  1.00  0.00    -0.269 OA
BRANCH  36  39
ATOM     39  C   UNL     1       4.804   2.435  -3.537  1.00  0.00     0.039 A 
ATOM     40  C   UNL     1       4.528   2.947  -2.265  1.00  0.00     0.014 A 
ATOM     41  C   UNL     1       5.975   2.810  -4.200  1.00  0.00     0.014 A 
ATOM     42  C   UNL     1       5.449   3.791  -1.639  1.00  0.00     0.010 A 
ATOM     43  C   UNL     1       6.924   3.591  -3.547  1.00  0.00     0.010 A 
ATOM     44  C   UNL     1       6.668   4.095  -2.263  1.00  0.00    -0.014 A 
BRANCH  44  45
ATOM     45  C   UNL     1       7.685   4.947  -1.598  1.00  0.00     0.031 A 
ATOM     46  C   UNL     1       8.058   6.278  -2.191  1.00  0.00     0.074 A 
ATOM     47  C   UNL     1       8.316   4.492  -0.498  1.00  0.00     0.049 A 
ATOM     48  N   UNL     1       8.981   7.123  -1.811  1.00  0.00    -0.248 NA
ATOM     49  C   UNL     1       7.313   6.701  -3.388  1.00  0.00     0.031 C 
ATOM     50  C   UNL     1       8.066   3.201   0.147  1.00  0.00     0.029 A 
ATOM     51  N   UNL     1       9.303   5.058   0.266  1.00  0.00    -0.354 N 
ATOM     52  C   UNL     1       8.940   8.167  -2.727  1.00  0.00     0.074 A 
ATOM     53  C   UNL     1       7.936   7.824  -3.712  1.00  0.00     0.031 C 
ATOM     54  C   UNL     1       8.860   3.086   1.223  1.00  0.00     0.029 A 
ATOM     55  C   UNL     1       9.702   4.274   1.323  1.00  0.00     0.049 A 
ATOM     56  H   UNL     1       9.691   5.943   0.077  1.00  0.00     0.167 HD
ATOM     57  C   UNL     1       9.655   9.318  -2.735  1.00  0.00     0.037 A 
ATOM     58  C   UNL     1      10.643   4.487   2.262  1.00  0.00     0.037 A 
ATOM     59  C   UNL     1      10.634   9.662  -1.737  1.00  0.00     0.049 A 
ATOM     60  C   UNL     1      11.428   5.769   2.233  1.00  0.00     0.074 A 
ATOM     61  C   UNL     1      11.383  10.820  -1.626  1.00  0.00     0.029 A 
ATOM     62  N   UNL     1      10.998   8.848  -0.673  1.00  0.00    -0.354 N 
ATOM     63  N   UNL     1      11.346   6.765   1.383  1.00  0.00    -0.248 NA
ATOM     64  C   UNL     1      12.429   5.959   3.291  1.00  0.00     0.031 C 
ATOM     65  C   UNL     1      12.224  10.692  -0.514  1.00  0.00     0.029 A 
ATOM     66  C   UNL     1      11.970   9.472   0.091  1.00  0.00     0.049 A 
ATOM     67  H   UNL     1      10.621   7.957  -0.489  1.00  0.00     0.167 HD
ATOM     68  C   UNL     1      12.267   7.712   1.818  1.00  0.00     0.074 A 
ATOM     69  C   UNL     1      12.887   7.172   3.011  1.00  0.00     0.031 C 
ATOM     70  C   UNL     1      12.570   8.919   1.280  1.00  0.00     0.037 A 
BRANCH  57  71
ATOM     71  C   UNL     1       9.397  10.285  -3.857  1.00  0.00     0.058 A 
ATOM     72  C   UNL     1       8.193  11.003  -3.946  1.00  0.00     0.135 A 
ATOM     73  C   UNL     1      10.361  10.501  -4.855  1.00  0.00     0.135 A 
ATOM     74  F   UNL     1       7.230  10.824  -3.028  1.00  0.00    -0.206 F 
ATOM     75  C   UNL     1       7.937  11.868  -5.005  1.00  0.00     0.059 A 
ATOM     76  C   UNL     1      10.138  11.383  -5.909  1.00  0.00     0.059 A 
ATOM     77  F   UNL     1      11.530   9.843  -4.819  1.00  0.00    -0.206 F 
ATOM     78  C   UNL     1       8.913  12.046  -5.986  1.00  0.00     0.060 A 
BRANCH  78  79
ATOM     79  S   UNL     1       8.559  13.153  -7.367  1.00  0.00     0.124 S 
ATOM     80  O   UNL     1       7.647  12.338  -8.164  1.00  0.00    -0.237 OA
ATOM     81  O   UNL     1       7.960  14.305  -6.700  1.00  0.00    -0.237 OA
ATOM     82  O   UNL     1       9.871  13.389  -7.959  1.00  0.00    -0.744 OA
ENDBRANCH  78  79
ENDBRANCH  57  71
BRANCH  58  83
ATOM     83  C   UNL     1      10.866   3.476   3.328  1.00  0.00     0.058 A 
ATOM     84  C   UNL     1      10.451   3.721   4.645  1.00  0.00     0.135 A 
ATOM     85  C   UNL     1      11.468   2.239   3.050  1.00  0.00     0.135 A 
ATOM     86  F   UNL     1       9.875   4.892   4.959  1.00  0.00    -0.206 F 
ATOM     87  C   UNL     1      10.633   2.781   5.653  1.00  0.00     0.059 A 
ATOM     88  C   UNL     1      11.640   1.274   4.037  1.00  0.00     0.059 A 
ATOM     89  F   UNL     1      11.865   1.949   1.802  1.00  0.00    -0.206 F 
ATOM     90  C   UNL     1      11.226   1.557   5.338  1.00  0.00     0.060 A 
BRANCH  90  91
ATOM     91  S   UNL     1      11.398   0.317   6.640  1.00  0.00     0.124 S 
ATOM     92  O   UNL     1      12.506   0.860   7.417  1.00  0.00    -0.237 OA
ATOM     93  O   UNL     1      10.087   0.359   7.279  1.00  0.00    -0.237 OA
ATOM     94  O   UNL     1      11.685  -0.907   5.897  1.00  0.00    -0.744 OA
ENDBRANCH  90  91
ENDBRANCH  58  83
BRANCH  70  95
ATOM     95  C   UNL     1      13.596   9.751   1.995  1.00  0.00     0.058 A 
ATOM     96  C   UNL     1      14.963   9.443   1.939  1.00  0.00     0.135 A 
ATOM     97  C   UNL     1      13.209  10.899   2.705  1.00  0.00     0.135 A 
ATOM     98  F   UNL     1      15.383   8.351   1.280  1.00  0.00    -0.206 F 
ATOM     99  C   UNL     1      15.912  10.232   2.581  1.00  0.00     0.059 A 
ATOM    100  C   UNL     1      14.142  11.717   3.334  1.00  0.00     0.059 A 
ATOM    101  F   UNL     1      11.913  11.242   2.781  1.00  0.00    -0.206 F 
ATOM    102  C   UNL     1      15.491  11.369   3.275  1.00  0.00     0.060 A 
BRANCH 102 103
ATOM    103  S   UNL     1      16.733  12.406   4.074  1.00  0.00     0.124 S 
ATOM    104  O   UNL     1      17.067  11.610   5.250  1.00  0.00    -0.237 OA
ATOM    105  O   UNL     1      17.772  12.495   3.052  1.00  0.00    -0.237 OA
ATOM    106  O   UNL     1      16.017  13.650   4.339  1.00  0.00    -0.744 OA
ENDBRANCH 102 103
ENDBRANCH  70  95
ENDBRANCH  44  45
ENDBRANCH  36  39
ENDBRANCH  34  35
ENDBRANCH  33  34
ENDBRANCH   1  33
TORSDOF 18
