REMARK SMILES COc1ccc(-c2cccc(/C=C\C(=O)NCCCNC(=O)c3ccc(-c4c5nc(c(-c6c(F)cc(S(=O)(=O)[O-])cc6F)c6ccc([nH]6)c(-c6c(F)cc(S(=O)(=O)[O-])cc6F)c6nc(c(-c7c(F)cc(S(=O)(=O)[O-])cc7F)c7ccc4[nH]7)C=C6)C=C5)cc3)c2)c(Cl)c1OC
REMARK SMILES IDX 18 1 17 2 16 3 14 4 15 5 13 7 12 8 11 9 7 10 8 11 89 12 9 13
REMARK SMILES IDX 10 14 6 15 3 16 4 17 92 18 5 19 90 20 91 21 2 22 1 23 93 24
REMARK SMILES IDX 94 25 19 26 20 27 21 28 22 30 23 31 24 32 88 33 25 34 87 35
REMARK SMILES IDX 26 36 27 37 28 38 81 39 29 40 86 41 80 42 82 43 30 44 85 45
REMARK SMILES IDX 79 46 78 47 31 49 65 50 44 51 64 52 45 53 48 54 63 55 83 56
REMARK SMILES IDX 46 57 47 58 62 60 84 61 49 62 32 63 33 64 42 65 34 66 35 67
REMARK SMILES IDX 41 68 43 69 36 70 37 71 38 72 39 73 40 74 66 75 67 76 76 77
REMARK SMILES IDX 68 78 69 79 75 80 77 81 70 82 71 83 72 84 73 85 74 86 50 87
REMARK SMILES IDX 51 88 60 89 52 90 53 91 59 92 61 93 54 94 55 95 56 96 57 97
REMARK SMILES IDX 58 98
REMARK H PARENT 16 6 20 29 82 48 48 59
REMARK Flexibility Score: inf
ROOT
ATOM      1  C   UNL     1       2.128   2.503  10.111  1.00  0.00     0.042 C 
ENDROOT
BRANCH   1   2
ATOM      2  C   UNL     1       2.183   0.997   9.925  1.00  0.00     0.118 C 
BRANCH   2   3
ATOM      3  N   UNL     1       2.530   0.230  11.105  1.00  0.00    -0.352 N 
ATOM      4  C   UNL     1       2.298  -1.081  11.383  1.00  0.00     0.244 C 
ATOM      5  O   UNL     1       2.724  -1.549  12.441  1.00  0.00    -0.270 OA
ATOM      6  H   UNL     1       3.002   0.732  11.809  1.00  0.00     0.163 HD
BRANCH   4   7
ATOM      7  C   UNL     1       1.459  -1.959  10.520  1.00  0.00     0.072 C 
ATOM      8  C   UNL     1       1.415  -2.186   9.195  1.00  0.00     0.014 C 
BRANCH   8   9
ATOM      9  C   UNL     1       2.205  -1.546   8.141  1.00  0.00    -0.025 A 
ATOM     10  C   UNL     1       2.221  -0.196   6.090  1.00  0.00    -0.016 A 
ATOM     11  C   UNL     1       3.588   0.049   6.338  1.00  0.00     0.009 A 
ATOM     12  C   UNL     1       1.542  -0.999   7.024  1.00  0.00     0.017 A 
ATOM     13  C   UNL     1       4.279  -0.593   7.369  1.00  0.00     0.001 A 
ATOM     14  C   UNL     1       3.592  -1.417   8.254  1.00  0.00     0.008 A 
BRANCH  10  15
ATOM     15  C   UNL     1       1.604   0.268   4.811  1.00  0.00     0.004 A 
ATOM     16  C   UNL     1       0.651   0.882   2.220  1.00  0.00     0.162 A 
ATOM     17  C   UNL     1       1.944   0.405   2.388  1.00  0.00     0.051 A 
ATOM     18  C   UNL     1      -0.179   1.139   3.337  1.00  0.00     0.180 A 
ATOM     19  C   UNL     1       2.394   0.079   3.656  1.00  0.00     0.014 A 
ATOM     20  C   UNL     1       0.312   0.850   4.638  1.00  0.00     0.094 A 
ATOM     21  Cl  UNL     1      -0.575   1.304   6.064  1.00  0.00    -0.079 Cl
BRANCH  16  22
ATOM     22  O   UNL     1       0.161   1.166   0.965  1.00  0.00    -0.493 OA
ATOM     23  C   UNL     1       0.537   0.227  -0.039  1.00  0.00     0.278 C 
ENDBRANCH  16  22
BRANCH  18  24
ATOM     24  O   UNL     1      -1.372   1.706   2.965  1.00  0.00    -0.491 OA
ATOM     25  C   UNL     1      -2.535   1.637   3.772  1.00  0.00     0.278 C 
ENDBRANCH  18  24
ENDBRANCH  10  15
ENDBRANCH   8   9
ENDBRANCH   4   7
ENDBRANCH   2   3
ENDBRANCH   1   2
BRANCH   1  26
ATOM     26  C   UNL     1       3.494   3.161  10.315  1.00  0.00     0.118 C 
BRANCH  26  27
ATOM     27  N   UNL     1       4.426   3.003   9.201  1.00  0.00    -0.352 N 
ATOM     28  C   UNL     1       4.777   3.805   8.131  1.00  0.00     0.251 C 
ATOM     29  H   UNL     1       4.907   2.144   9.215  1.00  0.00     0.163 HD
ATOM     30  O   UNL     1       5.530   3.355   7.280  1.00  0.00    -0.269 OA
BRANCH  28  31
ATOM     31  C   UNL     1       4.216   5.170   7.967  1.00  0.00     0.039 A 
ATOM     32  C   UNL     1       3.895   5.619   6.680  1.00  0.00     0.014 A 
ATOM     33  C   UNL     1       3.995   6.010   9.052  1.00  0.00     0.014 A 
ATOM     34  C   UNL     1       3.222   6.835   6.508  1.00  0.00     0.010 A 
ATOM     35  C   UNL     1       3.218   7.154   8.897  1.00  0.00     0.010 A 
ATOM     36  C   UNL     1       2.796   7.568   7.626  1.00  0.00    -0.014 A 
BRANCH  36  37
ATOM     37  C   UNL     1       1.856   8.720   7.518  1.00  0.00     0.031 A 
ATOM     38  C   UNL     1       2.204  10.050   8.132  1.00  0.00     0.074 A 
ATOM     39  C   UNL     1       0.620   8.519   7.014  1.00  0.00     0.049 A 
ATOM     40  N   UNL     1       1.441  11.093   8.337  1.00  0.00    -0.248 NA
ATOM     41  C   UNL     1       3.580  10.208   8.627  1.00  0.00     0.031 C 
ATOM     42  C   UNL     1       0.124   7.255   6.462  1.00  0.00     0.029 A 
ATOM     43  N   UNL     1      -0.460   9.363   6.920  1.00  0.00    -0.354 N 
ATOM     44  C   UNL     1       2.226  12.008   9.029  1.00  0.00     0.074 A 
ATOM     45  C   UNL     1       3.512  11.379   9.244  1.00  0.00     0.031 C 
ATOM     46  C   UNL     1      -1.153   7.408   6.082  1.00  0.00     0.029 A 
ATOM     47  C   UNL     1      -1.588   8.760   6.412  1.00  0.00     0.049 A 
ATOM     48  H   UNL     1      -0.430  10.309   7.191  1.00  0.00     0.167 HD
ATOM     49  C   UNL     1       1.911  13.262   9.434  1.00  0.00     0.037 A 
ATOM     50  C   UNL     1      -2.843   9.225   6.256  1.00  0.00     0.037 A 
ATOM     51  C   UNL     1       0.647  13.899   9.167  1.00  0.00     0.049 A 
ATOM     52  C   UNL     1      -3.161  10.633   6.666  1.00  0.00     0.074 A 
ATOM     53  C   UNL     1       0.272  15.207   9.421  1.00  0.00     0.029 A 
ATOM     54  N   UNL     1      -0.450  13.273   8.592  1.00  0.00    -0.354 N 
ATOM     55  N   UNL     1      -2.378  11.518   7.236  1.00  0.00    -0.248 NA
ATOM     56  C   UNL     1      -4.529  11.107   6.417  1.00  0.00     0.031 C 
ATOM     57  C   UNL     1      -1.065  15.360   9.037  1.00  0.00     0.029 A 
ATOM     58  C   UNL     1      -1.513  14.158   8.510  1.00  0.00     0.049 A 
ATOM     59  H   UNL     1      -0.469  12.337   8.287  1.00  0.00     0.167 HD
ATOM     60  C   UNL     1      -3.157  12.655   7.415  1.00  0.00     0.074 A 
ATOM     61  C   UNL     1      -4.466  12.353   6.871  1.00  0.00     0.031 C 
ATOM     62  C   UNL     1      -2.817  13.838   7.983  1.00  0.00     0.037 A 
BRANCH  49  63
ATOM     63  C   UNL     1       2.952  14.022  10.211  1.00  0.00     0.058 A 
ATOM     64  C   UNL     1       4.143  14.469   9.616  1.00  0.00     0.135 A 
ATOM     65  C   UNL     1       2.761  14.301  11.575  1.00  0.00     0.135 A 
ATOM     66  F   UNL     1       4.383  14.223   8.318  1.00  0.00    -0.206 F 
ATOM     67  C   UNL     1       5.131  15.112  10.354  1.00  0.00     0.059 A 
ATOM     68  C   UNL     1       3.723  14.971  12.327  1.00  0.00     0.059 A 
ATOM     69  F   UNL     1       1.639  13.906  12.196  1.00  0.00    -0.206 F 
ATOM     70  C   UNL     1       4.916  15.349  11.713  1.00  0.00     0.060 A 
BRANCH  70  71
ATOM     71  S   UNL     1       6.224  16.145  12.669  1.00  0.00     0.124 S 
ATOM     72  O   UNL     1       7.171  15.047  12.835  1.00  0.00    -0.237 OA
ATOM     73  O   UNL     1       6.653  17.221  11.780  1.00  0.00    -0.237 OA
ATOM     74  O   UNL     1       5.542  16.576  13.885  1.00  0.00    -0.744 OA
ENDBRANCH  70  71
ENDBRANCH  49  63
BRANCH  50  75
ATOM     75  C   UNL     1      -3.881   8.329   5.681  1.00  0.00     0.058 A 
ATOM     76  C   UNL     1      -4.312   8.484   4.356  1.00  0.00     0.135 A 
ATOM     77  C   UNL     1      -4.397   7.249   6.415  1.00  0.00     0.135 A 
ATOM     78  F   UNL     1      -3.855   9.507   3.618  1.00  0.00    -0.206 F 
ATOM     79  C   UNL     1      -5.208   7.593   3.772  1.00  0.00     0.059 A 
ATOM     80  C   UNL     1      -5.277   6.333   5.847  1.00  0.00     0.059 A 
ATOM     81  F   UNL     1      -4.003   7.048   7.682  1.00  0.00    -0.206 F 
ATOM     82  C   UNL     1      -5.676   6.513   4.523  1.00  0.00     0.060 A 
BRANCH  82  83
ATOM     83  S   UNL     1      -6.748   5.297   3.724  1.00  0.00     0.124 S 
ATOM     84  O   UNL     1      -8.021   6.008   3.687  1.00  0.00    -0.237 OA
ATOM     85  O   UNL     1      -6.089   5.101   2.437  1.00  0.00    -0.237 OA
ATOM     86  O   UNL     1      -6.688   4.152   4.628  1.00  0.00    -0.744 OA
ENDBRANCH  82  83
ENDBRANCH  50  75
BRANCH  62  87
ATOM     87  C   UNL     1      -3.879  14.898   8.059  1.00  0.00     0.058 A 
ATOM     88  C   UNL     1      -4.920  14.819   8.997  1.00  0.00     0.135 A 
ATOM     89  C   UNL     1      -3.817  16.035   7.239  1.00  0.00     0.135 A 
ATOM     90  F   UNL     1      -5.029  13.747   9.797  1.00  0.00    -0.206 F 
ATOM     91  C   UNL     1      -5.869  15.829   9.114  1.00  0.00     0.059 A 
ATOM     92  C   UNL     1      -4.743  17.068   7.354  1.00  0.00     0.059 A 
ATOM     93  F   UNL     1      -2.837  16.161   6.330  1.00  0.00    -0.206 F 
ATOM     94  C   UNL     1      -5.769  16.953   8.291  1.00  0.00     0.060 A 
BRANCH  94  95
ATOM     95  S   UNL     1      -6.975  18.282   8.491  1.00  0.00     0.124 S 
ATOM     96  O   UNL     1      -8.162  17.697   7.876  1.00  0.00    -0.237 OA
ATOM     97  O   UNL     1      -7.026  18.442   9.941  1.00  0.00    -0.237 OA
ATOM     98  O   UNL     1      -6.375  19.397   7.765  1.00  0.00    -0.744 OA
ENDBRANCH  94  95
ENDBRANCH  62  87
ENDBRANCH  36  37
ENDBRANCH  28  31
ENDBRANCH  26  27
ENDBRANCH   1  26
TORSDOF 17
