REMARK SMILES CC(C)C[C@H](NC(=O)[C@H](Cc1ccccc1)NC(=O)CNC(=O)CNC(=O)OCc1ccccc1)C(=O)NCCCNC(=O)c1ccc(-c2c3nc(c(-c4c(F)cc(S(=O)(=O)[O-])cc4F)c4ccc([nH]4)c(-c4c(F)cc(S(=O)(=O)[O-])cc4F)c4nc(c(-c5c(F)cc(S(=O)(=O)[O-])cc5F)c5ccc2[nH]5)C=C4)C=C3)cc1
REMARK SMILES IDX 6 1 7 2 8 3 5 5 4 6 2 7 1 8 3 9 36 10 37 11 38 12 39 14
REMARK SMILES IDX 40 15 41 16 42 17 43 18 44 20 45 21 46 22 110 23 47 24
REMARK SMILES IDX 109 25 48 26 49 27 50 28 103 29 51 30 108 31 102 32 104 33
REMARK SMILES IDX 52 34 107 35 101 36 100 37 53 39 87 40 66 41 86 42 67 43
REMARK SMILES IDX 70 44 85 45 105 46 68 47 69 48 84 50 106 51 71 52 54 53
REMARK SMILES IDX 55 54 64 55 56 56 57 57 63 58 65 59 58 60 59 61 60 62 61 63
REMARK SMILES IDX 62 64 88 65 89 66 98 67 90 68 91 69 97 70 99 71 92 72 93 73
REMARK SMILES IDX 94 74 95 75 96 76 72 77 73 78 82 79 74 80 75 81 81 82 83 83
REMARK SMILES IDX 76 84 77 85 78 86 79 87 80 88 9 89 17 90 18 91 19 93 20 94
REMARK SMILES IDX 21 95 22 96 23 98 24 99 25 100 26 101 27 103 28 104 29 105
REMARK SMILES IDX 30 106 31 107 35 108 32 109 34 110 33 111 10 112 11 113
REMARK SMILES IDX 12 114 16 115 13 116 15 117 14 118
REMARK H PARENT 6 4 38 13 42 19 104 38 70 49 17 92 21 97 25 102
REMARK Flexibility Score: inf
ROOT
ATOM      1  N   UNL     1      -1.448   5.253  -0.616  1.00  0.00    -0.343 N 
ATOM      2  C   UNL     1      -1.065   6.558  -0.394  1.00  0.00     0.243 C 
ATOM      3  O   UNL     1      -0.500   7.131  -1.336  1.00  0.00    -0.273 OA
ATOM      4  H   UNL     1      -0.762   4.679  -1.027  1.00  0.00     0.164 HD
ENDROOT
BRANCH   1   5
ATOM      5  C   UNL     1      -2.735   4.587  -0.328  1.00  0.00     0.171 C 
BRANCH   5   6
ATOM      6  C   UNL     1      -3.093   3.506  -1.373  1.00  0.00     0.038 C 
BRANCH   6   7
ATOM      7  C   UNL     1      -3.454   4.012  -2.796  1.00  0.00    -0.015 C 
ATOM      8  C   UNL     1      -2.218   4.202  -3.685  1.00  0.00     0.007 C 
ATOM      9  C   UNL     1      -4.387   2.997  -3.473  1.00  0.00     0.007 C 
ENDBRANCH   6   7
ENDBRANCH   5   6
BRANCH   5  10
ATOM     10  C   UNL     1      -2.919   4.086   1.140  1.00  0.00     0.242 C 
ATOM     11  O   UNL     1      -3.491   4.840   1.939  1.00  0.00    -0.273 OA
ATOM     12  N   UNL     1      -2.404   2.939   1.686  1.00  0.00    -0.354 N 
ATOM     13  H   UNL     1      -2.381   2.972   2.669  1.00  0.00     0.163 HD
BRANCH  12  14
ATOM     14  C   UNL     1      -1.878   1.677   1.160  1.00  0.00     0.117 C 
BRANCH  14  15
ATOM     15  C   UNL     1      -0.587   1.063   1.783  1.00  0.00     0.042 C 
BRANCH  15  16
ATOM     16  C   UNL     1      -0.422   0.959   3.309  1.00  0.00     0.118 C 
BRANCH  16  17
ATOM     17  N   UNL     1       0.327  -0.217   3.722  1.00  0.00    -0.352 N 
ATOM     18  C   UNL     1       1.654  -0.559   3.805  1.00  0.00     0.251 C 
ATOM     19  H   UNL     1      -0.263  -0.948   4.014  1.00  0.00     0.163 HD
ATOM     20  O   UNL     1       1.876  -1.733   4.121  1.00  0.00    -0.269 OA
BRANCH  18  21
ATOM     21  C   UNL     1       2.839   0.317   3.540  1.00  0.00     0.039 A 
ATOM     22  C   UNL     1       3.960  -0.322   2.980  1.00  0.00     0.014 A 
ATOM     23  C   UNL     1       3.006   1.626   3.997  1.00  0.00     0.014 A 
ATOM     24  C   UNL     1       5.215   0.308   2.903  1.00  0.00     0.010 A 
ATOM     25  C   UNL     1       4.268   2.277   3.883  1.00  0.00     0.010 A 
ATOM     26  C   UNL     1       5.400   1.620   3.361  1.00  0.00    -0.014 A 
BRANCH  26  27
ATOM     27  C   UNL     1       6.780   2.233   3.330  1.00  0.00     0.031 A 
ATOM     28  C   UNL     1       7.534   2.552   4.608  1.00  0.00     0.074 A 
ATOM     29  C   UNL     1       7.413   2.455   2.156  1.00  0.00     0.049 A 
ATOM     30  N   UNL     1       8.747   3.033   4.762  1.00  0.00    -0.248 NA
ATOM     31  C   UNL     1       6.835   2.300   5.875  1.00  0.00     0.031 C 
ATOM     32  C   UNL     1       6.842   2.207   0.832  1.00  0.00     0.029 A 
ATOM     33  N   UNL     1       8.679   2.931   1.882  1.00  0.00    -0.354 N 
ATOM     34  C   UNL     1       8.949   3.156   6.135  1.00  0.00     0.074 A 
ATOM     35  C   UNL     1       7.719   2.727   6.768  1.00  0.00     0.031 C 
ATOM     36  C   UNL     1       7.754   2.510  -0.107  1.00  0.00     0.029 A 
ATOM     37  C   UNL     1       8.970   3.007   0.537  1.00  0.00     0.049 A 
ATOM     38  H   UNL     1       9.317   3.193   2.584  1.00  0.00     0.167 HD
ATOM     39  C   UNL     1      10.052   3.568   6.814  1.00  0.00     0.037 A 
ATOM     40  C   UNL     1      10.075   3.429  -0.116  1.00  0.00     0.037 A 
ATOM     41  C   UNL     1      11.299   3.968   6.206  1.00  0.00     0.049 A 
ATOM     42  C   UNL     1      11.283   3.899   0.655  1.00  0.00     0.074 A 
ATOM     43  C   UNL     1      12.476   4.351   6.831  1.00  0.00     0.029 A 
ATOM     44  N   UNL     1      11.536   4.040   4.842  1.00  0.00    -0.354 N 
ATOM     45  N   UNL     1      11.461   3.957   1.952  1.00  0.00    -0.248 NA
ATOM     46  C   UNL     1      12.444   4.356  -0.127  1.00  0.00     0.031 C 
ATOM     47  C   UNL     1      13.410   4.693   5.847  1.00  0.00     0.029 A 
ATOM     48  C   UNL     1      12.832   4.478   4.608  1.00  0.00     0.049 A 
ATOM     49  H   UNL     1      10.882   3.813   4.143  1.00  0.00     0.167 HD
ATOM     50  C   UNL     1      12.758   4.429   2.139  1.00  0.00     0.074 A 
ATOM     51  C   UNL     1      13.326   4.634   0.825  1.00  0.00     0.031 C 
ATOM     52  C   UNL     1      13.413   4.667   3.302  1.00  0.00     0.037 A 
BRANCH  39  53
ATOM     53  C   UNL     1       9.973   3.615   8.320  1.00  0.00     0.058 A 
ATOM     54  C   UNL     1       9.961   2.445   9.094  1.00  0.00     0.135 A 
ATOM     55  C   UNL     1       9.966   4.846   8.999  1.00  0.00     0.135 A 
ATOM     56  F   UNL     1       9.968   1.241   8.500  1.00  0.00    -0.206 F 
ATOM     57  C   UNL     1       9.904   2.491  10.485  1.00  0.00     0.059 A 
ATOM     58  C   UNL     1       9.936   4.916  10.390  1.00  0.00     0.059 A 
ATOM     59  F   UNL     1       9.994   5.998   8.311  1.00  0.00    -0.206 F 
ATOM     60  C   UNL     1       9.885   3.732  11.123  1.00  0.00     0.060 A 
BRANCH  60  61
ATOM     61  S   UNL     1       9.788   3.775  12.926  1.00  0.00     0.124 S 
ATOM     62  O   UNL     1       8.394   3.403  13.151  1.00  0.00    -0.237 OA
ATOM     63  O   UNL     1      10.779   2.778  13.319  1.00  0.00    -0.237 OA
ATOM     64  O   UNL     1      10.129   5.156  13.254  1.00  0.00    -0.744 OA
ENDBRANCH  60  61
ENDBRANCH  39  53
BRANCH  40  65
ATOM     65  C   UNL     1      10.103   3.422  -1.607  1.00  0.00     0.058 A 
ATOM     66  C   UNL     1      10.906   2.515  -2.315  1.00  0.00     0.135 A 
ATOM     67  C   UNL     1       9.328   4.325  -2.352  1.00  0.00     0.135 A 
ATOM     68  F   UNL     1      11.681   1.645  -1.650  1.00  0.00    -0.206 F 
ATOM     69  C   UNL     1      10.945   2.506  -3.706  1.00  0.00     0.059 A 
ATOM     70  C   UNL     1       9.331   4.318  -3.744  1.00  0.00     0.059 A 
ATOM     71  F   UNL     1       8.540   5.211  -1.725  1.00  0.00    -0.206 F 
ATOM     72  C   UNL     1      10.148   3.409  -4.413  1.00  0.00     0.060 A 
BRANCH  72  73
ATOM     73  S   UNL     1      10.153   3.343  -6.218  1.00  0.00     0.124 S 
ATOM     74  O   UNL     1      11.439   3.953  -6.533  1.00  0.00    -0.237 OA
ATOM     75  O   UNL     1      10.045   1.910  -6.475  1.00  0.00    -0.237 OA
ATOM     76  O   UNL     1       8.975   4.125  -6.585  1.00  0.00    -0.744 OA
ENDBRANCH  72  73
ENDBRANCH  40  65
BRANCH  52  77
ATOM     77  C   UNL     1      14.841   5.141   3.231  1.00  0.00     0.058 A 
ATOM     78  C   UNL     1      15.167   6.458   2.872  1.00  0.00     0.135 A 
ATOM     79  C   UNL     1      15.893   4.289   3.608  1.00  0.00     0.135 A 
ATOM     80  F   UNL     1      14.203   7.313   2.494  1.00  0.00    -0.206 F 
ATOM     81  C   UNL     1      16.483   6.913   2.886  1.00  0.00     0.059 A 
ATOM     82  C   UNL     1      17.214   4.729   3.651  1.00  0.00     0.059 A 
ATOM     83  F   UNL     1      15.639   3.020   3.966  1.00  0.00    -0.206 F 
ATOM     84  C   UNL     1      17.500   6.043   3.284  1.00  0.00     0.060 A 
BRANCH  84  85
ATOM     85  S   UNL     1      19.195   6.665   3.362  1.00  0.00     0.124 S 
ATOM     86  O   UNL     1      19.550   6.736   1.949  1.00  0.00    -0.237 OA
ATOM     87  O   UNL     1      19.028   7.947   4.039  1.00  0.00    -0.237 OA
ATOM     88  O   UNL     1      19.897   5.644   4.135  1.00  0.00    -0.744 OA
ENDBRANCH  84  85
ENDBRANCH  52  77
ENDBRANCH  26  27
ENDBRANCH  18  21
ENDBRANCH  16  17
ENDBRANCH  15  16
ENDBRANCH  14  15
ENDBRANCH  12  14
ENDBRANCH   5  10
ENDBRANCH   1   5
BRANCH   2  89
ATOM     89  C   UNL     1      -1.109   7.231   1.010  1.00  0.00     0.175 C 
BRANCH  89  90
ATOM     90  N   UNL     1       0.294   7.703   1.188  1.00  0.00    -0.342 N 
ATOM     91  C   UNL     1       1.236   7.729   2.154  1.00  0.00     0.240 C 
ATOM     92  H   UNL     1       0.631   8.116   0.360  1.00  0.00     0.164 HD
ATOM     93  O   UNL     1       2.270   8.356   1.891  1.00  0.00    -0.273 OA
BRANCH  91  94
ATOM     94  C   UNL     1       1.166   6.965   3.469  1.00  0.00     0.216 C 
BRANCH  94  95
ATOM     95  N   UNL     1      -0.113   6.482   3.923  1.00  0.00    -0.346 N 
ATOM     96  C   UNL     1      -0.571   5.220   3.738  1.00  0.00     0.239 C 
ATOM     97  H   UNL     1      -0.696   7.114   4.403  1.00  0.00     0.164 HD
ATOM     98  O   UNL     1      -1.587   4.837   4.318  1.00  0.00    -0.273 OA
BRANCH  96  99
ATOM     99  C   UNL     1       0.245   4.282   2.867  1.00  0.00     0.219 C 
BRANCH  99 100
ATOM    100  N   UNL     1       0.365   4.487   1.448  1.00  0.00    -0.312 N 
ATOM    101  C   UNL     1       1.512   4.114   0.818  1.00  0.00     0.407 C 
ATOM    102  H   UNL     1      -0.373   4.893   0.939  1.00  0.00     0.167 HD
ATOM    103  O   UNL     1       2.624   4.288   1.265  1.00  0.00    -0.225 OA
BRANCH 101 104
ATOM    104  O   UNL     1       1.179   3.331  -0.242  1.00  0.00    -0.445 OA
BRANCH 104 105
ATOM    105  C   UNL     1       2.233   2.423  -0.578  1.00  0.00     0.270 C 
BRANCH 105 106
ATOM    106  C   UNL     1       1.934   1.758  -1.896  1.00  0.00    -0.011 A 
ATOM    107  C   UNL     1       0.839   0.898  -2.070  1.00  0.00     0.007 A 
ATOM    108  C   UNL     1       2.799   1.980  -2.974  1.00  0.00     0.007 A 
ATOM    109  C   UNL     1       0.613   0.285  -3.306  1.00  0.00     0.000 A 
ATOM    110  C   UNL     1       2.576   1.365  -4.204  1.00  0.00     0.000 A 
ATOM    111  C   UNL     1       1.482   0.520  -4.371  1.00  0.00     0.000 A 
ENDBRANCH 105 106
ENDBRANCH 104 105
ENDBRANCH 101 104
ENDBRANCH  99 100
ENDBRANCH  96  99
ENDBRANCH  94  95
ENDBRANCH  91  94
ENDBRANCH  89  90
BRANCH  89 112
ATOM    112  C   UNL     1      -2.013   8.476   1.097  1.00  0.00     0.070 C 
BRANCH 112 113
ATOM    113  C   UNL     1      -3.274   8.376   0.288  1.00  0.00    -0.045 A 
ATOM    114  C   UNL     1      -4.421   7.778   0.814  1.00  0.00     0.004 A 
ATOM    115  C   UNL     1      -3.265   8.798  -1.049  1.00  0.00     0.004 A 
ATOM    116  C   UNL     1      -5.525   7.553  -0.007  1.00  0.00     0.000 A 
ATOM    117  C   UNL     1      -4.364   8.565  -1.868  1.00  0.00     0.000 A 
ATOM    118  C   UNL     1      -5.490   7.931  -1.349  1.00  0.00     0.000 A 
ENDBRANCH 112 113
ENDBRANCH  89 112
ENDBRANCH   2  89
TORSDOF 27
