REMARK SMILES CC[C@@H](CNC(=O)NCc1c(C)noc1C)C(=O)NCCCNC(=O)c1ccc(-c2c3nc(c(-c4c(F)cc(S(=O)(=O)[O-])cc4F)c4ccc([nH]4)c(-c4c(F)cc(S(=O)(=O)[O-])cc4F)c4nc(c(-c5c(F)cc(S(=O)(=O)[O-])cc5F)c5ccc2[nH]5)C=C4)C=C3)cc1
REMARK SMILES IDX 20 1 19 2 17 3 18 4 3 6 2 7 1 8 4 9 5 10 6 11 7 13 8 14 9 16
REMARK SMILES IDX 10 17 11 18 15 19 12 20 13 21 14 22 16 23 21 24 22 25 23 26
REMARK SMILES IDX 24 27 25 29 26 30 27 31 91 32 28 33 90 34 29 35 30 36 31 37
REMARK SMILES IDX 84 38 32 39 89 40 83 41 85 42 33 43 88 44 82 45 81 46 34 48
REMARK SMILES IDX 68 49 47 50 67 51 48 52 51 53 66 54 86 55 49 56 50 57 65 59
REMARK SMILES IDX 87 60 52 61 35 62 36 63 45 64 37 65 38 66 44 67 46 68 39 69
REMARK SMILES IDX 40 70 41 71 42 72 43 73 69 74 70 75 79 76 71 77 72 78 78 79
REMARK SMILES IDX 80 80 73 81 74 82 75 83 76 84 77 85 53 86 54 87 63 88 55 89
REMARK SMILES IDX 56 90 62 91 64 92 57 93 58 94 59 95 60 96 61 97
REMARK H PARENT 19 5 5 12 8 15 23 28 85 47 51 58
REMARK Flexibility Score: inf
ROOT
ATOM      1  C   UNL     1      -2.081   1.572   2.465  1.00  0.00     0.117 C 
ENDROOT
BRANCH   1   2
ATOM      2  N   UNL     1      -0.893   1.760   3.280  1.00  0.00    -0.356 N 
ATOM      3  C   UNL     1       0.415   1.824   2.918  1.00  0.00     0.224 C 
ATOM      4  O   UNL     1       1.220   2.248   3.754  1.00  0.00    -0.275 OA
ATOM      5  H   UNL     1      -1.063   1.855   4.245  1.00  0.00     0.163 HD
BRANCH   3   6
ATOM      6  C   UNL     1       0.902   1.417   1.534  1.00  0.00     0.097 C 
BRANCH   6   7
ATOM      7  C   UNL     1       0.477  -0.003   1.120  1.00  0.00     0.012 C 
ATOM      8  C   UNL     1       1.072  -0.460  -0.205  1.00  0.00     0.005 C 
ENDBRANCH   6   7
BRANCH   6   9
ATOM      9  C   UNL     1       0.776   2.536   0.490  1.00  0.00     0.131 C 
BRANCH   9  10
ATOM     10  N   UNL     1      -0.530   3.116   0.262  1.00  0.00    -0.337 N 
ATOM     11  C   UNL     1      -1.217   4.128   0.806  1.00  0.00     0.315 C 
ATOM     12  H   UNL     1      -1.026   2.664  -0.458  1.00  0.00     0.165 HD
ATOM     13  O   UNL     1      -2.417   4.210   0.535  1.00  0.00    -0.249 OA
ATOM     14  N   UNL     1      -0.714   5.025   1.652  1.00  0.00    -0.334 N 
ATOM     15  H   UNL     1      -1.407   5.479   2.183  1.00  0.00     0.165 HD
BRANCH  14  16
ATOM     16  C   UNL     1       0.619   5.483   1.966  1.00  0.00     0.159 C 
BRANCH  16  17
ATOM     17  C   UNL     1       0.976   6.550   0.996  1.00  0.00     0.037 A 
ATOM     18  C   UNL     1       1.663   6.469  -0.251  1.00  0.00     0.086 A 
ATOM     19  C   UNL     1       0.665   7.892   1.096  1.00  0.00     0.138 A 
ATOM     20  C   UNL     1       2.213   5.288  -0.954  1.00  0.00     0.071 C 
ATOM     21  N   UNL     1       1.779   7.673  -0.826  1.00  0.00    -0.085 NA
ATOM     22  O   UNL     1       1.147   8.558   0.018  1.00  0.00    -0.361 OA
ATOM     23  C   UNL     1      -0.070   8.698   2.088  1.00  0.00     0.091 C 
ENDBRANCH  16  17
ENDBRANCH  14  16
ENDBRANCH   9  10
ENDBRANCH   6   9
ENDBRANCH   3   6
ENDBRANCH   1   2
BRANCH   1  24
ATOM     24  C   UNL     1      -2.924   0.391   2.896  1.00  0.00     0.042 C 
BRANCH  24  25
ATOM     25  C   UNL     1      -3.627   0.623   4.222  1.00  0.00     0.118 C 
BRANCH  25  26
ATOM     26  N   UNL     1      -4.573   1.734   4.176  1.00  0.00    -0.352 N 
ATOM     27  C   UNL     1      -5.946   1.746   4.255  1.00  0.00     0.251 C 
ATOM     28  H   UNL     1      -4.160   2.621   4.071  1.00  0.00     0.163 HD
ATOM     29  O   UNL     1      -6.561   2.777   4.018  1.00  0.00    -0.269 OA
BRANCH  27  30
ATOM     30  C   UNL     1      -6.674   0.509   4.607  1.00  0.00     0.039 A 
ATOM     31  C   UNL     1      -7.856   0.195   3.933  1.00  0.00     0.014 A 
ATOM     32  C   UNL     1      -6.186  -0.342   5.599  1.00  0.00     0.014 A 
ATOM     33  C   UNL     1      -8.505  -1.011   4.207  1.00  0.00     0.010 A 
ATOM     34  C   UNL     1      -6.758  -1.592   5.777  1.00  0.00     0.010 A 
ATOM     35  C   UNL     1      -7.938  -1.932   5.102  1.00  0.00    -0.014 A 
BRANCH  35  36
ATOM     36  C   UNL     1      -8.575  -3.242   5.388  1.00  0.00     0.031 A 
ATOM     37  C   UNL     1      -8.989  -3.573   6.798  1.00  0.00     0.074 A 
ATOM     38  C   UNL     1      -8.703  -4.156   4.407  1.00  0.00     0.049 A 
ATOM     39  N   UNL     1      -9.466  -4.691   7.279  1.00  0.00    -0.248 NA
ATOM     40  C   UNL     1      -8.801  -2.520   7.811  1.00  0.00     0.031 C 
ATOM     41  C   UNL     1      -8.288  -3.971   3.014  1.00  0.00     0.029 A 
ATOM     42  N   UNL     1      -9.213  -5.429   4.433  1.00  0.00    -0.354 N 
ATOM     43  C   UNL     1      -9.606  -4.485   8.647  1.00  0.00     0.074 A 
ATOM     44  C   UNL     1      -9.098  -3.161   8.930  1.00  0.00     0.031 C 
ATOM     45  C   UNL     1      -8.592  -5.075   2.313  1.00  0.00     0.029 A 
ATOM     46  C   UNL     1      -9.182  -6.061   3.212  1.00  0.00     0.049 A 
ATOM     47  H   UNL     1      -9.568  -5.851   5.249  1.00  0.00     0.167 HD
ATOM     48  C   UNL     1     -10.136  -5.311   9.580  1.00  0.00     0.037 A 
ATOM     49  C   UNL     1      -9.584  -7.298   2.860  1.00  0.00     0.037 A 
ATOM     50  C   UNL     1     -10.676  -6.609   9.279  1.00  0.00     0.049 A 
ATOM     51  C   UNL     1     -10.185  -8.194   3.908  1.00  0.00     0.074 A 
ATOM     52  C   UNL     1     -11.302  -7.500  10.132  1.00  0.00     0.029 A 
ATOM     53  N   UNL     1     -10.655  -7.203   8.024  1.00  0.00    -0.354 N 
ATOM     54  N   UNL     1     -10.370  -7.960   5.186  1.00  0.00    -0.248 NA
ATOM     55  C   UNL     1     -10.640  -9.519   3.467  1.00  0.00     0.031 C 
ATOM     56  C   UNL     1     -11.615  -8.653   9.403  1.00  0.00     0.029 A 
ATOM     57  C   UNL     1     -11.237  -8.457   8.084  1.00  0.00     0.049 A 
ATOM     58  H   UNL     1     -10.280  -6.792   7.211  1.00  0.00     0.167 HD
ATOM     59  C   UNL     1     -10.996  -9.093   5.694  1.00  0.00     0.074 A 
ATOM     60  C   UNL     1     -11.162 -10.009   4.584  1.00  0.00     0.031 C 
ATOM     61  C   UNL     1     -11.402  -9.350   6.963  1.00  0.00     0.037 A 
BRANCH  48  62
ATOM     62  C   UNL     1     -10.155  -4.829  11.006  1.00  0.00     0.058 A 
ATOM     63  C   UNL     1     -10.958  -3.751  11.416  1.00  0.00     0.135 A 
ATOM     64  C   UNL     1      -9.361  -5.456  11.980  1.00  0.00     0.135 A 
ATOM     65  F   UNL     1     -11.726  -3.102  10.526  1.00  0.00    -0.206 F 
ATOM     66  C   UNL     1     -10.938  -3.283  12.726  1.00  0.00     0.059 A 
ATOM     67  C   UNL     1      -9.351  -5.027  13.304  1.00  0.00     0.059 A 
ATOM     68  F   UNL     1      -8.574  -6.491  11.647  1.00  0.00    -0.206 F 
ATOM     69  C   UNL     1     -10.127  -3.926  13.662  1.00  0.00     0.060 A 
BRANCH  69  70
ATOM     70  S   UNL     1     -10.101  -3.298  15.354  1.00  0.00     0.124 S 
ATOM     71  O   UNL     1      -9.336  -2.065  15.194  1.00  0.00    -0.237 OA
ATOM     72  O   UNL     1     -11.520  -3.129  15.647  1.00  0.00    -0.237 OA
ATOM     73  O   UNL     1      -9.431  -4.359  16.101  1.00  0.00    -0.744 OA
ENDBRANCH  69  70
ENDBRANCH  48  62
BRANCH  49  74
ATOM     74  C   UNL     1      -9.470  -7.739   1.444  1.00  0.00     0.058 A 
ATOM     75  C   UNL     1     -10.615  -7.894   0.647  1.00  0.00     0.135 A 
ATOM     76  C   UNL     1      -8.223  -7.985   0.850  1.00  0.00     0.135 A 
ATOM     77  F   UNL     1     -11.831  -7.675   1.170  1.00  0.00    -0.206 F 
ATOM     78  C   UNL     1     -10.529  -8.289  -0.684  1.00  0.00     0.059 A 
ATOM     79  C   UNL     1      -8.110  -8.356  -0.487  1.00  0.00     0.059 A 
ATOM     80  F   UNL     1      -7.096  -7.834   1.563  1.00  0.00    -0.206 F 
ATOM     81  C   UNL     1      -9.271  -8.512  -1.244  1.00  0.00     0.060 A 
BRANCH  81  82
ATOM     82  S   UNL     1      -9.169  -8.966  -2.990  1.00  0.00     0.124 S 
ATOM     83  O   UNL     1      -9.678 -10.333  -2.968  1.00  0.00    -0.237 OA
ATOM     84  O   UNL     1     -10.036  -7.971  -3.614  1.00  0.00    -0.237 OA
ATOM     85  O   UNL     1      -7.748  -8.826  -3.291  1.00  0.00    -0.744 OA
ENDBRANCH  81  82
ENDBRANCH  49  74
BRANCH  61  86
ATOM     86  C   UNL     1     -12.110 -10.653   7.213  1.00  0.00     0.058 A 
ATOM     87  C   UNL     1     -11.431 -11.881   7.204  1.00  0.00     0.135 A 
ATOM     88  C   UNL     1     -13.481 -10.663   7.522  1.00  0.00     0.135 A 
ATOM     89  F   UNL     1     -10.122 -11.928   6.909  1.00  0.00    -0.206 F 
ATOM     90  C   UNL     1     -12.092 -13.077   7.465  1.00  0.00     0.059 A 
ATOM     91  C   UNL     1     -14.154 -11.843   7.818  1.00  0.00     0.059 A 
ATOM     92  F   UNL     1     -14.175  -9.514   7.557  1.00  0.00    -0.206 F 
ATOM     93  C   UNL     1     -13.454 -13.047   7.774  1.00  0.00     0.060 A 
BRANCH  93  94
ATOM     94  S   UNL     1     -14.291 -14.602   8.144  1.00  0.00     0.124 S 
ATOM     95  O   UNL     1     -14.383 -15.208   6.820  1.00  0.00    -0.237 OA
ATOM     96  O   UNL     1     -13.364 -15.243   9.072  1.00  0.00    -0.237 OA
ATOM     97  O   UNL     1     -15.559 -14.175   8.729  1.00  0.00    -0.744 OA
ENDBRANCH  93  94
ENDBRANCH  61  86
ENDBRANCH  35  36
ENDBRANCH  27  30
ENDBRANCH  25  26
ENDBRANCH  24  25
ENDBRANCH   1  24
TORSDOF 18
