REMARK SMILES CN(CC(F)(F)F)C(=O)N1CC(n2cc(C(=O)NCCCNC(=O)c3ccc(-c4c5nc(c(-c6c(F)cc(S(=O)(=O)[O-])cc6F)c6ccc([nH]6)c(-c6c(F)cc(S(=O)(=O)[O-])cc6F)c6nc(c(-c7c(F)cc(S(=O)(=O)[O-])cc7F)c7ccc4[nH]7)C=C6)C=C5)cc3)nn2)C1
REMARK SMILES IDX 19 1 18 2 16 3 17 4 15 6 13 7 14 8 92 9 91 10 12 11 8 12
REMARK SMILES IDX 9 13 10 14 11 15 93 16 2 17 1 18 3 19 4 20 5 21 6 22 7 23
REMARK SMILES IDX 20 24 21 25 22 26 23 27 24 29 25 30 26 31 90 32 27 33 89 34
REMARK SMILES IDX 28 35 29 36 30 37 83 38 31 39 88 40 82 41 84 42 32 43 87 44
REMARK SMILES IDX 81 45 80 46 33 48 67 49 46 50 66 51 47 52 50 53 65 54 85 55
REMARK SMILES IDX 48 56 49 57 64 59 86 60 51 61 34 62 35 63 44 64 36 65 37 66
REMARK SMILES IDX 43 67 45 68 38 69 39 70 40 71 41 72 42 73 68 74 69 75 78 76
REMARK SMILES IDX 70 77 71 78 77 79 79 80 72 81 73 82 74 83 75 84 76 85 52 86
REMARK SMILES IDX 53 87 62 88 54 89 55 90 61 91 63 92 56 93 57 94 58 95 59 96
REMARK SMILES IDX 60 97
REMARK H PARENT 18 5 22 28 84 47 50 58
REMARK Flexibility Score: inf
ROOT
ATOM      1  C   UNL     1      -4.812   3.971  -6.643  1.00  0.00     0.118 C 
ENDROOT
BRANCH   1   2
ATOM      2  N   UNL     1      -4.312   4.505  -7.904  1.00  0.00    -0.351 N 
ATOM      3  C   UNL     1      -3.025   4.614  -8.377  1.00  0.00     0.273 C 
ATOM      4  O   UNL     1      -2.877   4.898  -9.572  1.00  0.00    -0.267 OA
ATOM      5  H   UNL     1      -5.007   4.843  -8.514  1.00  0.00     0.163 HD
BRANCH   3   6
ATOM      6  C   UNL     1      -1.891   4.356  -7.504  1.00  0.00     0.170 A 
ATOM      7  N   UNL     1      -0.539   4.023  -5.842  1.00  0.00    -0.245 N 
ATOM      8  C   UNL     1      -1.761   4.550  -6.142  1.00  0.00     0.145 A 
ATOM      9  N   UNL     1       0.097   3.604  -6.942  1.00  0.00    -0.066 NA
ATOM     10  N   UNL     1      -0.703   3.838  -7.974  1.00  0.00    -0.125 NA
BRANCH   7  11
ATOM     11  C   UNL     1      -0.101   3.802  -4.502  1.00  0.00     0.148 C 
ATOM     12  C   UNL     1       1.022   1.861  -2.178  1.00  0.00     0.320 C 
ATOM     13  O   UNL     1       1.873   2.515  -1.575  1.00  0.00    -0.248 OA
ATOM     14  N   UNL     1       0.650   2.193  -3.450  1.00  0.00    -0.320 N 
ATOM     15  C   UNL     1       1.286   3.190  -4.321  1.00  0.00     0.150 C 
ATOM     16  C   UNL     1      -0.682   2.481  -3.967  1.00  0.00     0.150 C 
BRANCH  12  17
ATOM     17  N   UNL     1       0.440   0.735  -1.619  1.00  0.00    -0.319 N 
ATOM     18  C   UNL     1       0.828   0.409  -0.256  1.00  0.00     0.149 C 
BRANCH  17  19
ATOM     19  C   UNL     1      -0.386  -0.255  -2.339  1.00  0.00     0.236 C 
BRANCH  19  20
ATOM     20  C   UNL     1      -1.877  -0.258  -1.993  1.00  0.00     0.406 C 
ATOM     21  F   UNL     1      -2.476   0.917  -2.273  1.00  0.00    -0.169 F 
ATOM     22  F   UNL     1      -2.519  -1.213  -2.707  1.00  0.00    -0.169 F 
ATOM     23  F   UNL     1      -2.086  -0.526  -0.684  1.00  0.00    -0.169 F 
ENDBRANCH  19  20
ENDBRANCH  17  19
ENDBRANCH  12  17
ENDBRANCH   7  11
ENDBRANCH   3   6
ENDBRANCH   1   2
BRANCH   1  24
ATOM     24  C   UNL     1      -5.216   5.066  -5.648  1.00  0.00     0.042 C 
BRANCH  24  25
ATOM     25  C   UNL     1      -6.577   5.652  -5.975  1.00  0.00     0.118 C 
BRANCH  25  26
ATOM     26  N   UNL     1      -7.697   4.729  -5.721  1.00  0.00    -0.352 N 
ATOM     27  C   UNL     1      -9.062   4.944  -5.892  1.00  0.00     0.251 C 
ATOM     28  H   UNL     1      -7.446   3.839  -5.385  1.00  0.00     0.163 HD
ATOM     29  O   UNL     1      -9.879   4.218  -5.335  1.00  0.00    -0.269 OA
BRANCH  27  30
ATOM     30  C   UNL     1      -9.501   6.062  -6.749  1.00  0.00     0.039 A 
ATOM     31  C   UNL     1     -10.654   6.819  -6.536  1.00  0.00     0.014 A 
ATOM     32  C   UNL     1      -8.650   6.386  -7.788  1.00  0.00     0.014 A 
ATOM     33  C   UNL     1     -10.879   7.918  -7.369  1.00  0.00     0.010 A 
ATOM     34  C   UNL     1      -8.657   7.649  -8.278  1.00  0.00     0.010 A 
ATOM     35  C   UNL     1      -9.857   8.319  -8.244  1.00  0.00    -0.014 A 
BRANCH  35  36
ATOM     36  C   UNL     1      -9.954   9.444  -9.157  1.00  0.00     0.031 A 
ATOM     37  C   UNL     1     -10.236  10.732  -8.489  1.00  0.00     0.074 A 
ATOM     38  C   UNL     1      -9.568   9.365 -10.454  1.00  0.00     0.049 A 
ATOM     39  N   UNL     1     -11.346  11.386  -8.487  1.00  0.00    -0.248 NA
ATOM     40  C   UNL     1      -9.228  11.260  -7.557  1.00  0.00     0.031 C 
ATOM     41  C   UNL     1      -8.924   8.258 -11.181  1.00  0.00     0.029 A 
ATOM     42  N   UNL     1      -9.605  10.339 -11.399  1.00  0.00    -0.354 N 
ATOM     43  C   UNL     1     -11.108  12.535  -7.741  1.00  0.00     0.074 A 
ATOM     44  C   UNL     1      -9.881  12.296  -7.027  1.00  0.00     0.031 C 
ATOM     45  C   UNL     1      -8.438   8.701 -12.363  1.00  0.00     0.029 A 
ATOM     46  C   UNL     1      -8.893  10.062 -12.563  1.00  0.00     0.049 A 
ATOM     47  H   UNL     1     -10.100  11.180 -11.270  1.00  0.00     0.167 HD
ATOM     48  C   UNL     1     -11.827  13.672  -7.954  1.00  0.00     0.037 A 
ATOM     49  C   UNL     1      -8.690  10.918 -13.598  1.00  0.00     0.037 A 
ATOM     50  C   UNL     1     -12.976  13.401  -8.785  1.00  0.00     0.049 A 
ATOM     51  C   UNL     1      -9.741  11.969 -13.483  1.00  0.00     0.074 A 
ATOM     52  C   UNL     1     -14.096  12.603  -8.648  1.00  0.00     0.029 A 
ATOM     53  N   UNL     1     -12.862  13.658 -10.132  1.00  0.00    -0.354 N 
ATOM     54  N   UNL     1     -11.019  11.728 -13.617  1.00  0.00    -0.248 NA
ATOM     55  C   UNL     1      -9.412  13.160 -12.712  1.00  0.00     0.031 C 
ATOM     56  C   UNL     1     -14.292  12.022  -9.936  1.00  0.00     0.029 A 
ATOM     57  C   UNL     1     -13.341  12.560 -10.806  1.00  0.00     0.049 A 
ATOM     58  H   UNL     1     -12.502  14.479 -10.540  1.00  0.00     0.167 HD
ATOM     59  C   UNL     1     -11.637  12.481 -12.626  1.00  0.00     0.074 A 
ATOM     60  C   UNL     1     -10.597  13.386 -12.138  1.00  0.00     0.031 C 
ATOM     61  C   UNL     1     -12.838  12.108 -12.089  1.00  0.00     0.037 A 
BRANCH  48  62
ATOM     62  C   UNL     1     -11.330  15.074  -7.707  1.00  0.00     0.058 A 
ATOM     63  C   UNL     1     -12.237  16.150  -7.809  1.00  0.00     0.135 A 
ATOM     64  C   UNL     1      -9.966  15.435  -7.632  1.00  0.00     0.135 A 
ATOM     65  F   UNL     1     -13.559  15.926  -7.880  1.00  0.00    -0.206 F 
ATOM     66  C   UNL     1     -11.816  17.475  -7.911  1.00  0.00     0.059 A 
ATOM     67  C   UNL     1      -9.529  16.754  -7.676  1.00  0.00     0.059 A 
ATOM     68  F   UNL     1      -8.983  14.528  -7.608  1.00  0.00    -0.206 F 
ATOM     69  C   UNL     1     -10.457  17.765  -7.861  1.00  0.00     0.060 A 
BRANCH  69  70
ATOM     70  S   UNL     1      -9.906  19.461  -8.105  1.00  0.00     0.124 S 
ATOM     71  O   UNL     1     -10.247  19.679  -9.506  1.00  0.00    -0.237 OA
ATOM     72  O   UNL     1     -10.715  20.183  -7.129  1.00  0.00    -0.237 OA
ATOM     73  O   UNL     1      -8.479  19.397  -7.804  1.00  0.00    -0.744 OA
ENDBRANCH  69  70
ENDBRANCH  48  62
BRANCH  49  74
ATOM     74  C   UNL     1      -7.447  11.099 -14.400  1.00  0.00     0.058 A 
ATOM     75  C   UNL     1      -7.443  11.841 -15.596  1.00  0.00     0.135 A 
ATOM     76  C   UNL     1      -6.181  10.793 -13.860  1.00  0.00     0.135 A 
ATOM     77  F   UNL     1      -8.602  12.195 -16.171  1.00  0.00    -0.206 F 
ATOM     78  C   UNL     1      -6.258  12.293 -16.193  1.00  0.00     0.059 A 
ATOM     79  C   UNL     1      -4.988  11.228 -14.438  1.00  0.00     0.059 A 
ATOM     80  F   UNL     1      -6.070  10.137 -12.694  1.00  0.00    -0.206 F 
ATOM     81  C   UNL     1      -5.034  12.001 -15.592  1.00  0.00     0.060 A 
BRANCH  81  82
ATOM     82  S   UNL     1      -3.515  12.736 -16.252  1.00  0.00     0.124 S 
ATOM     83  O   UNL     1      -3.358  12.024 -17.515  1.00  0.00    -0.237 OA
ATOM     84  O   UNL     1      -3.875  14.146 -16.356  1.00  0.00    -0.237 OA
ATOM     85  O   UNL     1      -2.517  12.426 -15.231  1.00  0.00    -0.744 OA
ENDBRANCH  81  82
ENDBRANCH  49  74
BRANCH  61  86
ATOM     86  C   UNL     1     -13.612  10.993 -12.754  1.00  0.00     0.058 A 
ATOM     87  C   UNL     1     -13.189   9.652 -12.817  1.00  0.00     0.135 A 
ATOM     88  C   UNL     1     -14.921  11.264 -13.179  1.00  0.00     0.135 A 
ATOM     89  F   UNL     1     -11.992   9.284 -12.343  1.00  0.00    -0.206 F 
ATOM     90  C   UNL     1     -14.017   8.635 -13.304  1.00  0.00     0.059 A 
ATOM     91  C   UNL     1     -15.774  10.264 -13.640  1.00  0.00     0.059 A 
ATOM     92  F   UNL     1     -15.410  12.511 -13.088  1.00  0.00    -0.206 F 
ATOM     93  C   UNL     1     -15.312   8.952 -13.710  1.00  0.00     0.060 A 
BRANCH  93  94
ATOM     94  S   UNL     1     -16.414   7.630 -14.262  1.00  0.00     0.124 S 
ATOM     95  O   UNL     1     -15.837   7.269 -15.552  1.00  0.00    -0.237 OA
ATOM     96  O   UNL     1     -16.272   6.634 -13.203  1.00  0.00    -0.237 OA
ATOM     97  O   UNL     1     -17.722   8.279 -14.322  1.00  0.00    -0.744 OA
ENDBRANCH  93  94
ENDBRANCH  61  86
ENDBRANCH  35  36
ENDBRANCH  27  30
ENDBRANCH  25  26
ENDBRANCH  24  25
ENDBRANCH   1  24
TORSDOF 17
