REMARK SMILES O=C(CCCC(=O)Nc1ccccc1F)NCCCNC(=O)c1ccc(-c2c3nc(c(-c4c(F)cc(S(=O)(=O)[O-])cc4F)c4ccc([nH]4)c(-c4c(F)cc(S(=O)(=O)[O-])cc4F)c4nc(c(-c5c(F)cc(S(=O)(=O)[O-])cc5F)c5ccc2[nH]5)C=C4)C=C3)cc1
REMARK SMILES IDX 17 1 16 2 1 3 2 4 3 6 4 7 5 8 6 9 7 10 8 11 9 13 10 14 14 15
REMARK SMILES IDX 11 16 13 17 15 18 12 19 18 20 19 21 20 22 21 23 22 25 23 26
REMARK SMILES IDX 24 27 88 28 25 29 87 30 26 31 27 32 28 33 81 34 29 35 86 36
REMARK SMILES IDX 80 37 82 38 30 39 85 40 79 41 78 42 31 44 65 45 44 46 64 47
REMARK SMILES IDX 45 48 48 49 63 50 83 51 46 52 47 53 62 55 84 56 49 57 32 58
REMARK SMILES IDX 33 59 42 60 34 61 35 62 41 63 43 64 36 65 37 66 38 67 39 68
REMARK SMILES IDX 40 69 66 70 67 71 76 72 68 73 69 74 75 75 77 76 70 77 71 78
REMARK SMILES IDX 72 79 73 80 74 81 50 82 51 83 60 84 52 85 53 86 59 87 61 88
REMARK SMILES IDX 54 89 55 90 56 91 57 92 58 93
REMARK H PARENT 16 5 8 12 20 24 82 43 48 54
REMARK Flexibility Score: inf
ROOT
ATOM      1  C   UNL     1       1.930   1.430   2.357  1.00  0.00     0.117 C 
ENDROOT
BRANCH   1   2
ATOM      2  N   UNL     1       2.343   0.934   1.060  1.00  0.00    -0.356 N 
ATOM      3  O   UNL     1       1.399   2.660  -0.113  1.00  0.00    -0.275 OA
ATOM      4  C   UNL     1       2.054   1.622  -0.098  1.00  0.00     0.220 C 
ATOM      5  H   UNL     1       2.842   0.087   1.004  1.00  0.00     0.163 HD
BRANCH   4   6
ATOM      6  C   UNL     1       2.550   0.971  -1.378  1.00  0.00     0.100 C 
BRANCH   6   7
ATOM      7  C   UNL     1       4.049   1.065  -1.679  1.00  0.00     0.020 C 
BRANCH   7   8
ATOM      8  C   UNL     1       5.050   0.633  -0.612  1.00  0.00     0.101 C 
BRANCH   8   9
ATOM      9  C   UNL     1       5.681  -0.758  -0.690  1.00  0.00     0.224 C 
ATOM     10  O   UNL     1       6.743  -0.942  -1.285  1.00  0.00    -0.275 OA
ATOM     11  N   UNL     1       5.192  -1.726   0.153  1.00  0.00    -0.324 N 
ATOM     12  H   UNL     1       5.845  -2.156   0.753  1.00  0.00     0.170 HD
BRANCH  11  13
ATOM     13  C   UNL     1       3.865  -2.170   0.254  1.00  0.00     0.077 A 
ATOM     14  C   UNL     1       3.387  -2.578   1.500  1.00  0.00     0.029 A 
ATOM     15  C   UNL     1       3.027  -2.278  -0.859  1.00  0.00     0.146 A 
ATOM     16  C   UNL     1       2.046  -2.948   1.647  1.00  0.00     0.002 A 
ATOM     17  C   UNL     1       1.699  -2.676  -0.724  1.00  0.00     0.041 A 
ATOM     18  F   UNL     1       3.488  -1.993  -2.085  1.00  0.00    -0.205 F 
ATOM     19  C   UNL     1       1.198  -2.981   0.539  1.00  0.00     0.003 A 
ENDBRANCH  11  13
ENDBRANCH   8   9
ENDBRANCH   7   8
ENDBRANCH   6   7
ENDBRANCH   4   6
ENDBRANCH   1   2
BRANCH   1  20
ATOM     20  C   UNL     1       2.329   0.526   3.522  1.00  0.00     0.042 C 
BRANCH  20  21
ATOM     21  C   UNL     1       3.832   0.358   3.748  1.00  0.00     0.118 C 
BRANCH  21  22
ATOM     22  N   UNL     1       4.495   1.589   4.135  1.00  0.00    -0.352 N 
ATOM     23  C   UNL     1       5.252   1.900   5.237  1.00  0.00     0.251 C 
ATOM     24  H   UNL     1       4.383   2.330   3.496  1.00  0.00     0.163 HD
ATOM     25  O   UNL     1       5.590   3.071   5.403  1.00  0.00    -0.269 OA
BRANCH  23  26
ATOM     26  C   UNL     1       5.653   0.879   6.239  1.00  0.00     0.039 A 
ATOM     27  C   UNL     1       5.661   1.254   7.587  1.00  0.00     0.014 A 
ATOM     28  C   UNL     1       6.092  -0.400   5.884  1.00  0.00     0.014 A 
ATOM     29  C   UNL     1       6.058   0.344   8.571  1.00  0.00     0.010 A 
ATOM     30  C   UNL     1       6.429  -1.332   6.875  1.00  0.00     0.010 A 
ATOM     31  C   UNL     1       6.420  -0.971   8.231  1.00  0.00    -0.014 A 
BRANCH  31  32
ATOM     32  C   UNL     1       6.764  -1.952   9.299  1.00  0.00     0.031 A 
ATOM     33  C   UNL     1       8.155  -2.519   9.424  1.00  0.00     0.074 A 
ATOM     34  C   UNL     1       5.811  -2.336  10.174  1.00  0.00     0.049 A 
ATOM     35  N   UNL     1       8.631  -3.341  10.326  1.00  0.00    -0.248 NA
ATOM     36  C   UNL     1       9.132  -2.129   8.397  1.00  0.00     0.031 C 
ATOM     37  C   UNL     1       4.412  -1.903  10.138  1.00  0.00     0.029 A 
ATOM     38  N   UNL     1       5.873  -3.162  11.269  1.00  0.00    -0.354 N 
ATOM     39  C   UNL     1       9.959  -3.563   9.980  1.00  0.00     0.074 A 
ATOM     40  C   UNL     1      10.198  -2.834   8.752  1.00  0.00     0.031 C 
ATOM     41  C   UNL     1       3.763  -2.428  11.189  1.00  0.00     0.029 A 
ATOM     42  C   UNL     1       4.686  -3.257  11.957  1.00  0.00     0.049 A 
ATOM     43  H   UNL     1       6.691  -3.641  11.537  1.00  0.00     0.167 HD
ATOM     44  C   UNL     1      10.901  -4.285  10.636  1.00  0.00     0.037 A 
ATOM     45  C   UNL     1       4.373  -3.923  13.087  1.00  0.00     0.037 A 
ATOM     46  C   UNL     1      10.671  -4.995  11.870  1.00  0.00     0.049 A 
ATOM     47  C   UNL     1       5.437  -4.707  13.802  1.00  0.00     0.074 A 
ATOM     48  C   UNL     1      11.579  -5.714  12.630  1.00  0.00     0.029 A 
ATOM     49  N   UNL     1       9.453  -5.076  12.527  1.00  0.00    -0.354 N 
ATOM     50  N   UNL     1       6.699  -4.864  13.483  1.00  0.00    -0.248 NA
ATOM     51  C   UNL     1       5.037  -5.398  15.036  1.00  0.00     0.031 C 
ATOM     52  C   UNL     1      10.901  -6.262  13.725  1.00  0.00     0.029 A 
ATOM     53  C   UNL     1       9.581  -5.847  13.673  1.00  0.00     0.049 A 
ATOM     54  H   UNL     1       8.619  -4.649  12.225  1.00  0.00     0.167 HD
ATOM     55  C   UNL     1       7.247  -5.662  14.482  1.00  0.00     0.074 A 
ATOM     56  C   UNL     1       6.185  -5.933  15.429  1.00  0.00     0.031 C 
ATOM     57  C   UNL     1       8.515  -6.129  14.601  1.00  0.00     0.037 A 
BRANCH  44  58
ATOM     58  C   UNL     1      12.286  -4.333  10.046  1.00  0.00     0.058 A 
ATOM     59  C   UNL     1      12.796  -5.524   9.506  1.00  0.00     0.135 A 
ATOM     60  C   UNL     1      13.134  -3.214  10.078  1.00  0.00     0.135 A 
ATOM     61  F   UNL     1      12.028  -6.624   9.447  1.00  0.00    -0.206 F 
ATOM     62  C   UNL     1      14.101  -5.608   9.030  1.00  0.00     0.059 A 
ATOM     63  C   UNL     1      14.435  -3.268   9.583  1.00  0.00     0.059 A 
ATOM     64  F   UNL     1      12.691  -2.045  10.566  1.00  0.00    -0.206 F 
ATOM     65  C   UNL     1      14.914  -4.474   9.074  1.00  0.00     0.060 A 
BRANCH  65  66
ATOM     66  S   UNL     1      16.594  -4.590   8.423  1.00  0.00     0.124 S 
ATOM     67  O   UNL     1      17.250  -5.415   9.430  1.00  0.00    -0.237 OA
ATOM     68  O   UNL     1      16.376  -5.222   7.124  1.00  0.00    -0.237 OA
ATOM     69  O   UNL     1      17.030  -3.198   8.366  1.00  0.00    -0.744 OA
ENDBRANCH  65  66
ENDBRANCH  44  58
BRANCH  45  70
ATOM     70  C   UNL     1       2.993  -3.834  13.633  1.00  0.00     0.058 A 
ATOM     71  C   UNL     1       1.913  -4.452  12.987  1.00  0.00     0.135 A 
ATOM     72  C   UNL     1       2.725  -3.094  14.796  1.00  0.00     0.135 A 
ATOM     73  F   UNL     1       2.115  -5.162  11.866  1.00  0.00    -0.206 F 
ATOM     74  C   UNL     1       0.611  -4.317  13.456  1.00  0.00     0.059 A 
ATOM     75  C   UNL     1       1.435  -2.966  15.299  1.00  0.00     0.059 A 
ATOM     76  F   UNL     1       3.730  -2.498  15.455  1.00  0.00    -0.206 F 
ATOM     77  C   UNL     1       0.382  -3.565  14.610  1.00  0.00     0.060 A 
BRANCH  77  78
ATOM     78  S   UNL     1      -1.320  -3.385  15.187  1.00  0.00     0.124 S 
ATOM     79  O   UNL     1      -1.880  -2.507  14.163  1.00  0.00    -0.237 OA
ATOM     80  O   UNL     1      -1.796  -4.759  15.177  1.00  0.00    -0.237 OA
ATOM     81  O   UNL     1      -1.164  -2.783  16.511  1.00  0.00    -0.744 OA
ENDBRANCH  77  78
ENDBRANCH  45  70
BRANCH  57  82
ATOM     82  C   UNL     1       8.824  -6.984  15.800  1.00  0.00     0.058 A 
ATOM     83  C   UNL     1       9.635  -6.499  16.837  1.00  0.00     0.135 A 
ATOM     84  C   UNL     1       8.335  -8.296  15.910  1.00  0.00     0.135 A 
ATOM     85  F   UNL     1      10.135  -5.254  16.781  1.00  0.00    -0.206 F 
ATOM     86  C   UNL     1       9.947  -7.281  17.944  1.00  0.00     0.059 A 
ATOM     87  C   UNL     1       8.613  -9.088  17.021  1.00  0.00     0.059 A 
ATOM     88  F   UNL     1       7.547  -8.806  14.950  1.00  0.00    -0.206 F 
ATOM     89  C   UNL     1       9.428  -8.574  18.029  1.00  0.00     0.060 A 
BRANCH  89  90
ATOM     90  S   UNL     1       9.789  -9.556  19.502  1.00  0.00     0.124 S 
ATOM     91  O   UNL     1      11.178  -9.937  19.274  1.00  0.00    -0.237 OA
ATOM     92  O   UNL     1       9.561  -8.596  20.579  1.00  0.00    -0.237 OA
ATOM     93  O   UNL     1       8.818 -10.643  19.428  1.00  0.00    -0.744 OA
ENDBRANCH  89  90
ENDBRANCH  57  82
ENDBRANCH  31  32
ENDBRANCH  23  26
ENDBRANCH  21  22
ENDBRANCH  20  21
ENDBRANCH   1  20
TORSDOF 17
