REMARK SMILES O=C(NCCCNC(=O)c1cnc(-c2ccccc2Cl)nc1)c1ccc(-c2c3nc(c(-c4c(F)cc(S(=O)(=O)[O-])cc4F)c4ccc([nH]4)c(-c4c(F)cc(S(=O)(=O)[O-])cc4F)c4nc(c(-c5c(F)cc(S(=O)(=O)[O-])cc5F)c5ccc2[nH]5)C=C4)C=C3)cc1
REMARK SMILES IDX 4 1 3 2 1 3 2 4 23 6 24 7 88 8 25 9 87 10 26 11 27 12 28 13
REMARK SMILES IDX 81 14 29 15 86 16 80 17 82 18 30 19 85 20 79 21 78 22 31 24
REMARK SMILES IDX 65 25 44 26 64 27 45 28 48 29 63 30 83 31 46 32 47 33 62 35
REMARK SMILES IDX 84 36 49 37 32 38 33 39 42 40 34 41 35 42 41 43 43 44 36 45
REMARK SMILES IDX 37 46 38 47 39 48 40 49 66 50 67 51 76 52 68 53 69 54 75 55
REMARK SMILES IDX 77 56 70 57 71 58 72 59 73 60 74 61 50 62 51 63 60 64 52 65
REMARK SMILES IDX 53 66 59 67 61 68 54 69 55 70 56 71 57 72 58 73 5 74 6 75
REMARK SMILES IDX 7 76 8 77 9 79 10 80 11 81 22 82 12 83 21 84 13 85 14 86
REMARK SMILES IDX 15 87 19 88 16 89 18 90 20 91 17 92
REMARK H PARENT 3 5 82 23 48 34 7 78
REMARK Flexibility Score: inf
ROOT
ATOM      1  C   UNL     1       4.597  -1.043  -1.045  1.00  0.00     0.118 C 
ENDROOT
BRANCH   1   2
ATOM      2  N   UNL     1       3.172  -0.730  -0.999  1.00  0.00    -0.352 N 
ATOM      3  O   UNL     1       1.229   0.059  -0.193  1.00  0.00    -0.269 OA
ATOM      4  C   UNL     1       2.456   0.079  -0.147  1.00  0.00     0.251 C 
ATOM      5  H   UNL     1       2.634  -1.171  -1.695  1.00  0.00     0.163 HD
BRANCH   4   6
ATOM      6  C   UNL     1       3.148   0.943   0.835  1.00  0.00     0.039 A 
ATOM      7  C   UNL     1       4.312   1.628   0.492  1.00  0.00     0.014 A 
ATOM      8  C   UNL     1       2.618   1.079   2.122  1.00  0.00     0.014 A 
ATOM      9  C   UNL     1       5.051   2.272   1.477  1.00  0.00     0.010 A 
ATOM     10  C   UNL     1       3.306   1.827   3.086  1.00  0.00     0.010 A 
ATOM     11  C   UNL     1       4.557   2.386   2.787  1.00  0.00    -0.014 A 
BRANCH  11  12
ATOM     12  C   UNL     1       5.367   3.111   3.803  1.00  0.00     0.031 A 
ATOM     13  C   UNL     1       5.889   2.409   5.030  1.00  0.00     0.074 A 
ATOM     14  C   UNL     1       5.682   4.404   3.581  1.00  0.00     0.049 A 
ATOM     15  N   UNL     1       6.660   2.877   5.980  1.00  0.00    -0.248 NA
ATOM     16  C   UNL     1       5.487   1.008   5.227  1.00  0.00     0.031 C 
ATOM     17  C   UNL     1       5.223   5.198   2.438  1.00  0.00     0.029 A 
ATOM     18  N   UNL     1       6.483   5.268   4.281  1.00  0.00    -0.354 N 
ATOM     19  C   UNL     1       6.814   1.842   6.896  1.00  0.00     0.074 A 
ATOM     20  C   UNL     1       6.035   0.727   6.402  1.00  0.00     0.031 C 
ATOM     21  C   UNL     1       5.801   6.406   2.479  1.00  0.00     0.029 A 
ATOM     22  C   UNL     1       6.620   6.498   3.682  1.00  0.00     0.049 A 
ATOM     23  H   UNL     1       6.919   5.031   5.132  1.00  0.00     0.167 HD
ATOM     24  C   UNL     1       7.544   1.820   8.038  1.00  0.00     0.037 A 
ATOM     25  C   UNL     1       7.320   7.585   4.058  1.00  0.00     0.037 A 
ATOM     26  C   UNL     1       8.343   2.924   8.508  1.00  0.00     0.049 A 
ATOM     27  C   UNL     1       8.128   7.530   5.322  1.00  0.00     0.074 A 
ATOM     28  C   UNL     1       9.151   2.985   9.631  1.00  0.00     0.029 A 
ATOM     29  N   UNL     1       8.437   4.159   7.884  1.00  0.00    -0.354 N 
ATOM     30  N   UNL     1       8.283   6.531   6.158  1.00  0.00    -0.248 NA
ATOM     31  C   UNL     1       8.855   8.750   5.696  1.00  0.00     0.031 C 
ATOM     32  C   UNL     1       9.700   4.270   9.709  1.00  0.00     0.029 A 
ATOM     33  C   UNL     1       9.274   4.994   8.607  1.00  0.00     0.049 A 
ATOM     34  H   UNL     1       7.976   4.407   7.050  1.00  0.00     0.167 HD
ATOM     35  C   UNL     1       9.145   6.994   7.145  1.00  0.00     0.074 A 
ATOM     36  C   UNL     1       9.487   8.358   6.793  1.00  0.00     0.031 C 
ATOM     37  C   UNL     1       9.611   6.348   8.242  1.00  0.00     0.037 A 
BRANCH  24  38
ATOM     38  C   UNL     1       7.501   0.569   8.875  1.00  0.00     0.058 A 
ATOM     39  C   UNL     1       8.134  -0.618   8.473  1.00  0.00     0.135 A 
ATOM     40  C   UNL     1       6.848   0.571  10.119  1.00  0.00     0.135 A 
ATOM     41  F   UNL     1       8.761  -0.682   7.288  1.00  0.00    -0.206 F 
ATOM     42  C   UNL     1       8.097  -1.766   9.260  1.00  0.00     0.059 A 
ATOM     43  C   UNL     1       6.820  -0.558  10.934  1.00  0.00     0.059 A 
ATOM     44  F   UNL     1       6.227   1.678  10.555  1.00  0.00    -0.206 F 
ATOM     45  C   UNL     1       7.435  -1.726  10.489  1.00  0.00     0.060 A 
BRANCH  45  46
ATOM     46  S   UNL     1       7.393  -3.224  11.498  1.00  0.00     0.124 S 
ATOM     47  O   UNL     1       6.429  -4.040  10.766  1.00  0.00    -0.237 OA
ATOM     48  O   UNL     1       8.778  -3.679  11.442  1.00  0.00    -0.237 OA
ATOM     49  O   UNL     1       6.946  -2.743  12.802  1.00  0.00    -0.744 OA
ENDBRANCH  45  46
ENDBRANCH  24  38
BRANCH  25  50
ATOM     50  C   UNL     1       7.293   8.809   3.215  1.00  0.00     0.058 A 
ATOM     51  C   UNL     1       8.427   9.219   2.498  1.00  0.00     0.135 A 
ATOM     52  C   UNL     1       6.126   9.578   3.089  1.00  0.00     0.135 A 
ATOM     53  F   UNL     1       9.568   8.517   2.588  1.00  0.00    -0.206 F 
ATOM     54  C   UNL     1       8.410  10.356   1.697  1.00  0.00     0.059 A 
ATOM     55  C   UNL     1       6.076  10.703   2.273  1.00  0.00     0.059 A 
ATOM     56  F   UNL     1       5.009   9.217   3.740  1.00  0.00    -0.206 F 
ATOM     57  C   UNL     1       7.228  11.090   1.589  1.00  0.00     0.060 A 
BRANCH  57  58
ATOM     58  S   UNL     1       7.199  12.535   0.508  1.00  0.00     0.124 S 
ATOM     59  O   UNL     1       7.940  13.508   1.300  1.00  0.00    -0.237 OA
ATOM     60  O   UNL     1       7.872  12.038  -0.688  1.00  0.00    -0.237 OA
ATOM     61  O   UNL     1       5.772  12.805   0.348  1.00  0.00    -0.744 OA
ENDBRANCH  57  58
ENDBRANCH  25  50
BRANCH  37  62
ATOM     62  C   UNL     1      10.575   7.097   9.119  1.00  0.00     0.058 A 
ATOM     63  C   UNL     1      10.158   8.153   9.944  1.00  0.00     0.135 A 
ATOM     64  C   UNL     1      11.931   6.736   9.148  1.00  0.00     0.135 A 
ATOM     65  F   UNL     1       8.873   8.542   9.947  1.00  0.00    -0.206 F 
ATOM     66  C   UNL     1      11.060   8.850  10.742  1.00  0.00     0.059 A 
ATOM     67  C   UNL     1      12.845   7.401   9.959  1.00  0.00     0.059 A 
ATOM     68  F   UNL     1      12.380   5.726   8.387  1.00  0.00    -0.206 F 
ATOM     69  C   UNL     1      12.403   8.468  10.740  1.00  0.00     0.060 A 
BRANCH  69  70
ATOM     70  S   UNL     1      13.564   9.370  11.787  1.00  0.00     0.124 S 
ATOM     71  O   UNL     1      13.748  10.602  11.027  1.00  0.00    -0.237 OA
ATOM     72  O   UNL     1      12.822   9.502  13.038  1.00  0.00    -0.237 OA
ATOM     73  O   UNL     1      14.725   8.488  11.845  1.00  0.00    -0.744 OA
ENDBRANCH  69  70
ENDBRANCH  37  62
ENDBRANCH  11  12
ENDBRANCH   4   6
ENDBRANCH   1   2
BRANCH   1  74
ATOM     74  C   UNL     1       4.900  -2.490  -0.682  1.00  0.00     0.042 C 
BRANCH  74  75
ATOM     75  C   UNL     1       4.320  -3.503  -1.658  1.00  0.00     0.118 C 
BRANCH  75  76
ATOM     76  N   UNL     1       4.907  -3.389  -2.990  1.00  0.00    -0.352 N 
ATOM     77  C   UNL     1       5.829  -4.195  -3.608  1.00  0.00     0.254 C 
ATOM     78  H   UNL     1       4.594  -2.623  -3.523  1.00  0.00     0.163 HD
ATOM     79  O   UNL     1       6.367  -3.849  -4.655  1.00  0.00    -0.269 OA
BRANCH  77  80
ATOM     80  C   UNL     1       6.182  -5.479  -3.011  1.00  0.00     0.076 A 
ATOM     81  C   UNL     1       5.237  -6.417  -2.672  1.00  0.00     0.129 A 
ATOM     82  C   UNL     1       7.488  -5.822  -2.762  1.00  0.00     0.129 A 
ATOM     83  N   UNL     1       5.528  -7.557  -2.017  1.00  0.00    -0.236 NA
ATOM     84  N   UNL     1       7.837  -6.958  -2.119  1.00  0.00    -0.236 NA
ATOM     85  C   UNL     1       6.830  -7.757  -1.714  1.00  0.00     0.160 A 
BRANCH  85  86
ATOM     86  C   UNL     1       7.132  -8.915  -0.865  1.00  0.00     0.038 A 
ATOM     87  C   UNL     1       6.466 -10.136  -1.112  1.00  0.00     0.013 A 
ATOM     88  C   UNL     1       8.010  -8.868   0.235  1.00  0.00     0.052 A 
ATOM     89  C   UNL     1       6.670 -11.261  -0.309  1.00  0.00     0.001 A 
ATOM     90  C   UNL     1       8.215 -10.000   1.038  1.00  0.00     0.021 A 
ATOM     91  Cl  UNL     1       8.827  -7.423   0.732  1.00  0.00    -0.084 Cl
ATOM     92  C   UNL     1       7.547 -11.192   0.766  1.00  0.00     0.002 A 
ENDBRANCH  85  86
ENDBRANCH  77  80
ENDBRANCH  75  76
ENDBRANCH  74  75
ENDBRANCH   1  74
TORSDOF 14
