REMARK SMILES O=C(Nc1ccccc1)N[C@H]1C[C@@H](C(=O)NCCCNC(=O)c2ccc(-c3c4nc(c(-c5c(F)cc(S(=O)(=O)[O-])cc5F)c5ccc([nH]5)c(-c5c(F)cc(S(=O)(=O)[O-])cc5F)c5nc(c(-c6c(F)cc(S(=O)(=O)[O-])cc6F)c6ccc3[nH]6)C=C5)C=C4)cc2)Nc2cc(Cl)cc(Cl)c21
REMARK SMILES IDX 18 1 17 2 16 3 14 4 15 5 13 7 11 8 12 9 97 10 90 11 95 12
REMARK SMILES IDX 89 13 91 14 94 15 96 16 92 18 93 19 10 20 1 21 2 22 3 23
REMARK SMILES IDX 4 26 5 27 9 28 6 29 8 30 7 31 19 32 20 33 21 34 22 36 23 37
REMARK SMILES IDX 24 38 88 39 25 40 87 41 26 42 27 43 28 44 81 45 29 46 86 47
REMARK SMILES IDX 80 48 82 49 30 50 85 51 79 52 78 53 31 55 65 56 44 57 64 58
REMARK SMILES IDX 45 59 48 60 63 61 83 62 46 63 47 64 62 66 84 67 49 68 32 69
REMARK SMILES IDX 33 70 42 71 34 72 35 73 41 74 43 75 36 76 37 77 38 78 39 79
REMARK SMILES IDX 40 80 66 81 67 82 76 83 68 84 69 85 75 86 77 87 70 88 71 89
REMARK SMILES IDX 72 90 73 91 74 92 50 93 51 94 60 95 52 96 53 97 59 98 61 99
REMARK SMILES IDX 54 100 55 101 56 102 57 103 58 104
REMARK H PARENT 16 6 89 17 3 24 10 25 20 35 82 54 48 65
REMARK Flexibility Score: inf
ROOT
ATOM      1  C   UNL     1       3.330  -1.358  -1.285  1.00  0.00     0.042 C 
ENDROOT
BRANCH   1   2
ATOM      2  C   UNL     1       4.365  -0.649  -2.159  1.00  0.00     0.117 C 
BRANCH   2   3
ATOM      3  N   UNL     1       3.711   0.213  -3.120  1.00  0.00    -0.354 N 
ATOM      4  C   UNL     1       3.251   1.490  -2.992  1.00  0.00     0.242 C 
ATOM      5  O   UNL     1       2.516   1.893  -3.903  1.00  0.00    -0.273 OA
ATOM      6  H   UNL     1       3.577  -0.187  -4.009  1.00  0.00     0.163 HD
BRANCH   4   7
ATOM      7  C   UNL     1       3.746   2.449  -1.871  1.00  0.00     0.171 C 
ATOM      8  C   UNL     1       2.688   2.714   0.499  1.00  0.00     0.120 C 
ATOM      9  C   UNL     1       3.699   1.998  -0.408  1.00  0.00     0.065 C 
ATOM     10  C   UNL     1       2.869   4.200   0.306  1.00  0.00     0.016 A 
ATOM     11  C   UNL     1       3.025   4.656  -1.016  1.00  0.00     0.043 A 
ATOM     12  C   UNL     1       2.788   5.132   1.348  1.00  0.00     0.049 A 
ATOM     13  N   UNL     1       3.115   3.757  -2.065  1.00  0.00    -0.373 N 
ATOM     14  C   UNL     1       3.002   6.023  -1.287  1.00  0.00     0.046 A 
ATOM     15  C   UNL     1       2.826   6.500   1.075  1.00  0.00     0.041 A 
ATOM     16  Cl  UNL     1       2.643   4.649   3.000  1.00  0.00    -0.084 Cl
ATOM     17  H   UNL     1       2.752   3.999  -2.948  1.00  0.00     0.161 HD
ATOM     18  C   UNL     1       2.912   6.936  -0.243  1.00  0.00     0.044 A 
ATOM     19  Cl  UNL     1       2.919   8.623  -0.585  1.00  0.00    -0.084 Cl
BRANCH   8  20
ATOM     20  N   UNL     1       1.310   2.191   0.391  1.00  0.00    -0.331 N 
ATOM     21  O   UNL     1       0.216   4.080  -0.322  1.00  0.00    -0.248 OA
ATOM     22  C   UNL     1       0.206   2.907   0.047  1.00  0.00     0.319 C 
ATOM     23  N   UNL     1      -0.993   2.283  -0.013  1.00  0.00    -0.308 N 
ATOM     24  H   UNL     1      -1.601   2.721  -0.652  1.00  0.00     0.171 HD
ATOM     25  H   UNL     1       1.179   1.235   0.587  1.00  0.00     0.166 HD
BRANCH  23  26
ATOM     26  C   UNL     1      -1.593   1.176   0.599  1.00  0.00     0.042 A 
ATOM     27  C   UNL     1      -2.823   0.773   0.050  1.00  0.00     0.026 A 
ATOM     28  C   UNL     1      -1.136   0.555   1.759  1.00  0.00     0.026 A 
ATOM     29  C   UNL     1      -3.580  -0.239   0.637  1.00  0.00     0.002 A 
ATOM     30  C   UNL     1      -1.907  -0.454   2.358  1.00  0.00     0.002 A 
ATOM     31  C   UNL     1      -3.123  -0.851   1.797  1.00  0.00     0.000 A 
ENDBRANCH  23  26
ENDBRANCH   8  20
ENDBRANCH   4   7
ENDBRANCH   2   3
ENDBRANCH   1   2
BRANCH   1  32
ATOM     32  C   UNL     1       2.438  -2.324  -2.046  1.00  0.00     0.118 C 
BRANCH  32  33
ATOM     33  N   UNL     1       3.168  -3.489  -2.508  1.00  0.00    -0.352 N 
ATOM     34  C   UNL     1       3.085  -4.788  -2.082  1.00  0.00     0.251 C 
ATOM     35  H   UNL     1       3.815  -3.322  -3.230  1.00  0.00     0.163 HD
ATOM     36  O   UNL     1       3.976  -5.580  -2.403  1.00  0.00    -0.269 OA
BRANCH  34  37
ATOM     37  C   UNL     1       1.957  -5.240  -1.238  1.00  0.00     0.039 A 
ATOM     38  C   UNL     1       2.204  -6.163  -0.219  1.00  0.00     0.014 A 
ATOM     39  C   UNL     1       0.653  -4.791  -1.469  1.00  0.00     0.014 A 
ATOM     40  C   UNL     1       1.153  -6.599   0.591  1.00  0.00     0.010 A 
ATOM     41  C   UNL     1      -0.374  -5.151  -0.601  1.00  0.00     0.010 A 
ATOM     42  C   UNL     1      -0.140  -6.076   0.425  1.00  0.00    -0.014 A 
BRANCH  42  43
ATOM     43  C   UNL     1      -1.264  -6.506   1.296  1.00  0.00     0.031 A 
ATOM     44  C   UNL     1      -2.455  -7.209   0.699  1.00  0.00     0.074 A 
ATOM     45  C   UNL     1      -1.234  -6.215   2.612  1.00  0.00     0.049 A 
ATOM     46  N   UNL     1      -3.558  -7.603   1.282  1.00  0.00    -0.248 NA
ATOM     47  C   UNL     1      -2.416  -7.481  -0.749  1.00  0.00     0.031 C 
ATOM     48  C   UNL     1      -0.159  -5.493   3.296  1.00  0.00     0.029 A 
ATOM     49  N   UNL     1      -2.138  -6.482   3.610  1.00  0.00    -0.354 N 
ATOM     50  C   UNL     1      -4.346  -8.149   0.275  1.00  0.00     0.074 A 
ATOM     51  C   UNL     1      -3.620  -7.991  -0.965  1.00  0.00     0.031 C 
ATOM     52  C   UNL     1      -0.454  -5.393   4.602  1.00  0.00     0.029 A 
ATOM     53  C   UNL     1      -1.756  -6.006   4.843  1.00  0.00     0.049 A 
ATOM     54  H   UNL     1      -2.980  -6.969   3.458  1.00  0.00     0.167 HD
ATOM     55  C   UNL     1      -5.556  -8.748   0.379  1.00  0.00     0.037 A 
ATOM     56  C   UNL     1      -2.390  -6.049   6.032  1.00  0.00     0.037 A 
ATOM     57  C   UNL     1      -6.254  -8.937   1.624  1.00  0.00     0.049 A 
ATOM     58  C   UNL     1      -3.727  -6.737   6.121  1.00  0.00     0.074 A 
ATOM     59  C   UNL     1      -7.452  -9.594   1.845  1.00  0.00     0.029 A 
ATOM     60  N   UNL     1      -5.819  -8.473   2.856  1.00  0.00    -0.354 N 
ATOM     61  N   UNL     1      -4.424  -7.309   5.169  1.00  0.00    -0.248 NA
ATOM     62  C   UNL     1      -4.359  -6.794   7.446  1.00  0.00     0.031 C 
ATOM     63  C   UNL     1      -7.767  -9.482   3.203  1.00  0.00     0.029 A 
ATOM     64  C   UNL     1      -6.736  -8.808   3.838  1.00  0.00     0.049 A 
ATOM     65  H   UNL     1      -4.982  -7.978   3.010  1.00  0.00     0.167 HD
ATOM     66  C   UNL     1      -5.559  -7.823   5.786  1.00  0.00     0.074 A 
ATOM     67  C   UNL     1      -5.448  -7.506   7.195  1.00  0.00     0.031 C 
ATOM     68  C   UNL     1      -6.601  -8.498   5.238  1.00  0.00     0.037 A 
BRANCH  55  69
ATOM     69  C   UNL     1      -6.208  -9.255  -0.878  1.00  0.00     0.058 A 
ATOM     70  C   UNL     1      -5.720 -10.378  -1.563  1.00  0.00     0.135 A 
ATOM     71  C   UNL     1      -7.384  -8.656  -1.360  1.00  0.00     0.135 A 
ATOM     72  F   UNL     1      -4.589 -10.979  -1.158  1.00  0.00    -0.206 F 
ATOM     73  C   UNL     1      -6.366 -10.884  -2.686  1.00  0.00     0.059 A 
ATOM     74  C   UNL     1      -8.064  -9.162  -2.464  1.00  0.00     0.059 A 
ATOM     75  F   UNL     1      -7.893  -7.575  -0.747  1.00  0.00    -0.206 F 
ATOM     76  C   UNL     1      -7.543 -10.274  -3.124  1.00  0.00     0.060 A 
BRANCH  76  77
ATOM     77  S   UNL     1      -8.394 -10.973  -4.555  1.00  0.00     0.124 S 
ATOM     78  O   UNL     1      -7.488 -10.607  -5.640  1.00  0.00    -0.237 OA
ATOM     79  O   UNL     1      -8.444 -12.393  -4.223  1.00  0.00    -0.237 OA
ATOM     80  O   UNL     1      -9.681 -10.286  -4.555  1.00  0.00    -0.744 OA
ENDBRANCH  76  77
ENDBRANCH  55  69
BRANCH  56  81
ATOM     81  C   UNL     1      -1.770  -5.431   7.235  1.00  0.00     0.058 A 
ATOM     82  C   UNL     1      -1.324  -6.217   8.308  1.00  0.00     0.135 A 
ATOM     83  C   UNL     1      -1.626  -4.038   7.343  1.00  0.00     0.135 A 
ATOM     84  F   UNL     1      -1.440  -7.553   8.254  1.00  0.00    -0.206 F 
ATOM     85  C   UNL     1      -0.792  -5.646   9.459  1.00  0.00     0.059 A 
ATOM     86  C   UNL     1      -1.069  -3.445   8.471  1.00  0.00     0.059 A 
ATOM     87  F   UNL     1      -2.014  -3.241   6.335  1.00  0.00    -0.206 F 
ATOM     88  C   UNL     1      -0.672  -4.257   9.532  1.00  0.00     0.060 A 
BRANCH  88  89
ATOM     89  S   UNL     1       0.036  -3.525  11.024  1.00  0.00     0.124 S 
ATOM     90  O   UNL     1      -1.052  -3.701  11.979  1.00  0.00    -0.237 OA
ATOM     91  O   UNL     1       1.218  -4.353  11.240  1.00  0.00    -0.237 OA
ATOM     92  O   UNL     1       0.308  -2.148  10.622  1.00  0.00    -0.744 OA
ENDBRANCH  88  89
ENDBRANCH  56  81
BRANCH  68  93
ATOM     93  C   UNL     1      -7.679  -8.982   6.168  1.00  0.00     0.058 A 
ATOM     94  C   UNL     1      -8.585  -8.100   6.777  1.00  0.00     0.135 A 
ATOM     95  C   UNL     1      -7.837 -10.357   6.412  1.00  0.00     0.135 A 
ATOM     96  F   UNL     1      -8.476  -6.777   6.580  1.00  0.00    -0.206 F 
ATOM     97  C   UNL     1      -9.590  -8.561   7.620  1.00  0.00     0.059 A 
ATOM     98  C   UNL     1      -8.855 -10.842   7.226  1.00  0.00     0.059 A 
ATOM     99  F   UNL     1      -7.006 -11.245   5.843  1.00  0.00    -0.206 F 
ATOM    100  C   UNL     1      -9.718  -9.934   7.837  1.00  0.00     0.060 A 
BRANCH 100 101
ATOM    101  S   UNL     1     -11.043 -10.520   8.914  1.00  0.00     0.124 S 
ATOM    102  O   UNL     1     -10.543 -10.137  10.230  1.00  0.00    -0.237 OA
ATOM    103  O   UNL     1     -12.195  -9.767   8.428  1.00  0.00    -0.237 OA
ATOM    104  O   UNL     1     -11.084 -11.956   8.651  1.00  0.00    -0.744 OA
ENDBRANCH 100 101
ENDBRANCH  68  93
ENDBRANCH  42  43
ENDBRANCH  34  37
ENDBRANCH  32  33
ENDBRANCH   1  32
TORSDOF 15
