REMARK SMILES CSCc1ccc(C(=O)N2C[C@@H](O)C[C@@H]2C(=O)NCCCNC(=O)c2ccc(-c3c4nc(c(-c5c(F)cc(S(=O)(=O)[O-])cc5F)c5ccc([nH]5)c(-c5c(F)cc(S(=O)(=O)[O-])cc5F)c5nc(c(-c6c(F)cc(S(=O)(=O)[O-])cc6F)c6ccc3[nH]6)C=C5)C=C4)cc2)o1
REMARK SMILES IDX 19 1 18 2 16 3 17 4 15 6 10 7 11 8 12 9 14 10 8 11 9 12 7 13
REMARK SMILES IDX 4 14 5 15 91 16 6 17 3 18 2 19 1 20 13 21 20 23 21 24 22 25
REMARK SMILES IDX 23 26 24 28 25 29 26 30 90 31 27 32 89 33 28 34 29 35 30 36
REMARK SMILES IDX 83 37 31 38 88 39 82 40 84 41 32 42 87 43 81 44 80 45 33 47
REMARK SMILES IDX 67 48 46 49 66 50 47 51 50 52 65 53 85 54 48 55 49 56 64 58
REMARK SMILES IDX 86 59 51 60 34 61 35 62 44 63 36 64 37 65 43 66 45 67 38 68
REMARK SMILES IDX 39 69 40 70 41 71 42 72 68 73 69 74 78 75 70 76 71 77 77 78
REMARK SMILES IDX 79 79 72 80 73 81 74 82 75 83 76 84 52 85 53 86 62 87 54 88
REMARK SMILES IDX 55 89 61 90 63 91 56 92 57 93 58 94 59 95 60 96
REMARK H PARENT 18 5 13 22 22 27 84 46 50 57
REMARK Flexibility Score: inf
ROOT
ATOM      1  C   UNL     1      -4.706   0.678   7.718  1.00  0.00     0.117 C 
ENDROOT
BRANCH   1   2
ATOM      2  N   UNL     1      -4.247  -0.351   6.800  1.00  0.00    -0.354 N 
ATOM      3  C   UNL     1      -3.025  -0.948   6.693  1.00  0.00     0.242 C 
ATOM      4  O   UNL     1      -2.876  -1.818   5.829  1.00  0.00    -0.273 OA
ATOM      5  H   UNL     1      -4.922  -0.666   6.156  1.00  0.00     0.163 HD
BRANCH   3   6
ATOM      6  C   UNL     1      -1.875  -0.553   7.641  1.00  0.00     0.177 C 
ATOM      7  N   UNL     1      -0.675  -0.299   6.844  1.00  0.00    -0.321 N 
ATOM      8  C   UNL     1       0.410  -1.178   7.235  1.00  0.00     0.152 C 
ATOM      9  C   UNL     1      -0.307  -2.390   7.814  1.00  0.00     0.136 C 
ATOM     10  C   UNL     1      -1.506  -1.754   8.526  1.00  0.00     0.069 C 
BRANCH   7  11
ATOM     11  C   UNL     1      -0.651   0.757   5.956  1.00  0.00     0.290 C 
ATOM     12  O   UNL     1      -1.393   1.732   6.167  1.00  0.00    -0.265 OA
BRANCH  11  13
ATOM     13  C   UNL     1       0.139   0.631   4.749  1.00  0.00     0.191 A 
ATOM     14  C   UNL     1       0.949   1.365   2.823  1.00  0.00     0.114 A 
ATOM     15  C   UNL     1       1.275   0.028   2.898  1.00  0.00     0.047 A 
ATOM     16  O   UNL     1       0.300   1.742   3.962  1.00  0.00    -0.455 OA
ATOM     17  C   UNL     1       0.699  -0.455   4.094  1.00  0.00     0.056 A 
BRANCH  14  18
ATOM     18  C   UNL     1       1.156   2.416   1.796  1.00  0.00     0.144 C 
BRANCH  18  19
ATOM     19  S   UNL     1       0.124   2.172   0.309  1.00  0.00    -0.157 SA
ATOM     20  C   UNL     1       0.874   0.672  -0.369  1.00  0.00     0.085 C 
ENDBRANCH  18  19
ENDBRANCH  14  18
ENDBRANCH  11  13
ENDBRANCH   7  11
BRANCH   9  21
ATOM     21  O   UNL     1       0.501  -3.141   8.705  1.00  0.00    -0.391 OA
ATOM     22  H   UNL     1       0.801  -2.570   9.429  1.00  0.00     0.211 HD
ENDBRANCH   9  21
ENDBRANCH   3   6
ENDBRANCH   1   2
BRANCH   1  23
ATOM     23  C   UNL     1      -4.729   2.075   7.102  1.00  0.00     0.042 C 
BRANCH  23  24
ATOM     24  C   UNL     1      -5.697   2.244   5.931  1.00  0.00     0.118 C 
BRANCH  24  25
ATOM     25  N   UNL     1      -7.088   2.066   6.326  1.00  0.00    -0.352 N 
ATOM     26  C   UNL     1      -8.156   2.926   6.255  1.00  0.00     0.251 C 
ATOM     27  H   UNL     1      -7.297   1.182   6.707  1.00  0.00     0.163 HD
ATOM     28  O   UNL     1      -9.201   2.623   6.826  1.00  0.00    -0.269 OA
BRANCH  26  29
ATOM     29  C   UNL     1      -8.067   4.209   5.519  1.00  0.00     0.039 A 
ATOM     30  C   UNL     1      -8.679   5.341   6.069  1.00  0.00     0.014 A 
ATOM     31  C   UNL     1      -7.442   4.297   4.272  1.00  0.00     0.014 A 
ATOM     32  C   UNL     1      -8.611   6.568   5.402  1.00  0.00     0.010 A 
ATOM     33  C   UNL     1      -7.325   5.533   3.635  1.00  0.00     0.010 A 
ATOM     34  C   UNL     1      -7.908   6.681   4.192  1.00  0.00    -0.014 A 
BRANCH  34  35
ATOM     35  C   UNL     1      -7.770   7.988   3.498  1.00  0.00     0.031 A 
ATOM     36  C   UNL     1      -8.413   8.207   2.156  1.00  0.00     0.074 A 
ATOM     37  C   UNL     1      -7.014   8.959   4.048  1.00  0.00     0.049 A 
ATOM     38  N   UNL     1      -8.331   9.242   1.359  1.00  0.00    -0.248 NA
ATOM     39  C   UNL     1      -9.239   7.109   1.633  1.00  0.00     0.031 C 
ATOM     40  C   UNL     1      -6.312   8.861   5.329  1.00  0.00     0.029 A 
ATOM     41  N   UNL     1      -6.702  10.215   3.592  1.00  0.00    -0.354 N 
ATOM     42  C   UNL     1      -9.074   8.913   0.232  1.00  0.00     0.074 A 
ATOM     43  C   UNL     1      -9.572   7.568   0.435  1.00  0.00     0.031 C 
ATOM     44  C   UNL     1      -5.669  10.016   5.566  1.00  0.00     0.029 A 
ATOM     45  C   UNL     1      -5.883  10.921   4.441  1.00  0.00     0.049 A 
ATOM     46  H   UNL     1      -7.033  10.576   2.739  1.00  0.00     0.167 HD
ATOM     47  C   UNL     1      -9.331   9.666  -0.866  1.00  0.00     0.037 A 
ATOM     48  C   UNL     1      -5.358  12.156   4.324  1.00  0.00     0.037 A 
ATOM     49  C   UNL     1      -8.859  11.012  -1.056  1.00  0.00     0.049 A 
ATOM     50  C   UNL     1      -5.662  12.976   3.102  1.00  0.00     0.074 A 
ATOM     51  C   UNL     1      -9.103  11.871  -2.113  1.00  0.00     0.029 A 
ATOM     52  N   UNL     1      -8.045  11.697  -0.165  1.00  0.00    -0.354 N 
ATOM     53  N   UNL     1      -6.393  12.661   2.060  1.00  0.00    -0.248 NA
ATOM     54  C   UNL     1      -5.069  14.319   3.039  1.00  0.00     0.031 C 
ATOM     55  C   UNL     1      -8.420  13.070  -1.871  1.00  0.00     0.029 A 
ATOM     56  C   UNL     1      -7.772  12.965  -0.651  1.00  0.00     0.049 A 
ATOM     57  H   UNL     1      -7.711  11.335   0.687  1.00  0.00     0.167 HD
ATOM     58  C   UNL     1      -6.364  13.772   1.226  1.00  0.00     0.074 A 
ATOM     59  C   UNL     1      -5.549  14.771   1.888  1.00  0.00     0.031 C 
ATOM     60  C   UNL     1      -6.962  13.949   0.022  1.00  0.00     0.037 A 
BRANCH  47  61
ATOM     61  C   UNL     1     -10.165   9.036  -1.945  1.00  0.00     0.058 A 
ATOM     62  C   UNL     1     -11.546   8.839  -1.783  1.00  0.00     0.135 A 
ATOM     63  C   UNL     1      -9.580   8.618  -3.151  1.00  0.00     0.135 A 
ATOM     64  F   UNL     1     -12.152   9.208  -0.644  1.00  0.00    -0.206 F 
ATOM     65  C   UNL     1     -12.310   8.210  -2.761  1.00  0.00     0.059 A 
ATOM     66  C   UNL     1     -10.329   8.007  -4.152  1.00  0.00     0.059 A 
ATOM     67  F   UNL     1      -8.264   8.786  -3.358  1.00  0.00    -0.206 F 
ATOM     68  C   UNL     1     -11.690   7.787  -3.938  1.00  0.00     0.060 A 
BRANCH  68  69
ATOM     69  S   UNL     1     -12.682   6.942  -5.188  1.00  0.00     0.124 S 
ATOM     70  O   UNL     1     -12.756   5.593  -4.635  1.00  0.00    -0.237 OA
ATOM     71  O   UNL     1     -13.928   7.701  -5.172  1.00  0.00    -0.237 OA
ATOM     72  O   UNL     1     -11.884   7.082  -6.402  1.00  0.00    -0.744 OA
ENDBRANCH  68  69
ENDBRANCH  47  61
BRANCH  48  73
ATOM     73  C   UNL     1      -4.517  12.703   5.418  1.00  0.00     0.058 A 
ATOM     74  C   UNL     1      -5.029  13.668   6.296  1.00  0.00     0.135 A 
ATOM     75  C   UNL     1      -3.206  12.250   5.630  1.00  0.00     0.135 A 
ATOM     76  F   UNL     1      -6.275  14.135   6.127  1.00  0.00    -0.206 F 
ATOM     77  C   UNL     1      -4.271  14.169   7.349  1.00  0.00     0.059 A 
ATOM     78  C   UNL     1      -2.434  12.723   6.687  1.00  0.00     0.059 A 
ATOM     79  F   UNL     1      -2.678  11.317   4.823  1.00  0.00    -0.206 F 
ATOM     80  C   UNL     1      -2.974  13.687   7.538  1.00  0.00     0.060 A 
BRANCH  80  81
ATOM     81  S   UNL     1      -2.022  14.289   8.950  1.00  0.00     0.124 S 
ATOM     82  O   UNL     1      -1.595  15.601   8.479  1.00  0.00    -0.237 OA
ATOM     83  O   UNL     1      -3.017  14.288  10.019  1.00  0.00    -0.237 OA
ATOM     84  O   UNL     1      -0.966  13.291   9.090  1.00  0.00    -0.744 OA
ENDBRANCH  80  81
ENDBRANCH  48  73
BRANCH  60  85
ATOM     85  C   UNL     1      -6.778  15.281  -0.645  1.00  0.00     0.058 A 
ATOM     86  C   UNL     1      -5.584  15.614  -1.302  1.00  0.00     0.135 A 
ATOM     87  C   UNL     1      -7.823  16.219  -0.663  1.00  0.00     0.135 A 
ATOM     88  F   UNL     1      -4.553  14.754  -1.306  1.00  0.00    -0.206 F 
ATOM     89  C   UNL     1      -5.425  16.839  -1.943  1.00  0.00     0.059 A 
ATOM     90  C   UNL     1      -7.692  17.442  -1.312  1.00  0.00     0.059 A 
ATOM     91  F   UNL     1      -8.987  15.945  -0.053  1.00  0.00    -0.206 F 
ATOM     92  C   UNL     1      -6.485  17.748  -1.940  1.00  0.00     0.060 A 
BRANCH  92  93
ATOM     93  S   UNL     1      -6.285  19.322  -2.803  1.00  0.00     0.124 S 
ATOM     94  O   UNL     1      -5.509  20.090  -1.835  1.00  0.00    -0.237 OA
ATOM     95  O   UNL     1      -5.576  18.931  -4.017  1.00  0.00    -0.237 OA
ATOM     96  O   UNL     1      -7.659  19.772  -3.006  1.00  0.00    -0.744 OA
ENDBRANCH  92  93
ENDBRANCH  60  85
ENDBRANCH  34  35
ENDBRANCH  26  29
ENDBRANCH  24  25
ENDBRANCH  23  24
ENDBRANCH   1  23
TORSDOF 18
