REMARK SMILES NS(=O)(=O)c1ccc(C#Cc2cc(Cl)cc3c2O[C@H](C(F)(F)F)C(C(=O)NCCCNC(=O)c2ccc(-c4c5nc(c(-c6c(F)cc(S(=O)(=O)[O-])cc6F)c6ccc([nH]6)c(-c6c(F)cc(S(=O)(=O)[O-])cc6F)c6nc(c(-c7c(F)cc(S(=O)(=O)[O-])cc7F)c7ccc4[nH]7)C=C6)C=C5)cc2)=C3)cc1
REMARK SMILES IDX 28 1 27 2 25 3 26 4 24 6 11 7 12 8 17 9 13 10 16 11 18 12
REMARK SMILES IDX 14 13 15 14 100 15 19 16 10 17 9 18 8 19 5 20 6 21 102 22
REMARK SMILES IDX 7 23 101 24 2 25 3 26 4 27 1 28 20 31 21 32 22 33 23 34
REMARK SMILES IDX 29 35 30 36 31 37 32 38 33 40 34 41 35 42 99 43 36 44 98 45
REMARK SMILES IDX 37 46 38 47 39 48 92 49 40 50 97 51 91 52 93 53 41 54 96 55
REMARK SMILES IDX 90 56 89 57 42 59 76 60 55 61 75 62 56 63 59 64 74 65 94 66
REMARK SMILES IDX 57 67 58 68 73 70 95 71 60 72 43 73 44 74 53 75 45 76 46 77
REMARK SMILES IDX 52 78 54 79 47 80 48 81 49 82 50 83 51 84 77 85 78 86 87 87
REMARK SMILES IDX 79 88 80 89 86 90 88 91 81 92 82 93 83 94 84 95 85 96 61 97
REMARK SMILES IDX 62 98 71 99 63 100 64 101 70 102 72 103 65 104 66 105 67 106
REMARK SMILES IDX 68 107 69 108
REMARK H PARENT 27 5 1 29 1 30 31 39 93 58 59 69
REMARK Flexibility Score: inf
ROOT
ATOM      1  C   UNL     1       1.601 -12.202  -4.959  1.00  0.00     0.118 C 
ENDROOT
BRANCH   1   2
ATOM      2  N   UNL     1       1.448 -12.407  -6.392  1.00  0.00    -0.352 N 
ATOM      3  C   UNL     1       1.395 -11.634  -7.502  1.00  0.00     0.251 C 
ATOM      4  O   UNL     1       1.289 -12.239  -8.573  1.00  0.00    -0.270 OA
ATOM      5  H   UNL     1       1.360 -13.363  -6.613  1.00  0.00     0.163 HD
BRANCH   3   6
ATOM      6  C   UNL     1       1.463 -10.144  -7.499  1.00  0.00     0.067 C 
ATOM      7  C   UNL     1       1.437  -5.946  -7.541  1.00  0.00     0.069 A 
ATOM      8  C   UNL     1       1.457  -5.265  -8.757  1.00  0.00     0.041 A 
ATOM      9  C   UNL     1       1.390  -7.345  -7.536  1.00  0.00     0.143 A 
ATOM     10  C   UNL     1       1.430  -5.987  -9.951  1.00  0.00     0.043 A 
ATOM     11  C   UNL     1       1.367  -8.072  -8.732  1.00  0.00     0.020 A 
ATOM     12  O   UNL     1       1.314  -7.962  -6.319  1.00  0.00    -0.474 OA
ATOM     13  Cl  UNL     1       1.447  -5.144 -11.452  1.00  0.00    -0.084 Cl
ATOM     14  C   UNL     1       1.386  -7.384  -9.947  1.00  0.00     0.032 A 
ATOM     15  C   UNL     1       1.288  -9.529  -8.683  1.00  0.00     0.025 C 
ATOM     16  C   UNL     1       1.740  -9.340  -6.264  1.00  0.00     0.314 C 
BRANCH   7  17
ATOM     17  C   UNL     1       1.461  -5.221  -6.305  1.00  0.00    -0.058 C 
ATOM     18  C   UNL     1       1.447  -4.660  -5.240  1.00  0.00    -0.062 C 
BRANCH  18  19
ATOM     19  C   UNL     1       1.357  -3.990  -3.981  1.00  0.00     0.025 A 
ATOM     20  C   UNL     1       0.988  -2.634  -1.571  1.00  0.00     0.082 A 
ATOM     21  C   UNL     1       1.280  -1.914  -2.732  1.00  0.00     0.023 A 
ATOM     22  C   UNL     1       0.919  -4.031  -1.598  1.00  0.00     0.023 A 
ATOM     23  C   UNL     1       1.466  -2.597  -3.936  1.00  0.00     0.018 A 
ATOM     24  C   UNL     1       1.101  -4.708  -2.808  1.00  0.00     0.018 A 
BRANCH  20  25
ATOM     25  S   UNL     1       0.679  -1.805  -0.041  1.00  0.00     0.238 S 
ATOM     26  O   UNL     1       1.462  -2.435   0.996  1.00  0.00    -0.207 OA
ATOM     27  O   UNL     1      -0.736  -1.553   0.068  1.00  0.00    -0.207 OA
BRANCH  25  28
ATOM     28  N   UNL     1       1.380  -0.283  -0.233  1.00  0.00    -0.225 NA
ATOM     29  H   UNL     1       1.244   0.265   0.617  1.00  0.00     0.137 HD
ATOM     30  H   UNL     1       0.943   0.197  -1.020  1.00  0.00     0.137 HD
ENDBRANCH  25  28
ENDBRANCH  20  25
ENDBRANCH  18  19
ENDBRANCH   7  17
BRANCH  16  31
ATOM     31  C   UNL     1       3.223  -9.398  -5.845  1.00  0.00     0.429 C 
ATOM     32  F   UNL     1       3.368  -9.014  -4.552  1.00  0.00    -0.167 F 
ATOM     33  F   UNL     1       3.746 -10.645  -5.935  1.00  0.00    -0.167 F 
ATOM     34  F   UNL     1       4.008  -8.596  -6.599  1.00  0.00    -0.167 F 
ENDBRANCH  16  31
ENDBRANCH   3   6
ENDBRANCH   1   2
BRANCH   1  35
ATOM     35  C   UNL     1       0.316 -12.481  -4.202  1.00  0.00     0.042 C 
BRANCH  35  36
ATOM     36  C   UNL     1       0.132 -13.967  -3.953  1.00  0.00     0.118 C 
BRANCH  36  37
ATOM     37  N   UNL     1       1.184 -14.517  -3.094  1.00  0.00    -0.352 N 
ATOM     38  C   UNL     1       1.123 -15.002  -1.809  1.00  0.00     0.251 C 
ATOM     39  H   UNL     1       2.079 -14.542  -3.502  1.00  0.00     0.163 HD
ATOM     40  O   UNL     1       2.156 -15.204  -1.180  1.00  0.00    -0.269 OA
BRANCH  38  41
ATOM     41  C   UNL     1      -0.195 -15.251  -1.197  1.00  0.00     0.039 A 
ATOM     42  C   UNL     1      -1.217 -15.797  -1.969  1.00  0.00     0.014 A 
ATOM     43  C   UNL     1      -0.429 -14.885   0.130  1.00  0.00     0.014 A 
ATOM     44  C   UNL     1      -2.520 -15.733  -1.511  1.00  0.00     0.010 A 
ATOM     45  C   UNL     1      -1.726 -14.967   0.642  1.00  0.00     0.010 A 
ATOM     46  C   UNL     1      -2.793 -15.329  -0.196  1.00  0.00    -0.014 A 
BRANCH  46  47
ATOM     47  C   UNL     1      -4.204 -15.293   0.266  1.00  0.00     0.031 A 
ATOM     48  C   UNL     1      -4.827 -14.006   0.740  1.00  0.00     0.074 A 
ATOM     49  C   UNL     1      -4.943 -16.418   0.184  1.00  0.00     0.049 A 
ATOM     50  N   UNL     1      -6.040 -13.797   1.185  1.00  0.00    -0.248 NA
ATOM     51  C   UNL     1      -3.987 -12.796   0.717  1.00  0.00     0.031 C 
ATOM     52  C   UNL     1      -4.452 -17.717  -0.290  1.00  0.00     0.029 A 
ATOM     53  N   UNL     1      -6.264 -16.651   0.464  1.00  0.00    -0.354 N 
ATOM     54  C   UNL     1      -6.103 -12.447   1.509  1.00  0.00     0.074 A 
ATOM     55  C   UNL     1      -4.795 -11.888   1.247  1.00  0.00     0.031 C 
ATOM     56  C   UNL     1      -5.470 -18.587  -0.331  1.00  0.00     0.029 A 
ATOM     57  C   UNL     1      -6.661 -17.942   0.205  1.00  0.00     0.049 A 
ATOM     58  H   UNL     1      -6.870 -15.960   0.817  1.00  0.00     0.167 HD
ATOM     59  C   UNL     1      -7.162 -11.736   1.964  1.00  0.00     0.037 A 
ATOM     60  C   UNL     1      -7.844 -18.551   0.403  1.00  0.00     0.037 A 
ATOM     61  C   UNL     1      -8.466 -12.300   2.199  1.00  0.00     0.049 A 
ATOM     62  C   UNL     1      -8.975 -17.756   0.989  1.00  0.00     0.074 A 
ATOM     63  C   UNL     1      -9.606 -11.662   2.656  1.00  0.00     0.029 A 
ATOM     64  N   UNL     1      -8.808 -13.629   1.992  1.00  0.00    -0.354 N 
ATOM     65  N   UNL     1      -9.014 -16.480   1.293  1.00  0.00    -0.248 NA
ATOM     66  C   UNL     1     -10.220 -18.482   1.270  1.00  0.00     0.031 C 
ATOM     67  C   UNL     1     -10.620 -12.615   2.781  1.00  0.00     0.029 A 
ATOM     68  C   UNL     1     -10.134 -13.835   2.338  1.00  0.00     0.049 A 
ATOM     69  H   UNL     1      -8.199 -14.322   1.650  1.00  0.00     0.167 HD
ATOM     70  C   UNL     1     -10.295 -16.246   1.778  1.00  0.00     0.074 A 
ATOM     71  C   UNL     1     -11.005 -17.506   1.706  1.00  0.00     0.031 C 
ATOM     72  C   UNL     1     -10.831 -15.093   2.248  1.00  0.00     0.037 A 
BRANCH  59  73
ATOM     73  C   UNL     1      -6.972 -10.269   2.241  1.00  0.00     0.058 A 
ATOM     74  C   UNL     1      -6.816  -9.337   1.203  1.00  0.00     0.135 A 
ATOM     75  C   UNL     1      -7.043  -9.777   3.555  1.00  0.00     0.135 A 
ATOM     76  F   UNL     1      -6.721  -9.752  -0.070  1.00  0.00    -0.206 F 
ATOM     77  C   UNL     1      -6.733  -7.972   1.458  1.00  0.00     0.059 A 
ATOM     78  C   UNL     1      -6.992  -8.413   3.831  1.00  0.00     0.059 A 
ATOM     79  F   UNL     1      -7.189 -10.623   4.587  1.00  0.00    -0.206 F 
ATOM     80  C   UNL     1      -6.834  -7.519   2.774  1.00  0.00     0.060 A 
BRANCH  80  81
ATOM     81  S   UNL     1      -6.765  -5.741   3.076  1.00  0.00     0.124 S 
ATOM     82  O   UNL     1      -5.391  -5.435   2.691  1.00  0.00    -0.237 OA
ATOM     83  O   UNL     1      -7.802  -5.238   2.181  1.00  0.00    -0.237 OA
ATOM     84  O   UNL     1      -7.057  -5.624   4.501  1.00  0.00    -0.744 OA
ENDBRANCH  80  81
ENDBRANCH  59  73
BRANCH  60  85
ATOM     85  C   UNL     1      -8.009 -19.989   0.059  1.00  0.00     0.058 A 
ATOM     86  C   UNL     1      -8.882 -20.390  -0.962  1.00  0.00     0.135 A 
ATOM     87  C   UNL     1      -7.294 -20.991   0.737  1.00  0.00     0.135 A 
ATOM     88  F   UNL     1      -9.590 -19.473  -1.638  1.00  0.00    -0.206 F 
ATOM     89  C   UNL     1      -9.057 -21.731  -1.285  1.00  0.00     0.059 A 
ATOM     90  C   UNL     1      -7.425 -22.335   0.408  1.00  0.00     0.059 A 
ATOM     91  F   UNL     1      -6.431 -20.661   1.712  1.00  0.00    -0.206 F 
ATOM     92  C   UNL     1      -8.321 -22.696  -0.595  1.00  0.00     0.060 A 
BRANCH  92  93
ATOM     93  S   UNL     1      -8.543 -24.431  -1.042  1.00  0.00     0.124 S 
ATOM     94  O   UNL     1      -9.910 -24.676  -0.598  1.00  0.00    -0.237 OA
ATOM     95  O   UNL     1      -8.335 -24.400  -2.486  1.00  0.00    -0.237 OA
ATOM     96  O   UNL     1      -7.500 -25.111  -0.279  1.00  0.00    -0.744 OA
ENDBRANCH  92  93
ENDBRANCH  60  85
BRANCH  72  97
ATOM     97  C   UNL     1     -12.267 -15.126   2.695  1.00  0.00     0.058 A 
ATOM     98  C   UNL     1     -12.657 -15.786   3.870  1.00  0.00     0.135 A 
ATOM     99  C   UNL     1     -13.251 -14.426   1.977  1.00  0.00     0.135 A 
ATOM    100  F   UNL     1     -11.757 -16.476   4.589  1.00  0.00    -0.206 F 
ATOM    101  C   UNL     1     -13.976 -15.768   4.308  1.00  0.00     0.059 A 
ATOM    102  C   UNL     1     -14.569 -14.365   2.416  1.00  0.00     0.059 A 
ATOM    103  F   UNL     1     -12.929 -13.769   0.851  1.00  0.00    -0.206 F 
ATOM    104  C   UNL     1     -14.924 -15.047   3.579  1.00  0.00     0.060 A 
BRANCH 104 105
ATOM    105  S   UNL     1     -16.621 -15.000   4.188  1.00  0.00     0.124 S 
ATOM    106  O   UNL     1     -17.042 -16.384   3.997  1.00  0.00    -0.237 OA
ATOM    107  O   UNL     1     -16.440 -14.577   5.573  1.00  0.00    -0.237 OA
ATOM    108  O   UNL     1     -17.270 -14.023   3.318  1.00  0.00    -0.744 OA
ENDBRANCH 104 105
ENDBRANCH  72  97
ENDBRANCH  46  47
ENDBRANCH  38  41
ENDBRANCH  36  37
ENDBRANCH  35  36
ENDBRANCH   1  35
TORSDOF 18
