REMARK SMILES C[C@@H](C(=O)NCCCNC(=O)c1ccc(-c2c3nc(c(-c4c(F)cc(S(=O)(=O)[O-])cc4F)c4ccc([nH]4)c(-c4c(F)cc(S(=O)(=O)[O-])cc4F)c4nc(c(-c5c(F)cc(S(=O)(=O)[O-])cc5F)c5ccc2[nH]5)C=C4)C=C3)cc1)c1ccc(-c2cccc(OC(=O)NCCC3CCCCC3)c2)c(F)c1
REMARK SMILES IDX 3 1 4 2 5 3 2 5 1 6 78 7 79 8 102 9 80 10 100 11 81 12
REMARK SMILES IDX 101 13 82 14 83 15 99 16 84 17 86 18 85 19 87 20 88 21 89 22
REMARK SMILES IDX 90 23 91 25 92 26 93 27 94 28 98 29 95 30 97 31 96 32 6 33
REMARK SMILES IDX 7 34 8 35 9 36 10 37 11 39 12 40 13 41 77 42 14 43 76 44
REMARK SMILES IDX 15 45 16 46 17 47 70 48 18 49 75 50 69 51 71 52 19 53 74 54
REMARK SMILES IDX 68 55 67 56 20 58 54 59 33 60 53 61 34 62 37 63 52 64 72 65
REMARK SMILES IDX 35 66 36 67 51 69 73 70 38 71 21 72 22 73 31 74 23 75 24 76
REMARK SMILES IDX 30 77 32 78 25 79 26 80 27 81 28 82 29 83 55 84 56 85 65 86
REMARK SMILES IDX 57 87 58 88 64 89 66 90 59 91 60 92 61 93 62 94 63 95 39 96
REMARK SMILES IDX 40 97 49 98 41 99 42 100 48 101 50 102 43 103 44 104 45 105
REMARK SMILES IDX 46 106 47 107
REMARK H PARENT 5 4 90 24 9 38 71 57 37 68
REMARK Flexibility Score: inf
ROOT
ATOM      1  C   UNL     1       1.055  -2.083   1.018  1.00  0.00     0.227 C 
ATOM      2  O   UNL     1       0.382  -2.514   1.956  1.00  0.00    -0.274 OA
ATOM      3  N   UNL     1       2.357  -2.491   0.960  1.00  0.00    -0.356 N 
ATOM      4  H   UNL     1       2.596  -3.210   1.589  1.00  0.00     0.163 HD
ENDROOT
BRANCH   1   5
ATOM      5  C   UNL     1       0.485  -1.168  -0.084  1.00  0.00     0.105 C 
ATOM      6  C   UNL     1       1.025   0.257   0.086  1.00  0.00     0.023 C 
BRANCH   5   7
ATOM      7  C   UNL     1      -1.044  -1.226  -0.155  1.00  0.00    -0.033 A 
ATOM      8  C   UNL     1      -1.847  -0.075  -0.108  1.00  0.00     0.005 A 
ATOM      9  C   UNL     1      -1.691  -2.467  -0.270  1.00  0.00     0.044 A 
ATOM     10  C   UNL     1      -3.241  -0.163  -0.127  1.00  0.00     0.012 A 
ATOM     11  C   UNL     1      -3.084  -2.548  -0.271  1.00  0.00     0.131 A 
ATOM     12  C   UNL     1      -3.886  -1.404  -0.185  1.00  0.00     0.018 A 
ATOM     13  F   UNL     1      -3.649  -3.765  -0.335  1.00  0.00    -0.206 F 
BRANCH  12  14
ATOM     14  C   UNL     1      -5.344  -1.472  -0.043  1.00  0.00    -0.012 A 
ATOM     15  C   UNL     1      -6.205  -0.775  -0.905  1.00  0.00     0.009 A 
ATOM     16  C   UNL     1      -5.899  -2.168   1.043  1.00  0.00     0.056 A 
ATOM     17  C   UNL     1      -7.583  -0.764  -0.680  1.00  0.00     0.004 A 
ATOM     18  C   UNL     1      -7.269  -2.131   1.286  1.00  0.00     0.133 A 
ATOM     19  C   UNL     1      -8.116  -1.437   0.420  1.00  0.00     0.047 A 
BRANCH  18  20
ATOM     20  O   UNL     1      -7.897  -2.748   2.396  1.00  0.00    -0.410 OA
BRANCH  20  21
ATOM     21  C   UNL     1      -7.226  -3.211   3.526  1.00  0.00     0.412 C 
ATOM     22  O   UNL     1      -6.013  -3.231   3.704  1.00  0.00    -0.224 OA
ATOM     23  N   UNL     1      -8.053  -3.653   4.515  1.00  0.00    -0.321 N 
ATOM     24  H   UNL     1      -7.612  -3.972   5.336  1.00  0.00     0.167 HD
BRANCH  23  25
ATOM     25  C   UNL     1      -9.496  -3.712   4.507  1.00  0.00     0.119 C 
BRANCH  25  26
ATOM     26  C   UNL     1      -9.995  -5.158   4.521  1.00  0.00     0.025 C 
BRANCH  26  27
ATOM     27  C   UNL     1      -9.564  -5.971   5.762  1.00  0.00    -0.009 C 
ATOM     28  C   UNL     1     -10.212  -5.442   7.052  1.00  0.00     0.003 C 
ATOM     29  C   UNL     1      -9.902  -7.457   5.554  1.00  0.00     0.003 C 
ATOM     30  C   UNL     1      -9.861  -6.300   8.266  1.00  0.00     0.000 C 
ATOM     31  C   UNL     1      -9.529  -8.298   6.773  1.00  0.00     0.000 C 
ATOM     32  C   UNL     1     -10.194  -7.770   8.038  1.00  0.00     0.000 C 
ENDBRANCH  26  27
ENDBRANCH  25  26
ENDBRANCH  23  25
ENDBRANCH  20  21
ENDBRANCH  18  20
ENDBRANCH  12  14
ENDBRANCH   5   7
ENDBRANCH   1   5
BRANCH   3  33
ATOM     33  C   UNL     1       3.440  -2.030   0.115  1.00  0.00     0.117 C 
BRANCH  33  34
ATOM     34  C   UNL     1       4.329  -1.032   0.855  1.00  0.00     0.042 C 
BRANCH  34  35
ATOM     35  C   UNL     1       5.079  -1.632   2.036  1.00  0.00     0.118 C 
BRANCH  35  36
ATOM     36  N   UNL     1       6.039  -2.639   1.622  1.00  0.00    -0.352 N 
ATOM     37  C   UNL     1       7.394  -2.694   1.823  1.00  0.00     0.251 C 
ATOM     38  H   UNL     1       5.660  -3.397   1.121  1.00  0.00     0.163 HD
ATOM     39  O   UNL     1       8.057  -3.514   1.193  1.00  0.00    -0.269 OA
BRANCH  37  40
ATOM     40  C   UNL     1       8.056  -1.778   2.780  1.00  0.00     0.039 A 
ATOM     41  C   UNL     1       9.335  -1.305   2.477  1.00  0.00     0.014 A 
ATOM     42  C   UNL     1       7.457  -1.431   3.994  1.00  0.00     0.014 A 
ATOM     43  C   UNL     1      10.000  -0.473   3.380  1.00  0.00     0.010 A 
ATOM     44  C   UNL     1       8.079  -0.523   4.848  1.00  0.00     0.010 A 
ATOM     45  C   UNL     1       9.373  -0.065   4.568  1.00  0.00    -0.014 A 
BRANCH  45  46
ATOM     46  C   UNL     1      10.087   0.787   5.554  1.00  0.00     0.031 A 
ATOM     47  C   UNL     1      10.380   0.258   6.935  1.00  0.00     0.074 A 
ATOM     48  C   UNL     1      10.452   2.040   5.218  1.00  0.00     0.049 A 
ATOM     49  N   UNL     1      10.979   0.849   7.937  1.00  0.00    -0.248 NA
ATOM     50  C   UNL     1       9.913  -1.105   7.239  1.00  0.00     0.031 C 
ATOM     51  C   UNL     1      10.176   2.684   3.933  1.00  0.00     0.029 A 
ATOM     52  N   UNL     1      11.131   2.996   5.930  1.00  0.00    -0.354 N 
ATOM     53  C   UNL     1      10.955  -0.065   8.985  1.00  0.00     0.074 A 
ATOM     54  C   UNL     1      10.215  -1.217   8.523  1.00  0.00     0.031 C 
ATOM     55  C   UNL     1      10.703   3.919   3.938  1.00  0.00     0.029 A 
ATOM     56  C   UNL     1      11.324   4.167   5.237  1.00  0.00     0.049 A 
ATOM     57  H   UNL     1      11.450   2.857   6.851  1.00  0.00     0.167 HD
ATOM     58  C   UNL     1      11.528   0.029  10.209  1.00  0.00     0.037 A 
ATOM     59  C   UNL     1      11.930   5.312   5.606  1.00  0.00     0.037 A 
ATOM     60  C   UNL     1      12.275   1.175  10.658  1.00  0.00     0.049 A 
ATOM     61  C   UNL     1      12.565   5.396   6.967  1.00  0.00     0.074 A 
ATOM     62  C   UNL     1      12.923   1.363  11.866  1.00  0.00     0.029 A 
ATOM     63  N   UNL     1      12.473   2.332   9.915  1.00  0.00    -0.354 N 
ATOM     64  N   UNL     1      12.581   4.501   7.927  1.00  0.00    -0.248 NA
ATOM     65  C   UNL     1      13.281   6.637   7.290  1.00  0.00     0.031 C 
ATOM     66  C   UNL     1      13.473   2.650  11.872  1.00  0.00     0.029 A 
ATOM     67  C   UNL     1      13.223   3.241  10.643  1.00  0.00     0.049 A 
ATOM     68  H   UNL     1      12.130   2.483   9.005  1.00  0.00     0.167 HD
ATOM     69  C   UNL     1      13.336   5.057   8.954  1.00  0.00     0.074 A 
ATOM     70  C   UNL     1      13.768   6.361   8.491  1.00  0.00     0.031 C 
ATOM     71  C   UNL     1      13.649   4.534  10.167  1.00  0.00     0.037 A 
BRANCH  58  72
ATOM     72  C   UNL     1      11.371  -1.145  11.141  1.00  0.00     0.058 A 
ATOM     73  C   UNL     1      11.975  -2.386  10.874  1.00  0.00     0.135 A 
ATOM     74  C   UNL     1      10.615  -1.031  12.319  1.00  0.00     0.135 A 
ATOM     75  F   UNL     1      12.697  -2.560   9.755  1.00  0.00    -0.206 F 
ATOM     76  C   UNL     1      11.800  -3.480  11.715  1.00  0.00     0.059 A 
ATOM     77  C   UNL     1      10.455  -2.103  13.194  1.00  0.00     0.059 A 
ATOM     78  F   UNL     1      10.015   0.129  12.629  1.00  0.00    -0.206 F 
ATOM     79  C   UNL     1      11.035  -3.329  12.872  1.00  0.00     0.060 A 
BRANCH  79  80
ATOM     80  S   UNL     1      10.809  -4.762  13.946  1.00  0.00     0.124 S 
ATOM     81  O   UNL     1       9.905  -5.584  13.148  1.00  0.00    -0.237 OA
ATOM     82  O   UNL     1      12.171  -5.268  14.082  1.00  0.00    -0.237 OA
ATOM     83  O   UNL     1      10.231  -4.191  15.159  1.00  0.00    -0.744 OA
ENDBRANCH  79  80
ENDBRANCH  58  72
BRANCH  59  84
ATOM     84  C   UNL     1      11.986   6.455   4.655  1.00  0.00     0.058 A 
ATOM     85  C   UNL     1      13.192   6.844   4.053  1.00  0.00     0.135 A 
ATOM     86  C   UNL     1      10.825   7.162   4.305  1.00  0.00     0.135 A 
ATOM     87  F   UNL     1      14.331   6.203   4.357  1.00  0.00    -0.206 F 
ATOM     88  C   UNL     1      13.249   7.901   3.150  1.00  0.00     0.059 A 
ATOM     89  C   UNL     1      10.851   8.204   3.383  1.00  0.00     0.059 A 
ATOM     90  F   UNL     1       9.642   6.818   4.837  1.00  0.00    -0.206 F 
ATOM     91  C   UNL     1      12.071   8.571   2.817  1.00  0.00     0.060 A 
BRANCH  91  92
ATOM     92  S   UNL     1      12.146   9.901   1.596  1.00  0.00     0.124 S 
ATOM     93  O   UNL     1      12.826  10.951   2.345  1.00  0.00    -0.237 OA
ATOM     94  O   UNL     1      12.914   9.283   0.520  1.00  0.00    -0.237 OA
ATOM     95  O   UNL     1      10.741  10.153   1.288  1.00  0.00    -0.744 OA
ENDBRANCH  91  92
ENDBRANCH  59  84
BRANCH  71  96
ATOM     96  C   UNL     1      14.545   5.349  11.061  1.00  0.00     0.058 A 
ATOM     97  C   UNL     1      14.111   6.536  11.672  1.00  0.00     0.135 A 
ATOM     98  C   UNL     1      15.853   4.914  11.335  1.00  0.00     0.135 A 
ATOM     99  F   UNL     1      12.871   7.000  11.444  1.00  0.00    -0.206 F 
ATOM    100  C   UNL     1      14.953   7.284  12.488  1.00  0.00     0.059 A 
ATOM    101  C   UNL     1      16.701   5.628  12.175  1.00  0.00     0.059 A 
ATOM    102  F   UNL     1      16.316   3.778  10.790  1.00  0.00    -0.206 F 
ATOM    103  C   UNL     1      16.248   6.822  12.732  1.00  0.00     0.060 A 
BRANCH 103 104
ATOM    104  S   UNL     1      17.330   7.799  13.796  1.00  0.00     0.124 S 
ATOM    105  O   UNL     1      17.652   8.928  12.930  1.00  0.00    -0.237 OA
ATOM    106  O   UNL     1      16.464   8.098  14.932  1.00  0.00    -0.237 OA
ATOM    107  O   UNL     1      18.438   6.891  14.082  1.00  0.00    -0.744 OA
ENDBRANCH 103 104
ENDBRANCH  71  96
ENDBRANCH  45  46
ENDBRANCH  37  40
ENDBRANCH  35  36
ENDBRANCH  34  35
ENDBRANCH  33  34
ENDBRANCH   3  33
TORSDOF 20
