REMARK SMILES O=C(NCCCNC(=O)c1ccc(-c2c3nc(c(-c4c(F)cc(S(=O)(=O)[O-])cc4F)c4ccc([nH]4)c(-c4c(F)cc(S(=O)(=O)[O-])cc4F)c4nc(c(-c5c(F)cc(S(=O)(=O)[O-])cc5F)c5ccc2[nH]5)C=C4)C=C3)cc1)C1=Cc2cc(Cl)ccc2O[C@@H]1C(F)(F)F
REMARK SMILES IDX 6 1 5 2 4 3 3 4 1 5 2 6 76 8 77 9 86 10 78 11 85 12 79 13
REMARK SMILES IDX 84 14 80 15 83 16 81 17 82 18 87 19 88 20 89 21 90 22 7 23
REMARK SMILES IDX 8 24 9 26 10 27 11 28 75 29 12 30 74 31 13 32 14 33 15 34
REMARK SMILES IDX 68 35 16 36 73 37 67 38 69 39 17 40 72 41 66 42 65 43 18 45
REMARK SMILES IDX 52 46 31 47 51 48 32 49 35 50 50 51 70 52 33 53 34 54 49 56
REMARK SMILES IDX 71 57 36 58 19 59 20 60 29 61 21 62 22 63 28 64 30 65 23 66
REMARK SMILES IDX 24 67 25 68 26 69 27 70 53 71 54 72 63 73 55 74 56 75 62 76
REMARK SMILES IDX 64 77 57 78 58 79 59 80 60 81 61 82 37 83 38 84 47 85 39 86
REMARK SMILES IDX 40 87 46 88 48 89 41 90 42 91 43 92 44 93 45 94
REMARK H PARENT 3 7 7 25 69 44 35 55
REMARK Flexibility Score: inf
ROOT
ATOM      1  C   UNL     1       4.189  -0.239   4.117  1.00  0.00     0.118 C 
ENDROOT
BRANCH   1   2
ATOM      2  C   UNL     1       4.218   0.507   2.790  1.00  0.00     0.042 C 
BRANCH   2   3
ATOM      3  C   UNL     1       3.412  -0.201   1.709  1.00  0.00     0.118 C 
BRANCH   3   4
ATOM      4  N   UNL     1       2.405   0.657   1.083  1.00  0.00    -0.352 N 
ATOM      5  O   UNL     1       1.213   1.568  -0.616  1.00  0.00    -0.270 OA
ATOM      6  C   UNL     1       2.240   1.028  -0.229  1.00  0.00     0.251 C 
ATOM      7  H   UNL     1       1.736   1.028   1.703  1.00  0.00     0.163 HD
BRANCH   6   8
ATOM      8  C   UNL     1       3.309   0.660  -1.175  1.00  0.00     0.067 C 
ATOM      9  C   UNL     1       4.496   1.271  -1.068  1.00  0.00     0.025 C 
ATOM     10  C   UNL     1       3.130  -0.619  -1.931  1.00  0.00     0.314 C 
ATOM     11  C   UNL     1       5.601   0.306  -0.975  1.00  0.00     0.019 A 
ATOM     12  O   UNL     1       4.180  -1.577  -1.659  1.00  0.00    -0.475 OA
ATOM     13  C   UNL     1       6.755   0.713  -0.295  1.00  0.00     0.032 A 
ATOM     14  C   UNL     1       5.353  -1.071  -1.154  1.00  0.00     0.128 A 
ATOM     15  C   UNL     1       7.592  -0.244   0.277  1.00  0.00     0.041 A 
ATOM     16  C   UNL     1       6.218  -2.020  -0.608  1.00  0.00     0.048 A 
ATOM     17  Cl  UNL     1       8.903   0.265   1.267  1.00  0.00    -0.084 Cl
ATOM     18  C   UNL     1       7.322  -1.604   0.136  1.00  0.00     0.024 A 
BRANCH  10  19
ATOM     19  C   UNL     1       3.018  -0.347  -3.439  1.00  0.00     0.429 C 
ATOM     20  F   UNL     1       2.701  -1.478  -4.116  1.00  0.00    -0.167 F 
ATOM     21  F   UNL     1       2.051   0.558  -3.721  1.00  0.00    -0.167 F 
ATOM     22  F   UNL     1       4.173   0.123  -3.967  1.00  0.00    -0.167 F 
ENDBRANCH  10  19
ENDBRANCH   6   8
ENDBRANCH   3   4
ENDBRANCH   2   3
ENDBRANCH   1   2
BRANCH   1  23
ATOM     23  N   UNL     1       4.811  -1.557   4.077  1.00  0.00    -0.352 N 
ATOM     24  C   UNL     1       5.642  -2.179   4.992  1.00  0.00     0.251 C 
ATOM     25  H   UNL     1       4.608  -2.088   3.273  1.00  0.00     0.163 HD
ATOM     26  O   UNL     1       6.110  -3.270   4.730  1.00  0.00    -0.269 OA
BRANCH  24  27
ATOM     27  C   UNL     1       5.991  -1.495   6.265  1.00  0.00     0.039 A 
ATOM     28  C   UNL     1       7.285  -1.631   6.777  1.00  0.00     0.014 A 
ATOM     29  C   UNL     1       5.064  -0.705   6.941  1.00  0.00     0.014 A 
ATOM     30  C   UNL     1       7.658  -0.916   7.920  1.00  0.00     0.010 A 
ATOM     31  C   UNL     1       5.477   0.115   7.981  1.00  0.00     0.010 A 
ATOM     32  C   UNL     1       6.768  -0.004   8.509  1.00  0.00    -0.014 A 
BRANCH  32  33
ATOM     33  C   UNL     1       7.137   0.797   9.707  1.00  0.00     0.031 A 
ATOM     34  C   UNL     1       6.303   0.694  10.961  1.00  0.00     0.074 A 
ATOM     35  C   UNL     1       8.166   1.665   9.645  1.00  0.00     0.049 A 
ATOM     36  N   UNL     1       6.407   1.359  12.082  1.00  0.00    -0.248 NA
ATOM     37  C   UNL     1       5.165  -0.242  10.932  1.00  0.00     0.031 C 
ATOM     38  C   UNL     1       8.992   1.923   8.462  1.00  0.00     0.029 A 
ATOM     39  N   UNL     1       8.693   2.497  10.601  1.00  0.00    -0.354 N 
ATOM     40  C   UNL     1       5.334   0.948  12.867  1.00  0.00     0.074 A 
ATOM     41  C   UNL     1       4.545   0.042  12.066  1.00  0.00     0.031 C 
ATOM     42  C   UNL     1       9.947   2.814   8.776  1.00  0.00     0.029 A 
ATOM     43  C   UNL     1       9.783   3.216  10.168  1.00  0.00     0.049 A 
ATOM     44  H   UNL     1       8.325   2.571  11.511  1.00  0.00     0.167 HD
ATOM     45  C   UNL     1       5.052   1.260  14.155  1.00  0.00     0.037 A 
ATOM     46  C   UNL     1      10.566   4.092  10.827  1.00  0.00     0.037 A 
ATOM     47  C   UNL     1       5.882   2.110  14.964  1.00  0.00     0.049 A 
ATOM     48  C   UNL     1      10.284   4.365  12.279  1.00  0.00     0.074 A 
ATOM     49  C   UNL     1       5.744   2.430  16.303  1.00  0.00     0.029 A 
ATOM     50  N   UNL     1       7.018   2.766  14.509  1.00  0.00    -0.354 N 
ATOM     51  N   UNL     1       9.307   3.909  13.029  1.00  0.00    -0.248 NA
ATOM     52  C   UNL     1      11.219   5.253  12.981  1.00  0.00     0.031 C 
ATOM     53  C   UNL     1       6.777   3.309  16.648  1.00  0.00     0.029 A 
ATOM     54  C   UNL     1       7.586   3.497  15.538  1.00  0.00     0.049 A 
ATOM     55  H   UNL     1       7.367   2.719  13.590  1.00  0.00     0.167 HD
ATOM     56  C   UNL     1       9.526   4.434  14.298  1.00  0.00     0.074 A 
ATOM     57  C   UNL     1      10.737   5.226  14.216  1.00  0.00     0.031 C 
ATOM     58  C   UNL     1       8.794   4.275  15.430  1.00  0.00     0.037 A 
BRANCH  45  59
ATOM     59  C   UNL     1       3.812   0.659  14.762  1.00  0.00     0.058 A 
ATOM     60  C   UNL     1       3.697  -0.721  15.002  1.00  0.00     0.135 A 
ATOM     61  C   UNL     1       2.721   1.472  15.111  1.00  0.00     0.135 A 
ATOM     62  F   UNL     1       4.700  -1.551  14.671  1.00  0.00    -0.206 F 
ATOM     63  C   UNL     1       2.534  -1.278  15.523  1.00  0.00     0.059 A 
ATOM     64  C   UNL     1       1.560   0.941  15.667  1.00  0.00     0.059 A 
ATOM     65  F   UNL     1       2.772   2.798  14.905  1.00  0.00    -0.206 F 
ATOM     66  C   UNL     1       1.469  -0.438  15.850  1.00  0.00     0.060 A 
BRANCH  66  67
ATOM     67  S   UNL     1      -0.036  -1.177  16.520  1.00  0.00     0.124 S 
ATOM     68  O   UNL     1      -0.610  -1.796  15.329  1.00  0.00    -0.237 OA
ATOM     69  O   UNL     1       0.488  -2.098  17.523  1.00  0.00    -0.237 OA
ATOM     70  O   UNL     1      -0.771  -0.032  17.047  1.00  0.00    -0.744 OA
ENDBRANCH  66  67
ENDBRANCH  45  59
BRANCH  46  71
ATOM     71  C   UNL     1      11.723   4.721  10.134  1.00  0.00     0.058 A 
ATOM     72  C   UNL     1      13.040   4.351  10.446  1.00  0.00     0.135 A 
ATOM     73  C   UNL     1      11.537   5.681   9.127  1.00  0.00     0.135 A 
ATOM     74  F   UNL     1      13.271   3.439  11.403  1.00  0.00    -0.206 F 
ATOM     75  C   UNL     1      14.132   4.921   9.799  1.00  0.00     0.059 A 
ATOM     76  C   UNL     1      12.613   6.247   8.448  1.00  0.00     0.059 A 
ATOM     77  F   UNL     1      10.297   6.055   8.775  1.00  0.00    -0.206 F 
ATOM     78  C   UNL     1      13.908   5.867   8.798  1.00  0.00     0.060 A 
BRANCH  78  79
ATOM     79  S   UNL     1      15.330   6.559   7.926  1.00  0.00     0.124 S 
ATOM     80  O   UNL     1      15.893   7.444   8.938  1.00  0.00    -0.237 OA
ATOM     81  O   UNL     1      16.110   5.364   7.616  1.00  0.00    -0.237 OA
ATOM     82  O   UNL     1      14.727   7.220   6.772  1.00  0.00    -0.744 OA
ENDBRANCH  78  79
ENDBRANCH  46  71
BRANCH  58  83
ATOM     83  C   UNL     1       9.310   4.941  16.675  1.00  0.00     0.058 A 
ATOM     84  C   UNL     1       9.267   6.334  16.841  1.00  0.00     0.135 A 
ATOM     85  C   UNL     1       9.833   4.169  17.725  1.00  0.00     0.135 A 
ATOM     86  F   UNL     1       8.777   7.117  15.866  1.00  0.00    -0.206 F 
ATOM     87  C   UNL     1       9.768   6.943  17.986  1.00  0.00     0.059 A 
ATOM     88  C   UNL     1      10.310   4.755  18.892  1.00  0.00     0.059 A 
ATOM     89  F   UNL     1       9.879   2.831  17.624  1.00  0.00    -0.206 F 
ATOM     90  C   UNL     1      10.293   6.144  19.004  1.00  0.00     0.060 A 
BRANCH  90  91
ATOM     91  S   UNL     1      10.947   6.945  20.483  1.00  0.00     0.124 S 
ATOM     92  O   UNL     1      12.220   7.464  19.996  1.00  0.00    -0.237 OA
ATOM     93  O   UNL     1       9.925   7.944  20.777  1.00  0.00    -0.237 OA
ATOM     94  O   UNL     1      11.041   5.852  21.446  1.00  0.00    -0.744 OA
ENDBRANCH  90  91
ENDBRANCH  58  83
ENDBRANCH  32  33
ENDBRANCH  24  27
ENDBRANCH   1  23
TORSDOF 14
