REMARK SMILES CC[C@@H](C)C[C@@H](C)[NH2+]Cc1ccc(C(=O)NCCCNC(=O)c2ccc(-c3c4nc(c(-c5c(F)cc(S(=O)(=O)[O-])cc5F)c5ccc([nH]5)c(-c5c(F)cc(S(=O)(=O)[O-])cc5F)c5nc(c(-c6c(F)cc(S(=O)(=O)[O-])cc6F)c6ccc3[nH]6)C=C5)C=C4)cc2)cn1
REMARK SMILES IDX 14 1 15 2 16 3 13 5 10 6 11 7 90 8 12 9 89 10 9 11 8 12 6 15
REMARK SMILES IDX 7 16 5 17 3 18 4 19 2 20 1 21 17 22 18 23 19 24 20 25 21 26
REMARK SMILES IDX 22 28 23 29 24 30 88 31 25 32 87 33 26 34 27 35 28 36 81 37
REMARK SMILES IDX 29 38 86 39 80 40 82 41 30 42 85 43 79 44 78 45 31 47 65 48
REMARK SMILES IDX 44 49 64 50 45 51 48 52 63 53 83 54 46 55 47 56 62 58 84 59
REMARK SMILES IDX 49 60 32 61 33 62 42 63 34 64 35 65 41 66 43 67 36 68 37 69
REMARK SMILES IDX 38 70 39 71 40 72 66 73 67 74 76 75 68 76 69 77 75 78 77 79
REMARK SMILES IDX 70 80 71 81 72 82 73 83 74 84 50 85 51 86 60 87 52 88 53 89
REMARK SMILES IDX 59 90 61 91 54 92 55 93 56 94 57 95 58 96
REMARK H PARENT 16 4 8 13 8 14 20 27 82 46 48 57
REMARK Flexibility Score: inf
ROOT
ATOM      1  C   UNL     1       6.454  -5.951  -3.108  1.00  0.00     0.252 C 
ATOM      2  O   UNL     1       7.059  -7.022  -3.091  1.00  0.00    -0.269 OA
ATOM      3  N   UNL     1       7.180  -4.787  -3.017  1.00  0.00    -0.352 N 
ATOM      4  H   UNL     1       8.154  -4.927  -2.998  1.00  0.00     0.163 HD
ENDROOT
BRANCH   1   5
ATOM      5  C   UNL     1       4.978  -5.975  -3.166  1.00  0.00     0.058 A 
ATOM      6  C   UNL     1       2.237  -6.077  -2.886  1.00  0.00     0.094 A 
ATOM      7  C   UNL     1       2.802  -5.078  -3.677  1.00  0.00     0.030 A 
ATOM      8  N   UNL     1       2.978  -7.077  -2.342  1.00  0.00    -0.255 NA
ATOM      9  C   UNL     1       4.188  -5.047  -3.840  1.00  0.00     0.017 A 
ATOM     10  C   UNL     1       4.324  -7.005  -2.498  1.00  0.00     0.125 A 
BRANCH   6  11
ATOM     11  C   UNL     1       0.796  -5.962  -2.425  1.00  0.00     0.318 C 
BRANCH  11  12
ATOM     12  N   UNL     1       0.655  -5.595  -0.999  1.00  0.00    -0.339 N 
ATOM     13  H   UNL     1      -0.335  -5.627  -0.757  1.00  0.00     0.346 HD
ATOM     14  H   UNL     1       1.213  -6.263  -0.467  1.00  0.00     0.346 HD
BRANCH  12  15
ATOM     15  C   UNL     1       1.170  -4.252  -0.669  1.00  0.00     0.179 C 
ATOM     16  C   UNL     1       2.624  -4.300  -0.172  1.00  0.00     0.075 C 
BRANCH  15  17
ATOM     17  C   UNL     1       0.266  -3.657   0.438  1.00  0.00     0.068 C 
BRANCH  17  18
ATOM     18  C   UNL     1       0.658  -2.225   0.882  1.00  0.00    -0.009 C 
ATOM     19  C   UNL     1       0.014  -1.911   2.237  1.00  0.00     0.008 C 
BRANCH  18  20
ATOM     20  C   UNL     1       0.270  -1.186  -0.187  1.00  0.00    -0.000 C 
ATOM     21  C   UNL     1       0.840   0.201   0.082  1.00  0.00     0.004 C 
ENDBRANCH  18  20
ENDBRANCH  17  18
ENDBRANCH  15  17
ENDBRANCH  12  15
ENDBRANCH  11  12
ENDBRANCH   6  11
ENDBRANCH   1   5
BRANCH   3  22
ATOM     22  C   UNL     1       6.785  -3.388  -2.945  1.00  0.00     0.118 C 
BRANCH  22  23
ATOM     23  C   UNL     1       7.231  -2.686  -1.667  1.00  0.00     0.042 C 
BRANCH  23  24
ATOM     24  C   UNL     1       8.735  -2.490  -1.517  1.00  0.00     0.118 C 
BRANCH  24  25
ATOM     25  N   UNL     1       9.306  -1.662  -2.570  1.00  0.00    -0.352 N 
ATOM     26  C   UNL     1       9.927  -0.437  -2.525  1.00  0.00     0.251 C 
ATOM     27  H   UNL     1       9.235  -2.049  -3.473  1.00  0.00     0.163 HD
ATOM     28  O   UNL     1      10.141   0.148  -3.585  1.00  0.00    -0.269 OA
BRANCH  26  29
ATOM     29  C   UNL     1      10.335   0.190  -1.244  1.00  0.00     0.039 A 
ATOM     30  C   UNL     1      10.293   1.586  -1.139  1.00  0.00     0.014 A 
ATOM     31  C   UNL     1      10.832  -0.562  -0.177  1.00  0.00     0.014 A 
ATOM     32  C   UNL     1      10.710   2.215   0.039  1.00  0.00     0.010 A 
ATOM     33  C   UNL     1      11.163   0.059   1.027  1.00  0.00     0.010 A 
ATOM     34  C   UNL     1      11.129   1.456   1.142  1.00  0.00    -0.014 A 
BRANCH  34  35
ATOM     35  C   UNL     1      11.576   2.109   2.401  1.00  0.00     0.031 A 
ATOM     36  C   UNL     1      12.998   1.947   2.876  1.00  0.00     0.074 A 
ATOM     37  C   UNL     1      10.695   2.812   3.140  1.00  0.00     0.049 A 
ATOM     38  N   UNL     1      13.567   2.408   3.961  1.00  0.00    -0.248 NA
ATOM     39  C   UNL     1      13.893   1.136   2.033  1.00  0.00     0.031 C 
ATOM     40  C   UNL     1       9.277   2.994   2.818  1.00  0.00     0.029 A 
ATOM     41  N   UNL     1      10.858   3.501   4.316  1.00  0.00    -0.354 N 
ATOM     42  C   UNL     1      14.873   1.929   3.940  1.00  0.00     0.074 A 
ATOM     43  C   UNL     1      14.996   1.095   2.765  1.00  0.00     0.031 C 
ATOM     44  C   UNL     1       8.709   3.768   3.757  1.00  0.00     0.029 A 
ATOM     45  C   UNL     1       9.710   4.114   4.761  1.00  0.00     0.049 A 
ATOM     46  H   UNL     1      11.716   3.551   4.795  1.00  0.00     0.167 HD
ATOM     47  C   UNL     1      15.886   2.183   4.804  1.00  0.00     0.037 A 
ATOM     48  C   UNL     1       9.491   4.872   5.852  1.00  0.00     0.037 A 
ATOM     49  C   UNL     1      15.766   3.041   5.954  1.00  0.00     0.049 A 
ATOM     50  C   UNL     1      10.640   5.172   6.776  1.00  0.00     0.074 A 
ATOM     51  C   UNL     1      16.742   3.405   6.865  1.00  0.00     0.029 A 
ATOM     52  N   UNL     1      14.597   3.679   6.346  1.00  0.00    -0.354 N 
ATOM     53  N   UNL     1      11.882   4.755   6.710  1.00  0.00    -0.248 NA
ATOM     54  C   UNL     1      10.362   6.061   7.912  1.00  0.00     0.031 C 
ATOM     55  C   UNL     1      16.156   4.236   7.827  1.00  0.00     0.029 A 
ATOM     56  C   UNL     1      14.826   4.428   7.489  1.00  0.00     0.049 A 
ATOM     57  H   UNL     1      13.732   3.608   5.881  1.00  0.00     0.167 HD
ATOM     58  C   UNL     1      12.542   5.356   7.777  1.00  0.00     0.074 A 
ATOM     59  C   UNL     1      11.563   6.174   8.463  1.00  0.00     0.031 C 
ATOM     60  C   UNL     1      13.841   5.244   8.153  1.00  0.00     0.037 A 
BRANCH  47  61
ATOM     61  C   UNL     1      17.215   1.530   4.530  1.00  0.00     0.058 A 
ATOM     62  C   UNL     1      18.012   1.911   3.438  1.00  0.00     0.135 A 
ATOM     63  C   UNL     1      17.710   0.528   5.381  1.00  0.00     0.135 A 
ATOM     64  F   UNL     1      17.582   2.852   2.583  1.00  0.00    -0.206 F 
ATOM     65  C   UNL     1      19.234   1.299   3.179  1.00  0.00     0.059 A 
ATOM     66  C   UNL     1      18.944  -0.078   5.157  1.00  0.00     0.059 A 
ATOM     67  F   UNL     1      16.992   0.124   6.440  1.00  0.00    -0.206 F 
ATOM     68  C   UNL     1      19.691   0.303   4.043  1.00  0.00     0.060 A 
BRANCH  68  69
ATOM     69  S   UNL     1      21.279  -0.481   3.692  1.00  0.00     0.124 S 
ATOM     70  O   UNL     1      20.937  -1.332   2.556  1.00  0.00    -0.237 OA
ATOM     71  O   UNL     1      22.134   0.662   3.392  1.00  0.00    -0.237 OA
ATOM     72  O   UNL     1      21.591  -1.186   4.932  1.00  0.00    -0.744 OA
ENDBRANCH  68  69
ENDBRANCH  47  61
BRANCH  48  73
ATOM     73  C   UNL     1       8.139   5.440   6.103  1.00  0.00     0.058 A 
ATOM     74  C   UNL     1       7.894   6.813   5.948  1.00  0.00     0.135 A 
ATOM     75  C   UNL     1       7.064   4.624   6.487  1.00  0.00     0.135 A 
ATOM     76  F   UNL     1       8.890   7.635   5.586  1.00  0.00    -0.206 F 
ATOM     77  C   UNL     1       6.637   7.361   6.183  1.00  0.00     0.059 A 
ATOM     78  C   UNL     1       5.792   5.144   6.703  1.00  0.00     0.059 A 
ATOM     79  F   UNL     1       7.242   3.301   6.629  1.00  0.00    -0.206 F 
ATOM     80  C   UNL     1       5.591   6.516   6.559  1.00  0.00     0.060 A 
BRANCH  80  81
ATOM     81  S   UNL     1       3.950   7.229   6.812  1.00  0.00     0.124 S 
ATOM     82  O   UNL     1       4.119   7.906   8.093  1.00  0.00    -0.237 OA
ATOM     83  O   UNL     1       3.808   8.094   5.646  1.00  0.00    -0.237 OA
ATOM     84  O   UNL     1       3.076   6.059   6.825  1.00  0.00    -0.744 OA
ENDBRANCH  80  81
ENDBRANCH  48  73
BRANCH  60  85
ATOM     85  C   UNL     1      14.285   6.064   9.332  1.00  0.00     0.058 A 
ATOM     86  C   UNL     1      13.890   5.753  10.643  1.00  0.00     0.135 A 
ATOM     87  C   UNL     1      15.134   7.167   9.146  1.00  0.00     0.135 A 
ATOM     88  F   UNL     1      13.078   4.710  10.875  1.00  0.00    -0.206 F 
ATOM     89  C   UNL     1      14.287   6.534  11.724  1.00  0.00     0.059 A 
ATOM     90  C   UNL     1      15.566   7.944  10.216  1.00  0.00     0.059 A 
ATOM     91  F   UNL     1      15.554   7.498   7.915  1.00  0.00    -0.206 F 
ATOM     92  C   UNL     1      15.120   7.631  11.499  1.00  0.00     0.060 A 
BRANCH  92  93
ATOM     93  S   UNL     1      15.626   8.640  12.908  1.00  0.00     0.124 S 
ATOM     94  O   UNL     1      14.416   9.413  13.164  1.00  0.00    -0.237 OA
ATOM     95  O   UNL     1      15.961   7.635  13.912  1.00  0.00    -0.237 OA
ATOM     96  O   UNL     1      16.760   9.400  12.390  1.00  0.00    -0.744 OA
ENDBRANCH  92  93
ENDBRANCH  60  85
ENDBRANCH  34  35
ENDBRANCH  26  29
ENDBRANCH  24  25
ENDBRANCH  23  24
ENDBRANCH  22  23
ENDBRANCH   3  22
TORSDOF 19
