REMARK SMILES CCOC(=O)c1c(NC(=O)/C=C/C(=O)NCCCNC(=O)c2ccc(-c3c4nc(c(-c5c(F)cc(S(=O)(=O)[O-])cc5F)c5ccc([nH]5)c(-c5c(F)cc(S(=O)(=O)[O-])cc5F)c5nc(c(-c6c(F)cc(S(=O)(=O)[O-])cc6F)c6ccc3[nH]6)C=C5)C=C4)cc2)sc(C)c1-c1ccc(C)c(C)c1
REMARK SMILES IDX 16 1 15 2 13 3 14 4 12 6 11 7 9 8 8 9 10 11 7 12 6 13 91 14
REMARK SMILES IDX 88 15 89 16 90 17 4 18 5 19 3 20 2 21 1 22 92 23 93 24 99 25
REMARK SMILES IDX 94 26 97 27 95 28 98 29 96 30 17 31 18 32 19 33 20 34 21 36
REMARK SMILES IDX 22 37 23 38 87 39 24 40 86 41 25 42 26 43 27 44 80 45 28 46
REMARK SMILES IDX 85 47 79 48 81 49 29 50 84 51 78 52 77 53 30 55 64 56 43 57
REMARK SMILES IDX 63 58 44 59 47 60 62 61 82 62 45 63 46 64 61 66 83 67 48 68
REMARK SMILES IDX 31 69 32 70 41 71 33 72 34 73 40 74 42 75 35 76 36 77 37 78
REMARK SMILES IDX 38 79 39 80 65 81 66 82 75 83 67 84 68 85 74 86 76 87 69 88
REMARK SMILES IDX 70 89 71 90 72 91 73 92 49 93 50 94 59 95 51 96 52 97 58 98
REMARK SMILES IDX 60 99 53 100 54 101 55 102 56 103 57 104
REMARK H PARENT 15 5 8 10 19 35 81 54 47 65
REMARK Flexibility Score: inf
ROOT
ATOM      1  C   UNL     1       8.827   5.234  -4.620  1.00  0.00     0.118 C 
ENDROOT
BRANCH   1   2
ATOM      2  N   UNL     1       7.901   6.240  -4.130  1.00  0.00    -0.352 N 
ATOM      3  C   UNL     1       6.557   6.114  -3.970  1.00  0.00     0.244 C 
ATOM      4  O   UNL     1       5.837   7.106  -3.917  1.00  0.00    -0.270 OA
ATOM      5  H   UNL     1       8.290   7.111  -3.888  1.00  0.00     0.163 HD
BRANCH   3   6
ATOM      6  C   UNL     1       5.978   4.763  -3.841  1.00  0.00     0.077 C 
ATOM      7  C   UNL     1       6.450   3.990  -2.853  1.00  0.00     0.077 C 
BRANCH   7   8
ATOM      8  C   UNL     1       5.738   2.783  -2.428  1.00  0.00     0.249 C 
ATOM      9  N   UNL     1       4.688   2.857  -1.559  1.00  0.00    -0.313 N 
ATOM     10  H   UNL     1       4.359   1.978  -1.261  1.00  0.00     0.171 HD
ATOM     11  O   UNL     1       6.135   1.690  -2.829  1.00  0.00    -0.270 OA
BRANCH   9  12
ATOM     12  C   UNL     1       3.993   3.927  -1.012  1.00  0.00     0.111 A 
ATOM     13  C   UNL     1       2.819   3.856  -0.276  1.00  0.00     0.102 A 
ATOM     14  C   UNL     1       2.218   5.169  -0.133  1.00  0.00     0.012 A 
ATOM     15  S   UNL     1       4.522   5.526  -1.135  1.00  0.00    -0.122 S 
ATOM     16  C   UNL     1       3.030   6.168  -0.646  1.00  0.00     0.012 A 
ATOM     17  C   UNL     1       2.829   7.642  -0.793  1.00  0.00     0.057 C 
BRANCH  13  18
ATOM     18  C   UNL     1       2.320   2.578   0.220  1.00  0.00     0.341 C 
ATOM     19  O   UNL     1       3.068   1.705   0.626  1.00  0.00    -0.246 OA
BRANCH  18  20
ATOM     20  O   UNL     1       0.963   2.457   0.155  1.00  0.00    -0.462 OA
BRANCH  20  21
ATOM     21  C   UNL     1       0.427   1.261   0.737  1.00  0.00     0.230 C 
ATOM     22  C   UNL     1       0.681   0.031  -0.119  1.00  0.00     0.049 C 
ENDBRANCH  20  21
ENDBRANCH  18  20
ENDBRANCH  13  18
BRANCH  14  23
ATOM     23  C   UNL     1       0.960   5.491   0.523  1.00  0.00    -0.016 A 
ATOM     24  C   UNL     1       0.811   5.234   1.885  1.00  0.00     0.009 A 
ATOM     25  C   UNL     1      -0.095   6.067  -0.195  1.00  0.00     0.012 A 
ATOM     26  C   UNL     1      -0.388   5.544   2.521  1.00  0.00     0.004 A 
ATOM     27  C   UNL     1      -1.301   6.404   0.441  1.00  0.00    -0.048 A 
ATOM     28  C   UNL     1      -1.451   6.132   1.815  1.00  0.00    -0.048 A 
ATOM     29  C   UNL     1      -2.390   7.049  -0.372  1.00  0.00     0.044 C 
ATOM     30  C   UNL     1      -2.716   6.415   2.576  1.00  0.00     0.044 C 
ENDBRANCH  14  23
ENDBRANCH   9  12
ENDBRANCH   7   8
ENDBRANCH   3   6
ENDBRANCH   1   2
BRANCH   1  31
ATOM     31  C   UNL     1       8.714   5.089  -6.132  1.00  0.00     0.042 C 
BRANCH  31  32
ATOM     32  C   UNL     1       9.077   6.375  -6.865  1.00  0.00     0.118 C 
BRANCH  32  33
ATOM     33  N   UNL     1      10.470   6.742  -6.642  1.00  0.00    -0.352 N 
ATOM     34  C   UNL     1      11.546   6.615  -7.484  1.00  0.00     0.251 C 
ATOM     35  H   UNL     1      10.667   7.136  -5.762  1.00  0.00     0.163 HD
ATOM     36  O   UNL     1      12.685   6.669  -7.033  1.00  0.00    -0.269 OA
BRANCH  34  37
ATOM     37  C   UNL     1      11.319   6.417  -8.929  1.00  0.00     0.039 A 
ATOM     38  C   UNL     1      12.108   5.502  -9.630  1.00  0.00     0.014 A 
ATOM     39  C   UNL     1      10.338   7.158  -9.593  1.00  0.00     0.014 A 
ATOM     40  C   UNL     1      11.872   5.292 -10.991  1.00  0.00     0.010 A 
ATOM     41  C   UNL     1      10.046   6.883 -10.922  1.00  0.00     0.010 A 
ATOM     42  C   UNL     1      10.820   5.960 -11.639  1.00  0.00    -0.014 A 
BRANCH  42  43
ATOM     43  C   UNL     1      10.515   5.731 -13.073  1.00  0.00     0.031 A 
ATOM     44  C   UNL     1      10.623   6.872 -14.048  1.00  0.00     0.074 A 
ATOM     45  C   UNL     1      10.058   4.529 -13.473  1.00  0.00     0.049 A 
ATOM     46  N   UNL     1      10.290   6.913 -15.312  1.00  0.00    -0.248 NA
ATOM     47  C   UNL     1      11.138   8.149 -13.523  1.00  0.00     0.031 C 
ATOM     48  C   UNL     1       9.858   3.366 -12.604  1.00  0.00     0.029 A 
ATOM     49  N   UNL     1       9.657   4.090 -14.709  1.00  0.00    -0.354 N 
ATOM     50  C   UNL     1      10.528   8.220 -15.723  1.00  0.00     0.074 A 
ATOM     51  C   UNL     1      10.986   8.953 -14.565  1.00  0.00     0.031 C 
ATOM     52  C   UNL     1       9.388   2.344 -13.337  1.00  0.00     0.029 A 
ATOM     53  C   UNL     1       9.214   2.788 -14.716  1.00  0.00     0.049 A 
ATOM     54  H   UNL     1       9.684   4.654 -15.516  1.00  0.00     0.167 HD
ATOM     55  C   UNL     1      10.396   8.753 -16.961  1.00  0.00     0.037 A 
ATOM     56  C   UNL     1       8.712   2.042 -15.720  1.00  0.00     0.037 A 
ATOM     57  C   UNL     1       9.980   8.000 -18.115  1.00  0.00     0.049 A 
ATOM     58  C   UNL     1       8.600   2.650 -17.092  1.00  0.00     0.074 A 
ATOM     59  C   UNL     1       9.891   8.421 -19.430  1.00  0.00     0.029 A 
ATOM     60  N   UNL     1       9.584   6.670 -18.091  1.00  0.00    -0.354 N 
ATOM     61  N   UNL     1       8.899   3.867 -17.480  1.00  0.00    -0.248 NA
ATOM     62  C   UNL     1       8.088   1.785 -18.163  1.00  0.00     0.031 C 
ATOM     63  C   UNL     1       9.402   7.357 -20.195  1.00  0.00     0.029 A 
ATOM     64  C   UNL     1       9.231   6.260 -19.365  1.00  0.00     0.049 A 
ATOM     65  H   UNL     1       9.558   6.103 -17.288  1.00  0.00     0.167 HD
ATOM     66  C   UNL     1       8.638   3.905 -18.846  1.00  0.00     0.074 A 
ATOM     67  C   UNL     1       8.167   2.586 -19.216  1.00  0.00     0.031 C 
ATOM     68  C   UNL     1       8.776   4.937 -19.714  1.00  0.00     0.037 A 
BRANCH  55  69
ATOM     69  C   UNL     1      10.711  10.213 -17.134  1.00  0.00     0.058 A 
ATOM     70  C   UNL     1      12.024  10.702 -17.047  1.00  0.00     0.135 A 
ATOM     71  C   UNL     1       9.690  11.133 -17.429  1.00  0.00     0.135 A 
ATOM     72  F   UNL     1      13.037   9.871 -16.752  1.00  0.00    -0.206 F 
ATOM     73  C   UNL     1      12.312  12.052 -17.219  1.00  0.00     0.059 A 
ATOM     74  C   UNL     1       9.959  12.483 -17.633  1.00  0.00     0.059 A 
ATOM     75  F   UNL     1       8.416  10.722 -17.522  1.00  0.00    -0.206 F 
ATOM     76  C   UNL     1      11.272  12.936 -17.512  1.00  0.00     0.060 A 
BRANCH  76  77
ATOM     77  S   UNL     1      11.665  14.682 -17.744  1.00  0.00     0.124 S 
ATOM     78  O   UNL     1      11.935  15.104 -16.373  1.00  0.00    -0.237 OA
ATOM     79  O   UNL     1      12.824  14.627 -18.629  1.00  0.00    -0.237 OA
ATOM     80  O   UNL     1      10.450  15.228 -18.341  1.00  0.00    -0.744 OA
ENDBRANCH  76  77
ENDBRANCH  55  69
BRANCH  56  81
ATOM     81  C   UNL     1       8.298   0.636 -15.467  1.00  0.00     0.058 A 
ATOM     82  C   UNL     1       9.037  -0.437 -15.986  1.00  0.00     0.135 A 
ATOM     83  C   UNL     1       7.166   0.336 -14.694  1.00  0.00     0.135 A 
ATOM     84  F   UNL     1      10.126  -0.201 -16.734  1.00  0.00    -0.206 F 
ATOM     85  C   UNL     1       8.658  -1.757 -15.768  1.00  0.00     0.059 A 
ATOM     86  C   UNL     1       6.781  -0.977 -14.440  1.00  0.00     0.059 A 
ATOM     87  F   UNL     1       6.435   1.326 -14.158  1.00  0.00    -0.206 F 
ATOM     88  C   UNL     1       7.527  -2.017 -14.992  1.00  0.00     0.060 A 
BRANCH  88  89
ATOM     89  S   UNL     1       7.066  -3.736 -14.683  1.00  0.00     0.124 S 
ATOM     90  O   UNL     1       6.523  -4.130 -15.977  1.00  0.00    -0.237 OA
ATOM     91  O   UNL     1       8.344  -4.336 -14.316  1.00  0.00    -0.237 OA
ATOM     92  O   UNL     1       6.096  -3.632 -13.596  1.00  0.00    -0.744 OA
ENDBRANCH  88  89
ENDBRANCH  56  81
BRANCH  68  93
ATOM     93  C   UNL     1       8.449   4.675 -21.157  1.00  0.00     0.058 A 
ATOM     94  C   UNL     1       7.125   4.540 -21.600  1.00  0.00     0.135 A 
ATOM     95  C   UNL     1       9.473   4.624 -22.117  1.00  0.00     0.135 A 
ATOM     96  F   UNL     1       6.111   4.575 -20.721  1.00  0.00    -0.206 F 
ATOM     97  C   UNL     1       6.827   4.346 -22.945  1.00  0.00     0.059 A 
ATOM     98  C   UNL     1       9.197   4.458 -23.470  1.00  0.00     0.059 A 
ATOM     99  F   UNL     1      10.756   4.758 -21.745  1.00  0.00    -0.206 F 
ATOM    100  C   UNL     1       7.870   4.310 -23.873  1.00  0.00     0.060 A 
BRANCH 100 101
ATOM    101  S   UNL     1       7.467   4.103 -25.620  1.00  0.00     0.124 S 
ATOM    102  O   UNL     1       7.111   2.689 -25.674  1.00  0.00    -0.237 OA
ATOM    103  O   UNL     1       6.364   5.042 -25.800  1.00  0.00    -0.237 OA
ATOM    104  O   UNL     1       8.707   4.465 -26.300  1.00  0.00    -0.744 OA
ENDBRANCH 100 101
ENDBRANCH  68  93
ENDBRANCH  42  43
ENDBRANCH  34  37
ENDBRANCH  32  33
ENDBRANCH  31  32
ENDBRANCH   1  31
TORSDOF 19
