REMARK SMILES CC(=O)c1cccc(-c2ccc(C(=O)NCCCNC(=O)c3ccc(-c4c5nc(c(-c6c(F)cc(S(=O)(=O)[O-])cc6F)c6ccc([nH]6)c(-c6c(F)cc(S(=O)(=O)[O-])cc6F)c6nc(c(-c7c(F)cc(S(=O)(=O)[O-])cc7F)c7ccc4[nH]7)C=C6)C=C5)cc3)cc2F)c1
REMARK SMILES IDX 17 1 16 2 15 3 13 4 14 5 12 7 9 8 10 9 89 10 11 11 88 12
REMARK SMILES IDX 90 13 8 14 4 15 5 16 91 17 6 18 7 19 2 20 1 21 3 22 18 23
REMARK SMILES IDX 19 24 20 25 21 27 22 28 23 29 87 30 24 31 86 32 25 33 26 34
REMARK SMILES IDX 27 35 80 36 28 37 85 38 79 39 81 40 29 41 84 42 78 43 77 44
REMARK SMILES IDX 30 46 64 47 43 48 63 49 44 50 47 51 62 52 82 53 45 54 46 55
REMARK SMILES IDX 61 57 83 58 48 59 31 60 32 61 41 62 33 63 34 64 40 65 42 66
REMARK SMILES IDX 35 67 36 68 37 69 38 70 39 71 65 72 66 73 75 74 67 75 68 76
REMARK SMILES IDX 74 77 76 78 69 79 70 80 71 81 72 82 73 83 49 84 50 85 59 86
REMARK SMILES IDX 51 87 52 88 58 89 60 90 53 91 54 92 55 93 56 94 57 95
REMARK H PARENT 15 6 19 26 81 45 47 56
REMARK Flexibility Score: inf
ROOT
ATOM      1  C   UNL     1       8.996  -5.415   1.571  1.00  0.00     0.042 C 
ENDROOT
BRANCH   1   2
ATOM      2  C   UNL     1       8.812  -4.694   0.235  1.00  0.00     0.118 C 
BRANCH   2   3
ATOM      3  N   UNL     1       8.662  -5.631  -0.866  1.00  0.00    -0.352 N 
ATOM      4  C   UNL     1       7.567  -6.028  -1.589  1.00  0.00     0.251 C 
ATOM      5  O   UNL     1       7.748  -6.757  -2.564  1.00  0.00    -0.269 OA
ATOM      6  H   UNL     1       9.503  -6.061  -1.143  1.00  0.00     0.163 HD
BRANCH   4   7
ATOM      7  C   UNL     1       6.183  -5.582  -1.277  1.00  0.00     0.042 A 
ATOM      8  C   UNL     1       3.510  -4.752  -0.844  1.00  0.00     0.018 A 
ATOM      9  C   UNL     1       3.953  -5.072  -2.133  1.00  0.00     0.012 A 
ATOM     10  C   UNL     1       4.419  -4.888   0.212  1.00  0.00     0.131 A 
ATOM     11  C   UNL     1       5.277  -5.478  -2.346  1.00  0.00     0.014 A 
ATOM     12  C   UNL     1       5.726  -5.323   0.012  1.00  0.00     0.053 A 
ATOM     13  F   UNL     1       4.035  -4.606   1.467  1.00  0.00    -0.206 F 
BRANCH   8  14
ATOM     14  C   UNL     1       2.134  -4.319  -0.585  1.00  0.00    -0.015 A 
ATOM     15  C   UNL     1       0.556  -2.597   0.111  1.00  0.00     0.018 A 
ATOM     16  C   UNL     1      -0.470  -3.548   0.128  1.00  0.00     0.012 A 
ATOM     17  C   UNL     1       1.854  -2.984  -0.245  1.00  0.00     0.020 A 
ATOM     18  C   UNL     1      -0.210  -4.868  -0.237  1.00  0.00     0.001 A 
ATOM     19  C   UNL     1       1.084  -5.249  -0.595  1.00  0.00     0.009 A 
BRANCH  15  20
ATOM     20  C   UNL     1       0.228  -1.197   0.496  1.00  0.00     0.159 C 
ATOM     21  C   UNL     1       1.065  -0.079  -0.066  1.00  0.00     0.093 C 
ATOM     22  O   UNL     1      -0.742  -0.972   1.217  1.00  0.00    -0.295 OA
ENDBRANCH  15  20
ENDBRANCH   8  14
ENDBRANCH   4   7
ENDBRANCH   2   3
ENDBRANCH   1   2
BRANCH   1  23
ATOM     23  C   UNL     1      10.381  -6.032   1.753  1.00  0.00     0.118 C 
BRANCH  23  24
ATOM     24  N   UNL     1      11.414  -5.020   1.897  1.00  0.00    -0.352 N 
ATOM     25  C   UNL     1      12.392  -4.879   2.849  1.00  0.00     0.251 C 
ATOM     26  H   UNL     1      11.412  -4.324   1.200  1.00  0.00     0.163 HD
ATOM     27  O   UNL     1      13.030  -3.830   2.888  1.00  0.00    -0.269 OA
BRANCH  25  28
ATOM     28  C   UNL     1      12.679  -5.955   3.827  1.00  0.00     0.039 A 
ATOM     29  C   UNL     1      13.028  -5.588   5.131  1.00  0.00     0.014 A 
ATOM     30  C   UNL     1      12.678  -7.306   3.465  1.00  0.00     0.014 A 
ATOM     31  C   UNL     1      13.342  -6.570   6.073  1.00  0.00     0.010 A 
ATOM     32  C   UNL     1      12.928  -8.289   4.424  1.00  0.00     0.010 A 
ATOM     33  C   UNL     1      13.276  -7.931   5.734  1.00  0.00    -0.014 A 
BRANCH  33  34
ATOM     34  C   UNL     1      13.575  -8.975   6.749  1.00  0.00     0.031 A 
ATOM     35  C   UNL     1      14.781  -9.864   6.604  1.00  0.00     0.074 A 
ATOM     36  C   UNL     1      12.741  -9.133   7.796  1.00  0.00     0.049 A 
ATOM     37  N   UNL     1      15.210 -10.810   7.401  1.00  0.00    -0.248 NA
ATOM     38  C   UNL     1      15.602  -9.683   5.396  1.00  0.00     0.031 C 
ATOM     39  C   UNL     1      11.507  -8.375   8.015  1.00  0.00     0.029 A 
ATOM     40  N   UNL     1      12.805  -9.979   8.874  1.00  0.00    -0.354 N 
ATOM     41  C   UNL     1      16.341 -11.341   6.790  1.00  0.00     0.074 A 
ATOM     42  C   UNL     1      16.502 -10.646   5.531  1.00  0.00     0.031 C 
ATOM     43  C   UNL     1      10.949  -8.766   9.172  1.00  0.00     0.029 A 
ATOM     44  C   UNL     1      11.771  -9.816   9.765  1.00  0.00     0.049 A 
ATOM     45  H   UNL     1      13.524 -10.640   8.998  1.00  0.00     0.167 HD
ATOM     46  C   UNL     1      17.181 -12.300   7.247  1.00  0.00     0.037 A 
ATOM     47  C   UNL     1      11.520 -10.434  10.935  1.00  0.00     0.037 A 
ATOM     48  C   UNL     1      17.029 -12.972   8.514  1.00  0.00     0.049 A 
ATOM     49  C   UNL     1      12.491 -11.464  11.441  1.00  0.00     0.074 A 
ATOM     50  C   UNL     1      17.851 -13.926   9.089  1.00  0.00     0.029 A 
ATOM     51  N   UNL     1      15.988 -12.754   9.404  1.00  0.00    -0.354 N 
ATOM     52  N   UNL     1      13.588 -11.911  10.877  1.00  0.00    -0.248 NA
ATOM     53  C   UNL     1      12.201 -12.060  12.752  1.00  0.00     0.031 C 
ATOM     54  C   UNL     1      17.291 -14.306  10.315  1.00  0.00     0.029 A 
ATOM     55  C   UNL     1      16.142 -13.559  10.521  1.00  0.00     0.049 A 
ATOM     56  H   UNL     1      15.248 -12.121   9.263  1.00  0.00     0.167 HD
ATOM     57  C   UNL     1      14.132 -12.823  11.775  1.00  0.00     0.074 A 
ATOM     58  C   UNL     1      13.252 -12.848  12.926  1.00  0.00     0.031 C 
ATOM     59  C   UNL     1      15.257 -13.572  11.658  1.00  0.00     0.037 A 
BRANCH  46  60
ATOM     60  C   UNL     1      18.350 -12.674   6.376  1.00  0.00     0.058 A 
ATOM     61  C   UNL     1      19.437 -11.803   6.192  1.00  0.00     0.135 A 
ATOM     62  C   UNL     1      18.404 -13.927   5.744  1.00  0.00     0.135 A 
ATOM     63  F   UNL     1      19.431 -10.586   6.760  1.00  0.00    -0.206 F 
ATOM     64  C   UNL     1      20.520 -12.148   5.389  1.00  0.00     0.059 A 
ATOM     65  C   UNL     1      19.490 -14.303   4.958  1.00  0.00     0.059 A 
ATOM     66  F   UNL     1      17.394 -14.800   5.886  1.00  0.00    -0.206 F 
ATOM     67  C   UNL     1      20.536 -13.400   4.774  1.00  0.00     0.060 A 
BRANCH  67  68
ATOM     68  S   UNL     1      21.950 -13.836   3.739  1.00  0.00     0.124 S 
ATOM     69  O   UNL     1      21.689 -13.041   2.543  1.00  0.00    -0.237 OA
ATOM     70  O   UNL     1      23.081 -13.402   4.553  1.00  0.00    -0.237 OA
ATOM     71  O   UNL     1      21.818 -15.280   3.574  1.00  0.00    -0.744 OA
ENDBRANCH  67  68
ENDBRANCH  46  60
BRANCH  47  72
ATOM     72  C   UNL     1      10.322 -10.059  11.730  1.00  0.00     0.058 A 
ATOM     73  C   UNL     1      10.448  -9.329  12.922  1.00  0.00     0.135 A 
ATOM     74  C   UNL     1       9.030 -10.411  11.311  1.00  0.00     0.135 A 
ATOM     75  F   UNL     1      11.664  -8.973  13.364  1.00  0.00    -0.206 F 
ATOM     76  C   UNL     1       9.338  -8.979  13.683  1.00  0.00     0.059 A 
ATOM     77  C   UNL     1       7.903 -10.051  12.043  1.00  0.00     0.059 A 
ATOM     78  F   UNL     1       8.856 -11.090  10.167  1.00  0.00    -0.206 F 
ATOM     79  C   UNL     1       8.068  -9.346  13.234  1.00  0.00     0.060 A 
BRANCH  79  80
ATOM     80  S   UNL     1       6.628  -8.848  14.204  1.00  0.00     0.124 S 
ATOM     81  O   UNL     1       6.677  -9.798  15.309  1.00  0.00    -0.237 OA
ATOM     82  O   UNL     1       6.943  -7.463  14.537  1.00  0.00    -0.237 OA
ATOM     83  O   UNL     1       5.520  -9.022  13.268  1.00  0.00    -0.744 OA
ENDBRANCH  79  80
ENDBRANCH  47  72
BRANCH  59  84
ATOM     84  C   UNL     1      15.608 -14.455  12.822  1.00  0.00     0.058 A 
ATOM     85  C   UNL     1      14.878 -15.617  13.114  1.00  0.00     0.135 A 
ATOM     86  C   UNL     1      16.689 -14.131  13.658  1.00  0.00     0.135 A 
ATOM     87  F   UNL     1      13.833 -15.969  12.348  1.00  0.00    -0.206 F 
ATOM     88  C   UNL     1      15.177 -16.404  14.222  1.00  0.00     0.059 A 
ATOM     89  C   UNL     1      17.023 -14.918  14.755  1.00  0.00     0.059 A 
ATOM     90  F   UNL     1      17.429 -13.038  13.415  1.00  0.00    -0.206 F 
ATOM     91  C   UNL     1      16.247 -16.040  15.042  1.00  0.00     0.060 A 
BRANCH  91  92
ATOM     92  S   UNL     1      16.621 -17.057  16.486  1.00  0.00     0.124 S 
ATOM     93  O   UNL     1      15.598 -16.615  17.427  1.00  0.00    -0.237 OA
ATOM     94  O   UNL     1      16.462 -18.413  15.968  1.00  0.00    -0.237 OA
ATOM     95  O   UNL     1      17.991 -16.678  16.820  1.00  0.00    -0.744 OA
ENDBRANCH  91  92
ENDBRANCH  59  84
ENDBRANCH  33  34
ENDBRANCH  25  28
ENDBRANCH  23  24
ENDBRANCH   1  23
TORSDOF 15
