REMARK SMILES O=C(NCCCNC(=O)c1nn(Cc2ccc(F)cc2)c2c1CN(C(=O)[C@H]1CC1(F)F)CC2)c1ccc(-c2c3nc(c(-c4c(F)cc(S(=O)(=O)[O-])cc4F)c4ccc([nH]4)c(-c4c(F)cc(S(=O)(=O)[O-])cc4F)c4nc(c(-c5c(F)cc(S(=O)(=O)[O-])cc5F)c5ccc2[nH]5)C=C4)C=C3)cc1
REMARK SMILES IDX 4 1 3 2 1 3 2 4 34 6 35 7 99 8 36 9 98 10 37 11 38 12 39 13
REMARK SMILES IDX 92 14 40 15 97 16 91 17 93 18 41 19 96 20 90 21 89 22 42 24
REMARK SMILES IDX 76 25 55 26 75 27 56 28 59 29 74 30 94 31 57 32 58 33 73 35
REMARK SMILES IDX 95 36 60 37 43 38 44 39 53 40 45 41 46 42 52 43 54 44 47 45
REMARK SMILES IDX 48 46 49 47 50 48 51 49 77 50 78 51 87 52 79 53 80 54 86 55
REMARK SMILES IDX 88 56 81 57 82 58 83 59 84 60 85 61 61 62 62 63 71 64 63 65
REMARK SMILES IDX 64 66 70 67 72 68 65 69 66 70 67 71 68 72 69 73 5 74 6 75
REMARK SMILES IDX 7 76 8 77 9 79 10 80 11 81 22 82 12 83 21 84 23 85 33 86
REMARK SMILES IDX 24 87 32 88 13 89 14 90 15 91 20 92 16 93 19 94 17 95 18 96
REMARK SMILES IDX 25 97 26 98 27 99 28 100 29 101 30 102 31 103
REMARK H PARENT 3 5 93 23 59 34 7 78
REMARK Flexibility Score: inf
ROOT
ATOM      1  C   UNL     1      12.901   6.365 -12.916  1.00  0.00     0.118 C 
ENDROOT
BRANCH   1   2
ATOM      2  N   UNL     1      13.692   7.142 -13.849  1.00  0.00    -0.352 N 
ATOM      3  O   UNL     1      14.358   8.716 -15.252  1.00  0.00    -0.269 OA
ATOM      4  C   UNL     1      13.399   8.099 -14.781  1.00  0.00     0.251 C 
ATOM      5  H   UNL     1      14.654   6.936 -13.800  1.00  0.00     0.163 HD
BRANCH   4   6
ATOM      6  C   UNL     1      12.040   8.359 -15.322  1.00  0.00     0.039 A 
ATOM      7  C   UNL     1      10.835   7.987 -14.720  1.00  0.00     0.014 A 
ATOM      8  C   UNL     1      12.005   8.983 -16.581  1.00  0.00     0.014 A 
ATOM      9  C   UNL     1       9.635   8.099 -15.416  1.00  0.00     0.010 A 
ATOM     10  C   UNL     1      10.810   9.123 -17.268  1.00  0.00     0.010 A 
ATOM     11  C   UNL     1       9.636   8.620 -16.707  1.00  0.00    -0.014 A 
BRANCH  11  12
ATOM     12  C   UNL     1       8.379   8.688 -17.447  1.00  0.00     0.031 A 
ATOM     13  C   UNL     1       7.393   9.710 -16.970  1.00  0.00     0.074 A 
ATOM     14  C   UNL     1       8.251   8.020 -18.613  1.00  0.00     0.049 A 
ATOM     15  N   UNL     1       6.125   9.585 -16.728  1.00  0.00    -0.248 NA
ATOM     16  C   UNL     1       7.923  11.050 -16.647  1.00  0.00     0.031 C 
ATOM     17  C   UNL     1       9.274   7.231 -19.313  1.00  0.00     0.029 A 
ATOM     18  N   UNL     1       7.220   8.017 -19.498  1.00  0.00    -0.354 N 
ATOM     19  C   UNL     1       5.663  10.865 -16.407  1.00  0.00     0.074 A 
ATOM     20  C   UNL     1       6.829  11.695 -16.247  1.00  0.00     0.031 C 
ATOM     21  C   UNL     1       8.901   7.059 -20.601  1.00  0.00     0.029 A 
ATOM     22  C   UNL     1       7.571   7.611 -20.779  1.00  0.00     0.049 A 
ATOM     23  H   UNL     1       6.304   8.281 -19.252  1.00  0.00     0.167 HD
ATOM     24  C   UNL     1       4.350  11.224 -16.472  1.00  0.00     0.037 A 
ATOM     25  C   UNL     1       6.859   7.827 -21.915  1.00  0.00     0.037 A 
ATOM     26  C   UNL     1       3.475  10.087 -16.446  1.00  0.00     0.049 A 
ATOM     27  C   UNL     1       5.464   8.134 -21.498  1.00  0.00     0.074 A 
ATOM     28  C   UNL     1       3.201   9.098 -15.522  1.00  0.00     0.029 A 
ATOM     29  N   UNL     1       2.952   9.635 -17.632  1.00  0.00    -0.354 N 
ATOM     30  N   UNL     1       4.679   7.287 -20.885  1.00  0.00    -0.248 NA
ATOM     31  C   UNL     1       5.104   9.537 -21.349  1.00  0.00     0.031 C 
ATOM     32  C   UNL     1       3.002   7.918 -16.295  1.00  0.00     0.029 A 
ATOM     33  C   UNL     1       3.122   8.273 -17.640  1.00  0.00     0.049 A 
ATOM     34  H   UNL     1       2.537  10.181 -18.338  1.00  0.00     0.167 HD
ATOM     35  C   UNL     1       3.974   8.049 -19.964  1.00  0.00     0.074 A 
ATOM     36  C   UNL     1       4.234   9.437 -20.342  1.00  0.00     0.031 C 
ATOM     37  C   UNL     1       3.468   7.505 -18.817  1.00  0.00     0.037 A 
BRANCH  24  38
ATOM     38  C   UNL     1       3.880  12.607 -16.852  1.00  0.00     0.058 A 
ATOM     39  C   UNL     1       4.636  13.466 -17.681  1.00  0.00     0.135 A 
ATOM     40  C   UNL     1       2.546  12.998 -16.623  1.00  0.00     0.135 A 
ATOM     41  F   UNL     1       5.882  13.161 -18.067  1.00  0.00    -0.206 F 
ATOM     42  C   UNL     1       4.117  14.631 -18.234  1.00  0.00     0.059 A 
ATOM     43  C   UNL     1       1.988  14.138 -17.212  1.00  0.00     0.059 A 
ATOM     44  F   UNL     1       1.732  12.240 -15.870  1.00  0.00    -0.206 F 
ATOM     45  C   UNL     1       2.783  14.944 -18.021  1.00  0.00     0.060 A 
BRANCH  45  46
ATOM     46  S   UNL     1       2.099  16.349 -18.919  1.00  0.00     0.124 S 
ATOM     47  O   UNL     1       2.783  17.468 -18.278  1.00  0.00    -0.237 OA
ATOM     48  O   UNL     1       2.504  16.056 -20.290  1.00  0.00    -0.237 OA
ATOM     49  O   UNL     1       0.667  16.253 -18.657  1.00  0.00    -0.744 OA
ENDBRANCH  45  46
ENDBRANCH  24  38
BRANCH  25  50
ATOM     50  C   UNL     1       7.415   8.238 -23.237  1.00  0.00     0.058 A 
ATOM     51  C   UNL     1       8.643   8.925 -23.339  1.00  0.00     0.135 A 
ATOM     52  C   UNL     1       6.631   8.204 -24.405  1.00  0.00     0.135 A 
ATOM     53  F   UNL     1       9.443   9.084 -22.274  1.00  0.00    -0.206 F 
ATOM     54  C   UNL     1       9.059   9.557 -24.508  1.00  0.00     0.059 A 
ATOM     55  C   UNL     1       7.023   8.842 -25.591  1.00  0.00     0.059 A 
ATOM     56  F   UNL     1       5.433   7.600 -24.392  1.00  0.00    -0.206 F 
ATOM     57  C   UNL     1       8.231   9.535 -25.624  1.00  0.00     0.060 A 
BRANCH  57  58
ATOM     58  S   UNL     1       8.739  10.500 -27.065  1.00  0.00     0.124 S 
ATOM     59  O   UNL     1       8.781  11.853 -26.520  1.00  0.00    -0.237 OA
ATOM     60  O   UNL     1      10.036   9.909 -27.384  1.00  0.00    -0.237 OA
ATOM     61  O   UNL     1       7.681  10.247 -28.037  1.00  0.00    -0.744 OA
ENDBRANCH  57  58
ENDBRANCH  25  50
BRANCH  37  62
ATOM     62  C   UNL     1       3.523   6.005 -18.642  1.00  0.00     0.058 A 
ATOM     63  C   UNL     1       2.330   5.306 -18.417  1.00  0.00     0.135 A 
ATOM     64  C   UNL     1       4.722   5.285 -18.476  1.00  0.00     0.135 A 
ATOM     65  F   UNL     1       1.151   5.945 -18.500  1.00  0.00    -0.206 F 
ATOM     66  C   UNL     1       2.322   3.966 -18.029  1.00  0.00     0.059 A 
ATOM     67  C   UNL     1       4.740   3.934 -18.119  1.00  0.00     0.059 A 
ATOM     68  F   UNL     1       5.907   5.900 -18.568  1.00  0.00    -0.206 F 
ATOM     69  C   UNL     1       3.532   3.288 -17.874  1.00  0.00     0.060 A 
BRANCH  69  70
ATOM     70  S   UNL     1       3.492   1.579 -17.290  1.00  0.00     0.124 S 
ATOM     71  O   UNL     1       2.961   1.733 -15.937  1.00  0.00    -0.237 OA
ATOM     72  O   UNL     1       2.594   0.942 -18.247  1.00  0.00    -0.237 OA
ATOM     73  O   UNL     1       4.884   1.143 -17.358  1.00  0.00    -0.744 OA
ENDBRANCH  69  70
ENDBRANCH  37  62
ENDBRANCH  11  12
ENDBRANCH   4   6
ENDBRANCH   1   2
BRANCH   1  74
ATOM     74  C   UNL     1      12.296   5.081 -13.482  1.00  0.00     0.042 C 
BRANCH  74  75
ATOM     75  C   UNL     1      13.325   4.040 -13.934  1.00  0.00     0.118 C 
BRANCH  75  76
ATOM     76  N   UNL     1      14.230   3.656 -12.857  1.00  0.00    -0.351 N 
ATOM     77  C   UNL     1      14.310   2.489 -12.131  1.00  0.00     0.272 C 
ATOM     78  H   UNL     1      14.891   4.343 -12.610  1.00  0.00     0.163 HD
ATOM     79  O   UNL     1      14.989   2.500 -11.102  1.00  0.00    -0.267 OA
BRANCH  77  80
ATOM     80  C   UNL     1      13.573   1.291 -12.554  1.00  0.00     0.155 A 
ATOM     81  N   UNL     1      13.408   0.947 -13.848  1.00  0.00    -0.167 NA
ATOM     82  C   UNL     1      13.007   0.301 -11.705  1.00  0.00     0.026 A 
ATOM     83  N   UNL     1      12.616  -0.149 -13.826  1.00  0.00    -0.264 N 
ATOM     84  C   UNL     1      12.323  -0.543 -12.557  1.00  0.00     0.046 A 
ATOM     85  C   UNL     1      13.007   0.171 -10.216  1.00  0.00     0.159 C 
ATOM     86  C   UNL     1      11.442  -1.651 -12.111  1.00  0.00     0.078 C 
ATOM     87  N   UNL     1      12.260  -1.053  -9.838  1.00  0.00    -0.337 N 
ATOM     88  C   UNL     1      11.057  -1.364 -10.643  1.00  0.00     0.126 C 
BRANCH  83  89
ATOM     89  C   UNL     1      12.310  -0.849 -15.069  1.00  0.00     0.180 C 
BRANCH  89  90
ATOM     90  C   UNL     1      11.377  -0.079 -15.969  1.00  0.00    -0.026 A 
ATOM     91  C   UNL     1      11.857   1.017 -16.708  1.00  0.00     0.008 A 
ATOM     92  C   UNL     1      10.030  -0.454 -16.106  1.00  0.00     0.008 A 
ATOM     93  C   UNL     1      11.015   1.710 -17.575  1.00  0.00     0.039 A 
ATOM     94  C   UNL     1       9.188   0.243 -16.978  1.00  0.00     0.039 A 
ATOM     95  C   UNL     1       9.691   1.313 -17.708  1.00  0.00     0.123 A 
ATOM     96  F   UNL     1       8.896   1.968 -18.562  1.00  0.00    -0.207 F 
ENDBRANCH  89  90
ENDBRANCH  83  89
BRANCH  87  97
ATOM     97  C   UNL     1      12.711  -1.814  -8.771  1.00  0.00     0.232 C 
ATOM     98  O   UNL     1      13.700  -1.533  -8.101  1.00  0.00    -0.274 OA
BRANCH  97  99
ATOM     99  C   UNL     1      11.899  -2.991  -8.395  1.00  0.00     0.154 C 
ATOM    100  C   UNL     1      11.916  -4.250  -9.248  1.00  0.00     0.097 C 
ATOM    101  C   UNL     1      12.538  -4.234  -7.904  1.00  0.00     0.260 C 
ATOM    102  F   UNL     1      13.896  -4.414  -7.805  1.00  0.00    -0.206 F 
ATOM    103  F   UNL     1      11.955  -4.976  -6.899  1.00  0.00    -0.206 F 
ENDBRANCH  97  99
ENDBRANCH  87  97
ENDBRANCH  77  80
ENDBRANCH  75  76
ENDBRANCH  74  75
ENDBRANCH   1  74
TORSDOF 17
