REMARK SMILES Cc1cc(C(=O)NCCCNC(=O)c2ccc(-c3c4nc(c(-c5c(F)cc(S(=O)(=O)[O-])cc5F)c5ccc([nH]5)c(-c5c(F)cc(S(=O)(=O)[O-])cc5F)c5nc(c(-c6c(F)cc(S(=O)(=O)[O-])cc6F)c6ccc3[nH]6)C=C5)C=C4)cc2)c(C#Cc2ccccc2)s1
REMARK SMILES IDX 9 1 8 2 7 3 5 4 6 5 4 7 1 8 2 9 3 10 89 11 80 12 81 13 82 14
REMARK SMILES IDX 83 15 84 16 88 17 85 18 87 19 86 20 10 21 11 22 12 23 13 25
REMARK SMILES IDX 14 26 15 27 79 28 16 29 78 30 17 31 18 32 19 33 72 34 20 35
REMARK SMILES IDX 77 36 71 37 73 38 21 39 76 40 70 41 69 42 22 44 56 45 35 46
REMARK SMILES IDX 55 47 36 48 39 49 54 50 74 51 37 52 38 53 53 55 75 56 40 57
REMARK SMILES IDX 23 58 24 59 33 60 25 61 26 62 32 63 34 64 27 65 28 66 29 67
REMARK SMILES IDX 30 68 31 69 57 70 58 71 67 72 59 73 60 74 66 75 68 76 61 77
REMARK SMILES IDX 62 78 63 79 64 80 65 81 41 82 42 83 51 84 43 85 44 86 50 87
REMARK SMILES IDX 52 88 45 89 46 90 47 91 48 92 49 93
REMARK H PARENT 7 6 11 24 73 43 39 54
REMARK Flexibility Score: inf
ROOT
ATOM      1  C   UNL     1       0.372  -5.575  -0.966  1.00  0.00     0.042 C 
ENDROOT
BRANCH   1   2
ATOM      2  C   UNL     1       1.280  -4.724  -1.859  1.00  0.00     0.118 C 
BRANCH   2   3
ATOM      3  N   UNL     1       0.606  -4.326  -3.085  1.00  0.00    -0.352 N 
ATOM      4  C   UNL     1       0.071  -3.165  -3.583  1.00  0.00     0.253 C 
ATOM      5  O   UNL     1      -0.410  -3.280  -4.715  1.00  0.00    -0.269 OA
ATOM      6  H   UNL     1       0.508  -5.077  -3.713  1.00  0.00     0.163 HD
BRANCH   4   7
ATOM      7  C   UNL     1       0.092  -1.878  -2.868  1.00  0.00     0.066 A 
ATOM      8  C   UNL     1       0.929   0.358   0.103  1.00  0.00     0.056 C 
ATOM      9  C   UNL     1       0.485  -0.262  -1.178  1.00  0.00     0.004 A 
ATOM     10  C   UNL     1       0.442  -1.603  -1.497  1.00  0.00     0.030 A 
ATOM     11  S   UNL     1      -0.050   0.692  -2.473  1.00  0.00    -0.131 S 
ATOM     12  C   UNL     1      -0.284  -0.678  -3.477  1.00  0.00     0.090 A 
BRANCH  12  13
ATOM     13  C   UNL     1      -0.799  -0.485  -4.804  1.00  0.00    -0.050 C 
ATOM     14  C   UNL     1      -1.224  -0.262  -5.900  1.00  0.00    -0.061 C 
BRANCH  14  15
ATOM     15  C   UNL     1      -1.694   0.044  -7.220  1.00  0.00     0.025 A 
ATOM     16  C   UNL     1      -2.059  -0.982  -8.093  1.00  0.00     0.017 A 
ATOM     17  C   UNL     1      -1.754   1.373  -7.647  1.00  0.00     0.017 A 
ATOM     18  C   UNL     1      -2.462  -0.681  -9.396  1.00  0.00     0.001 A 
ATOM     19  C   UNL     1      -2.157   1.674  -8.950  1.00  0.00     0.001 A 
ATOM     20  C   UNL     1      -2.505   0.646  -9.826  1.00  0.00     0.000 A 
ENDBRANCH  14  15
ENDBRANCH  12  13
ENDBRANCH   4   7
ENDBRANCH   2   3
ENDBRANCH   1   2
BRANCH   1  21
ATOM     21  C   UNL     1       0.107  -6.968  -1.544  1.00  0.00     0.118 C 
BRANCH  21  22
ATOM     22  N   UNL     1       1.309  -7.744  -1.784  1.00  0.00    -0.352 N 
ATOM     23  C   UNL     1       2.067  -8.621  -1.062  1.00  0.00     0.251 C 
ATOM     24  H   UNL     1       1.667  -7.604  -2.690  1.00  0.00     0.163 HD
ATOM     25  O   UNL     1       2.980  -9.169  -1.687  1.00  0.00    -0.269 OA
BRANCH  23  26
ATOM     26  C   UNL     1       1.945  -8.873   0.397  1.00  0.00     0.039 A 
ATOM     27  C   UNL     1       0.923  -8.419   1.231  1.00  0.00     0.014 A 
ATOM     28  C   UNL     1       3.023  -9.575   0.971  1.00  0.00     0.014 A 
ATOM     29  C   UNL     1       1.074  -8.493   2.614  1.00  0.00     0.010 A 
ATOM     30  C   UNL     1       3.159  -9.682   2.344  1.00  0.00     0.010 A 
ATOM     31  C   UNL     1       2.232  -9.056   3.164  1.00  0.00    -0.014 A 
BRANCH  31  32
ATOM     32  C   UNL     1       2.365  -9.175   4.616  1.00  0.00     0.031 A 
ATOM     33  C   UNL     1       1.292 -10.039   5.193  1.00  0.00     0.074 A 
ATOM     34  C   UNL     1       3.418  -8.668   5.305  1.00  0.00     0.049 A 
ATOM     35  N   UNL     1       0.344  -9.684   5.995  1.00  0.00    -0.248 NA
ATOM     36  C   UNL     1       1.110 -11.398   4.641  1.00  0.00     0.031 C 
ATOM     37  C   UNL     1       4.604  -7.985   4.773  1.00  0.00     0.029 A 
ATOM     38  N   UNL     1       3.700  -8.723   6.646  1.00  0.00    -0.354 N 
ATOM     39  C   UNL     1      -0.381 -10.843   6.261  1.00  0.00     0.074 A 
ATOM     40  C   UNL     1      -0.006 -11.796   5.254  1.00  0.00     0.031 C 
ATOM     41  C   UNL     1       5.567  -7.917   5.723  1.00  0.00     0.029 A 
ATOM     42  C   UNL     1       5.034  -8.416   6.976  1.00  0.00     0.049 A 
ATOM     43  H   UNL     1       3.024  -8.957   7.322  1.00  0.00     0.167 HD
ATOM     44  C   UNL     1      -1.020 -11.006   7.452  1.00  0.00     0.037 A 
ATOM     45  C   UNL     1       5.635  -8.594   8.193  1.00  0.00     0.037 A 
ATOM     46  C   UNL     1      -1.203  -9.737   8.106  1.00  0.00     0.049 A 
ATOM     47  C   UNL     1       4.533  -8.674   9.191  1.00  0.00     0.074 A 
ATOM     48  C   UNL     1      -1.901  -8.585   7.802  1.00  0.00     0.029 A 
ATOM     49  N   UNL     1      -0.264  -9.380   9.042  1.00  0.00    -0.354 N 
ATOM     50  N   UNL     1       3.736  -7.673   9.454  1.00  0.00    -0.248 NA
ATOM     51  C   UNL     1       3.997 -10.001   9.453  1.00  0.00     0.031 C 
ATOM     52  C   UNL     1      -1.044  -7.520   8.201  1.00  0.00     0.029 A 
ATOM     53  C   UNL     1       0.073  -8.068   8.832  1.00  0.00     0.049 A 
ATOM     54  H   UNL     1       0.103  -9.966   9.743  1.00  0.00     0.167 HD
ATOM     55  C   UNL     1       2.470  -8.238   9.480  1.00  0.00     0.074 A 
ATOM     56  C   UNL     1       2.700  -9.685   9.480  1.00  0.00     0.031 C 
ATOM     57  C   UNL     1       1.357  -7.504   9.190  1.00  0.00     0.037 A 
BRANCH  44  58
ATOM     58  C   UNL     1      -1.105 -12.319   8.193  1.00  0.00     0.058 A 
ATOM     59  C   UNL     1      -1.907 -12.413   9.348  1.00  0.00     0.135 A 
ATOM     60  C   UNL     1      -0.224 -13.403   7.977  1.00  0.00     0.135 A 
ATOM     61  F   UNL     1      -2.762 -11.428   9.669  1.00  0.00    -0.206 F 
ATOM     62  C   UNL     1      -1.811 -13.481  10.242  1.00  0.00     0.059 A 
ATOM     63  C   UNL     1      -0.146 -14.500   8.828  1.00  0.00     0.059 A 
ATOM     64  F   UNL     1       0.671 -13.411   6.982  1.00  0.00    -0.206 F 
ATOM     65  C   UNL     1      -0.925 -14.521   9.972  1.00  0.00     0.060 A 
BRANCH  65  66
ATOM     66  S   UNL     1      -0.780 -15.882  11.142  1.00  0.00     0.124 S 
ATOM     67  O   UNL     1      -0.247 -15.207  12.319  1.00  0.00    -0.237 OA
ATOM     68  O   UNL     1      -2.163 -16.339  11.236  1.00  0.00    -0.237 OA
ATOM     69  O   UNL     1       0.134 -16.805  10.474  1.00  0.00    -0.744 OA
ENDBRANCH  65  66
ENDBRANCH  44  58
BRANCH  45  70
ATOM     70  C   UNL     1       7.000  -9.139   8.502  1.00  0.00     0.058 A 
ATOM     71  C   UNL     1       7.519  -9.162   9.818  1.00  0.00     0.135 A 
ATOM     72  C   UNL     1       7.688  -9.938   7.570  1.00  0.00     0.135 A 
ATOM     73  F   UNL     1       6.927  -8.448  10.788  1.00  0.00    -0.206 F 
ATOM     74  C   UNL     1       8.610  -9.968  10.191  1.00  0.00     0.059 A 
ATOM     75  C   UNL     1       8.774 -10.747   7.918  1.00  0.00     0.059 A 
ATOM     76  F   UNL     1       7.264 -10.030   6.302  1.00  0.00    -0.206 F 
ATOM     77  C   UNL     1       9.215 -10.781   9.235  1.00  0.00     0.060 A 
BRANCH  77  78
ATOM     78  S   UNL     1      10.500 -11.964   9.729  1.00  0.00     0.124 S 
ATOM     79  O   UNL     1      11.588 -11.082  10.138  1.00  0.00    -0.237 OA
ATOM     80  O   UNL     1       9.844 -12.704  10.801  1.00  0.00    -0.237 OA
ATOM     81  O   UNL     1      10.745 -12.728   8.508  1.00  0.00    -0.744 OA
ENDBRANCH  77  78
ENDBRANCH  45  70
BRANCH  57  82
ATOM     82  C   UNL     1       1.481  -6.005   9.077  1.00  0.00     0.058 A 
ATOM     83  C   UNL     1       2.179  -5.320   8.064  1.00  0.00     0.135 A 
ATOM     84  C   UNL     1       0.682  -5.234   9.934  1.00  0.00     0.135 A 
ATOM     85  F   UNL     1       2.895  -5.989   7.148  1.00  0.00    -0.206 F 
ATOM     86  C   UNL     1       2.096  -3.929   7.925  1.00  0.00     0.059 A 
ATOM     87  C   UNL     1       0.559  -3.856   9.795  1.00  0.00     0.059 A 
ATOM     88  F   UNL     1      -0.052  -5.834  10.886  1.00  0.00    -0.206 F 
ATOM     89  C   UNL     1       1.275  -3.207   8.793  1.00  0.00     0.060 A 
BRANCH  89  90
ATOM     90  S   UNL     1       1.103  -1.420   8.580  1.00  0.00     0.124 S 
ATOM     91  O   UNL     1       2.443  -0.941   8.903  1.00  0.00    -0.237 OA
ATOM     92  O   UNL     1       0.711  -1.306   7.178  1.00  0.00    -0.237 OA
ATOM     93  O   UNL     1       0.064  -1.059   9.541  1.00  0.00    -0.744 OA
ENDBRANCH  89  90
ENDBRANCH  57  82
ENDBRANCH  31  32
ENDBRANCH  23  26
ENDBRANCH  21  22
ENDBRANCH   1  21
TORSDOF 15
