REMARK SMILES Cc1csc(C[NH2+]C2(C(=O)NCCCNC(=O)c3ccc(-c4c5nc(c(-c6c(F)cc(S(=O)(=O)[O-])cc6F)c6ccc([nH]6)c(-c6c(F)cc(S(=O)(=O)[O-])cc6F)c6nc(c(-c7c(F)cc(S(=O)(=O)[O-])cc7F)c7ccc4[nH]7)C=C6)C=C5)cc3)CC2)n1
REMARK SMILES IDX 13 1 12 2 11 3 9 4 10 5 8 7 84 8 85 9 7 10 6 13 5 14 1 15
REMARK SMILES IDX 2 16 3 17 86 18 4 19 14 20 15 21 16 22 17 24 18 25 19 26
REMARK SMILES IDX 83 27 20 28 82 29 21 30 22 31 23 32 76 33 24 34 81 35 75 36
REMARK SMILES IDX 77 37 25 38 80 39 74 40 73 41 26 43 60 44 39 45 59 46 40 47
REMARK SMILES IDX 43 48 58 49 78 50 41 51 42 52 57 54 79 55 44 56 27 57 28 58
REMARK SMILES IDX 37 59 29 60 30 61 36 62 38 63 31 64 32 65 33 66 34 67 35 68
REMARK SMILES IDX 61 69 62 70 71 71 63 72 64 73 70 74 72 75 65 76 66 77 67 78
REMARK SMILES IDX 68 79 69 80 45 81 46 82 55 83 47 84 48 85 54 86 56 87 49 88
REMARK SMILES IDX 50 89 51 90 52 91 53 92
REMARK H PARENT 11 6 7 11 7 12 15 23 77 42 43 53
REMARK Flexibility Score: inf
ROOT
ATOM      1  C   UNL     1       3.862   6.754   1.754  1.00  0.00     0.042 C 
ENDROOT
BRANCH   1   2
ATOM      2  C   UNL     1       4.446   6.051   0.525  1.00  0.00     0.118 C 
BRANCH   2   3
ATOM      3  N   UNL     1       4.140   4.634   0.430  1.00  0.00    -0.351 N 
ATOM      4  C   UNL     1       2.854   4.154   0.461  1.00  0.00     0.281 C 
ATOM      5  O   UNL     1       2.475   3.616   1.499  1.00  0.00    -0.268 OA
ATOM      6  H   UNL     1       4.882   3.994   0.341  1.00  0.00     0.163 HD
BRANCH   4   7
ATOM      7  C   UNL     1       1.970   4.207  -0.785  1.00  0.00     0.176 C 
ATOM      8  C   UNL     1       2.344   5.041  -2.002  1.00  0.00     0.086 C 
ATOM      9  C   UNL     1       1.264   5.517  -1.080  1.00  0.00     0.086 C 
BRANCH   7  10
ATOM     10  N   UNL     1       1.248   2.930  -1.149  1.00  0.00    -0.328 N 
ATOM     11  H   UNL     1       0.373   3.181  -1.610  1.00  0.00     0.347 HD
ATOM     12  H   UNL     1       1.886   2.404  -1.745  1.00  0.00     0.347 HD
BRANCH  10  13
ATOM     13  C   UNL     1       0.927   2.047  -0.015  1.00  0.00     0.330 C 
BRANCH  13  14
ATOM     14  C   UNL     1       0.068   0.864  -0.381  1.00  0.00     0.147 A 
ATOM     15  C   UNL     1      -3.144  -0.743  -0.238  1.00  0.00     0.067 C 
ATOM     16  C   UNL     1      -1.700  -0.473  -0.443  1.00  0.00     0.049 A 
ATOM     17  C   UNL     1      -0.729  -1.380  -0.819  1.00  0.00     0.090 A 
ATOM     18  N   UNL     1      -1.239   0.811  -0.220  1.00  0.00    -0.240 NA
ATOM     19  S   UNL     1       0.798  -0.607  -0.906  1.00  0.00    -0.121 S 
ENDBRANCH  13  14
ENDBRANCH  10  13
ENDBRANCH   7  10
ENDBRANCH   4   7
ENDBRANCH   2   3
ENDBRANCH   1   2
BRANCH   1  20
ATOM     20  C   UNL     1       4.072   6.080   3.111  1.00  0.00     0.118 C 
BRANCH  20  21
ATOM     21  N   UNL     1       5.447   5.700   3.375  1.00  0.00    -0.352 N 
ATOM     22  C   UNL     1       6.250   5.923   4.464  1.00  0.00     0.251 C 
ATOM     23  H   UNL     1       5.878   5.196   2.647  1.00  0.00     0.163 HD
ATOM     24  O   UNL     1       7.415   5.529   4.421  1.00  0.00    -0.269 OA
BRANCH  22  25
ATOM     25  C   UNL     1       5.768   6.657   5.658  1.00  0.00     0.039 A 
ATOM     26  C   UNL     1       6.641   7.580   6.244  1.00  0.00     0.014 A 
ATOM     27  C   UNL     1       4.516   6.426   6.237  1.00  0.00     0.014 A 
ATOM     28  C   UNL     1       6.242   8.309   7.366  1.00  0.00     0.010 A 
ATOM     29  C   UNL     1       4.098   7.193   7.330  1.00  0.00     0.010 A 
ATOM     30  C   UNL     1       4.957   8.142   7.904  1.00  0.00    -0.014 A 
BRANCH  30  31
ATOM     31  C   UNL     1       4.520   8.977   9.052  1.00  0.00     0.031 A 
ATOM     32  C   UNL     1       4.323   8.376  10.415  1.00  0.00     0.074 A 
ATOM     33  C   UNL     1       4.292  10.291   8.860  1.00  0.00     0.049 A 
ATOM     34  N   UNL     1       3.997   8.968  11.537  1.00  0.00    -0.248 NA
ATOM     35  C   UNL     1       4.497   6.921  10.533  1.00  0.00     0.031 C 
ATOM     36  C   UNL     1       4.390  10.987   7.574  1.00  0.00     0.029 A 
ATOM     37  N   UNL     1       3.939  11.278   9.745  1.00  0.00    -0.354 N 
ATOM     38  C   UNL     1       3.917   7.961  12.490  1.00  0.00     0.074 A 
ATOM     39  C   UNL     1       4.195   6.714  11.807  1.00  0.00     0.031 C 
ATOM     40  C   UNL     1       4.130  12.291   7.760  1.00  0.00     0.029 A 
ATOM     41  C   UNL     1       3.839  12.523   9.171  1.00  0.00     0.049 A 
ATOM     42  H   UNL     1       3.772  11.111  10.701  1.00  0.00     0.167 HD
ATOM     43  C   UNL     1       3.651   8.064  13.815  1.00  0.00     0.037 A 
ATOM     44  C   UNL     1       3.564  13.721   9.722  1.00  0.00     0.037 A 
ATOM     45  C   UNL     1       3.399   9.305  14.502  1.00  0.00     0.049 A 
ATOM     46  C   UNL     1       3.346  13.821  11.204  1.00  0.00     0.074 A 
ATOM     47  C   UNL     1       3.160   9.513  15.850  1.00  0.00     0.029 A 
ATOM     48  N   UNL     1       3.359  10.550  13.894  1.00  0.00    -0.354 N 
ATOM     49  N   UNL     1       3.332  12.864  12.100  1.00  0.00    -0.248 NA
ATOM     50  C   UNL     1       3.126  15.166  11.753  1.00  0.00     0.031 C 
ATOM     51  C   UNL     1       2.964  10.885  16.055  1.00  0.00     0.029 A 
ATOM     52  C   UNL     1       3.102  11.531  14.838  1.00  0.00     0.049 A 
ATOM     53  H   UNL     1       3.494  10.714  12.933  1.00  0.00     0.167 HD
ATOM     54  C   UNL     1       3.120  13.492  13.321  1.00  0.00     0.074 A 
ATOM     55  C   UNL     1       3.023  14.912  13.051  1.00  0.00     0.031 C 
ATOM     56  C   UNL     1       3.015  12.941  14.555  1.00  0.00     0.037 A 
BRANCH  43  57
ATOM     57  C   UNL     1       3.628   6.792  14.611  1.00  0.00     0.058 A 
ATOM     58  C   UNL     1       4.814   6.130  14.964  1.00  0.00     0.135 A 
ATOM     59  C   UNL     1       2.412   6.235  15.038  1.00  0.00     0.135 A 
ATOM     60  F   UNL     1       6.001   6.614  14.566  1.00  0.00    -0.206 F 
ATOM     61  C   UNL     1       4.796   4.943  15.689  1.00  0.00     0.059 A 
ATOM     62  C   UNL     1       2.371   5.058  15.781  1.00  0.00     0.059 A 
ATOM     63  F   UNL     1       1.250   6.829  14.726  1.00  0.00    -0.206 F 
ATOM     64  C   UNL     1       3.568   4.411  16.087  1.00  0.00     0.060 A 
BRANCH  64  65
ATOM     65  S   UNL     1       3.550   2.865  17.019  1.00  0.00     0.124 S 
ATOM     66  O   UNL     1       3.703   1.881  15.952  1.00  0.00    -0.237 OA
ATOM     67  O   UNL     1       4.696   3.015  17.910  1.00  0.00    -0.237 OA
ATOM     68  O   UNL     1       2.246   2.883  17.675  1.00  0.00    -0.744 OA
ENDBRANCH  64  65
ENDBRANCH  43  57
BRANCH  44  69
ATOM     69  C   UNL     1       3.537  14.932   8.866  1.00  0.00     0.058 A 
ATOM     70  C   UNL     1       4.612  15.832   8.863  1.00  0.00     0.135 A 
ATOM     71  C   UNL     1       2.454  15.195   8.016  1.00  0.00     0.135 A 
ATOM     72  F   UNL     1       5.667  15.620   9.664  1.00  0.00    -0.206 F 
ATOM     73  C   UNL     1       4.612  16.960   8.049  1.00  0.00     0.059 A 
ATOM     74  C   UNL     1       2.438  16.308   7.182  1.00  0.00     0.059 A 
ATOM     75  F   UNL     1       1.411  14.352   7.975  1.00  0.00    -0.206 F 
ATOM     76  C   UNL     1       3.520  17.189   7.210  1.00  0.00     0.060 A 
BRANCH  76  77
ATOM     77  S   UNL     1       3.553  18.614   6.102  1.00  0.00     0.124 S 
ATOM     78  O   UNL     1       3.125  19.687   6.992  1.00  0.00    -0.237 OA
ATOM     79  O   UNL     1       4.951  18.652   5.681  1.00  0.00    -0.237 OA
ATOM     80  O   UNL     1       2.605  18.240   5.056  1.00  0.00    -0.744 OA
ENDBRANCH  76  77
ENDBRANCH  44  69
BRANCH  56  81
ATOM     81  C   UNL     1       2.808  13.883  15.705  1.00  0.00     0.058 A 
ATOM     82  C   UNL     1       1.555  14.460  15.961  1.00  0.00     0.135 A 
ATOM     83  C   UNL     1       3.871  14.204  16.563  1.00  0.00     0.135 A 
ATOM     84  F   UNL     1       0.510  14.188  15.164  1.00  0.00    -0.206 F 
ATOM     85  C   UNL     1       1.368  15.348  17.016  1.00  0.00     0.059 A 
ATOM     86  C   UNL     1       3.703  15.077  17.633  1.00  0.00     0.059 A 
ATOM     87  F   UNL     1       5.086  13.671  16.362  1.00  0.00    -0.206 F 
ATOM     88  C   UNL     1       2.451  15.657  17.841  1.00  0.00     0.060 A 
BRANCH  88  89
ATOM     89  S   UNL     1       2.208  16.805  19.214  1.00  0.00     0.124 S 
ATOM     90  O   UNL     1       2.348  18.094  18.544  1.00  0.00    -0.237 OA
ATOM     91  O   UNL     1       0.863  16.474  19.675  1.00  0.00    -0.237 OA
ATOM     92  O   UNL     1       3.283  16.455  20.137  1.00  0.00    -0.744 OA
ENDBRANCH  88  89
ENDBRANCH  56  81
ENDBRANCH  30  31
ENDBRANCH  22  25
ENDBRANCH  20  21
ENDBRANCH   1  20
TORSDOF 16
