REMARK SMILES CC(C)C[C@H](NC(=O)CNC(=O)[C@@H](NC(=O)OCc1ccccc1)C(C)C)C(=O)NCCCNC(=O)c1ccc(-c2c3nc(c(-c4c(F)cc(S(=O)(=O)[O-])cc4F)c4ccc([nH]4)c(-c4c(F)cc(S(=O)(=O)[O-])cc4F)c4nc(c(-c5c(F)cc(S(=O)(=O)[O-])cc5F)c5ccc2[nH]5)C=C4)C=C3)cc1
REMARK SMILES IDX 28 1 29 2 30 3 5 5 4 6 2 7 1 8 3 9 6 10 7 11 8 13 9 14 10 15
REMARK SMILES IDX 11 16 12 18 13 19 14 20 15 21 16 23 17 24 18 25 19 26 20 27
REMARK SMILES IDX 24 28 21 29 23 30 22 31 25 32 26 33 27 34 31 35 32 36 33 37
REMARK SMILES IDX 34 38 35 39 36 41 37 42 38 43 102 44 39 45 101 46 40 47
REMARK SMILES IDX 41 48 42 49 95 50 43 51 100 52 94 53 96 54 44 55 99 56 93 57
REMARK SMILES IDX 92 58 45 60 79 61 58 62 78 63 59 64 62 65 77 66 97 67 60 68
REMARK SMILES IDX 61 69 76 71 98 72 63 73 46 74 47 75 56 76 48 77 49 78 55 79
REMARK SMILES IDX 57 80 50 81 51 82 52 83 53 84 54 85 80 86 81 87 90 88 82 89
REMARK SMILES IDX 83 90 89 91 91 92 84 93 85 94 86 95 87 96 88 97 64 98 65 99
REMARK SMILES IDX 74 100 66 101 67 102 73 103 75 104 68 105 69 106 70 107
REMARK SMILES IDX 71 108 72 109
REMARK H PARENT 30 4 6 12 10 17 14 22 34 40 96 59 62 70
REMARK Flexibility Score: inf
ROOT
ATOM      1  C   UNL     1      -2.974   0.972  -2.107  1.00  0.00     0.242 C 
ATOM      2  O   UNL     1      -3.769   1.403  -1.262  1.00  0.00    -0.273 OA
ATOM      3  N   UNL     1      -3.480   0.249  -3.130  1.00  0.00    -0.354 N 
ATOM      4  H   UNL     1      -4.448   0.356  -3.276  1.00  0.00     0.163 HD
ENDROOT
BRANCH   1   5
ATOM      5  C   UNL     1      -1.469   1.207  -1.933  1.00  0.00     0.171 C 
BRANCH   5   6
ATOM      6  C   UNL     1      -0.695   1.857  -3.094  1.00  0.00     0.038 C 
BRANCH   6   7
ATOM      7  C   UNL     1      -0.950   3.383  -3.248  1.00  0.00    -0.015 C 
ATOM      8  C   UNL     1       0.234   4.253  -2.795  1.00  0.00     0.007 C 
ATOM      9  C   UNL     1      -1.192   3.733  -4.715  1.00  0.00     0.007 C 
ENDBRANCH   6   7
ENDBRANCH   5   6
BRANCH   5  10
ATOM     10  N   UNL     1      -0.783   0.047  -1.375  1.00  0.00    -0.343 N 
ATOM     11  C   UNL     1       0.073  -0.050  -0.319  1.00  0.00     0.240 C 
ATOM     12  H   UNL     1      -0.968  -0.804  -1.835  1.00  0.00     0.164 HD
ATOM     13  O   UNL     1       0.552  -1.165  -0.085  1.00  0.00    -0.273 OA
BRANCH  11  14
ATOM     14  C   UNL     1       0.459   1.138   0.598  1.00  0.00     0.216 C 
BRANCH  14  15
ATOM     15  N   UNL     1       0.076   2.494   0.252  1.00  0.00    -0.345 N 
ATOM     16  C   UNL     1      -1.025   3.251   0.538  1.00  0.00     0.243 C 
ATOM     17  H   UNL     1       0.744   2.962  -0.299  1.00  0.00     0.164 HD
ATOM     18  O   UNL     1      -1.167   4.314  -0.078  1.00  0.00    -0.273 OA
BRANCH  16  19
ATOM     19  C   UNL     1      -2.008   2.918   1.660  1.00  0.00     0.177 C 
BRANCH  19  20
ATOM     20  N   UNL     1      -2.526   1.563   1.477  1.00  0.00    -0.309 N 
ATOM     21  C   UNL     1      -2.256   0.402   2.115  1.00  0.00     0.408 C 
ATOM     22  H   UNL     1      -3.194   1.481   0.758  1.00  0.00     0.167 HD
ATOM     23  O   UNL     1      -2.656  -0.674   1.687  1.00  0.00    -0.225 OA
BRANCH  21  24
ATOM     24  O   UNL     1      -1.585   0.588   3.267  1.00  0.00    -0.445 OA
BRANCH  24  25
ATOM     25  C   UNL     1      -1.558  -0.528   4.158  1.00  0.00     0.270 C 
BRANCH  25  26
ATOM     26  C   UNL     1      -2.808  -0.610   5.009  1.00  0.00    -0.011 A 
ATOM     27  C   UNL     1      -4.035  -0.043   4.621  1.00  0.00     0.007 A 
ATOM     28  C   UNL     1      -2.766  -1.333   6.207  1.00  0.00     0.007 A 
ATOM     29  C   UNL     1      -5.180  -0.186   5.400  1.00  0.00     0.000 A 
ATOM     30  C   UNL     1      -3.914  -1.478   6.988  1.00  0.00     0.000 A 
ATOM     31  C   UNL     1      -5.120  -0.907   6.584  1.00  0.00     0.000 A 
ENDBRANCH  25  26
ENDBRANCH  24  25
ENDBRANCH  21  24
ENDBRANCH  19  20
BRANCH  19  32
ATOM     32  C   UNL     1      -1.365   3.387   2.990  1.00  0.00     0.015 C 
ATOM     33  C   UNL     1      -0.760   4.803   2.845  1.00  0.00     0.010 C 
ATOM     34  C   UNL     1      -2.370   3.449   4.138  1.00  0.00     0.010 C 
ENDBRANCH  19  32
ENDBRANCH  16  19
ENDBRANCH  14  15
ENDBRANCH  11  14
ENDBRANCH   5  10
ENDBRANCH   1   5
BRANCH   3  35
ATOM     35  C   UNL     1      -2.822  -0.659  -4.046  1.00  0.00     0.117 C 
BRANCH  35  36
ATOM     36  C   UNL     1      -3.296  -2.091  -3.829  1.00  0.00     0.042 C 
BRANCH  36  37
ATOM     37  C   UNL     1      -4.813  -2.251  -3.837  1.00  0.00     0.118 C 
BRANCH  37  38
ATOM     38  N   UNL     1      -5.435  -1.623  -5.000  1.00  0.00    -0.352 N 
ATOM     39  C   UNL     1      -6.059  -2.199  -6.077  1.00  0.00     0.251 C 
ATOM     40  H   UNL     1      -5.401  -0.639  -5.012  1.00  0.00     0.163 HD
ATOM     41  O   UNL     1      -6.300  -1.530  -7.076  1.00  0.00    -0.269 OA
BRANCH  39  42
ATOM     42  C   UNL     1      -6.415  -3.628  -6.023  1.00  0.00     0.039 A 
ATOM     43  C   UNL     1      -6.145  -4.443  -7.123  1.00  0.00     0.014 A 
ATOM     44  C   UNL     1      -6.994  -4.160  -4.869  1.00  0.00     0.014 A 
ATOM     45  C   UNL     1      -6.398  -5.812  -7.036  1.00  0.00     0.010 A 
ATOM     46  C   UNL     1      -7.144  -5.534  -4.747  1.00  0.00     0.010 A 
ATOM     47  C   UNL     1      -6.862  -6.373  -5.835  1.00  0.00    -0.014 A 
BRANCH  47  48
ATOM     48  C   UNL     1      -7.086  -7.832  -5.698  1.00  0.00     0.031 A 
ATOM     49  C   UNL     1      -8.466  -8.350  -5.391  1.00  0.00     0.074 A 
ATOM     50  C   UNL     1      -6.042  -8.679  -5.788  1.00  0.00     0.049 A 
ATOM     51  N   UNL     1      -8.857  -9.578  -5.170  1.00  0.00    -0.248 NA
ATOM     52  C   UNL     1      -9.544  -7.351  -5.284  1.00  0.00     0.031 C 
ATOM     53  C   UNL     1      -4.651  -8.287  -6.028  1.00  0.00     0.029 A 
ATOM     54  N   UNL     1      -5.985 -10.046  -5.682  1.00  0.00    -0.354 N 
ATOM     55  C   UNL     1     -10.215  -9.496  -4.886  1.00  0.00     0.074 A 
ATOM     56  C   UNL     1     -10.567  -8.095  -4.893  1.00  0.00     0.031 C 
ATOM     57  C   UNL     1      -3.885  -9.388  -6.081  1.00  0.00     0.029 A 
ATOM     58  C   UNL     1      -4.719 -10.560  -5.835  1.00  0.00     0.049 A 
ATOM     59  H   UNL     1      -6.777 -10.606  -5.511  1.00  0.00     0.167 HD
ATOM     60  C   UNL     1     -11.095 -10.502  -4.669  1.00  0.00     0.037 A 
ATOM     61  C   UNL     1      -4.280 -11.832  -5.775  1.00  0.00     0.037 A 
ATOM     62  C   UNL     1     -10.736 -11.895  -4.689  1.00  0.00     0.049 A 
ATOM     63  C   UNL     1      -5.276 -12.933  -5.523  1.00  0.00     0.074 A 
ATOM     64  C   UNL     1     -11.558 -12.996  -4.541  1.00  0.00     0.029 A 
ATOM     65  N   UNL     1      -9.446 -12.377  -4.863  1.00  0.00    -0.354 N 
ATOM     66  N   UNL     1      -6.571 -12.844  -5.330  1.00  0.00    -0.248 NA
ATOM     67  C   UNL     1      -4.755 -14.305  -5.487  1.00  0.00     0.031 C 
ATOM     68  C   UNL     1     -10.759 -14.143  -4.568  1.00  0.00     0.029 A 
ATOM     69  C   UNL     1      -9.447 -13.761  -4.799  1.00  0.00     0.049 A 
ATOM     70  H   UNL     1      -8.649 -11.819  -5.011  1.00  0.00     0.167 HD
ATOM     71  C   UNL     1      -7.024 -14.151  -5.180  1.00  0.00     0.074 A 
ATOM     72  C   UNL     1      -5.866 -15.010  -5.319  1.00  0.00     0.031 C 
ATOM     73  C   UNL     1      -8.283 -14.600  -4.949  1.00  0.00     0.037 A 
BRANCH  60  74
ATOM     74  C   UNL     1     -12.528 -10.130  -4.398  1.00  0.00     0.058 A 
ATOM     75  C   UNL     1     -13.345  -9.559  -5.388  1.00  0.00     0.135 A 
ATOM     76  C   UNL     1     -13.104 -10.377  -3.141  1.00  0.00     0.135 A 
ATOM     77  F   UNL     1     -12.845  -9.284  -6.603  1.00  0.00    -0.206 F 
ATOM     78  C   UNL     1     -14.669  -9.218  -5.133  1.00  0.00     0.059 A 
ATOM     79  C   UNL     1     -14.436 -10.075  -2.873  1.00  0.00     0.059 A 
ATOM     80  F   UNL     1     -12.370 -10.918  -2.155  1.00  0.00    -0.206 F 
ATOM     81  C   UNL     1     -15.206  -9.482  -3.873  1.00  0.00     0.060 A 
BRANCH  81  82
ATOM     82  S   UNL     1     -16.930  -9.044  -3.565  1.00  0.00     0.124 S 
ATOM     83  O   UNL     1     -16.859  -7.586  -3.534  1.00  0.00    -0.237 OA
ATOM     84  O   UNL     1     -17.608  -9.620  -4.721  1.00  0.00    -0.237 OA
ATOM     85  O   UNL     1     -17.222  -9.684  -2.286  1.00  0.00    -0.744 OA
ENDBRANCH  81  82
ENDBRANCH  60  74
BRANCH  61  86
ATOM     86  C   UNL     1      -2.837 -12.134  -5.977  1.00  0.00     0.058 A 
ATOM     87  C   UNL     1      -2.394 -12.821  -7.119  1.00  0.00     0.135 A 
ATOM     88  C   UNL     1      -1.869 -11.736  -5.042  1.00  0.00     0.135 A 
ATOM     89  F   UNL     1      -3.280 -13.228  -8.041  1.00  0.00    -0.206 F 
ATOM     90  C   UNL     1      -1.050 -13.120  -7.316  1.00  0.00     0.059 A 
ATOM     91  C   UNL     1      -0.515 -11.996  -5.231  1.00  0.00     0.059 A 
ATOM     92  F   UNL     1      -2.235 -11.060  -3.941  1.00  0.00    -0.206 F 
ATOM     93  C   UNL     1      -0.117 -12.699  -6.367  1.00  0.00     0.060 A 
BRANCH  93  94
ATOM     94  S   UNL     1       1.630 -13.055  -6.656  1.00  0.00     0.124 S 
ATOM     95  O   UNL     1       1.674 -14.498  -6.451  1.00  0.00    -0.237 OA
ATOM     96  O   UNL     1       1.810 -12.598  -8.030  1.00  0.00    -0.237 OA
ATOM     97  O   UNL     1       2.309 -12.252  -5.643  1.00  0.00    -0.744 OA
ENDBRANCH  93  94
ENDBRANCH  61  86
BRANCH  73  98
ATOM     98  C   UNL     1      -8.486 -16.088  -4.870  1.00  0.00     0.058 A 
ATOM     99  C   UNL     1      -8.022 -16.843  -3.781  1.00  0.00     0.135 A 
ATOM    100  C   UNL     1      -9.210 -16.758  -5.871  1.00  0.00     0.135 A 
ATOM    101  F   UNL     1      -7.320 -16.254  -2.800  1.00  0.00    -0.206 F 
ATOM    102  C   UNL     1      -8.247 -18.213  -3.700  1.00  0.00     0.059 A 
ATOM    103  C   UNL     1      -9.476 -18.120  -5.793  1.00  0.00     0.059 A 
ATOM    104  F   UNL     1      -9.686 -16.081  -6.929  1.00  0.00    -0.206 F 
ATOM    105  C   UNL     1      -8.980 -18.842  -4.709  1.00  0.00     0.060 A 
BRANCH 105 106
ATOM    106  S   UNL     1      -9.298 -20.613  -4.569  1.00  0.00     0.124 S 
ATOM    107  O   UNL     1      -7.976 -21.171  -4.833  1.00  0.00    -0.237 OA
ATOM    108  O   UNL     1      -9.775 -20.736  -3.195  1.00  0.00    -0.237 OA
ATOM    109  O   UNL     1     -10.301 -20.862  -5.600  1.00  0.00    -0.744 OA
ENDBRANCH 105 106
ENDBRANCH  73  98
ENDBRANCH  47  48
ENDBRANCH  39  42
ENDBRANCH  37  38
ENDBRANCH  36  37
ENDBRANCH  35  36
ENDBRANCH   3  35
TORSDOF 24
