REMARK SMILES CCOc1ccc(-c2cnc(N)cc2C(=O)NCCCNC(=O)c2ccc(-c3c4nc(c(-c5c(F)cc(S(=O)(=O)[O-])cc5F)c5ccc([nH]5)c(-c5c(F)cc(S(=O)(=O)[O-])cc5F)c5nc(c(-c6c(F)cc(S(=O)(=O)[O-])cc6F)c6ccc3[nH]6)C=C5)C=C4)cc2)c(Cl)c1
REMARK SMILES IDX 19 1 18 2 17 3 15 4 16 5 14 7 8 8 9 9 10 10 13 11 11 12 7 13
REMARK SMILES IDX 4 14 5 15 92 16 6 17 90 18 91 19 3 20 2 21 1 22 12 23 20 26
REMARK SMILES IDX 21 27 22 28 23 30 24 31 25 32 89 33 26 34 88 35 27 36 28 37
REMARK SMILES IDX 29 38 82 39 30 40 87 41 81 42 83 43 31 44 86 45 80 46 79 47
REMARK SMILES IDX 32 49 66 50 45 51 65 52 46 53 49 54 64 55 84 56 47 57 48 58
REMARK SMILES IDX 63 60 85 61 50 62 33 63 34 64 43 65 35 66 36 67 42 68 44 69
REMARK SMILES IDX 37 70 38 71 39 72 40 73 41 74 67 75 68 76 77 77 69 78 70 79
REMARK SMILES IDX 76 80 78 81 71 82 72 83 73 84 74 85 75 86 51 87 52 88 61 89
REMARK SMILES IDX 53 90 54 91 60 92 62 93 55 94 56 95 57 96 58 97 59 98
REMARK H PARENT 17 6 12 24 12 25 21 29 83 48 49 59
REMARK Flexibility Score: inf
ROOT
ATOM      1  C   UNL     1       9.590   0.564   6.532  1.00  0.00     0.042 C 
ENDROOT
BRANCH   1   2
ATOM      2  C   UNL     1       9.150  -0.178   5.271  1.00  0.00     0.118 C 
BRANCH   2   3
ATOM      3  N   UNL     1       7.728  -0.031   5.025  1.00  0.00    -0.352 N 
ATOM      4  C   UNL     1       6.942   0.774   4.241  1.00  0.00     0.252 C 
ATOM      5  O   UNL     1       5.750   0.462   4.251  1.00  0.00    -0.269 OA
ATOM      6  H   UNL     1       7.194  -0.668   5.553  1.00  0.00     0.163 HD
BRANCH   4   7
ATOM      7  C   UNL     1       7.434   1.905   3.377  1.00  0.00     0.052 A 
ATOM      8  C   UNL     1       6.574   2.519   2.437  1.00  0.00     0.014 A 
ATOM      9  C   UNL     1       7.153   3.466   1.584  1.00  0.00     0.123 A 
ATOM     10  N   UNL     1       8.452   3.831   1.584  1.00  0.00    -0.239 NA
ATOM     11  C   UNL     1       8.750   2.375   3.451  1.00  0.00     0.061 A 
ATOM     12  C   UNL     1       9.229   3.283   2.519  1.00  0.00     0.124 A 
BRANCH   8  13
ATOM     13  C   UNL     1       5.131   2.260   2.272  1.00  0.00     0.003 A 
ATOM     14  C   UNL     1       2.391   1.779   1.817  1.00  0.00     0.120 A 
ATOM     15  C   UNL     1       3.330   1.418   0.856  1.00  0.00     0.047 A 
ATOM     16  C   UNL     1       2.795   2.423   2.982  1.00  0.00     0.067 A 
ATOM     17  C   UNL     1       4.687   1.635   1.091  1.00  0.00     0.014 A 
ATOM     18  C   UNL     1       4.154   2.674   3.204  1.00  0.00     0.052 A 
ATOM     19  Cl  UNL     1       4.577   3.559   4.633  1.00  0.00    -0.084 Cl
BRANCH  14  20
ATOM     20  O   UNL     1       1.051   1.629   1.591  1.00  0.00    -0.494 OA
BRANCH  20  21
ATOM     21  C   UNL     1       0.636   0.257   1.565  1.00  0.00     0.226 C 
ATOM     22  C   UNL     1       0.521  -0.255   0.138  1.00  0.00     0.049 C 
ENDBRANCH  20  21
ENDBRANCH  14  20
ENDBRANCH   8  13
BRANCH  12  23
ATOM     23  N   UNL     1      10.543   3.701   2.549  1.00  0.00    -0.384 N 
ATOM     24  H   UNL     1      10.870   4.346   1.881  1.00  0.00     0.158 HD
ATOM     25  H   UNL     1      11.154   3.354   3.239  1.00  0.00     0.158 HD
ENDBRANCH  12  23
ENDBRANCH   4   7
ENDBRANCH   2   3
ENDBRANCH   1   2
BRANCH   1  26
ATOM     26  C   UNL     1       9.067  -0.060   7.828  1.00  0.00     0.118 C 
BRANCH  26  27
ATOM     27  N   UNL     1       9.574  -1.411   8.024  1.00  0.00    -0.352 N 
ATOM     28  C   UNL     1      10.379  -1.933   9.002  1.00  0.00     0.251 C 
ATOM     29  H   UNL     1       9.292  -2.058   7.337  1.00  0.00     0.163 HD
ATOM     30  O   UNL     1      10.901  -3.029   8.811  1.00  0.00    -0.269 OA
BRANCH  28  31
ATOM     31  C   UNL     1      10.618  -1.215  10.274  1.00  0.00     0.039 A 
ATOM     32  C   UNL     1      11.873  -1.333  10.881  1.00  0.00     0.014 A 
ATOM     33  C   UNL     1       9.597  -0.514  10.925  1.00  0.00     0.014 A 
ATOM     34  C   UNL     1      12.111  -0.731  12.119  1.00  0.00     0.010 A 
ATOM     35  C   UNL     1       9.855   0.141  12.130  1.00  0.00     0.010 A 
ATOM     36  C   UNL     1      11.108   0.022  12.748  1.00  0.00    -0.014 A 
BRANCH  36  37
ATOM     37  C   UNL     1      11.358   0.671  14.061  1.00  0.00     0.031 A 
ATOM     38  C   UNL     1      10.611   0.224  15.289  1.00  0.00     0.074 A 
ATOM     39  C   UNL     1      12.229   1.696  14.137  1.00  0.00     0.049 A 
ATOM     40  N   UNL     1      10.685   0.680  16.513  1.00  0.00    -0.248 NA
ATOM     41  C   UNL     1       9.632  -0.861  15.113  1.00  0.00     0.031 C 
ATOM     42  C   UNL     1      12.965   2.263  13.005  1.00  0.00     0.029 A 
ATOM     43  N   UNL     1      12.636   2.448  15.209  1.00  0.00    -0.354 N 
ATOM     44  C   UNL     1       9.752  -0.044  17.247  1.00  0.00     0.074 A 
ATOM     45  C   UNL     1       9.093  -0.940  16.321  1.00  0.00     0.031 C 
ATOM     46  C   UNL     1      13.747   3.262  13.446  1.00  0.00     0.029 A 
ATOM     47  C   UNL     1      13.552   3.421  14.884  1.00  0.00     0.049 A 
ATOM     48  H   UNL     1      12.304   2.305  16.125  1.00  0.00     0.167 HD
ATOM     49  C   UNL     1       9.483   0.018  18.574  1.00  0.00     0.037 A 
ATOM     50  C   UNL     1      14.167   4.335  15.657  1.00  0.00     0.037 A 
ATOM     51  C   UNL     1      10.166   0.889  19.496  1.00  0.00     0.049 A 
ATOM     52  C   UNL     1      13.897   4.347  17.135  1.00  0.00     0.074 A 
ATOM     53  C   UNL     1      10.021   0.976  20.870  1.00  0.00     0.029 A 
ATOM     54  N   UNL     1      11.125   1.825  19.137  1.00  0.00    -0.354 N 
ATOM     55  N   UNL     1      13.067   3.602  17.826  1.00  0.00    -0.248 NA
ATOM     56  C   UNL     1      14.659   5.308  17.942  1.00  0.00     0.031 C 
ATOM     57  C   UNL     1      10.868   1.988  21.337  1.00  0.00     0.029 A 
ATOM     58  C   UNL     1      11.571   2.503  20.260  1.00  0.00     0.049 A 
ATOM     59  H   UNL     1      11.443   1.984  18.219  1.00  0.00     0.167 HD
ATOM     60  C   UNL     1      13.220   3.991  19.152  1.00  0.00     0.074 A 
ATOM     61  C   UNL     1      14.236   5.025  19.166  1.00  0.00     0.031 C 
ATOM     62  C   UNL     1      12.579   3.534  20.257  1.00  0.00     0.037 A 
BRANCH  49  63
ATOM     63  C   UNL     1       8.401  -0.883  19.106  1.00  0.00     0.058 A 
ATOM     64  C   UNL     1       8.576  -2.274  19.195  1.00  0.00     0.135 A 
ATOM     65  C   UNL     1       7.179  -0.350  19.547  1.00  0.00     0.135 A 
ATOM     66  F   UNL     1       9.719  -2.840  18.776  1.00  0.00    -0.206 F 
ATOM     67  C   UNL     1       7.565  -3.107  19.665  1.00  0.00     0.059 A 
ATOM     68  C   UNL     1       6.164  -1.161  20.046  1.00  0.00     0.059 A 
ATOM     69  F   UNL     1       6.958   0.973  19.488  1.00  0.00    -0.206 F 
ATOM     70  C   UNL     1       6.359  -2.541  20.083  1.00  0.00     0.060 A 
BRANCH  70  71
ATOM     71  S   UNL     1       5.052  -3.635  20.679  1.00  0.00     0.124 S 
ATOM     72  O   UNL     1       4.553  -4.198  19.428  1.00  0.00    -0.237 OA
ATOM     73  O   UNL     1       5.781  -4.557  21.542  1.00  0.00    -0.237 OA
ATOM     74  O   UNL     1       4.138  -2.727  21.368  1.00  0.00    -0.744 OA
ENDBRANCH  70  71
ENDBRANCH  49  63
BRANCH  50  75
ATOM     75  C   UNL     1      15.130   5.286  15.043  1.00  0.00     0.058 A 
ATOM     76  C   UNL     1      16.511   5.140  15.238  1.00  0.00     0.135 A 
ATOM     77  C   UNL     1      14.692   6.331  14.216  1.00  0.00     0.135 A 
ATOM     78  F   UNL     1      16.978   4.157  16.023  1.00  0.00    -0.206 F 
ATOM     79  C   UNL     1      17.426   6.001  14.640  1.00  0.00     0.059 A 
ATOM     80  C   UNL     1      15.588   7.191  13.590  1.00  0.00     0.059 A 
ATOM     81  F   UNL     1      13.381   6.499  13.983  1.00  0.00    -0.206 F 
ATOM     82  C   UNL     1      16.954   7.022  13.813  1.00  0.00     0.060 A 
BRANCH  82  83
ATOM     83  S   UNL     1      18.152   8.088  12.982  1.00  0.00     0.124 S 
ATOM     84  O   UNL     1      18.583   8.952  14.074  1.00  0.00    -0.237 OA
ATOM     85  O   UNL     1      19.138   7.126  12.500  1.00  0.00    -0.237 OA
ATOM     86  O   UNL     1      17.358   8.733  11.940  1.00  0.00    -0.744 OA
ENDBRANCH  82  83
ENDBRANCH  50  75
BRANCH  62  87
ATOM     87  C   UNL     1      12.978   4.136  21.575  1.00  0.00     0.058 A 
ATOM     88  C   UNL     1      12.607   5.443  21.930  1.00  0.00     0.135 A 
ATOM     89  C   UNL     1      13.725   3.391  22.500  1.00  0.00     0.135 A 
ATOM     90  F   UNL     1      11.897   6.199  21.078  1.00  0.00    -0.206 F 
ATOM     91  C   UNL     1      12.996   6.003  23.142  1.00  0.00     0.059 A 
ATOM     92  C   UNL     1      14.103   3.922  23.729  1.00  0.00     0.059 A 
ATOM     93  F   UNL     1      14.094   2.132  22.215  1.00  0.00    -0.206 F 
ATOM     94  C   UNL     1      13.749   5.236  24.033  1.00  0.00     0.060 A 
BRANCH  94  95
ATOM     95  S   UNL     1      14.249   5.970  25.605  1.00  0.00     0.124 S 
ATOM     96  O   UNL     1      15.364   6.816  25.191  1.00  0.00    -0.237 OA
ATOM     97  O   UNL     1      13.041   6.674  26.024  1.00  0.00    -0.237 OA
ATOM     98  O   UNL     1      14.607   4.813  26.420  1.00  0.00    -0.744 OA
ENDBRANCH  94  95
ENDBRANCH  62  87
ENDBRANCH  36  37
ENDBRANCH  28  31
ENDBRANCH  26  27
ENDBRANCH   1  26
TORSDOF 17
