REMARK SMILES COc1ccc(-c2cc(C(=O)NCCCNC(=O)c3ccc(-c4c5nc(c(-c6c(F)cc(S(=O)(=O)[O-])cc6F)c6ccc([nH]6)c(-c6c(F)cc(S(=O)(=O)[O-])cc6F)c6nc(c(-c7c(F)cc(S(=O)(=O)[O-])cc7F)c7ccc4[nH]7)C=C6)C=C5)cc3)nc(=O)n2C)cc1
REMARK SMILES IDX 14 1 13 2 12 3 10 4 11 5 9 7 7 8 8 9 88 10 86 11 89 12 85 13
REMARK SMILES IDX 87 14 6 15 3 16 4 17 91 18 5 19 90 20 2 21 1 22 15 23 16 24
REMARK SMILES IDX 17 25 18 27 19 28 20 29 84 30 21 31 83 32 22 33 23 34 24 35
REMARK SMILES IDX 77 36 25 37 82 38 76 39 78 40 26 41 81 42 75 43 74 44 27 46
REMARK SMILES IDX 61 47 40 48 60 49 41 50 44 51 59 52 79 53 42 54 43 55 58 57
REMARK SMILES IDX 80 58 45 59 28 60 29 61 38 62 30 63 31 64 37 65 39 66 32 67
REMARK SMILES IDX 33 68 34 69 35 70 36 71 62 72 63 73 72 74 64 75 65 76 71 77
REMARK SMILES IDX 73 78 66 79 67 80 68 81 69 82 70 83 46 84 47 85 56 86 48 87
REMARK SMILES IDX 49 88 55 89 57 90 50 91 51 92 52 93 53 94 54 95
REMARK H PARENT 12 6 16 26 78 45 44 56
REMARK Flexibility Score: inf
ROOT
ATOM      1  C   UNL     1       2.316  12.191   2.922  1.00  0.00     0.042 C 
ENDROOT
BRANCH   1   2
ATOM      2  C   UNL     1       2.828  10.901   3.558  1.00  0.00     0.118 C 
BRANCH   2   3
ATOM      3  N   UNL     1       1.736  10.009   3.916  1.00  0.00    -0.351 N 
ATOM      4  C   UNL     1       1.251   8.885   3.297  1.00  0.00     0.270 C 
ATOM      5  O   UNL     1       0.268   8.319   3.769  1.00  0.00    -0.268 OA
ATOM      6  H   UNL     1       1.264  10.255   4.744  1.00  0.00     0.163 HD
BRANCH   4   7
ATOM      7  C   UNL     1       1.922   8.278   2.061  1.00  0.00     0.136 A 
ATOM      8  C   UNL     1       2.069   6.365   0.652  1.00  0.00     0.055 A 
ATOM      9  C   UNL     1       1.494   6.908   1.729  1.00  0.00     0.061 A 
ATOM     10  N   UNL     1       3.021   7.069  -0.065  1.00  0.00    -0.295 N 
ATOM     11  C   UNL     1       3.421   8.356   0.324  1.00  0.00     0.348 A 
ATOM     12  C   UNL     1       3.692   6.519  -1.233  1.00  0.00     0.155 C 
ATOM     13  N   UNL     1       2.796   8.947   1.388  1.00  0.00    -0.188 NA
ATOM     14  O   UNL     1       4.333   8.941  -0.258  1.00  0.00    -0.246 OA
BRANCH   8  15
ATOM     15  C   UNL     1       1.658   4.997   0.292  1.00  0.00    -0.001 A 
ATOM     16  C   UNL     1       0.833   2.375  -0.301  1.00  0.00     0.118 A 
ATOM     17  C   UNL     1      -0.035   3.449  -0.498  1.00  0.00     0.047 A 
ATOM     18  C   UNL     1       2.124   2.613   0.173  1.00  0.00     0.047 A 
ATOM     19  C   UNL     1       0.369   4.752  -0.199  1.00  0.00     0.014 A 
ATOM     20  C   UNL     1       2.532   3.917   0.475  1.00  0.00     0.014 A 
BRANCH  16  21
ATOM     21  O   UNL     1       0.325   1.150  -0.635  1.00  0.00    -0.497 OA
ATOM     22  C   UNL     1       0.925   0.032   0.007  1.00  0.00     0.278 C 
ENDBRANCH  16  21
ENDBRANCH   8  15
ENDBRANCH   4   7
ENDBRANCH   2   3
ENDBRANCH   1   2
BRANCH   1  23
ATOM     23  C   UNL     1       1.559  13.094   3.897  1.00  0.00     0.118 C 
BRANCH  23  24
ATOM     24  N   UNL     1       2.390  13.533   5.014  1.00  0.00    -0.352 N 
ATOM     25  C   UNL     1       2.818  14.787   5.371  1.00  0.00     0.251 C 
ATOM     26  H   UNL     1       2.694  12.810   5.609  1.00  0.00     0.163 HD
ATOM     27  O   UNL     1       3.697  14.906   6.221  1.00  0.00    -0.269 OA
BRANCH  25  28
ATOM     28  C   UNL     1       2.237  15.988   4.735  1.00  0.00     0.039 A 
ATOM     29  C   UNL     1       3.089  17.027   4.348  1.00  0.00     0.014 A 
ATOM     30  C   UNL     1       0.859  16.100   4.538  1.00  0.00     0.014 A 
ATOM     31  C   UNL     1       2.566  18.138   3.683  1.00  0.00     0.010 A 
ATOM     32  C   UNL     1       0.348  17.175   3.815  1.00  0.00     0.010 A 
ATOM     33  C   UNL     1       1.199  18.196   3.365  1.00  0.00    -0.014 A 
BRANCH  33  34
ATOM     34  C   UNL     1       0.650  19.276   2.506  1.00  0.00     0.031 A 
ATOM     35  C   UNL     1      -0.375  20.235   3.041  1.00  0.00     0.074 A 
ATOM     36  C   UNL     1       1.018  19.329   1.211  1.00  0.00     0.049 A 
ATOM     37  N   UNL     1      -1.030  21.177   2.412  1.00  0.00    -0.248 NA
ATOM     38  C   UNL     1      -0.726  20.105   4.463  1.00  0.00     0.031 C 
ATOM     39  C   UNL     1       1.975  18.425   0.567  1.00  0.00     0.029 A 
ATOM     40  N   UNL     1       0.621  20.165   0.197  1.00  0.00    -0.354 N 
ATOM     41  C   UNL     1      -1.875  21.747   3.356  1.00  0.00     0.074 A 
ATOM     42  C   UNL     1      -1.685  21.011   4.588  1.00  0.00     0.031 C 
ATOM     43  C   UNL     1       2.106  18.768  -0.723  1.00  0.00     0.029 A 
ATOM     44  C   UNL     1       1.207  19.880  -1.014  1.00  0.00     0.049 A 
ATOM     45  H   UNL     1      -0.023  20.899   0.325  1.00  0.00     0.167 HD
ATOM     46  C   UNL     1      -2.718  22.798   3.211  1.00  0.00     0.037 A 
ATOM     47  C   UNL     1       1.028  20.436  -2.227  1.00  0.00     0.037 A 
ATOM     48  C   UNL     1      -2.897  23.523   1.978  1.00  0.00     0.049 A 
ATOM     49  C   UNL     1       0.050  21.568  -2.376  1.00  0.00     0.074 A 
ATOM     50  C   UNL     1      -3.679  24.640   1.743  1.00  0.00     0.029 A 
ATOM     51  N   UNL     1      -2.298  23.195   0.770  1.00  0.00    -0.354 N 
ATOM     52  N   UNL     1      -0.687  22.145  -1.456  1.00  0.00    -0.248 NA
ATOM     53  C   UNL     1      -0.127  22.121  -3.725  1.00  0.00     0.031 C 
ATOM     54  C   UNL     1      -3.599  24.951   0.381  1.00  0.00     0.029 A 
ATOM     55  C   UNL     1      -2.726  24.061  -0.224  1.00  0.00     0.049 A 
ATOM     56  H   UNL     1      -1.663  22.454   0.637  1.00  0.00     0.167 HD
ATOM     57  C   UNL     1      -1.407  23.136  -2.112  1.00  0.00     0.074 A 
ATOM     58  C   UNL     1      -1.001  23.094  -3.503  1.00  0.00     0.031 C 
ATOM     59  C   UNL     1      -2.324  23.999  -1.609  1.00  0.00     0.037 A 
BRANCH  46  60
ATOM     60  C   UNL     1      -3.519  23.218   4.415  1.00  0.00     0.058 A 
ATOM     61  C   UNL     1      -2.913  23.808   5.536  1.00  0.00     0.135 A 
ATOM     62  C   UNL     1      -4.913  23.048   4.442  1.00  0.00     0.135 A 
ATOM     63  F   UNL     1      -1.583  23.987   5.570  1.00  0.00    -0.206 F 
ATOM     64  C   UNL     1      -3.651  24.173   6.657  1.00  0.00     0.059 A 
ATOM     65  C   UNL     1      -5.677  23.433   5.541  1.00  0.00     0.059 A 
ATOM     66  F   UNL     1      -5.548  22.494   3.397  1.00  0.00    -0.206 F 
ATOM     67  C   UNL     1      -5.033  23.976   6.652  1.00  0.00     0.060 A 
BRANCH  67  68
ATOM     68  S   UNL     1      -5.973  24.434   8.124  1.00  0.00     0.124 S 
ATOM     69  O   UNL     1      -5.578  23.385   9.059  1.00  0.00    -0.237 OA
ATOM     70  O   UNL     1      -5.463  25.769   8.418  1.00  0.00    -0.237 OA
ATOM     71  O   UNL     1      -7.360  24.381   7.673  1.00  0.00    -0.744 OA
ENDBRANCH  67  68
ENDBRANCH  46  60
BRANCH  47  72
ATOM     72  C   UNL     1       1.803  19.930  -3.391  1.00  0.00     0.058 A 
ATOM     73  C   UNL     1       2.825  20.702  -3.961  1.00  0.00     0.135 A 
ATOM     74  C   UNL     1       1.569  18.654  -3.929  1.00  0.00     0.135 A 
ATOM     75  F   UNL     1       3.080  21.932  -3.488  1.00  0.00    -0.206 F 
ATOM     76  C   UNL     1       3.588  20.230  -5.024  1.00  0.00     0.059 A 
ATOM     77  C   UNL     1       2.336  18.150  -4.975  1.00  0.00     0.059 A 
ATOM     78  F   UNL     1       0.611  17.871  -3.409  1.00  0.00    -0.206 F 
ATOM     79  C   UNL     1       3.340  18.948  -5.519  1.00  0.00     0.060 A 
BRANCH  79  80
ATOM     80  S   UNL     1       4.383  18.323  -6.854  1.00  0.00     0.124 S 
ATOM     81  O   UNL     1       3.926  19.124  -7.984  1.00  0.00    -0.237 OA
ATOM     82  O   UNL     1       5.723  18.622  -6.360  1.00  0.00    -0.237 OA
ATOM     83  O   UNL     1       4.045  16.904  -6.909  1.00  0.00    -0.744 OA
ENDBRANCH  79  80
ENDBRANCH  47  72
BRANCH  59  84
ATOM     84  C   UNL     1      -2.958  24.971  -2.566  1.00  0.00     0.058 A 
ATOM     85  C   UNL     1      -3.910  24.553  -3.509  1.00  0.00     0.135 A 
ATOM     86  C   UNL     1      -2.662  26.342  -2.497  1.00  0.00     0.135 A 
ATOM     87  F   UNL     1      -4.220  23.252  -3.625  1.00  0.00    -0.206 F 
ATOM     88  C   UNL     1      -4.540  25.459  -4.356  1.00  0.00     0.059 A 
ATOM     89  C   UNL     1      -3.300  27.269  -3.315  1.00  0.00     0.059 A 
ATOM     90  F   UNL     1      -1.763  26.796  -1.609  1.00  0.00    -0.206 F 
ATOM     91  C   UNL     1      -4.234  26.817  -4.246  1.00  0.00     0.060 A 
BRANCH  91  92
ATOM     92  S   UNL     1      -5.104  27.985  -5.312  1.00  0.00     0.124 S 
ATOM     93  O   UNL     1      -4.506  27.701  -6.612  1.00  0.00    -0.237 OA
ATOM     94  O   UNL     1      -6.496  27.576  -5.151  1.00  0.00    -0.237 OA
ATOM     95  O   UNL     1      -4.769  29.285  -4.737  1.00  0.00    -0.744 OA
ENDBRANCH  91  92
ENDBRANCH  59  84
ENDBRANCH  33  34
ENDBRANCH  25  28
ENDBRANCH  23  24
ENDBRANCH   1  23
TORSDOF 15
