REMARK SMILES CC1(c2ccc(C(=O)NCCCNC(=O)c3ccc(-c4c5nc(c(-c6c(F)cc(S(=O)(=O)[O-])cc6F)c6ccc([nH]6)c(-c6c(F)cc(S(=O)(=O)[O-])cc6F)c6nc(c(-c7c(F)cc(S(=O)(=O)[O-])cc7F)c7ccc4[nH]7)C=C6)C=C5)cc3)cc2)CC1
REMARK SMILES IDX 12 1 11 2 10 3 9 4 7 5 8 6 6 8 3 9 4 10 83 11 5 12 82 13
REMARK SMILES IDX 2 14 1 15 84 16 85 17 13 18 14 19 15 21 16 22 17 23 81 24
REMARK SMILES IDX 18 25 80 26 19 27 20 28 21 29 74 30 22 31 79 32 73 33 75 34
REMARK SMILES IDX 23 35 78 36 72 37 71 38 24 40 58 41 37 42 57 43 38 44 41 45
REMARK SMILES IDX 56 46 76 47 39 48 40 49 55 51 77 52 42 53 25 54 26 55 35 56
REMARK SMILES IDX 27 57 28 58 34 59 36 60 29 61 30 62 31 63 32 64 33 65 59 66
REMARK SMILES IDX 60 67 69 68 61 69 62 70 68 71 70 72 63 73 64 74 65 75 66 76
REMARK SMILES IDX 67 77 43 78 44 79 53 80 45 81 46 82 52 83 54 84 47 85 48 86
REMARK SMILES IDX 49 87 50 88 51 89
REMARK H PARENT 9 7 13 20 75 39 41 50
REMARK Flexibility Score: inf
ROOT
ATOM      1  C   UNL     1      -6.647   1.365   2.811  1.00  0.00     0.118 C 
ENDROOT
BRANCH   1   2
ATOM      2  C   UNL     1      -5.510   0.675   2.059  1.00  0.00     0.042 C 
BRANCH   2   3
ATOM      3  C   UNL     1      -5.601   0.815   0.539  1.00  0.00     0.118 C 
BRANCH   3   4
ATOM      4  N   UNL     1      -5.207   2.139   0.096  1.00  0.00    -0.352 N 
ATOM      5  C   UNL     1      -4.056   2.612  -0.480  1.00  0.00     0.251 C 
ATOM      6  O   UNL     1      -4.059   3.780  -0.874  1.00  0.00    -0.269 OA
ATOM      7  H   UNL     1      -5.896   2.829   0.236  1.00  0.00     0.163 HD
BRANCH   5   8
ATOM      8  C   UNL     1      -2.828   1.790  -0.676  1.00  0.00     0.039 A 
ATOM      9  C   UNL     1      -0.367   0.411  -1.112  1.00  0.00    -0.042 A 
ATOM     10  C   UNL     1      -0.731   1.518  -1.892  1.00  0.00     0.005 A 
ATOM     11  C   UNL     1      -1.268   0.017  -0.111  1.00  0.00     0.005 A 
ATOM     12  C   UNL     1      -1.943   2.190  -1.687  1.00  0.00     0.014 A 
ATOM     13  C   UNL     1      -2.461   0.710   0.126  1.00  0.00     0.014 A 
BRANCH   9  14
ATOM     14  C   UNL     1       0.968  -0.302  -1.269  1.00  0.00    -0.007 C 
ATOM     15  C   UNL     1       1.911  -0.123  -0.100  1.00  0.00     0.016 C 
ATOM     16  C   UNL     1       1.582  -0.486  -2.645  1.00  0.00     0.012 C 
ATOM     17  C   UNL     1       0.963  -1.659  -1.950  1.00  0.00     0.012 C 
ENDBRANCH   9  14
ENDBRANCH   5   8
ENDBRANCH   3   4
ENDBRANCH   2   3
ENDBRANCH   1   2
BRANCH   1  18
ATOM     18  N   UNL     1      -7.924   0.706   2.584  1.00  0.00    -0.352 N 
ATOM     19  C   UNL     1      -8.826   0.188   3.478  1.00  0.00     0.251 C 
ATOM     20  H   UNL     1      -8.182   0.619   1.638  1.00  0.00     0.163 HD
ATOM     21  O   UNL     1      -9.729  -0.532   3.057  1.00  0.00    -0.269 OA
BRANCH  19  22
ATOM     22  C   UNL     1      -8.729   0.478   4.927  1.00  0.00     0.039 A 
ATOM     23  C   UNL     1      -9.063  -0.535   5.832  1.00  0.00     0.014 A 
ATOM     24  C   UNL     1      -8.391   1.749   5.401  1.00  0.00     0.014 A 
ATOM     25  C   UNL     1      -9.029  -0.284   7.206  1.00  0.00     0.010 A 
ATOM     26  C   UNL     1      -8.297   1.980   6.774  1.00  0.00     0.010 A 
ATOM     27  C   UNL     1      -8.628   0.971   7.689  1.00  0.00    -0.014 A 
BRANCH  27  28
ATOM     28  C   UNL     1      -8.569   1.244   9.148  1.00  0.00     0.031 A 
ATOM     29  C   UNL     1      -9.507   2.243   9.772  1.00  0.00     0.074 A 
ATOM     30  C   UNL     1      -7.640   0.625   9.903  1.00  0.00     0.049 A 
ATOM     31  N   UNL     1      -9.573   2.650  11.014  1.00  0.00    -0.248 NA
ATOM     32  C   UNL     1     -10.483   2.886   8.878  1.00  0.00     0.031 C 
ATOM     33  C   UNL     1      -6.647  -0.330   9.405  1.00  0.00     0.029 A 
ATOM     34  N   UNL     1      -7.372   0.713  11.245  1.00  0.00    -0.354 N 
ATOM     35  C   UNL     1     -10.583   3.606  11.047  1.00  0.00     0.074 A 
ATOM     36  C   UNL     1     -11.072   3.749   9.693  1.00  0.00     0.031 C 
ATOM     37  C   UNL     1      -5.891  -0.752  10.431  1.00  0.00     0.029 A 
ATOM     38  C   UNL     1      -6.322  -0.078  11.651  1.00  0.00     0.049 A 
ATOM     39  H   UNL     1      -7.882   1.288  11.860  1.00  0.00     0.167 HD
ATOM     40  C   UNL     1     -11.071   4.285  12.113  1.00  0.00     0.037 A 
ATOM     41  C   UNL     1      -5.768  -0.237  12.868  1.00  0.00     0.037 A 
ATOM     42  C   UNL     1     -10.600   4.115  13.463  1.00  0.00     0.049 A 
ATOM     43  C   UNL     1      -6.338   0.515  14.038  1.00  0.00     0.074 A 
ATOM     44  C   UNL     1     -11.069   4.712  14.621  1.00  0.00     0.029 A 
ATOM     45  N   UNL     1      -9.553   3.285  13.838  1.00  0.00    -0.354 N 
ATOM     46  N   UNL     1      -7.331   1.371  14.061  1.00  0.00    -0.248 NA
ATOM     47  C   UNL     1      -5.718   0.276  15.348  1.00  0.00     0.031 C 
ATOM     48  C   UNL     1     -10.283   4.269  15.691  1.00  0.00     0.029 A 
ATOM     49  C   UNL     1      -9.351   3.365  15.205  1.00  0.00     0.049 A 
ATOM     50  H   UNL     1      -9.031   2.722  13.222  1.00  0.00     0.167 HD
ATOM     51  C   UNL     1      -7.470   1.756  15.390  1.00  0.00     0.074 A 
ATOM     52  C   UNL     1      -6.467   1.030  16.142  1.00  0.00     0.031 C 
ATOM     53  C   UNL     1      -8.349   2.632  15.938  1.00  0.00     0.037 A 
BRANCH  40  54
ATOM     54  C   UNL     1     -12.177   5.273  11.861  1.00  0.00     0.058 A 
ATOM     55  C   UNL     1     -13.477   4.855  11.536  1.00  0.00     0.135 A 
ATOM     56  C   UNL     1     -11.944   6.653  11.976  1.00  0.00     0.135 A 
ATOM     57  F   UNL     1     -13.753   3.548  11.399  1.00  0.00    -0.206 F 
ATOM     58  C   UNL     1     -14.499   5.769  11.302  1.00  0.00     0.059 A 
ATOM     59  C   UNL     1     -12.958   7.586  11.772  1.00  0.00     0.059 A 
ATOM     60  F   UNL     1     -10.720   7.109  12.287  1.00  0.00    -0.206 F 
ATOM     61  C   UNL     1     -14.229   7.134  11.419  1.00  0.00     0.060 A 
BRANCH  61  62
ATOM     62  S   UNL     1     -15.565   8.309  11.112  1.00  0.00     0.124 S 
ATOM     63  O   UNL     1     -15.662   8.262   9.656  1.00  0.00    -0.237 OA
ATOM     64  O   UNL     1     -16.681   7.714  11.840  1.00  0.00    -0.237 OA
ATOM     65  O   UNL     1     -15.053   9.558  11.667  1.00  0.00    -0.744 OA
ENDBRANCH  61  62
ENDBRANCH  40  54
BRANCH  41  66
ATOM     66  C   UNL     1      -4.624  -1.170  13.042  1.00  0.00     0.058 A 
ATOM     67  C   UNL     1      -4.789  -2.397  13.700  1.00  0.00     0.135 A 
ATOM     68  C   UNL     1      -3.352  -0.866  12.534  1.00  0.00     0.135 A 
ATOM     69  F   UNL     1      -5.986  -2.730  14.207  1.00  0.00    -0.206 F 
ATOM     70  C   UNL     1      -3.732  -3.287  13.861  1.00  0.00     0.059 A 
ATOM     71  C   UNL     1      -2.284  -1.748  12.662  1.00  0.00     0.059 A 
ATOM     72  F   UNL     1      -3.147   0.288  11.880  1.00  0.00    -0.206 F 
ATOM     73  C   UNL     1      -2.482  -2.954  13.335  1.00  0.00     0.060 A 
BRANCH  73  74
ATOM     74  S   UNL     1      -1.129  -4.139  13.497  1.00  0.00     0.124 S 
ATOM     75  O   UNL     1      -0.766  -3.979  14.900  1.00  0.00    -0.237 OA
ATOM     76  O   UNL     1      -1.777  -5.398  13.144  1.00  0.00    -0.237 OA
ATOM     77  O   UNL     1      -0.146  -3.657  12.531  1.00  0.00    -0.744 OA
ENDBRANCH  73  74
ENDBRANCH  41  66
BRANCH  53  78
ATOM     78  C   UNL     1      -8.282   2.834  17.425  1.00  0.00     0.058 A 
ATOM     79  C   UNL     1      -7.252   3.578  18.020  1.00  0.00     0.135 A 
ATOM     80  C   UNL     1      -9.286   2.317  18.259  1.00  0.00     0.135 A 
ATOM     81  F   UNL     1      -6.264   4.087  17.267  1.00  0.00    -0.206 F 
ATOM     82  C   UNL     1      -7.208   3.785  19.395  1.00  0.00     0.059 A 
ATOM     83  C   UNL     1      -9.275   2.532  19.633  1.00  0.00     0.059 A 
ATOM     84  F   UNL     1     -10.299   1.606  17.737  1.00  0.00    -0.206 F 
ATOM     85  C   UNL     1      -8.225   3.258  20.193  1.00  0.00     0.060 A 
BRANCH  85  86
ATOM     86  S   UNL     1      -8.175   3.560  21.973  1.00  0.00     0.124 S 
ATOM     87  O   UNL     1      -7.141   2.624  22.401  1.00  0.00    -0.237 OA
ATOM     88  O   UNL     1      -7.818   4.974  22.042  1.00  0.00    -0.237 OA
ATOM     89  O   UNL     1      -9.532   3.241  22.408  1.00  0.00    -0.744 OA
ENDBRANCH  85  86
ENDBRANCH  53  78
ENDBRANCH  27  28
ENDBRANCH  19  22
ENDBRANCH   1  18
TORSDOF 14
