REMARK SMILES Cc1c[nH]c(C[N@@H+](C)[C@@H](C(=O)NCCCNC(=O)c2ccc(-c3c4nc(c(-c5c(F)cc(S(=O)(=O)[O-])cc5F)c5ccc([nH]5)c(-c5c(F)cc(S(=O)(=O)[O-])cc5F)c5nc(c(-c6c(F)cc(S(=O)(=O)[O-])cc6F)c6ccc3[nH]6)C=C5)C=C4)cc2)c2ccc(NC(=O)N3CCCC3)cc2)n1
REMARK SMILES IDX 14 1 13 2 12 3 10 4 11 5 9 7 7 8 8 9 6 11 5 12 1 13 2 14
REMARK SMILES IDX 3 15 99 16 4 17 85 19 86 20 98 21 87 22 97 23 88 24 89 25
REMARK SMILES IDX 90 26 91 28 92 29 93 30 96 31 94 32 95 33 15 34 16 35 17 36
REMARK SMILES IDX 18 38 19 39 20 40 84 41 21 42 83 43 22 44 23 45 24 46 77 47
REMARK SMILES IDX 25 48 82 49 76 50 78 51 26 52 81 53 75 54 74 55 27 57 61 58
REMARK SMILES IDX 40 59 60 60 41 61 44 62 59 63 79 64 42 65 43 66 58 68 80 69
REMARK SMILES IDX 45 70 28 71 29 72 38 73 30 74 31 75 37 76 39 77 32 78 33 79
REMARK SMILES IDX 34 80 35 81 36 82 62 83 63 84 72 85 64 86 65 87 71 88 73 89
REMARK SMILES IDX 66 90 67 91 68 92 69 93 70 94 46 95 47 96 56 97 48 98 49 99
REMARK SMILES IDX 55 100 57 101 50 102 51 103 52 104 53 105 54 106
REMARK H PARENT 12 6 7 10 4 18 89 27 16 37 78 56 44 67
REMARK Flexibility Score: inf
ROOT
ATOM      1  C   UNL     1      -6.046   3.639   1.654  1.00  0.00     0.042 C 
ENDROOT
BRANCH   1   2
ATOM      2  C   UNL     1      -5.286   3.053   2.842  1.00  0.00     0.118 C 
BRANCH   2   3
ATOM      3  N   UNL     1      -4.956   1.661   2.597  1.00  0.00    -0.351 N 
ATOM      4  C   UNL     1      -3.790   1.105   2.154  1.00  0.00     0.283 C 
ATOM      5  O   UNL     1      -3.882  -0.031   1.668  1.00  0.00    -0.268 OA
ATOM      6  H   UNL     1      -5.683   1.021   2.777  1.00  0.00     0.163 HD
BRANCH   4   7
ATOM      7  C   UNL     1      -2.427   1.858   2.304  1.00  0.00     0.305 C 
BRANCH   7   8
ATOM      8  N   UNL     1      -2.026   2.525   1.035  1.00  0.00    -0.317 N 
ATOM      9  C   UNL     1      -2.495   3.886   0.867  1.00  0.00     0.334 C 
ATOM     10  H   UNL     1      -1.021   2.579   1.200  1.00  0.00     0.349 HD
BRANCH   8  11
ATOM     11  C   UNL     1      -2.135   1.748  -0.211  1.00  0.00     0.339 C 
BRANCH  11  12
ATOM     12  C   UNL     1      -0.983   0.819  -0.437  1.00  0.00     0.161 A 
ATOM     13  C   UNL     1       2.450  -0.065  -0.660  1.00  0.00     0.068 C 
ATOM     14  C   UNL     1       0.973  -0.044  -0.679  1.00  0.00     0.056 A 
ATOM     15  C   UNL     1       0.084  -1.089  -0.796  1.00  0.00     0.107 A 
ATOM     16  N   UNL     1       0.295   1.139  -0.524  1.00  0.00    -0.233 NA
ATOM     17  N   UNL     1      -1.152  -0.532  -0.609  1.00  0.00    -0.344 N 
ATOM     18  H   UNL     1      -2.010  -1.015  -0.599  1.00  0.00     0.167 HD
ENDBRANCH  11  12
ENDBRANCH   8  11
ENDBRANCH   7   8
BRANCH   7  19
ATOM     19  C   UNL     1      -1.309   0.942   2.840  1.00  0.00     0.019 A 
ATOM     20  C   UNL     1      -1.576  -0.255   3.516  1.00  0.00     0.012 A 
ATOM     21  C   UNL     1       0.040   1.274   2.634  1.00  0.00     0.012 A 
ATOM     22  C   UNL     1      -0.564  -1.197   3.709  1.00  0.00     0.027 A 
ATOM     23  C   UNL     1       1.045   0.319   2.802  1.00  0.00     0.027 A 
ATOM     24  C   UNL     1       0.711  -0.971   3.200  1.00  0.00     0.042 A 
BRANCH  24  25
ATOM     25  N   UNL     1       1.667  -1.988   3.030  1.00  0.00    -0.308 N 
ATOM     26  C   UNL     1       1.542  -3.345   3.057  1.00  0.00     0.321 C 
ATOM     27  H   UNL     1       2.582  -1.665   2.864  1.00  0.00     0.171 HD
ATOM     28  O   UNL     1       2.539  -4.022   3.319  1.00  0.00    -0.248 OA
ATOM     29  N   UNL     1       0.336  -3.929   2.793  1.00  0.00    -0.325 N 
ATOM     30  C   UNL     1      -0.602  -3.583   1.740  1.00  0.00     0.121 C 
ATOM     31  C   UNL     1       0.005  -5.232   3.319  1.00  0.00     0.121 C 
ATOM     32  C   UNL     1      -1.909  -4.170   2.240  1.00  0.00     0.023 C 
ATOM     33  C   UNL     1      -1.480  -5.421   3.010  1.00  0.00     0.023 C 
ENDBRANCH  24  25
ENDBRANCH   7  19
ENDBRANCH   4   7
ENDBRANCH   2   3
ENDBRANCH   1   2
BRANCH   1  34
ATOM     34  C   UNL     1      -7.433   3.043   1.444  1.00  0.00     0.118 C 
BRANCH  34  35
ATOM     35  N   UNL     1      -8.390   3.496   2.439  1.00  0.00    -0.352 N 
ATOM     36  C   UNL     1      -9.495   4.296   2.286  1.00  0.00     0.251 C 
ATOM     37  H   UNL     1      -8.222   3.183   3.357  1.00  0.00     0.163 HD
ATOM     38  O   UNL     1     -10.060   4.738   3.288  1.00  0.00    -0.269 OA
BRANCH  36  39
ATOM     39  C   UNL     1      -9.993   4.651   0.938  1.00  0.00     0.039 A 
ATOM     40  C   UNL     1     -10.404   5.964   0.692  1.00  0.00     0.014 A 
ATOM     41  C   UNL     1     -10.077   3.696  -0.079  1.00  0.00     0.014 A 
ATOM     42  C   UNL     1     -10.833   6.332  -0.586  1.00  0.00     0.010 A 
ATOM     43  C   UNL     1     -10.423   4.083  -1.372  1.00  0.00     0.010 A 
ATOM     44  C   UNL     1     -10.810   5.404  -1.640  1.00  0.00    -0.014 A 
BRANCH  44  45
ATOM     45  C   UNL     1     -11.188   5.792  -3.026  1.00  0.00     0.031 A 
ATOM     46  C   UNL     1     -12.367   5.140  -3.699  1.00  0.00     0.074 A 
ATOM     47  C   UNL     1     -10.431   6.679  -3.703  1.00  0.00     0.049 A 
ATOM     48  N   UNL     1     -12.796   5.274  -4.927  1.00  0.00    -0.248 NA
ATOM     49  C   UNL     1     -13.152   4.191  -2.892  1.00  0.00     0.031 C 
ATOM     50  C   UNL     1      -9.242   7.353  -3.176  1.00  0.00     0.029 A 
ATOM     51  N   UNL     1     -10.540   7.159  -4.985  1.00  0.00    -0.354 N 
ATOM     52  C   UNL     1     -13.886   4.420  -5.045  1.00  0.00     0.074 A 
ATOM     53  C   UNL     1     -14.022   3.733  -3.780  1.00  0.00     0.031 C 
ATOM     54  C   UNL     1      -8.743   8.169  -4.118  1.00  0.00     0.029 A 
ATOM     55  C   UNL     1      -9.547   8.046  -5.330  1.00  0.00     0.049 A 
ATOM     56  H   UNL     1     -11.261   6.893  -5.600  1.00  0.00     0.167 HD
ATOM     57  C   UNL     1     -14.713   4.242  -6.103  1.00  0.00     0.037 A 
ATOM     58  C   UNL     1      -9.299   8.677  -6.495  1.00  0.00     0.037 A 
ATOM     59  C   UNL     1     -14.587   4.948  -7.352  1.00  0.00     0.049 A 
ATOM     60  C   UNL     1     -10.219   8.447  -7.664  1.00  0.00     0.074 A 
ATOM     61  C   UNL     1     -15.409   4.881  -8.464  1.00  0.00     0.029 A 
ATOM     62  N   UNL     1     -13.574   5.845  -7.658  1.00  0.00    -0.354 N 
ATOM     63  N   UNL     1     -11.283   7.682  -7.737  1.00  0.00    -0.248 NA
ATOM     64  C   UNL     1      -9.908   9.164  -8.909  1.00  0.00     0.031 C 
ATOM     65  C   UNL     1     -14.865   5.698  -9.460  1.00  0.00     0.029 A 
ATOM     66  C   UNL     1     -13.734   6.317  -8.950  1.00  0.00     0.049 A 
ATOM     67  H   UNL     1     -12.848   6.107  -7.047  1.00  0.00     0.167 HD
ATOM     68  C   UNL     1     -11.782   7.846  -9.024  1.00  0.00     0.074 A 
ATOM     69  C   UNL     1     -10.911   8.791  -9.692  1.00  0.00     0.031 C 
ATOM     70  C   UNL     1     -12.863   7.266  -9.600  1.00  0.00     0.037 A 
BRANCH  57  71
ATOM     71  C   UNL     1     -15.832   3.245  -5.958  1.00  0.00     0.058 A 
ATOM     72  C   UNL     1     -16.928   3.482  -5.114  1.00  0.00     0.135 A 
ATOM     73  C   UNL     1     -15.828   2.054  -6.704  1.00  0.00     0.135 A 
ATOM     74  F   UNL     1     -16.977   4.597  -4.367  1.00  0.00    -0.206 F 
ATOM     75  C   UNL     1     -17.964   2.563  -4.990  1.00  0.00     0.059 A 
ATOM     76  C   UNL     1     -16.869   1.134  -6.619  1.00  0.00     0.059 A 
ATOM     77  F   UNL     1     -14.806   1.775  -7.528  1.00  0.00    -0.206 F 
ATOM     78  C   UNL     1     -17.926   1.391  -5.747  1.00  0.00     0.060 A 
BRANCH  78  79
ATOM     79  S   UNL     1     -19.281   0.210  -5.574  1.00  0.00     0.124 S 
ATOM     80  O   UNL     1     -19.020  -0.339  -4.247  1.00  0.00    -0.237 OA
ATOM     81  O   UNL     1     -20.457   1.067  -5.686  1.00  0.00    -0.237 OA
ATOM     82  O   UNL     1     -19.073  -0.712  -6.686  1.00  0.00    -0.744 OA
ENDBRANCH  78  79
ENDBRANCH  57  71
BRANCH  58  83
ATOM     83  C   UNL     1      -8.134   9.595  -6.611  1.00  0.00     0.058 A 
ATOM     84  C   UNL     1      -8.316  10.980  -6.737  1.00  0.00     0.135 A 
ATOM     85  C   UNL     1      -6.817   9.110  -6.584  1.00  0.00     0.135 A 
ATOM     86  F   UNL     1      -9.556  11.492  -6.775  1.00  0.00    -0.206 F 
ATOM     87  C   UNL     1      -7.237  11.851  -6.847  1.00  0.00     0.059 A 
ATOM     88  C   UNL     1      -5.721   9.963  -6.665  1.00  0.00     0.059 A 
ATOM     89  F   UNL     1      -6.587   7.794  -6.448  1.00  0.00    -0.206 F 
ATOM     90  C   UNL     1      -5.941  11.332  -6.806  1.00  0.00     0.060 A 
BRANCH  90  91
ATOM     91  S   UNL     1      -4.548  12.477  -6.898  1.00  0.00     0.124 S 
ATOM     92  O   UNL     1      -4.593  12.883  -8.298  1.00  0.00    -0.237 OA
ATOM     93  O   UNL     1      -4.926  13.496  -5.924  1.00  0.00    -0.237 OA
ATOM     94  O   UNL     1      -3.408  11.648  -6.516  1.00  0.00    -0.744 OA
ENDBRANCH  90  91
ENDBRANCH  58  83
BRANCH  70  95
ATOM     95  C   UNL     1     -13.192   7.654 -11.016  1.00  0.00     0.058 A 
ATOM     96  C   UNL     1     -12.422   7.207 -12.101  1.00  0.00     0.135 A 
ATOM     97  C   UNL     1     -14.334   8.423 -11.294  1.00  0.00     0.135 A 
ATOM     98  F   UNL     1     -11.315   6.477 -11.889  1.00  0.00    -0.206 F 
ATOM     99  C   UNL     1     -12.765   7.520 -13.412  1.00  0.00     0.059 A 
ATOM    100  C   UNL     1     -14.712   8.723 -12.599  1.00  0.00     0.059 A 
ATOM    101  F   UNL     1     -15.110   8.868 -10.293  1.00  0.00    -0.206 F 
ATOM    102  C   UNL     1     -13.917   8.273 -13.652  1.00  0.00     0.060 A 
BRANCH 102 103
ATOM    103  S   UNL     1     -14.380   8.623 -15.361  1.00  0.00     0.124 S 
ATOM    104  O   UNL     1     -13.376   9.610 -15.742  1.00  0.00    -0.237 OA
ATOM    105  O   UNL     1     -14.254   7.313 -15.992  1.00  0.00    -0.237 OA
ATOM    106  O   UNL     1     -15.745   9.128 -15.247  1.00  0.00    -0.744 OA
ENDBRANCH 102 103
ENDBRANCH  70  95
ENDBRANCH  44  45
ENDBRANCH  36  39
ENDBRANCH  34  35
ENDBRANCH   1  34
TORSDOF 18
