REMARK SMILES O=C(NCCCNC(=O)c1cccc(Nc2ccnc3ccc(F)cc23)c1)c1ccc(-c2c3nc(c(-c4c(F)cc(S(=O)(=O)[O-])cc4F)c4ccc([nH]4)c(-c4c(F)cc(S(=O)(=O)[O-])cc4F)c4nc(c(-c5c(F)cc(S(=O)(=O)[O-])cc5F)c5ccc2[nH]5)C=C4)C=C3)cc1
REMARK SMILES IDX 4 1 3 2 1 3 2 4 28 6 29 7 93 8 30 9 92 10 31 11 32 12 33 13
REMARK SMILES IDX 86 14 34 15 91 16 85 17 87 18 35 19 90 20 84 21 83 22 36 24
REMARK SMILES IDX 70 25 49 26 69 27 50 28 53 29 68 30 88 31 51 32 52 33 67 35
REMARK SMILES IDX 89 36 54 37 37 38 38 39 47 40 39 41 40 42 46 43 48 44 41 45
REMARK SMILES IDX 42 46 43 47 44 48 45 49 71 50 72 51 81 52 73 53 74 54 80 55
REMARK SMILES IDX 82 56 75 57 76 58 77 59 78 60 79 61 55 62 56 63 65 64 57 65
REMARK SMILES IDX 58 66 64 67 66 68 59 69 60 70 61 71 62 72 63 73 5 74 6 75
REMARK SMILES IDX 7 76 8 77 9 79 10 80 11 81 27 82 12 83 14 84 13 85 15 86
REMARK SMILES IDX 16 88 17 89 26 90 18 91 20 92 25 93 19 94 21 95 23 96 22 97
REMARK SMILES IDX 24 98
REMARK H PARENT 3 5 87 23 53 34 7 78 15 87
REMARK Flexibility Score: inf
ROOT
ATOM      1  C   UNL     1       4.536  -1.497   0.623  1.00  0.00     0.118 C 
ENDROOT
BRANCH   1   2
ATOM      2  N   UNL     1       3.109  -1.247   0.474  1.00  0.00    -0.352 N 
ATOM      3  O   UNL     1       1.181  -0.146   0.171  1.00  0.00    -0.269 OA
ATOM      4  C   UNL     1       2.412  -0.112   0.131  1.00  0.00     0.251 C 
ATOM      5  H   UNL     1       2.541  -2.031   0.650  1.00  0.00     0.163 HD
BRANCH   4   6
ATOM      6  C   UNL     1       3.092   1.149  -0.255  1.00  0.00     0.039 A 
ATOM      7  C   UNL     1       4.212   1.165  -1.088  1.00  0.00     0.014 A 
ATOM      8  C   UNL     1       2.549   2.363   0.184  1.00  0.00     0.014 A 
ATOM      9  C   UNL     1       4.866   2.369  -1.360  1.00  0.00     0.010 A 
ATOM     10  C   UNL     1       3.163   3.577  -0.150  1.00  0.00     0.010 A 
ATOM     11  C   UNL     1       4.351   3.590  -0.896  1.00  0.00    -0.014 A 
BRANCH  11  12
ATOM     12  C   UNL     1       5.041   4.869  -1.223  1.00  0.00     0.031 A 
ATOM     13  C   UNL     1       5.645   5.723  -0.139  1.00  0.00     0.074 A 
ATOM     14  C   UNL     1       5.129   5.264  -2.509  1.00  0.00     0.049 A 
ATOM     15  N   UNL     1       6.273   6.868  -0.241  1.00  0.00    -0.248 NA
ATOM     16  C   UNL     1       5.524   5.231   1.242  1.00  0.00     0.031 C 
ATOM     17  C   UNL     1       4.575   4.536  -3.652  1.00  0.00     0.029 A 
ATOM     18  N   UNL     1       5.716   6.369  -3.074  1.00  0.00    -0.354 N 
ATOM     19  C   UNL     1       6.607   7.242   1.056  1.00  0.00     0.074 A 
ATOM     20  C   UNL     1       6.085   6.215   1.933  1.00  0.00     0.031 C 
ATOM     21  C   UNL     1       4.871   5.197  -4.781  1.00  0.00     0.029 A 
ATOM     22  C   UNL     1       5.586   6.424  -4.442  1.00  0.00     0.049 A 
ATOM     23  H   UNL     1       6.186   7.057  -2.550  1.00  0.00     0.167 HD
ATOM     24  C   UNL     1       7.294   8.333   1.477  1.00  0.00     0.037 A 
ATOM     25  C   UNL     1       5.977   7.362  -5.327  1.00  0.00     0.037 A 
ATOM     26  C   UNL     1       7.816   9.351   0.599  1.00  0.00     0.049 A 
ATOM     27  C   UNL     1       6.709   8.579  -4.835  1.00  0.00     0.074 A 
ATOM     28  C   UNL     1       8.555  10.475   0.928  1.00  0.00     0.029 A 
ATOM     29  N   UNL     1       7.649   9.376  -0.779  1.00  0.00    -0.354 N 
ATOM     30  N   UNL     1       7.050   8.894  -3.608  1.00  0.00    -0.248 NA
ATOM     31  C   UNL     1       7.111   9.567  -5.845  1.00  0.00     0.031 C 
ATOM     32  C   UNL     1       8.789  11.205  -0.242  1.00  0.00     0.029 A 
ATOM     33  C   UNL     1       8.249  10.507  -1.310  1.00  0.00     0.049 A 
ATOM     34  H   UNL     1       7.174   8.690  -1.302  1.00  0.00     0.167 HD
ATOM     35  C   UNL     1       7.727  10.105  -3.701  1.00  0.00     0.074 A 
ATOM     36  C   UNL     1       7.757  10.459  -5.105  1.00  0.00     0.031 C 
ATOM     37  C   UNL     1       8.277  10.851  -2.711  1.00  0.00     0.037 A 
BRANCH  24  38
ATOM     38  C   UNL     1       7.503   8.499   2.960  1.00  0.00     0.058 A 
ATOM     39  C   UNL     1       8.371   7.665   3.684  1.00  0.00     0.135 A 
ATOM     40  C   UNL     1       6.853   9.528   3.661  1.00  0.00     0.135 A 
ATOM     41  F   UNL     1       9.012   6.659   3.069  1.00  0.00    -0.206 F 
ATOM     42  C   UNL     1       8.557   7.822   5.055  1.00  0.00     0.059 A 
ATOM     43  C   UNL     1       7.046   9.721   5.027  1.00  0.00     0.059 A 
ATOM     44  F   UNL     1       6.016  10.359   3.020  1.00  0.00    -0.206 F 
ATOM     45  C   UNL     1       7.886   8.850   5.718  1.00  0.00     0.060 A 
BRANCH  45  46
ATOM     46  S   UNL     1       8.123   9.027   7.500  1.00  0.00     0.124 S 
ATOM     47  O   UNL     1       7.372   7.882   8.006  1.00  0.00    -0.237 OA
ATOM     48  O   UNL     1       9.574   8.940   7.632  1.00  0.00    -0.237 OA
ATOM     49  O   UNL     1       7.547  10.335   7.793  1.00  0.00    -0.744 OA
ENDBRANCH  45  46
ENDBRANCH  24  38
BRANCH  25  50
ATOM     50  C   UNL     1       5.678   7.176  -6.772  1.00  0.00     0.058 A 
ATOM     51  C   UNL     1       6.697   6.897  -7.693  1.00  0.00     0.135 A 
ATOM     52  C   UNL     1       4.359   7.234  -7.251  1.00  0.00     0.135 A 
ATOM     53  F   UNL     1       7.973   6.839  -7.285  1.00  0.00    -0.206 F 
ATOM     54  C   UNL     1       6.422   6.686  -9.040  1.00  0.00     0.059 A 
ATOM     55  C   UNL     1       4.056   6.999  -8.588  1.00  0.00     0.059 A 
ATOM     56  F   UNL     1       3.346   7.483  -6.407  1.00  0.00    -0.206 F 
ATOM     57  C   UNL     1       5.096   6.732  -9.477  1.00  0.00     0.060 A 
BRANCH  57  58
ATOM     58  S   UNL     1       4.744   6.387 -11.214  1.00  0.00     0.124 S 
ATOM     59  O   UNL     1       5.232   7.600 -11.859  1.00  0.00    -0.237 OA
ATOM     60  O   UNL     1       5.526   5.178 -11.450  1.00  0.00    -0.237 OA
ATOM     61  O   UNL     1       3.296   6.200 -11.232  1.00  0.00    -0.744 OA
ENDBRANCH  57  58
ENDBRANCH  25  50
BRANCH  37  62
ATOM     62  C   UNL     1       8.995  12.112  -3.110  1.00  0.00     0.058 A 
ATOM     63  C   UNL     1       8.304  13.253  -3.544  1.00  0.00     0.135 A 
ATOM     64  C   UNL     1      10.393  12.194  -3.005  1.00  0.00     0.135 A 
ATOM     65  F   UNL     1       6.968  13.227  -3.671  1.00  0.00    -0.206 F 
ATOM     66  C   UNL     1       8.975  14.426  -3.880  1.00  0.00     0.059 A 
ATOM     67  C   UNL     1      11.082  13.364  -3.308  1.00  0.00     0.059 A 
ATOM     68  F   UNL     1      11.103  11.134  -2.587  1.00  0.00    -0.206 F 
ATOM     69  C   UNL     1      10.365  14.472  -3.755  1.00  0.00     0.060 A 
BRANCH  69  70
ATOM     70  S   UNL     1      11.220  16.011  -4.155  1.00  0.00     0.124 S 
ATOM     71  O   UNL     1      11.139  16.022  -5.612  1.00  0.00    -0.237 OA
ATOM     72  O   UNL     1      10.406  17.009  -3.467  1.00  0.00    -0.237 OA
ATOM     73  O   UNL     1      12.556  15.811  -3.603  1.00  0.00    -0.744 OA
ENDBRANCH  69  70
ENDBRANCH  37  62
ENDBRANCH  11  12
ENDBRANCH   4   6
ENDBRANCH   1   2
BRANCH   1  74
ATOM     74  C   UNL     1       4.946  -1.950   2.025  1.00  0.00     0.042 C 
BRANCH  74  75
ATOM     75  C   UNL     1       4.298  -3.231   2.544  1.00  0.00     0.118 C 
BRANCH  75  76
ATOM     76  N   UNL     1       4.536  -4.415   1.732  1.00  0.00    -0.352 N 
ATOM     77  C   UNL     1       5.162  -5.583   2.099  1.00  0.00     0.251 C 
ATOM     78  H   UNL     1       4.208  -4.375   0.805  1.00  0.00     0.163 HD
ATOM     79  O   UNL     1       5.036  -6.607   1.432  1.00  0.00    -0.269 OA
BRANCH  77  80
ATOM     80  C   UNL     1       6.084  -5.580   3.249  1.00  0.00     0.041 A 
ATOM     81  C   UNL     1       7.364  -5.070   3.011  1.00  0.00     0.014 A 
ATOM     82  C   UNL     1       5.716  -6.082   4.513  1.00  0.00     0.039 A 
ATOM     83  C   UNL     1       8.281  -5.014   4.048  1.00  0.00     0.003 A 
ATOM     84  C   UNL     1       6.637  -6.018   5.568  1.00  0.00     0.039 A 
ATOM     85  C   UNL     1       7.912  -5.472   5.310  1.00  0.00     0.026 A 
BRANCH  84  86
ATOM     86  N   UNL     1       6.288  -6.312   6.909  1.00  0.00    -0.355 N 
ATOM     87  H   UNL     1       5.767  -7.129   7.085  1.00  0.00     0.167 HD
BRANCH  86  88
ATOM     88  C   UNL     1       6.647  -5.495   8.015  1.00  0.00     0.050 A 
ATOM     89  C   UNL     1       6.580  -4.106   7.827  1.00  0.00     0.047 A 
ATOM     90  C   UNL     1       7.178  -5.990   9.239  1.00  0.00     0.027 A 
ATOM     91  C   UNL     1       7.107  -3.267   8.778  1.00  0.00     0.114 A 
ATOM     92  C   UNL     1       7.599  -5.017  10.185  1.00  0.00     0.072 A 
ATOM     93  C   UNL     1       7.359  -7.356   9.575  1.00  0.00     0.051 A 
ATOM     94  N   UNL     1       7.593  -3.701   9.951  1.00  0.00    -0.256 NA
ATOM     95  C   UNL     1       8.068  -5.412  11.428  1.00  0.00     0.032 A 
ATOM     96  C   UNL     1       7.867  -7.715  10.825  1.00  0.00     0.124 A 
ATOM     97  C   UNL     1       8.194  -6.755  11.768  1.00  0.00     0.041 A 
ATOM     98  F   UNL     1       8.044  -9.009  11.127  1.00  0.00    -0.207 F 
ENDBRANCH  86  88
ENDBRANCH  84  86
ENDBRANCH  77  80
ENDBRANCH  75  76
ENDBRANCH  74  75
ENDBRANCH   1  74
TORSDOF 15
