REMARK SMILES O=C(CC[N@H+]1CCC[C@@H](C(=O)NCCCNC(=O)c2ccc(-c3c4nc(c(-c5c(F)cc(S(=O)(=O)[O-])cc5F)c5ccc([nH]5)c(-c5c(F)cc(S(=O)(=O)[O-])cc5F)c5nc(c(-c6c(F)cc(S(=O)(=O)[O-])cc6F)c6ccc3[nH]6)C=C5)C=C4)cc2)C1)Nc1cccc(F)c1
REMARK SMILES IDX 13 1 12 2 10 3 11 4 9 6 5 7 6 8 85 9 7 11 8 12 4 13 3 14
REMARK SMILES IDX 2 15 1 16 86 17 87 19 88 20 93 21 89 22 91 23 90 24 92 25
REMARK SMILES IDX 14 26 15 27 16 28 17 29 18 31 19 32 20 33 84 34 21 35 83 36
REMARK SMILES IDX 22 37 23 38 24 39 77 40 25 41 82 42 76 43 78 44 26 45 81 46
REMARK SMILES IDX 75 47 74 48 27 50 61 51 40 52 60 53 41 54 44 55 59 56 79 57
REMARK SMILES IDX 42 58 43 59 58 61 80 62 45 63 28 64 29 65 38 66 30 67 31 68
REMARK SMILES IDX 37 69 39 70 32 71 33 72 34 73 35 74 36 75 62 76 63 77 72 78
REMARK SMILES IDX 64 79 65 80 71 81 73 82 66 83 67 84 68 85 69 86 70 87 46 88
REMARK SMILES IDX 47 89 56 90 48 91 49 92 55 93 57 94 50 95 51 96 52 97 53 98
REMARK SMILES IDX 54 99
REMARK H PARENT 12 5 5 10 86 18 16 30 78 49 44 60
REMARK Flexibility Score: inf
ROOT
ATOM      1  C   UNL     1       7.935   4.127   1.591  1.00  0.00     0.117 C 
ENDROOT
BRANCH   1   2
ATOM      2  N   UNL     1       8.846   3.059   1.229  1.00  0.00    -0.356 N 
ATOM      3  C   UNL     1       8.668   1.722   1.083  1.00  0.00     0.228 C 
ATOM      4  O   UNL     1       9.677   1.073   0.796  1.00  0.00    -0.275 OA
ATOM      5  H   UNL     1       9.767   3.361   1.058  1.00  0.00     0.163 HD
BRANCH   3   6
ATOM      6  C   UNL     1       7.300   1.058   1.276  1.00  0.00     0.133 C 
ATOM      7  N   UNL     1       5.022   0.775   0.229  1.00  0.00    -0.334 N 
ATOM      8  C   UNL     1       5.358  -0.591  -0.194  1.00  0.00     0.262 C 
ATOM      9  C   UNL     1       6.279   1.569   0.246  1.00  0.00     0.275 C 
ATOM     10  H   UNL     1       4.588   0.693   1.149  1.00  0.00     0.348 HD
ATOM     11  C   UNL     1       6.175  -1.224   0.931  1.00  0.00     0.062 C 
ATOM     12  C   UNL     1       7.481  -0.472   1.149  1.00  0.00     0.025 C 
BRANCH   7  13
ATOM     13  C   UNL     1       4.024   1.472  -0.606  1.00  0.00     0.272 C 
BRANCH  13  14
ATOM     14  C   UNL     1       2.801   0.697  -1.092  1.00  0.00     0.161 C 
BRANCH  14  15
ATOM     15  C   UNL     1       1.871   0.042  -0.082  1.00  0.00     0.230 C 
ATOM     16  O   UNL     1       0.705  -0.182  -0.406  1.00  0.00    -0.275 OA
ATOM     17  N   UNL     1       2.457  -0.364   1.096  1.00  0.00    -0.326 N 
ATOM     18  H   UNL     1       3.295   0.085   1.351  1.00  0.00     0.169 HD
BRANCH  17  19
ATOM     19  C   UNL     1       1.978  -1.359   1.974  1.00  0.00     0.044 A 
ATOM     20  C   UNL     1       2.640  -1.524   3.199  1.00  0.00     0.026 A 
ATOM     21  C   UNL     1       0.936  -2.230   1.649  1.00  0.00     0.065 A 
ATOM     22  C   UNL     1       2.253  -2.531   4.091  1.00  0.00     0.005 A 
ATOM     23  C   UNL     1       0.569  -3.238   2.536  1.00  0.00     0.125 A 
ATOM     24  C   UNL     1       1.214  -3.394   3.756  1.00  0.00     0.039 A 
ATOM     25  F   UNL     1      -0.413  -4.086   2.200  1.00  0.00    -0.207 F 
ENDBRANCH  17  19
ENDBRANCH  14  15
ENDBRANCH  13  14
ENDBRANCH   7  13
ENDBRANCH   3   6
ENDBRANCH   1   2
BRANCH   1  26
ATOM     26  C   UNL     1       8.351   4.862   2.855  1.00  0.00     0.042 C 
BRANCH  26  27
ATOM     27  C   UNL     1       9.770   5.410   2.857  1.00  0.00     0.118 C 
BRANCH  27  28
ATOM     28  N   UNL     1      10.012   6.412   1.829  1.00  0.00    -0.352 N 
ATOM     29  C   UNL     1      10.424   7.721   1.946  1.00  0.00     0.251 C 
ATOM     30  H   UNL     1       9.857   6.106   0.906  1.00  0.00     0.163 HD
ATOM     31  O   UNL     1      10.446   8.435   0.951  1.00  0.00    -0.269 OA
BRANCH  29  32
ATOM     32  C   UNL     1      10.800   8.275   3.268  1.00  0.00     0.039 A 
ATOM     33  C   UNL     1      10.355   9.555   3.612  1.00  0.00     0.014 A 
ATOM     34  C   UNL     1      11.579   7.546   4.169  1.00  0.00     0.014 A 
ATOM     35  C   UNL     1      10.619  10.063   4.887  1.00  0.00     0.010 A 
ATOM     36  C   UNL     1      11.758   8.012   5.469  1.00  0.00     0.010 A 
ATOM     37  C   UNL     1      11.282   9.277   5.844  1.00  0.00    -0.014 A 
BRANCH  37  38
ATOM     38  C   UNL     1      11.476   9.753   7.240  1.00  0.00     0.031 A 
ATOM     39  C   UNL     1      12.863   9.931   7.798  1.00  0.00     0.074 A 
ATOM     40  C   UNL     1      10.403   9.959   8.030  1.00  0.00     0.049 A 
ATOM     41  N   UNL     1      13.230  10.281   9.004  1.00  0.00    -0.248 NA
ATOM     42  C   UNL     1      13.985   9.651   6.888  1.00  0.00     0.031 C 
ATOM     43  C   UNL     1       9.007   9.777   7.625  1.00  0.00     0.029 A 
ATOM     44  N   UNL     1      10.317  10.361   9.340  1.00  0.00    -0.354 N 
ATOM     45  C   UNL     1      14.620  10.249   9.003  1.00  0.00     0.074 A 
ATOM     46  C   UNL     1      15.027   9.786   7.694  1.00  0.00     0.031 C 
ATOM     47  C   UNL     1       8.205  10.097   8.652  1.00  0.00     0.029 A 
ATOM     48  C   UNL     1       9.026  10.464   9.803  1.00  0.00     0.049 A 
ATOM     49  H   UNL     1      11.105  10.558   9.896  1.00  0.00     0.167 HD
ATOM     50  C   UNL     1      15.479  10.595   9.992  1.00  0.00     0.037 A 
ATOM     51  C   UNL     1       8.553  10.808  11.017  1.00  0.00     0.037 A 
ATOM     52  C   UNL     1      15.067  11.067  11.289  1.00  0.00     0.049 A 
ATOM     53  C   UNL     1       9.524  11.171  12.107  1.00  0.00     0.074 A 
ATOM     54  C   UNL     1      15.857  11.502  12.338  1.00  0.00     0.029 A 
ATOM     55  N   UNL     1      13.750  11.157  11.719  1.00  0.00    -0.354 N 
ATOM     56  N   UNL     1      10.835  11.203  12.066  1.00  0.00    -0.248 NA
ATOM     57  C   UNL     1       8.952  11.547  13.407  1.00  0.00     0.031 C 
ATOM     58  C   UNL     1      15.023  11.798  13.421  1.00  0.00     0.029 A 
ATOM     59  C   UNL     1      13.708  11.608  13.029  1.00  0.00     0.049 A 
ATOM     60  H   UNL     1      12.962  10.932  11.174  1.00  0.00     0.167 HD
ATOM     61  C   UNL     1      11.244  11.630  13.325  1.00  0.00     0.074 A 
ATOM     62  C   UNL     1      10.040  11.853  14.101  1.00  0.00     0.031 C 
ATOM     63  C   UNL     1      12.503  11.823  13.794  1.00  0.00     0.037 A 
BRANCH  50  64
ATOM     64  C   UNL     1      16.953  10.459   9.708  1.00  0.00     0.058 A 
ATOM     65  C   UNL     1      17.606  11.276   8.769  1.00  0.00     0.135 A 
ATOM     66  C   UNL     1      17.725   9.501  10.385  1.00  0.00     0.135 A 
ATOM     67  F   UNL     1      16.917  12.203   8.084  1.00  0.00    -0.206 F 
ATOM     68  C   UNL     1      18.956  11.112   8.474  1.00  0.00     0.059 A 
ATOM     69  C   UNL     1      19.085   9.343  10.131  1.00  0.00     0.059 A 
ATOM     70  F   UNL     1      17.157   8.696  11.297  1.00  0.00    -0.206 F 
ATOM     71  C   UNL     1      19.685  10.138   9.156  1.00  0.00     0.060 A 
BRANCH  71  72
ATOM     72  S   UNL     1      21.427   9.916   8.739  1.00  0.00     0.124 S 
ATOM     73  O   UNL     1      21.332   9.276   7.430  1.00  0.00    -0.237 OA
ATOM     74  O   UNL     1      21.925  11.288   8.738  1.00  0.00    -0.237 OA
ATOM     75  O   UNL     1      21.931   9.069   9.816  1.00  0.00    -0.744 OA
ENDBRANCH  71  72
ENDBRANCH  50  64
BRANCH  51  76
ATOM     76  C   UNL     1       7.085  10.861  11.248  1.00  0.00     0.058 A 
ATOM     77  C   UNL     1       6.427  12.090  11.403  1.00  0.00     0.135 A 
ATOM     78  C   UNL     1       6.305   9.695  11.274  1.00  0.00     0.135 A 
ATOM     79  F   UNL     1       7.130  13.233  11.395  1.00  0.00    -0.206 F 
ATOM     80  C   UNL     1       5.049  12.163  11.579  1.00  0.00     0.059 A 
ATOM     81  C   UNL     1       4.922   9.742  11.422  1.00  0.00     0.059 A 
ATOM     82  F   UNL     1       6.884   8.494  11.115  1.00  0.00    -0.206 F 
ATOM     83  C   UNL     1       4.303  10.982  11.577  1.00  0.00     0.060 A 
BRANCH  83  84
ATOM     84  S   UNL     1       2.507  11.096  11.723  1.00  0.00     0.124 S 
ATOM     85  O   UNL     1       2.349  11.499  13.116  1.00  0.00    -0.237 OA
ATOM     86  O   UNL     1       2.184  12.109  10.723  1.00  0.00    -0.237 OA
ATOM     87  O   UNL     1       2.058   9.744  11.402  1.00  0.00    -0.744 OA
ENDBRANCH  83  84
ENDBRANCH  51  76
BRANCH  63  88
ATOM     88  C   UNL     1      12.648  12.328  15.204  1.00  0.00     0.058 A 
ATOM     89  C   UNL     1      12.367  11.517  16.315  1.00  0.00     0.135 A 
ATOM     90  C   UNL     1      13.124  13.628  15.448  1.00  0.00     0.135 A 
ATOM     91  F   UNL     1      11.902  10.270  16.141  1.00  0.00    -0.206 F 
ATOM     92  C   UNL     1      12.529  11.984  17.616  1.00  0.00     0.059 A 
ATOM     93  C   UNL     1      13.323  14.104  16.740  1.00  0.00     0.059 A 
ATOM     94  F   UNL     1      13.418  14.444  14.423  1.00  0.00    -0.206 F 
ATOM     95  C   UNL     1      13.011  13.279  17.818  1.00  0.00     0.060 A 
BRANCH  95  96
ATOM     96  S   UNL     1      13.248  13.859  19.511  1.00  0.00     0.124 S 
ATOM     97  O   UNL     1      11.870  14.051  19.952  1.00  0.00    -0.237 OA
ATOM     98  O   UNL     1      13.961  12.744  20.126  1.00  0.00    -0.237 OA
ATOM     99  O   UNL     1      14.030  15.081  19.346  1.00  0.00    -0.744 OA
ENDBRANCH  95  96
ENDBRANCH  63  88
ENDBRANCH  37  38
ENDBRANCH  29  32
ENDBRANCH  27  28
ENDBRANCH  26  27
ENDBRANCH   1  26
TORSDOF 17
