REMARK SMILES O=C(C[C@H](C(=O)NCCCNC(=O)c1ccc(-c2c3nc(c(-c4c(F)cc(S(=O)(=O)[O-])cc4F)c4ccc([nH]4)c(-c4c(F)cc(S(=O)(=O)[O-])cc4F)c4nc(c(-c5c(F)cc(S(=O)(=O)[O-])cc5F)c5ccc2[nH]5)C=C4)C=C3)cc1)c1ccccc1)Nc1ccc(Cl)cc1Cl
REMARK SMILES IDX 9 1 8 2 7 3 5 4 6 5 4 7 3 8 2 9 1 10 86 11 87 13 88 14 93 15
REMARK SMILES IDX 89 16 92 17 94 18 90 19 91 20 80 21 81 22 85 23 82 24 84 25
REMARK SMILES IDX 83 26 10 27 11 28 12 29 13 31 14 32 15 33 79 34 16 35 78 36
REMARK SMILES IDX 17 37 18 38 19 39 72 40 20 41 77 42 71 43 73 44 21 45 76 46
REMARK SMILES IDX 70 47 69 48 22 50 56 51 35 52 55 53 36 54 39 55 54 56 74 57
REMARK SMILES IDX 37 58 38 59 53 61 75 62 40 63 23 64 24 65 33 66 25 67 26 68
REMARK SMILES IDX 32 69 34 70 27 71 28 72 29 73 30 74 31 75 57 76 58 77 67 78
REMARK SMILES IDX 59 79 60 80 66 81 68 82 61 83 62 84 63 85 64 86 65 87 41 88
REMARK SMILES IDX 42 89 51 90 43 91 44 92 50 93 52 94 45 95 46 96 47 97 48 98
REMARK SMILES IDX 49 99
REMARK H PARENT 7 6 86 12 11 30 73 49 39 60
REMARK Flexibility Score: inf
ROOT
ATOM      1  C   UNL     1       4.784  -3.470   1.590  1.00  0.00     0.042 C 
ENDROOT
BRANCH   1   2
ATOM      2  C   UNL     1       4.067  -3.323   0.254  1.00  0.00     0.117 C 
BRANCH   2   3
ATOM      3  N   UNL     1       3.255  -2.118   0.192  1.00  0.00    -0.355 N 
ATOM      4  C   UNL     1       3.118  -1.143  -0.750  1.00  0.00     0.228 C 
ATOM      5  O   UNL     1       2.147  -0.390  -0.597  1.00  0.00    -0.274 OA
ATOM      6  H   UNL     1       2.692  -1.979   0.988  1.00  0.00     0.163 HD
BRANCH   4   7
ATOM      7  C   UNL     1       4.131  -0.847  -1.871  1.00  0.00     0.118 C 
BRANCH   7   8
ATOM      8  C   UNL     1       5.163   0.172  -1.294  1.00  0.00     0.118 C 
BRANCH   8   9
ATOM      9  C   UNL     1       6.629  -0.232  -1.181  1.00  0.00     0.225 C 
ATOM     10  O   UNL     1       7.487   0.382  -1.807  1.00  0.00    -0.275 OA
ATOM     11  N   UNL     1       6.829  -1.360  -0.422  1.00  0.00    -0.325 N 
ATOM     12  H   UNL     1       6.055  -1.686   0.091  1.00  0.00     0.169 HD
BRANCH  11  13
ATOM     13  C   UNL     1       8.024  -2.103  -0.300  1.00  0.00     0.060 A 
ATOM     14  C   UNL     1       7.866  -3.499  -0.378  1.00  0.00     0.029 A 
ATOM     15  C   UNL     1       9.307  -1.586  -0.059  1.00  0.00     0.066 A 
ATOM     16  C   UNL     1       8.947  -4.363  -0.220  1.00  0.00     0.023 A 
ATOM     17  C   UNL     1      10.395  -2.459   0.096  1.00  0.00     0.043 A 
ATOM     18  Cl  UNL     1       9.609   0.085   0.256  1.00  0.00    -0.082 Cl
ATOM     19  C   UNL     1      10.209  -3.838   0.020  1.00  0.00     0.042 A 
ATOM     20  Cl  UNL     1      11.533  -4.908   0.254  1.00  0.00    -0.084 Cl
ENDBRANCH  11  13
ENDBRANCH   8   9
ENDBRANCH   7   8
BRANCH   7  21
ATOM     21  C   UNL     1       4.593  -2.024  -2.728  1.00  0.00    -0.035 A 
ATOM     22  C   UNL     1       3.821  -3.194  -2.845  1.00  0.00     0.004 A 
ATOM     23  C   UNL     1       5.791  -1.980  -3.456  1.00  0.00     0.004 A 
ATOM     24  C   UNL     1       4.340  -4.344  -3.447  1.00  0.00     0.000 A 
ATOM     25  C   UNL     1       6.314  -3.124  -4.062  1.00  0.00     0.000 A 
ATOM     26  C   UNL     1       5.606  -4.319  -4.020  1.00  0.00     0.000 A 
ENDBRANCH   7  21
ENDBRANCH   4   7
ENDBRANCH   2   3
ENDBRANCH   1   2
BRANCH   1  27
ATOM     27  C   UNL     1       3.897  -4.093   2.656  1.00  0.00     0.118 C 
BRANCH  27  28
ATOM     28  N   UNL     1       3.705  -5.522   2.431  1.00  0.00    -0.352 N 
ATOM     29  C   UNL     1       4.454  -6.619   2.789  1.00  0.00     0.251 C 
ATOM     30  H   UNL     1       2.887  -5.742   1.930  1.00  0.00     0.163 HD
ATOM     31  O   UNL     1       4.214  -7.688   2.228  1.00  0.00    -0.269 OA
BRANCH  29  32
ATOM     32  C   UNL     1       5.541  -6.548   3.798  1.00  0.00     0.039 A 
ATOM     33  C   UNL     1       6.619  -7.439   3.699  1.00  0.00     0.014 A 
ATOM     34  C   UNL     1       5.483  -5.684   4.889  1.00  0.00     0.014 A 
ATOM     35  C   UNL     1       7.642  -7.422   4.656  1.00  0.00     0.010 A 
ATOM     36  C   UNL     1       6.558  -5.581   5.769  1.00  0.00     0.010 A 
ATOM     37  C   UNL     1       7.639  -6.467   5.684  1.00  0.00    -0.014 A 
BRANCH  37  38
ATOM     38  C   UNL     1       8.714  -6.397   6.713  1.00  0.00     0.031 A 
ATOM     39  C   UNL     1       8.365  -6.514   8.179  1.00  0.00     0.074 A 
ATOM     40  C   UNL     1       9.986  -6.138   6.346  1.00  0.00     0.049 A 
ATOM     41  N   UNL     1       9.118  -6.317   9.231  1.00  0.00    -0.248 NA
ATOM     42  C   UNL     1       6.969  -6.853   8.505  1.00  0.00     0.031 C 
ATOM     43  C   UNL     1      10.452  -5.951   4.970  1.00  0.00     0.029 A 
ATOM     44  N   UNL     1      11.119  -5.970   7.103  1.00  0.00    -0.354 N 
ATOM     45  C   UNL     1       8.281  -6.462  10.333  1.00  0.00     0.074 A 
ATOM     46  C   UNL     1       6.952  -6.712   9.822  1.00  0.00     0.031 C 
ATOM     47  C   UNL     1      11.774  -5.720   4.980  1.00  0.00     0.029 A 
ATOM     48  C   UNL     1      12.244  -5.694   6.361  1.00  0.00     0.049 A 
ATOM     49  H   UNL     1      11.125  -6.040   8.085  1.00  0.00     0.167 HD
ATOM     50  C   UNL     1       8.593  -6.417  11.651  1.00  0.00     0.037 A 
ATOM     51  C   UNL     1      13.508  -5.438   6.749  1.00  0.00     0.037 A 
ATOM     52  C   UNL     1       9.929  -6.237  12.154  1.00  0.00     0.049 A 
ATOM     53  C   UNL     1      13.841  -5.440   8.216  1.00  0.00     0.074 A 
ATOM     54  C   UNL     1      10.364  -6.258  13.468  1.00  0.00     0.029 A 
ATOM     55  N   UNL     1      11.048  -6.017  11.365  1.00  0.00    -0.354 N 
ATOM     56  N   UNL     1      13.044  -5.627   9.242  1.00  0.00    -0.248 NA
ATOM     57  C   UNL     1      15.245  -5.203   8.580  1.00  0.00     0.031 C 
ATOM     58  C   UNL     1      11.743  -6.019  13.475  1.00  0.00     0.029 A 
ATOM     59  C   UNL     1      12.172  -5.891  12.164  1.00  0.00     0.049 A 
ATOM     60  H   UNL     1      11.044  -5.959  10.382  1.00  0.00     0.167 HD
ATOM     61  C   UNL     1      13.854  -5.553  10.370  1.00  0.00     0.074 A 
ATOM     62  C   UNL     1      15.204  -5.318   9.901  1.00  0.00     0.031 C 
ATOM     63  C   UNL     1      13.511  -5.669  11.677  1.00  0.00     0.037 A 
BRANCH  50  64
ATOM     64  C   UNL     1       7.471  -6.582  12.643  1.00  0.00     0.058 A 
ATOM     65  C   UNL     1       6.813  -7.811  12.817  1.00  0.00     0.135 A 
ATOM     66  C   UNL     1       7.068  -5.506  13.450  1.00  0.00     0.135 A 
ATOM     67  F   UNL     1       7.148  -8.870  12.062  1.00  0.00    -0.206 F 
ATOM     68  C   UNL     1       5.771  -7.957  13.726  1.00  0.00     0.059 A 
ATOM     69  C   UNL     1       6.047  -5.638  14.389  1.00  0.00     0.059 A 
ATOM     70  F   UNL     1       7.663  -4.309  13.330  1.00  0.00    -0.206 F 
ATOM     71  C   UNL     1       5.393  -6.863  14.506  1.00  0.00     0.060 A 
BRANCH  71  72
ATOM     72  S   UNL     1       4.035  -7.068  15.678  1.00  0.00     0.124 S 
ATOM     73  O   UNL     1       2.881  -7.082  14.785  1.00  0.00    -0.237 OA
ATOM     74  O   UNL     1       4.359  -8.341  16.314  1.00  0.00    -0.237 OA
ATOM     75  O   UNL     1       4.148  -5.894  16.539  1.00  0.00    -0.744 OA
ENDBRANCH  71  72
ENDBRANCH  50  64
BRANCH  51  76
ATOM     76  C   UNL     1      14.559  -5.188   5.727  1.00  0.00     0.058 A 
ATOM     77  C   UNL     1      15.553  -6.145   5.472  1.00  0.00     0.135 A 
ATOM     78  C   UNL     1      14.580  -4.006   4.971  1.00  0.00     0.135 A 
ATOM     79  F   UNL     1      15.578  -7.289   6.173  1.00  0.00    -0.206 F 
ATOM     80  C   UNL     1      16.540  -5.933   4.516  1.00  0.00     0.059 A 
ATOM     81  C   UNL     1      15.542  -3.782   3.991  1.00  0.00     0.059 A 
ATOM     82  F   UNL     1      13.639  -3.068   5.164  1.00  0.00    -0.206 F 
ATOM     83  C   UNL     1      16.525  -4.748   3.778  1.00  0.00     0.060 A 
BRANCH  83  84
ATOM     84  S   UNL     1      17.783  -4.506   2.505  1.00  0.00     0.124 S 
ATOM     85  O   UNL     1      18.963  -4.214   3.310  1.00  0.00    -0.237 OA
ATOM     86  O   UNL     1      17.781  -5.795   1.820  1.00  0.00    -0.237 OA
ATOM     87  O   UNL     1      17.258  -3.389   1.724  1.00  0.00    -0.744 OA
ENDBRANCH  83  84
ENDBRANCH  51  76
BRANCH  63  88
ATOM     88  C   UNL     1      14.615  -5.581  12.693  1.00  0.00     0.058 A 
ATOM     89  C   UNL     1      15.223  -4.359  13.016  1.00  0.00     0.135 A 
ATOM     90  C   UNL     1      15.029  -6.727  13.392  1.00  0.00     0.135 A 
ATOM     91  F   UNL     1      14.867  -3.236  12.373  1.00  0.00    -0.206 F 
ATOM     92  C   UNL     1      16.219  -4.278  13.983  1.00  0.00     0.059 A 
ATOM     93  C   UNL     1      16.005  -6.665  14.380  1.00  0.00     0.059 A 
ATOM     94  F   UNL     1      14.470  -7.919  13.128  1.00  0.00    -0.206 F 
ATOM     95  C   UNL     1      16.603  -5.437  14.662  1.00  0.00     0.060 A 
BRANCH  95  96
ATOM     96  S   UNL     1      17.870  -5.313  15.941  1.00  0.00     0.124 S 
ATOM     97  O   UNL     1      19.082  -5.171  15.142  1.00  0.00    -0.237 OA
ATOM     98  O   UNL     1      17.454  -4.125  16.680  1.00  0.00    -0.237 OA
ATOM     99  O   UNL     1      17.741  -6.572  16.669  1.00  0.00    -0.744 OA
ENDBRANCH  95  96
ENDBRANCH  63  88
ENDBRANCH  37  38
ENDBRANCH  29  32
ENDBRANCH  27  28
ENDBRANCH   1  27
TORSDOF 17
