REMARK SMILES C[C@@H](Nc1ccc(C(=O)NCCCNC(=O)c2ccc(-c3c4nc(c(-c5c(F)cc(S(=O)(=O)[O-])cc5F)c5ccc([nH]5)c(-c5c(F)cc(S(=O)(=O)[O-])cc5F)c5nc(c(-c6c(F)cc(S(=O)(=O)[O-])cc6F)c6ccc3[nH]6)C=C5)C=C4)cc2)c(F)c1F)C(N)=O
REMARK SMILES IDX 12 1 11 2 10 3 8 4 9 5 7 7 4 8 5 9 85 10 6 11 83 12 86 13
REMARK SMILES IDX 84 14 3 15 2 17 1 18 87 19 88 20 89 21 13 24 14 25 15 26
REMARK SMILES IDX 16 28 17 29 18 30 82 31 19 32 81 33 20 34 21 35 22 36 75 37
REMARK SMILES IDX 23 38 80 39 74 40 76 41 24 42 79 43 73 44 72 45 25 47 59 48
REMARK SMILES IDX 38 49 58 50 39 51 42 52 57 53 77 54 40 55 41 56 56 58 78 59
REMARK SMILES IDX 43 60 26 61 27 62 36 63 28 64 29 65 35 66 37 67 30 68 31 69
REMARK SMILES IDX 32 70 33 71 34 72 60 73 61 74 70 75 62 76 63 77 69 78 71 79
REMARK SMILES IDX 64 80 65 81 66 82 67 83 68 84 44 85 45 86 54 87 46 88 47 89
REMARK SMILES IDX 53 90 55 91 48 92 49 93 50 94 51 95 52 96
REMARK H PARENT 10 6 3 16 88 22 88 23 14 27 76 46 42 57
REMARK Flexibility Score: inf
ROOT
ATOM      1  C   UNL     1      -2.099   5.787   5.591  1.00  0.00     0.042 C 
ENDROOT
BRANCH   1   2
ATOM      2  C   UNL     1      -1.725   4.610   6.493  1.00  0.00     0.118 C 
BRANCH   2   3
ATOM      3  N   UNL     1      -2.708   3.548   6.405  1.00  0.00    -0.352 N 
ATOM      4  C   UNL     1      -2.768   2.337   5.779  1.00  0.00     0.254 C 
ATOM      5  O   UNL     1      -3.798   1.688   6.001  1.00  0.00    -0.269 OA
ATOM      6  H   UNL     1      -3.525   3.748   6.917  1.00  0.00     0.163 HD
BRANCH   4   7
ATOM      7  C   UNL     1      -1.725   1.710   4.916  1.00  0.00     0.078 A 
ATOM      8  C   UNL     1       0.053   0.215   3.251  1.00  0.00     0.074 A 
ATOM      9  C   UNL     1      -1.035  -0.401   3.858  1.00  0.00     0.030 A 
ATOM     10  C   UNL     1       0.239   1.583   3.496  1.00  0.00     0.182 A 
ATOM     11  C   UNL     1      -1.900   0.330   4.680  1.00  0.00     0.019 A 
ATOM     12  C   UNL     1      -0.647   2.326   4.287  1.00  0.00     0.173 A 
ATOM     13  F   UNL     1       1.295   2.201   2.939  1.00  0.00    -0.201 F 
ATOM     14  F   UNL     1      -0.437   3.646   4.348  1.00  0.00    -0.203 F 
BRANCH   8  15
ATOM     15  N   UNL     1       0.868  -0.483   2.358  1.00  0.00    -0.371 N 
ATOM     16  H   UNL     1       1.774  -0.751   2.636  1.00  0.00     0.161 HD
BRANCH  15  17
ATOM     17  C   UNL     1       0.390  -0.828   0.995  1.00  0.00     0.165 C 
ATOM     18  C   UNL     1       1.038   0.099  -0.031  1.00  0.00     0.041 C 
BRANCH  17  19
ATOM     19  C   UNL     1      -1.141  -0.813   0.805  1.00  0.00     0.239 C 
ATOM     20  N   UNL     1      -1.776  -2.009   1.011  1.00  0.00    -0.368 N 
ATOM     21  O   UNL     1      -1.797   0.179   0.503  1.00  0.00    -0.273 OA
ATOM     22  H   UNL     1      -1.255  -2.808   1.254  1.00  0.00     0.159 HD
ATOM     23  H   UNL     1      -2.755  -2.069   0.917  1.00  0.00     0.159 HD
ENDBRANCH  17  19
ENDBRANCH  15  17
ENDBRANCH   8  15
ENDBRANCH   4   7
ENDBRANCH   2   3
ENDBRANCH   1   2
BRANCH   1  24
ATOM     24  C   UNL     1      -3.208   6.665   6.180  1.00  0.00     0.118 C 
BRANCH  24  25
ATOM     25  N   UNL     1      -2.787   7.325   7.414  1.00  0.00    -0.352 N 
ATOM     26  C   UNL     1      -2.504   8.646   7.666  1.00  0.00     0.251 C 
ATOM     27  H   UNL     1      -2.692   6.728   8.190  1.00  0.00     0.163 HD
ATOM     28  O   UNL     1      -1.897   8.951   8.687  1.00  0.00    -0.269 OA
BRANCH  26  29
ATOM     29  C   UNL     1      -2.927   9.693   6.715  1.00  0.00     0.039 A 
ATOM     30  C   UNL     1      -2.045  10.732   6.404  1.00  0.00     0.014 A 
ATOM     31  C   UNL     1      -4.206   9.665   6.154  1.00  0.00     0.014 A 
ATOM     32  C   UNL     1      -2.414  11.693   5.459  1.00  0.00     0.010 A 
ATOM     33  C   UNL     1      -4.546  10.581   5.163  1.00  0.00     0.010 A 
ATOM     34  C   UNL     1      -3.648  11.594   4.795  1.00  0.00    -0.014 A 
BRANCH  34  35
ATOM     35  C   UNL     1      -4.006  12.501   3.676  1.00  0.00     0.031 A 
ATOM     36  C   UNL     1      -5.196  13.411   3.788  1.00  0.00     0.074 A 
ATOM     37  C   UNL     1      -3.315  12.421   2.521  1.00  0.00     0.049 A 
ATOM     38  N   UNL     1      -5.741  14.172   2.875  1.00  0.00    -0.248 NA
ATOM     39  C   UNL     1      -5.880  13.450   5.090  1.00  0.00     0.031 C 
ATOM     40  C   UNL     1      -2.165  11.545   2.284  1.00  0.00     0.029 A 
ATOM     41  N   UNL     1      -3.490  13.066   1.323  1.00  0.00    -0.354 N 
ATOM     42  C   UNL     1      -6.837  14.771   3.486  1.00  0.00     0.074 A 
ATOM     43  C   UNL     1      -6.908  14.246   4.832  1.00  0.00     0.031 C 
ATOM     44  C   UNL     1      -1.729  11.719   1.027  1.00  0.00     0.029 A 
ATOM     45  C   UNL     1      -2.598  12.676   0.351  1.00  0.00     0.049 A 
ATOM     46  H   UNL     1      -4.188  13.744   1.173  1.00  0.00     0.167 HD
ATOM     47  C   UNL     1      -7.692  15.689   2.974  1.00  0.00     0.037 A 
ATOM     48  C   UNL     1      -2.505  13.030  -0.946  1.00  0.00     0.037 A 
ATOM     49  C   UNL     1      -7.603  16.208   1.633  1.00  0.00     0.049 A 
ATOM     50  C   UNL     1      -3.495  14.014  -1.505  1.00  0.00     0.074 A 
ATOM     51  C   UNL     1      -8.382  17.183   1.035  1.00  0.00     0.029 A 
ATOM     52  N   UNL     1      -6.689  15.786   0.678  1.00  0.00    -0.354 N 
ATOM     53  N   UNL     1      -4.482  14.625  -0.894  1.00  0.00    -0.248 NA
ATOM     54  C   UNL     1      -3.367  14.351  -2.929  1.00  0.00     0.031 C 
ATOM     55  C   UNL     1      -7.976  17.309  -0.297  1.00  0.00     0.029 A 
ATOM     56  C   UNL     1      -6.908  16.453  -0.516  1.00  0.00     0.049 A 
ATOM     57  H   UNL     1      -5.987  15.111   0.828  1.00  0.00     0.167 HD
ATOM     58  C   UNL     1      -5.083  15.431  -1.855  1.00  0.00     0.074 A 
ATOM     59  C   UNL     1      -4.337  15.243  -3.082  1.00  0.00     0.031 C 
ATOM     60  C   UNL     1      -6.156  16.250  -1.731  1.00  0.00     0.037 A 
BRANCH  47  61
ATOM     61  C   UNL     1      -8.799  16.185   3.866  1.00  0.00     0.058 A 
ATOM     62  C   UNL     1      -8.539  16.995   4.983  1.00  0.00     0.135 A 
ATOM     63  C   UNL     1     -10.139  15.870   3.587  1.00  0.00     0.135 A 
ATOM     64  F   UNL     1      -7.276  17.319   5.305  1.00  0.00    -0.206 F 
ATOM     65  C   UNL     1      -9.562  17.442   5.814  1.00  0.00     0.059 A 
ATOM     66  C   UNL     1     -11.181  16.332   4.386  1.00  0.00     0.059 A 
ATOM     67  F   UNL     1     -10.447  15.101   2.530  1.00  0.00    -0.206 F 
ATOM     68  C   UNL     1     -10.880  17.102   5.508  1.00  0.00     0.060 A 
BRANCH  68  69
ATOM     69  S   UNL     1     -12.193  17.683   6.602  1.00  0.00     0.124 S 
ATOM     70  O   UNL     1     -11.980  16.848   7.781  1.00  0.00    -0.237 OA
ATOM     71  O   UNL     1     -11.866  19.096   6.760  1.00  0.00    -0.237 OA
ATOM     72  O   UNL     1     -13.413  17.405   5.850  1.00  0.00    -0.744 OA
ENDBRANCH  68  69
ENDBRANCH  47  61
BRANCH  48  73
ATOM     73  C   UNL     1      -1.429  12.452  -1.796  1.00  0.00     0.058 A 
ATOM     74  C   UNL     1      -0.364  13.247  -2.243  1.00  0.00     0.135 A 
ATOM     75  C   UNL     1      -1.425  11.094  -2.152  1.00  0.00     0.135 A 
ATOM     76  F   UNL     1      -0.327  14.553  -1.935  1.00  0.00    -0.206 F 
ATOM     77  C   UNL     1       0.663  12.720  -3.019  1.00  0.00     0.059 A 
ATOM     78  C   UNL     1      -0.395  10.538  -2.905  1.00  0.00     0.059 A 
ATOM     79  F   UNL     1      -2.414  10.287  -1.738  1.00  0.00    -0.206 F 
ATOM     80  C   UNL     1       0.642  11.362  -3.340  1.00  0.00     0.060 A 
BRANCH  80  81
ATOM     81  S   UNL     1       2.011  10.680  -4.300  1.00  0.00     0.124 S 
ATOM     82  O   UNL     1       1.766  11.258  -5.616  1.00  0.00    -0.237 OA
ATOM     83  O   UNL     1       3.173  11.197  -3.582  1.00  0.00    -0.237 OA
ATOM     84  O   UNL     1       1.810   9.238  -4.196  1.00  0.00    -0.744 OA
ENDBRANCH  80  81
ENDBRANCH  48  73
BRANCH  60  85
ATOM     85  C   UNL     1      -6.590  17.015  -2.950  1.00  0.00     0.058 A 
ATOM     86  C   UNL     1      -7.249  16.383  -4.016  1.00  0.00     0.135 A 
ATOM     87  C   UNL     1      -6.421  18.408  -3.017  1.00  0.00     0.135 A 
ATOM     88  F   UNL     1      -7.425  15.052  -4.007  1.00  0.00    -0.206 F 
ATOM     89  C   UNL     1      -7.723  17.103  -5.107  1.00  0.00     0.059 A 
ATOM     90  C   UNL     1      -6.911  19.152  -4.086  1.00  0.00     0.059 A 
ATOM     91  F   UNL     1      -5.802  19.063  -2.022  1.00  0.00    -0.206 F 
ATOM     92  C   UNL     1      -7.558  18.489  -5.128  1.00  0.00     0.060 A 
BRANCH  92  93
ATOM     93  S   UNL     1      -8.243  19.418  -6.517  1.00  0.00     0.124 S 
ATOM     94  O   UNL     1      -7.340  19.039  -7.599  1.00  0.00    -0.237 OA
ATOM     95  O   UNL     1      -9.599  18.886  -6.607  1.00  0.00    -0.237 OA
ATOM     96  O   UNL     1      -8.148  20.807  -6.078  1.00  0.00    -0.744 OA
ENDBRANCH  92  93
ENDBRANCH  60  85
ENDBRANCH  34  35
ENDBRANCH  26  29
ENDBRANCH  24  25
ENDBRANCH   1  24
TORSDOF 16
