REMARK SMILES Cc1ccc(C(c2ccccc2)(c2ccccc2)n2cnc(C[C@H]([NH3+])C(=O)NCCCNC(=O)c3ccc(-c4c5nc(c(-c6c(F)cc(S(=O)(=O)[O-])cc6F)c6ccc([nH]6)c(-c6c(F)cc(S(=O)(=O)[O-])cc6F)c6nc(c(-c7c(F)cc(S(=O)(=O)[O-])cc7F)c7ccc4[nH]7)C=C6)C=C5)cc3)c2)cc1
REMARK SMILES IDX 29 1 28 2 26 3 27 4 24 6 23 7 22 8 19 9 20 10 101 11 21 12
REMARK SMILES IDX 6 13 5 14 1 15 2 16 3 17 103 18 4 19 102 20 7 21 8 22 12 23
REMARK SMILES IDX 9 24 11 25 10 26 13 27 14 28 18 29 15 30 17 31 16 32 25 33
REMARK SMILES IDX 30 37 31 38 32 39 33 40 34 42 35 43 36 44 100 45 37 46 99 47
REMARK SMILES IDX 38 48 39 49 40 50 93 51 41 52 98 53 92 54 94 55 42 56 97 57
REMARK SMILES IDX 91 58 90 59 43 61 77 62 56 63 76 64 57 65 60 66 75 67 95 68
REMARK SMILES IDX 58 69 59 70 74 72 96 73 61 74 44 75 45 76 54 77 46 78 47 79
REMARK SMILES IDX 53 80 55 81 48 82 49 83 50 84 51 85 52 86 78 87 79 88 88 89
REMARK SMILES IDX 80 90 81 91 87 92 89 93 82 94 83 95 84 96 85 97 86 98 62 99
REMARK SMILES IDX 63 100 72 101 64 102 65 103 71 104 73 105 66 106 67 107
REMARK SMILES IDX 68 108 69 109 70 110
REMARK H PARENT 28 5 25 34 25 35 25 36 32 41 94 60 60 71
REMARK Flexibility Score: inf
ROOT
ATOM      1  C   UNL     1      -5.464  -7.392   1.106  1.00  0.00     0.118 C 
ENDROOT
BRANCH   1   2
ATOM      2  N   UNL     1      -6.724  -6.832   1.560  1.00  0.00    -0.351 N 
ATOM      3  C   UNL     1      -7.318  -5.618   1.386  1.00  0.00     0.278 C 
ATOM      4  O   UNL     1      -8.364  -5.419   2.019  1.00  0.00    -0.268 OA
ATOM      5  H   UNL     1      -7.258  -7.456   2.104  1.00  0.00     0.163 HD
BRANCH   3   6
ATOM      6  C   UNL     1      -6.704  -4.482   0.534  1.00  0.00     0.276 C 
BRANCH   6   7
ATOM      7  C   UNL     1      -6.357  -4.800  -0.923  1.00  0.00     0.133 C 
BRANCH   7   8
ATOM      8  C   UNL     1      -7.477  -5.285  -1.768  1.00  0.00     0.065 A 
ATOM      9  N   UNL     1      -8.819  -5.658  -3.468  1.00  0.00    -0.319 N 
ATOM     10  C   UNL     1      -9.409  -6.039  -2.283  1.00  0.00     0.201 A 
ATOM     11  C   UNL     1      -7.535  -5.286  -3.143  1.00  0.00     0.112 A 
ATOM     12  N   UNL     1      -8.633  -5.795  -1.253  1.00  0.00    -0.241 NA
BRANCH   9  13
ATOM     13  C   UNL     1      -9.497  -5.562  -4.805  1.00  0.00     0.121 C 
BRANCH  13  14
ATOM     14  C   UNL     1      -9.601  -7.002  -5.450  1.00  0.00    -0.013 A 
ATOM     15  C   UNL     1      -9.974 -10.902  -7.342  1.00  0.00     0.044 C 
ATOM     16  C   UNL     1      -9.834  -9.549  -6.710  1.00  0.00    -0.051 A 
ATOM     17  C   UNL     1      -9.304  -9.431  -5.423  1.00  0.00     0.004 A 
ATOM     18  C   UNL     1     -10.227  -8.393  -7.383  1.00  0.00     0.004 A 
ATOM     19  C   UNL     1      -9.187  -8.181  -4.802  1.00  0.00     0.007 A 
ATOM     20  C   UNL     1     -10.101  -7.143  -6.769  1.00  0.00     0.007 A 
ENDBRANCH  13  14
BRANCH  13  21
ATOM     21  C   UNL     1     -10.940  -4.935  -4.548  1.00  0.00    -0.013 A 
ATOM     22  C   UNL     1     -11.104  -3.795  -3.724  1.00  0.00     0.007 A 
ATOM     23  C   UNL     1     -12.135  -5.517  -5.023  1.00  0.00     0.007 A 
ATOM     24  C   UNL     1     -12.358  -3.231  -3.463  1.00  0.00     0.000 A 
ATOM     25  C   UNL     1     -13.393  -4.960  -4.757  1.00  0.00     0.000 A 
ATOM     26  C   UNL     1     -13.504  -3.809  -3.990  1.00  0.00     0.000 A 
ENDBRANCH  13  21
BRANCH  13  27
ATOM     27  C   UNL     1      -8.575  -4.633  -5.725  1.00  0.00    -0.013 A 
ATOM     28  C   UNL     1      -7.613  -5.199  -6.600  1.00  0.00     0.007 A 
ATOM     29  C   UNL     1      -8.510  -3.232  -5.566  1.00  0.00     0.007 A 
ATOM     30  C   UNL     1      -6.667  -4.419  -7.275  1.00  0.00     0.000 A 
ATOM     31  C   UNL     1      -7.543  -2.455  -6.217  1.00  0.00     0.000 A 
ATOM     32  C   UNL     1      -6.623  -3.047  -7.072  1.00  0.00     0.000 A 
ENDBRANCH  13  27
ENDBRANCH   9  13
ENDBRANCH   7   8
ENDBRANCH   6   7
BRANCH   6  33
ATOM     33  N   UNL     1      -5.536  -3.889   1.244  1.00  0.00    -0.347 N 
ATOM     34  H   UNL     1      -4.795  -4.586   1.320  1.00  0.00     0.345 HD
ATOM     35  H   UNL     1      -5.821  -3.591   2.177  1.00  0.00     0.345 HD
ATOM     36  H   UNL     1      -5.194  -3.084   0.720  1.00  0.00     0.345 HD
ENDBRANCH   6  33
ENDBRANCH   3   6
ENDBRANCH   1   2
BRANCH   1  37
ATOM     37  C   UNL     1      -4.344  -7.187   2.118  1.00  0.00     0.042 C 
BRANCH  37  38
ATOM     38  C   UNL     1      -4.434  -8.167   3.277  1.00  0.00     0.118 C 
BRANCH  38  39
ATOM     39  N   UNL     1      -3.401  -9.193   3.261  1.00  0.00    -0.352 N 
ATOM     40  C   UNL     1      -3.160 -10.173   4.211  1.00  0.00     0.251 C 
ATOM     41  H   UNL     1      -2.801  -9.191   2.480  1.00  0.00     0.163 HD
ATOM     42  O   UNL     1      -2.129 -10.822   4.207  1.00  0.00    -0.269 OA
BRANCH  40  43
ATOM     43  C   UNL     1      -4.250 -10.476   5.166  1.00  0.00     0.039 A 
ATOM     44  C   UNL     1      -4.832 -11.747   5.100  1.00  0.00     0.014 A 
ATOM     45  C   UNL     1      -4.848  -9.454   5.895  1.00  0.00     0.014 A 
ATOM     46  C   UNL     1      -6.110 -11.944   5.621  1.00  0.00     0.010 A 
ATOM     47  C   UNL     1      -6.155  -9.620   6.307  1.00  0.00     0.010 A 
ATOM     48  C   UNL     1      -6.803 -10.854   6.146  1.00  0.00    -0.014 A 
BRANCH  48  49
ATOM     49  C   UNL     1      -8.227 -10.869   6.475  1.00  0.00     0.031 A 
ATOM     50  C   UNL     1      -8.681 -10.695   7.879  1.00  0.00     0.074 A 
ATOM     51  C   UNL     1      -9.154 -10.896   5.491  1.00  0.00     0.049 A 
ATOM     52  N   UNL     1      -9.857 -11.007   8.312  1.00  0.00    -0.248 NA
ATOM     53  C   UNL     1      -7.812 -10.175   8.929  1.00  0.00     0.031 C 
ATOM     54  C   UNL     1     -10.554 -10.497   5.604  1.00  0.00     0.029 A 
ATOM     55  N   UNL     1      -9.058 -11.459   4.219  1.00  0.00    -0.354 N 
ATOM     56  C   UNL     1     -10.004 -10.461   9.569  1.00  0.00     0.074 A 
ATOM     57  C   UNL     1      -8.682 -10.006   9.929  1.00  0.00     0.031 C 
ATOM     58  C   UNL     1     -11.243 -11.014   4.577  1.00  0.00     0.029 A 
ATOM     59  C   UNL     1     -10.345 -11.892   3.850  1.00  0.00     0.049 A 
ATOM     60  H   UNL     1      -8.240 -11.539   3.678  1.00  0.00     0.167 HD
ATOM     61  C   UNL     1     -11.253 -10.329  10.108  1.00  0.00     0.037 A 
ATOM     62  C   UNL     1     -10.611 -13.202   3.572  1.00  0.00     0.037 A 
ATOM     63  C   UNL     1     -12.275 -10.894   9.227  1.00  0.00     0.049 A 
ATOM     64  C   UNL     1     -11.631 -13.838   4.486  1.00  0.00     0.074 A 
ATOM     65  C   UNL     1     -13.155 -10.319   8.325  1.00  0.00     0.029 A 
ATOM     66  N   UNL     1     -12.309 -12.264   8.986  1.00  0.00    -0.354 N 
ATOM     67  N   UNL     1     -11.999 -13.337   5.632  1.00  0.00    -0.248 NA
ATOM     68  C   UNL     1     -12.308 -15.096   4.189  1.00  0.00     0.031 C 
ATOM     69  C   UNL     1     -13.709 -11.348   7.527  1.00  0.00     0.029 A 
ATOM     70  C   UNL     1     -13.166 -12.551   7.941  1.00  0.00     0.049 A 
ATOM     71  H   UNL     1     -11.794 -12.935   9.491  1.00  0.00     0.167 HD
ATOM     72  C   UNL     1     -12.893 -14.182   6.243  1.00  0.00     0.074 A 
ATOM     73  C   UNL     1     -13.081 -15.250   5.279  1.00  0.00     0.031 C 
ATOM     74  C   UNL     1     -13.385 -13.922   7.493  1.00  0.00     0.037 A 
BRANCH  61  75
ATOM     75  C   UNL     1     -11.572  -9.414  11.280  1.00  0.00     0.058 A 
ATOM     76  C   UNL     1     -12.829  -8.775  11.385  1.00  0.00     0.135 A 
ATOM     77  C   UNL     1     -10.666  -9.075  12.304  1.00  0.00     0.135 A 
ATOM     78  F   UNL     1     -13.847  -9.084  10.571  1.00  0.00    -0.206 F 
ATOM     79  C   UNL     1     -13.108  -7.784  12.329  1.00  0.00     0.059 A 
ATOM     80  C   UNL     1     -10.898  -8.046  13.225  1.00  0.00     0.059 A 
ATOM     81  F   UNL     1      -9.537  -9.772  12.491  1.00  0.00    -0.206 F 
ATOM     82  C   UNL     1     -12.120  -7.391  13.219  1.00  0.00     0.060 A 
BRANCH  82  83
ATOM     83  S   UNL     1     -12.464  -6.040  14.361  1.00  0.00     0.124 S 
ATOM     84  O   UNL     1     -12.913  -4.981  13.463  1.00  0.00    -0.237 OA
ATOM     85  O   UNL     1     -13.490  -6.622  15.220  1.00  0.00    -0.237 OA
ATOM     86  O   UNL     1     -11.173  -5.801  15.002  1.00  0.00    -0.744 OA
ENDBRANCH  82  83
ENDBRANCH  61  75
BRANCH  62  87
ATOM     87  C   UNL     1      -9.473 -13.904   2.922  1.00  0.00     0.058 A 
ATOM     88  C   UNL     1      -9.162 -13.534   1.601  1.00  0.00     0.135 A 
ATOM     89  C   UNL     1      -8.464 -14.504   3.689  1.00  0.00     0.135 A 
ATOM     90  F   UNL     1     -10.105 -12.984   0.818  1.00  0.00    -0.206 F 
ATOM     91  C   UNL     1      -7.859 -13.575   1.123  1.00  0.00     0.059 A 
ATOM     92  C   UNL     1      -7.149 -14.563   3.225  1.00  0.00     0.059 A 
ATOM     93  F   UNL     1      -8.710 -14.886   4.951  1.00  0.00    -0.206 F 
ATOM     94  C   UNL     1      -6.849 -14.018   1.976  1.00  0.00     0.060 A 
BRANCH  94  95
ATOM     95  S   UNL     1      -5.138 -13.675   1.500  1.00  0.00     0.124 S 
ATOM     96  O   UNL     1      -5.055 -14.295   0.181  1.00  0.00    -0.237 OA
ATOM     97  O   UNL     1      -5.121 -12.213   1.511  1.00  0.00    -0.237 OA
ATOM     98  O   UNL     1      -4.361 -14.322   2.550  1.00  0.00    -0.744 OA
ENDBRANCH  94  95
ENDBRANCH  62  87
BRANCH  74  99
ATOM     99  C   UNL     1     -14.203 -14.855   8.369  1.00  0.00     0.058 A 
ATOM    100  C   UNL     1     -14.222 -16.256   8.247  1.00  0.00     0.135 A 
ATOM    101  C   UNL     1     -14.930 -14.346   9.477  1.00  0.00     0.135 A 
ATOM    102  F   UNL     1     -13.476 -16.891   7.334  1.00  0.00    -0.206 F 
ATOM    103  C   UNL     1     -14.968 -17.079   9.097  1.00  0.00     0.059 A 
ATOM    104  C   UNL     1     -15.633 -15.152  10.371  1.00  0.00     0.059 A 
ATOM    105  F   UNL     1     -14.971 -13.033   9.749  1.00  0.00    -0.206 F 
ATOM    106  C   UNL     1     -15.675 -16.519  10.155  1.00  0.00     0.060 A 
BRANCH 106 107
ATOM    107  S   UNL     1     -16.587 -17.579  11.291  1.00  0.00     0.124 S 
ATOM    108  O   UNL     1     -17.904 -17.615  10.664  1.00  0.00    -0.237 OA
ATOM    109  O   UNL     1     -15.835 -18.830  11.245  1.00  0.00    -0.237 OA
ATOM    110  O   UNL     1     -16.507 -16.858  12.557  1.00  0.00    -0.744 OA
ENDBRANCH 106 107
ENDBRANCH  74  99
ENDBRANCH  48  49
ENDBRANCH  40  43
ENDBRANCH  38  39
ENDBRANCH  37  38
ENDBRANCH   1  37
TORSDOF 20
