REMARK SMILES O=C(NCCCNC(=O)c1ccc(-c2c3nc(c(-c4c(F)cc(S(=O)(=O)[O-])cc4F)c4ccc([nH]4)c(-c4c(F)cc(S(=O)(=O)[O-])cc4F)c4nc(c(-c5c(F)cc(S(=O)(=O)[O-])cc5F)c5ccc2[nH]5)C=C4)C=C3)cc1)c1ccc(C[C@H]2SC(=O)N(c3ccccc3)C2=O)cc1
REMARK SMILES IDX 5 1 4 2 3 3 1 4 2 5 76 7 77 8 95 9 78 10 94 11 79 12 80 13
REMARK SMILES IDX 81 14 82 15 92 16 83 17 85 18 93 19 84 20 86 21 87 22 91 23
REMARK SMILES IDX 88 24 90 25 89 26 6 27 7 28 8 29 9 31 10 32 11 33 75 34
REMARK SMILES IDX 12 35 74 36 13 37 14 38 15 39 68 40 16 41 73 42 67 43 69 44
REMARK SMILES IDX 17 45 72 46 66 47 65 48 18 50 52 51 31 52 51 53 32 54 35 55
REMARK SMILES IDX 50 56 70 57 33 58 34 59 49 61 71 62 36 63 19 64 20 65 29 66
REMARK SMILES IDX 21 67 22 68 28 69 30 70 23 71 24 72 25 73 26 74 27 75 53 76
REMARK SMILES IDX 54 77 63 78 55 79 56 80 62 81 64 82 57 83 58 84 59 85 60 86
REMARK SMILES IDX 61 87 37 88 38 89 47 90 39 91 40 92 46 93 48 94 41 95 42 96
REMARK SMILES IDX 43 97 44 98 45 99
REMARK H PARENT 3 6 7 30 69 49 35 60
REMARK Flexibility Score: inf
ROOT
ATOM      1  C   UNL     1       6.312   4.680   6.984  1.00  0.00     0.042 C 
ENDROOT
BRANCH   1   2
ATOM      2  C   UNL     1       7.672   3.999   7.075  1.00  0.00     0.118 C 
BRANCH   2   3
ATOM      3  N   UNL     1       8.033   3.636   8.440  1.00  0.00    -0.352 N 
ATOM      4  O   UNL     1       8.359   2.265  10.209  1.00  0.00    -0.269 OA
ATOM      5  C   UNL     1       8.184   2.391   9.001  1.00  0.00     0.251 C 
ATOM      6  H   UNL     1       8.192   4.394   9.049  1.00  0.00     0.163 HD
BRANCH   5   7
ATOM      7  C   UNL     1       8.118   1.194   8.141  1.00  0.00     0.039 A 
ATOM      8  C   UNL     1       8.986   1.058   7.057  1.00  0.00     0.014 A 
ATOM      9  C   UNL     1       7.171   0.206   8.418  1.00  0.00     0.014 A 
ATOM     10  C   UNL     1       8.833  -0.018   6.185  1.00  0.00     0.004 A 
ATOM     11  C   UNL     1       7.014  -0.866   7.536  1.00  0.00     0.004 A 
ATOM     12  C   UNL     1       7.816  -0.964   6.390  1.00  0.00    -0.046 A 
BRANCH  12  13
ATOM     13  C   UNL     1       7.559  -2.040   5.356  1.00  0.00     0.060 C 
BRANCH  13  14
ATOM     14  C   UNL     1       6.625  -1.601   4.210  1.00  0.00     0.151 C 
ATOM     15  S   UNL     1       7.348  -0.308   3.164  1.00  0.00    -0.050 SA
ATOM     16  C   UNL     1       6.406  -2.774   3.274  1.00  0.00     0.248 C 
ATOM     17  C   UNL     1       7.797  -1.449   1.917  1.00  0.00     0.293 C 
ATOM     18  N   UNL     1       7.117  -2.634   2.089  1.00  0.00    -0.240 N 
ATOM     19  O   UNL     1       5.766  -3.760   3.633  1.00  0.00    -0.273 OA
ATOM     20  O   UNL     1       8.594  -1.133   1.052  1.00  0.00    -0.261 OA
BRANCH  18  21
ATOM     21  C   UNL     1       7.167  -3.670   1.110  1.00  0.00     0.053 A 
ATOM     22  C   UNL     1       6.023  -4.424   0.808  1.00  0.00     0.027 A 
ATOM     23  C   UNL     1       8.349  -3.946   0.406  1.00  0.00     0.027 A 
ATOM     24  C   UNL     1       6.056  -5.410  -0.182  1.00  0.00     0.002 A 
ATOM     25  C   UNL     1       8.390  -4.954  -0.561  1.00  0.00     0.002 A 
ATOM     26  C   UNL     1       7.241  -5.680  -0.861  1.00  0.00     0.000 A 
ENDBRANCH  18  21
ENDBRANCH  13  14
ENDBRANCH  12  13
ENDBRANCH   5   7
ENDBRANCH   2   3
ENDBRANCH   1   2
BRANCH   1  27
ATOM     27  C   UNL     1       6.224   6.025   7.697  1.00  0.00     0.118 C 
BRANCH  27  28
ATOM     28  N   UNL     1       7.129   7.027   7.146  1.00  0.00    -0.352 N 
ATOM     29  C   UNL     1       6.870   8.213   6.499  1.00  0.00     0.251 C 
ATOM     30  H   UNL     1       8.085   6.820   7.256  1.00  0.00     0.163 HD
ATOM     31  O   UNL     1       7.799   8.827   5.980  1.00  0.00    -0.269 OA
BRANCH  29  32
ATOM     32  C   UNL     1       5.490   8.736   6.392  1.00  0.00     0.039 A 
ATOM     33  C   UNL     1       5.062   9.257   5.167  1.00  0.00     0.014 A 
ATOM     34  C   UNL     1       4.618   8.722   7.483  1.00  0.00     0.014 A 
ATOM     35  C   UNL     1       3.733   9.660   5.008  1.00  0.00     0.010 A 
ATOM     36  C   UNL     1       3.275   9.052   7.304  1.00  0.00     0.010 A 
ATOM     37  C   UNL     1       2.813   9.502   6.058  1.00  0.00    -0.014 A 
BRANCH  37  38
ATOM     38  C   UNL     1       1.358   9.727   5.852  1.00  0.00     0.031 A 
ATOM     39  C   UNL     1       0.626  10.791   6.622  1.00  0.00     0.074 A 
ATOM     40  C   UNL     1       0.677   8.900   5.032  1.00  0.00     0.049 A 
ATOM     41  N   UNL     1      -0.655  11.055   6.649  1.00  0.00    -0.248 NA
ATOM     42  C   UNL     1       1.437  11.659   7.491  1.00  0.00     0.031 C 
ATOM     43  C   UNL     1       1.265   7.799   4.264  1.00  0.00     0.029 A 
ATOM     44  N   UNL     1      -0.659   8.841   4.720  1.00  0.00    -0.354 N 
ATOM     45  C   UNL     1      -0.808  12.110   7.541  1.00  0.00     0.074 A 
ATOM     46  C   UNL     1       0.507  12.409   8.067  1.00  0.00     0.031 C 
ATOM     47  C   UNL     1       0.300   7.185   3.562  1.00  0.00     0.029 A 
ATOM     48  C   UNL     1      -0.981   7.813   3.864  1.00  0.00     0.049 A 
ATOM     49  H   UNL     1      -1.323   9.475   5.075  1.00  0.00     0.167 HD
ATOM     50  C   UNL     1      -1.939  12.777   7.876  1.00  0.00     0.037 A 
ATOM     51  C   UNL     1      -2.175   7.404   3.392  1.00  0.00     0.037 A 
ATOM     52  C   UNL     1      -3.243  12.482   7.338  1.00  0.00     0.049 A 
ATOM     53  C   UNL     1      -3.419   8.141   3.804  1.00  0.00     0.074 A 
ATOM     54  C   UNL     1      -4.437  13.145   7.566  1.00  0.00     0.029 A 
ATOM     55  N   UNL     1      -3.528  11.435   6.473  1.00  0.00    -0.354 N 
ATOM     56  N   UNL     1      -3.535   9.181   4.596  1.00  0.00    -0.248 NA
ATOM     57  C   UNL     1      -4.694   7.650   3.264  1.00  0.00     0.031 C 
ATOM     58  C   UNL     1      -5.452  12.468   6.881  1.00  0.00     0.029 A 
ATOM     59  C   UNL     1      -4.884  11.412   6.187  1.00  0.00     0.049 A 
ATOM     60  H   UNL     1      -2.865  10.801   6.117  1.00  0.00     0.167 HD
ATOM     61  C   UNL     1      -4.893   9.476   4.638  1.00  0.00     0.074 A 
ATOM     62  C   UNL     1      -5.555   8.519   3.775  1.00  0.00     0.031 C 
ATOM     63  C   UNL     1      -5.533  10.448   5.333  1.00  0.00     0.037 A 
BRANCH  50  64
ATOM     64  C   UNL     1      -1.822  13.897   8.874  1.00  0.00     0.058 A 
ATOM     65  C   UNL     1      -1.201  15.113   8.546  1.00  0.00     0.135 A 
ATOM     66  C   UNL     1      -2.383  13.775  10.156  1.00  0.00     0.135 A 
ATOM     67  F   UNL     1      -0.637  15.280   7.339  1.00  0.00    -0.206 F 
ATOM     68  C   UNL     1      -1.120  16.159   9.460  1.00  0.00     0.059 A 
ATOM     69  C   UNL     1      -2.337  14.818  11.077  1.00  0.00     0.059 A 
ATOM     70  F   UNL     1      -2.989  12.635  10.522  1.00  0.00    -0.206 F 
ATOM     71  C   UNL     1      -1.692  16.002  10.724  1.00  0.00     0.060 A 
BRANCH  71  72
ATOM     72  S   UNL     1      -1.586  17.373  11.893  1.00  0.00     0.124 S 
ATOM     73  O   UNL     1      -0.173  17.337  12.257  1.00  0.00    -0.237 OA
ATOM     74  O   UNL     1      -2.001  18.510  11.077  1.00  0.00    -0.237 OA
ATOM     75  O   UNL     1      -2.516  16.992  12.951  1.00  0.00    -0.744 OA
ENDBRANCH  71  72
ENDBRANCH  50  64
BRANCH  51  76
ATOM     76  C   UNL     1      -2.251   6.231   2.480  1.00  0.00     0.058 A 
ATOM     77  C   UNL     1      -2.583   6.390   1.127  1.00  0.00     0.135 A 
ATOM     78  C   UNL     1      -1.980   4.932   2.938  1.00  0.00     0.135 A 
ATOM     79  F   UNL     1      -2.859   7.611   0.643  1.00  0.00    -0.206 F 
ATOM     80  C   UNL     1      -2.658   5.303   0.262  1.00  0.00     0.059 A 
ATOM     81  C   UNL     1      -2.022   3.832   2.088  1.00  0.00     0.059 A 
ATOM     82  F   UNL     1      -1.642   4.727   4.221  1.00  0.00    -0.206 F 
ATOM     83  C   UNL     1      -2.372   4.027   0.752  1.00  0.00     0.060 A 
BRANCH  83  84
ATOM     84  S   UNL     1      -2.421   2.628  -0.389  1.00  0.00     0.124 S 
ATOM     85  O   UNL     1      -3.856   2.456  -0.582  1.00  0.00    -0.237 OA
ATOM     86  O   UNL     1      -1.678   3.142  -1.536  1.00  0.00    -0.237 OA
ATOM     87  O   UNL     1      -1.750   1.566   0.355  1.00  0.00    -0.744 OA
ENDBRANCH  83  84
ENDBRANCH  51  76
BRANCH  63  88
ATOM     88  C   UNL     1      -7.027  10.532   5.185  1.00  0.00     0.058 A 
ATOM     89  C   UNL     1      -7.876   9.584   5.778  1.00  0.00     0.135 A 
ATOM     90  C   UNL     1      -7.620  11.597   4.487  1.00  0.00     0.135 A 
ATOM     91  F   UNL     1      -7.361   8.540   6.447  1.00  0.00    -0.206 F 
ATOM     92  C   UNL     1      -9.260   9.678   5.668  1.00  0.00     0.059 A 
ATOM     93  C   UNL     1      -9.002  11.726   4.388  1.00  0.00     0.059 A 
ATOM     94  F   UNL     1      -6.854  12.535   3.908  1.00  0.00    -0.206 F 
ATOM     95  C   UNL     1      -9.813  10.755   4.973  1.00  0.00     0.060 A 
BRANCH  95  96
ATOM     96  S   UNL     1     -11.611  10.886   4.873  1.00  0.00     0.124 S 
ATOM     97  O   UNL     1     -11.930   9.826   3.922  1.00  0.00    -0.237 OA
ATOM     98  O   UNL     1     -12.020  10.644   6.253  1.00  0.00    -0.237 OA
ATOM     99  O   UNL     1     -11.827  12.247   4.391  1.00  0.00    -0.744 OA
ENDBRANCH  95  96
ENDBRANCH  63  88
ENDBRANCH  37  38
ENDBRANCH  29  32
ENDBRANCH  27  28
ENDBRANCH   1  27
TORSDOF 16
