REMARK SMILES COC(=O)c1ccc(C)c(NC(=O)[C@H]2CC=CC[C@H]2C(=O)NCCCNC(=O)c2ccc(-c3c4nc(c(-c5c(F)cc(S(=O)(=O)[O-])cc5F)c5ccc([nH]5)c(-c5c(F)cc(S(=O)(=O)[O-])cc5F)c5nc(c(-c6c(F)cc(S(=O)(=O)[O-])cc6F)c6ccc3[nH]6)C=C5)C=C4)cc2)c1
REMARK SMILES IDX 23 1 22 2 20 3 21 4 19 6 14 7 15 8 16 9 18 10 17 11 12 12
REMARK SMILES IDX 11 13 13 15 10 16 5 17 6 18 95 19 7 20 8 21 9 22 3 23 4 24
REMARK SMILES IDX 2 25 1 26 24 27 25 28 26 29 27 30 28 32 29 33 30 34 94 35
REMARK SMILES IDX 31 36 93 37 32 38 33 39 34 40 87 41 35 42 92 43 86 44 88 45
REMARK SMILES IDX 36 46 91 47 85 48 84 49 37 51 71 52 50 53 70 54 51 55 54 56
REMARK SMILES IDX 69 57 89 58 52 59 53 60 68 62 90 63 55 64 38 65 39 66 48 67
REMARK SMILES IDX 40 68 41 69 47 70 49 71 42 72 43 73 44 74 45 75 46 76 72 77
REMARK SMILES IDX 73 78 82 79 74 80 75 81 81 82 83 83 76 84 77 85 78 86 79 87
REMARK SMILES IDX 80 88 56 89 57 90 66 91 58 92 59 93 65 94 67 95 60 96 61 97
REMARK SMILES IDX 62 98 63 99 64 100
REMARK H PARENT 22 5 11 14 26 31 88 50 54 61
REMARK Flexibility Score: inf
ROOT
ATOM      1  C   UNL     1       9.061   0.381  -0.320  1.00  0.00     0.117 C 
ENDROOT
BRANCH   1   2
ATOM      2  N   UNL     1       9.472   1.134   0.860  1.00  0.00    -0.356 N 
ATOM      3  C   UNL     1       9.501   0.866   2.185  1.00  0.00     0.224 C 
ATOM      4  O   UNL     1       9.778   1.821   2.925  1.00  0.00    -0.275 OA
ATOM      5  H   UNL     1       9.801   2.036   0.643  1.00  0.00     0.163 HD
BRANCH   3   6
ATOM      6  C   UNL     1       9.188  -0.480   2.840  1.00  0.00     0.095 C 
ATOM      7  C   UNL     1       7.708  -0.648   3.247  1.00  0.00     0.095 C 
ATOM      8  C   UNL     1       7.532  -1.898   4.131  1.00  0.00     0.041 C 
ATOM      9  C   UNL     1       8.330  -3.091   3.682  1.00  0.00    -0.030 C 
ATOM     10  C   UNL     1       9.890  -1.717   2.279  1.00  0.00     0.041 C 
ATOM     11  C   UNL     1       9.377  -3.008   2.849  1.00  0.00    -0.030 C 
BRANCH   7  12
ATOM     12  C   UNL     1       6.750  -0.790   2.105  1.00  0.00     0.228 C 
ATOM     13  N   UNL     1       5.498  -0.280   2.054  1.00  0.00    -0.326 N 
ATOM     14  H   UNL     1       5.161  -0.385   1.135  1.00  0.00     0.169 HD
ATOM     15  O   UNL     1       7.064  -1.487   1.132  1.00  0.00    -0.274 OA
BRANCH  13  16
ATOM     16  C   UNL     1       4.489   0.348   2.825  1.00  0.00     0.044 A 
ATOM     17  C   UNL     1       2.090   0.954   2.598  1.00  0.00     0.062 A 
ATOM     18  C   UNL     1       2.022   1.270   3.942  1.00  0.00     0.016 A 
ATOM     19  C   UNL     1       3.312   0.521   2.060  1.00  0.00     0.042 A 
ATOM     20  C   UNL     1       3.181   1.178   4.709  1.00  0.00     0.006 A 
ATOM     21  C   UNL     1       4.424   0.729   4.176  1.00  0.00    -0.027 A 
ATOM     22  C   UNL     1       5.546   0.745   5.164  1.00  0.00     0.046 C 
BRANCH  17  23
ATOM     23  C   UNL     1       0.845   0.910   1.788  1.00  0.00     0.337 C 
ATOM     24  O   UNL     1      -0.280   0.875   2.256  1.00  0.00    -0.246 OA
BRANCH  23  25
ATOM     25  O   UNL     1       1.185   0.753   0.487  1.00  0.00    -0.465 OA
ATOM     26  C   UNL     1       0.305  -0.065  -0.278  1.00  0.00     0.282 C 
ENDBRANCH  23  25
ENDBRANCH  17  23
ENDBRANCH  13  16
ENDBRANCH   7  12
ENDBRANCH   3   6
ENDBRANCH   1   2
BRANCH   1  27
ATOM     27  C   UNL     1       7.621   0.687  -0.707  1.00  0.00     0.042 C 
BRANCH  27  28
ATOM     28  C   UNL     1       7.479   1.540  -1.957  1.00  0.00     0.118 C 
BRANCH  28  29
ATOM     29  N   UNL     1       6.746   0.809  -2.993  1.00  0.00    -0.352 N 
ATOM     30  C   UNL     1       5.885   1.294  -3.961  1.00  0.00     0.251 C 
ATOM     31  H   UNL     1       6.886  -0.166  -3.002  1.00  0.00     0.163 HD
ATOM     32  O   UNL     1       5.208   0.581  -4.669  1.00  0.00    -0.269 OA
BRANCH  30  33
ATOM     33  C   UNL     1       5.902   2.756  -4.141  1.00  0.00     0.039 A 
ATOM     34  C   UNL     1       6.783   3.241  -5.113  1.00  0.00     0.014 A 
ATOM     35  C   UNL     1       5.433   3.551  -3.100  1.00  0.00     0.014 A 
ATOM     36  C   UNL     1       7.380   4.478  -4.922  1.00  0.00     0.010 A 
ATOM     37  C   UNL     1       6.087   4.746  -2.874  1.00  0.00     0.010 A 
ATOM     38  C   UNL     1       7.107   5.171  -3.748  1.00  0.00    -0.014 A 
BRANCH  38  39
ATOM     39  C   UNL     1       7.886   6.314  -3.293  1.00  0.00     0.031 A 
ATOM     40  C   UNL     1       7.254   7.651  -3.291  1.00  0.00     0.074 A 
ATOM     41  C   UNL     1       9.129   6.145  -2.785  1.00  0.00     0.049 A 
ATOM     42  N   UNL     1       7.885   8.749  -3.061  1.00  0.00    -0.248 NA
ATOM     43  C   UNL     1       5.850   7.864  -3.644  1.00  0.00     0.031 C 
ATOM     44  C   UNL     1       9.862   7.075  -1.929  1.00  0.00     0.029 A 
ATOM     45  N   UNL     1      10.078   5.178  -3.136  1.00  0.00    -0.354 N 
ATOM     46  C   UNL     1       6.950   9.745  -2.932  1.00  0.00     0.074 A 
ATOM     47  C   UNL     1       5.728   9.178  -3.435  1.00  0.00     0.031 C 
ATOM     48  C   UNL     1      11.172   6.800  -2.001  1.00  0.00     0.029 A 
ATOM     49  C   UNL     1      11.345   5.792  -3.030  1.00  0.00     0.049 A 
ATOM     50  H   UNL     1       9.898   4.249  -3.405  1.00  0.00     0.167 HD
ATOM     51  C   UNL     1       7.304  10.883  -2.275  1.00  0.00     0.037 A 
ATOM     52  C   UNL     1      12.164   5.939  -4.114  1.00  0.00     0.037 A 
ATOM     53  C   UNL     1       8.762  10.996  -2.206  1.00  0.00     0.049 A 
ATOM     54  C   UNL     1      12.484   7.375  -4.461  1.00  0.00     0.074 A 
ATOM     55  C   UNL     1       9.694  10.840  -1.197  1.00  0.00     0.029 A 
ATOM     56  N   UNL     1       9.480  11.052  -3.400  1.00  0.00    -0.354 N 
ATOM     57  N   UNL     1      11.823   8.404  -4.004  1.00  0.00    -0.248 NA
ATOM     58  C   UNL     1      13.568   7.770  -5.356  1.00  0.00     0.031 C 
ATOM     59  C   UNL     1      10.972  10.690  -1.807  1.00  0.00     0.029 A 
ATOM     60  C   UNL     1      10.821  10.808  -3.179  1.00  0.00     0.049 A 
ATOM     61  H   UNL     1       9.085  11.240  -4.281  1.00  0.00     0.167 HD
ATOM     62  C   UNL     1      12.323   9.559  -4.548  1.00  0.00     0.074 A 
ATOM     63  C   UNL     1      13.440   9.110  -5.360  1.00  0.00     0.031 C 
ATOM     64  C   UNL     1      11.761  10.781  -4.296  1.00  0.00     0.037 A 
BRANCH  51  65
ATOM     65  C   UNL     1       6.341  11.786  -1.524  1.00  0.00     0.058 A 
ATOM     66  C   UNL     1       6.822  12.929  -0.845  1.00  0.00     0.135 A 
ATOM     67  C   UNL     1       4.972  11.511  -1.299  1.00  0.00     0.135 A 
ATOM     68  F   UNL     1       8.105  13.306  -0.947  1.00  0.00    -0.206 F 
ATOM     69  C   UNL     1       6.021  13.710  -0.000  1.00  0.00     0.059 A 
ATOM     70  C   UNL     1       4.144  12.302  -0.500  1.00  0.00     0.059 A 
ATOM     71  F   UNL     1       4.365  10.421  -1.778  1.00  0.00    -0.206 F 
ATOM     72  C   UNL     1       4.682  13.385   0.172  1.00  0.00     0.060 A 
BRANCH  72  73
ATOM     73  S   UNL     1       3.657  14.348   1.298  1.00  0.00     0.124 S 
ATOM     74  O   UNL     1       4.195  13.961   2.598  1.00  0.00    -0.237 OA
ATOM     75  O   UNL     1       3.929  15.718   0.876  1.00  0.00    -0.237 OA
ATOM     76  O   UNL     1       2.304  13.871   1.018  1.00  0.00    -0.744 OA
ENDBRANCH  72  73
ENDBRANCH  51  65
BRANCH  52  77
ATOM     77  C   UNL     1      12.071   4.802  -5.069  1.00  0.00     0.058 A 
ATOM     78  C   UNL     1      12.565   3.557  -4.633  1.00  0.00     0.135 A 
ATOM     79  C   UNL     1      11.130   4.801  -6.108  1.00  0.00     0.135 A 
ATOM     80  F   UNL     1      13.485   3.505  -3.656  1.00  0.00    -0.206 F 
ATOM     81  C   UNL     1      12.009   2.360  -5.068  1.00  0.00     0.059 A 
ATOM     82  C   UNL     1      10.565   3.608  -6.567  1.00  0.00     0.059 A 
ATOM     83  F   UNL     1      10.632   5.957  -6.570  1.00  0.00    -0.206 F 
ATOM     84  C   UNL     1      10.957   2.404  -5.980  1.00  0.00     0.060 A 
BRANCH  84  85
ATOM     85  S   UNL     1       9.981   0.896  -6.201  1.00  0.00     0.124 S 
ATOM     86  O   UNL     1      10.969  -0.029  -6.744  1.00  0.00    -0.237 OA
ATOM     87  O   UNL     1       9.547   0.626  -4.831  1.00  0.00    -0.237 OA
ATOM     88  O   UNL     1       8.928   1.309  -7.122  1.00  0.00    -0.744 OA
ENDBRANCH  84  85
ENDBRANCH  52  77
BRANCH  64  89
ATOM     89  C   UNL     1      12.074  12.080  -5.018  1.00  0.00     0.058 A 
ATOM     90  C   UNL     1      12.579  12.166  -6.328  1.00  0.00     0.135 A 
ATOM     91  C   UNL     1      11.730  13.324  -4.428  1.00  0.00     0.135 A 
ATOM     92  F   UNL     1      12.828  11.069  -7.057  1.00  0.00    -0.206 F 
ATOM     93  C   UNL     1      12.799  13.387  -6.974  1.00  0.00     0.059 A 
ATOM     94  C   UNL     1      11.884  14.548  -5.076  1.00  0.00     0.059 A 
ATOM     95  F   UNL     1      11.210  13.393  -3.193  1.00  0.00    -0.206 F 
ATOM     96  C   UNL     1      12.450  14.574  -6.341  1.00  0.00     0.060 A 
BRANCH  96  97
ATOM     97  S   UNL     1      12.670  16.150  -7.188  1.00  0.00     0.124 S 
ATOM     98  O   UNL     1      14.004  16.537  -6.742  1.00  0.00    -0.237 OA
ATOM     99  O   UNL     1      12.560  15.781  -8.597  1.00  0.00    -0.237 OA
ATOM    100  O   UNL     1      11.569  16.959  -6.675  1.00  0.00    -0.744 OA
ENDBRANCH  96  97
ENDBRANCH  64  89
ENDBRANCH  38  39
ENDBRANCH  30  33
ENDBRANCH  28  29
ENDBRANCH  27  28
ENDBRANCH   1  27
TORSDOF 17
