REMARK SMILES CCc1ccc(C[N@H+]2CC[C@@H](C(=O)NCCCNC(=O)c3ccc(-c4c5nc(c(-c6c(F)cc(S(=O)(=O)[O-])cc6F)c6ccc([nH]6)c(-c6c(F)cc(S(=O)(=O)[O-])cc6F)c6nc(c(-c7c(F)cc(S(=O)(=O)[O-])cc7F)c7ccc4[nH]7)C=C6)C=C5)cc3)[C@@H]2C)cc1
REMARK SMILES IDX 16 1 15 2 14 3 12 4 13 5 11 7 8 8 9 9 87 10 10 12 88 13 7 14
REMARK SMILES IDX 6 15 3 16 4 17 90 18 5 19 89 20 2 21 1 22 17 23 18 24 19 25
REMARK SMILES IDX 20 27 21 28 22 29 86 30 23 31 85 32 24 33 25 34 26 35 79 36
REMARK SMILES IDX 27 37 84 38 78 39 80 40 28 41 83 42 77 43 76 44 29 46 63 47
REMARK SMILES IDX 42 48 62 49 43 50 46 51 61 52 81 53 44 54 45 55 60 57 82 58
REMARK SMILES IDX 47 59 30 60 31 61 40 62 32 63 33 64 39 65 41 66 34 67 35 68
REMARK SMILES IDX 36 69 37 70 38 71 64 72 65 73 74 74 66 75 67 76 73 77 75 78
REMARK SMILES IDX 68 79 69 80 70 81 71 82 72 83 48 84 49 85 58 86 50 87 51 88
REMARK SMILES IDX 57 89 59 90 52 91 53 92 54 93 55 94 56 95
REMARK H PARENT 14 6 8 11 18 26 80 45 46 56
REMARK Flexibility Score: inf
ROOT
ATOM      1  C   UNL     1       0.518  -3.426  -2.391  1.00  0.00     0.042 C 
ENDROOT
BRANCH   1   2
ATOM      2  C   UNL     1       1.929  -2.888  -2.169  1.00  0.00     0.117 C 
BRANCH   2   3
ATOM      3  N   UNL     1       2.867  -3.954  -1.905  1.00  0.00    -0.356 N 
ATOM      4  C   UNL     1       3.865  -4.450  -2.679  1.00  0.00     0.229 C 
ATOM      5  O   UNL     1       4.516  -5.390  -2.207  1.00  0.00    -0.275 OA
ATOM      6  H   UNL     1       2.768  -4.388  -1.027  1.00  0.00     0.163 HD
BRANCH   4   7
ATOM      7  C   UNL     1       4.247  -3.876  -4.038  1.00  0.00     0.142 C 
ATOM      8  N   UNL     1       3.547  -2.586  -5.940  1.00  0.00    -0.328 N 
ATOM      9  C   UNL     1       4.824  -2.082  -5.447  1.00  0.00     0.263 C 
ATOM     10  C   UNL     1       3.161  -3.756  -5.123  1.00  0.00     0.193 C 
ATOM     11  H   UNL     1       3.679  -2.908  -6.899  1.00  0.00     0.348 HD
ATOM     12  C   UNL     1       4.884  -2.497  -3.987  1.00  0.00     0.081 C 
ATOM     13  C   UNL     1       3.167  -5.003  -6.013  1.00  0.00     0.076 C 
BRANCH   8  14
ATOM     14  C   UNL     1       2.503  -1.595  -6.256  1.00  0.00     0.299 C 
BRANCH  14  15
ATOM     15  C   UNL     1       2.026  -0.660  -5.157  1.00  0.00     0.006 A 
ATOM     16  C   UNL     1       1.216   0.904  -2.932  1.00  0.00    -0.048 A 
ATOM     17  C   UNL     1       0.335  -0.009  -3.519  1.00  0.00     0.004 A 
ATOM     18  C   UNL     1       2.455   1.115  -3.538  1.00  0.00     0.004 A 
ATOM     19  C   UNL     1       0.732  -0.772  -4.628  1.00  0.00     0.010 A 
ATOM     20  C   UNL     1       2.841   0.360  -4.648  1.00  0.00     0.010 A 
BRANCH  16  21
ATOM     21  C   UNL     1       0.861   1.626  -1.656  1.00  0.00     0.032 C 
ATOM     22  C   UNL     1       1.640   1.082  -0.462  1.00  0.00     0.009 C 
ENDBRANCH  16  21
ENDBRANCH  14  15
ENDBRANCH   8  14
ENDBRANCH   4   7
ENDBRANCH   2   3
ENDBRANCH   1   2
BRANCH   1  23
ATOM     23  C   UNL     1      -0.332  -3.497  -1.129  1.00  0.00     0.118 C 
BRANCH  23  24
ATOM     24  N   UNL     1      -0.441  -2.219  -0.428  1.00  0.00    -0.352 N 
ATOM     25  C   UNL     1      -1.472  -1.330  -0.281  1.00  0.00     0.251 C 
ATOM     26  H   UNL     1       0.388  -1.944   0.028  1.00  0.00     0.163 HD
ATOM     27  O   UNL     1      -1.250  -0.233   0.242  1.00  0.00    -0.269 OA
BRANCH  25  28
ATOM     28  C   UNL     1      -2.839  -1.646  -0.728  1.00  0.00     0.039 A 
ATOM     29  C   UNL     1      -3.646  -0.630  -1.258  1.00  0.00     0.014 A 
ATOM     30  C   UNL     1      -3.361  -2.926  -0.552  1.00  0.00     0.014 A 
ATOM     31  C   UNL     1      -4.956  -0.913  -1.651  1.00  0.00     0.010 A 
ATOM     32  C   UNL     1      -4.622  -3.232  -1.040  1.00  0.00     0.010 A 
ATOM     33  C   UNL     1      -5.443  -2.224  -1.565  1.00  0.00    -0.014 A 
BRANCH  33  34
ATOM     34  C   UNL     1      -6.830  -2.592  -1.937  1.00  0.00     0.031 A 
ATOM     35  C   UNL     1      -7.730  -3.180  -0.883  1.00  0.00     0.074 A 
ATOM     36  C   UNL     1      -7.221  -2.528  -3.223  1.00  0.00     0.049 A 
ATOM     37  N   UNL     1      -8.873  -3.797  -1.017  1.00  0.00    -0.248 NA
ATOM     38  C   UNL     1      -7.244  -3.111   0.506  1.00  0.00     0.031 C 
ATOM     39  C   UNL     1      -6.414  -2.010  -4.329  1.00  0.00     0.029 A 
ATOM     40  N   UNL     1      -8.384  -2.937  -3.821  1.00  0.00    -0.354 N 
ATOM     41  C   UNL     1      -9.218  -4.231   0.259  1.00  0.00     0.074 A 
ATOM     42  C   UNL     1      -8.137  -3.853   1.142  1.00  0.00     0.031 C 
ATOM     43  C   UNL     1      -7.108  -2.131  -5.472  1.00  0.00     0.029 A 
ATOM     44  C   UNL     1      -8.384  -2.779  -5.186  1.00  0.00     0.049 A 
ATOM     45  H   UNL     1      -9.147  -3.308  -3.321  1.00  0.00     0.167 HD
ATOM     46  C   UNL     1     -10.343  -4.870   0.658  1.00  0.00     0.037 A 
ATOM     47  C   UNL     1      -9.301  -3.141  -6.104  1.00  0.00     0.037 A 
ATOM     48  C   UNL     1     -11.425  -5.195  -0.234  1.00  0.00     0.049 A 
ATOM     49  C   UNL     1     -10.559  -3.821  -5.639  1.00  0.00     0.074 A 
ATOM     50  C   UNL     1     -12.643  -5.777   0.063  1.00  0.00     0.029 A 
ATOM     51  N   UNL     1     -11.416  -4.958  -1.603  1.00  0.00    -0.354 N 
ATOM     52  N   UNL     1     -10.894  -4.190  -4.424  1.00  0.00    -0.248 NA
ATOM     53  C   UNL     1     -11.566  -4.127  -6.662  1.00  0.00     0.031 C 
ATOM     54  C   UNL     1     -13.355  -5.927  -1.133  1.00  0.00     0.029 A 
ATOM     55  C   UNL     1     -12.602  -5.392  -2.167  1.00  0.00     0.049 A 
ATOM     56  H   UNL     1     -10.674  -4.541  -2.098  1.00  0.00     0.167 HD
ATOM     57  C   UNL     1     -12.161  -4.750  -4.532  1.00  0.00     0.074 A 
ATOM     58  C   UNL     1     -12.535  -4.661  -5.930  1.00  0.00     0.031 C 
ATOM     59  C   UNL     1     -12.947  -5.286  -3.565  1.00  0.00     0.037 A 
BRANCH  46  60
ATOM     60  C   UNL     1     -10.449  -5.254   2.111  1.00  0.00     0.058 A 
ATOM     61  C   UNL     1     -10.548  -4.290   3.129  1.00  0.00     0.135 A 
ATOM     62  C   UNL     1     -10.440  -6.605   2.495  1.00  0.00     0.135 A 
ATOM     63  F   UNL     1     -10.547  -2.982   2.825  1.00  0.00    -0.206 F 
ATOM     64  C   UNL     1     -10.582  -4.648   4.473  1.00  0.00     0.059 A 
ATOM     65  C   UNL     1     -10.509  -6.988   3.833  1.00  0.00     0.059 A 
ATOM     66  F   UNL     1     -10.349  -7.572   1.568  1.00  0.00    -0.206 F 
ATOM     67  C   UNL     1     -10.555  -6.000   4.816  1.00  0.00     0.060 A 
BRANCH  67  68
ATOM     68  S   UNL     1     -10.575  -6.448   6.564  1.00  0.00     0.124 S 
ATOM     69  O   UNL     1      -9.217  -6.096   6.969  1.00  0.00    -0.237 OA
ATOM     70  O   UNL     1     -11.634  -5.594   7.093  1.00  0.00    -0.237 OA
ATOM     71  O   UNL     1     -10.875  -7.876   6.547  1.00  0.00    -0.744 OA
ENDBRANCH  67  68
ENDBRANCH  46  60
BRANCH  47  72
ATOM     72  C   UNL     1      -9.063  -2.833  -7.539  1.00  0.00     0.058 A 
ATOM     73  C   UNL     1      -9.780  -1.813  -8.181  1.00  0.00     0.135 A 
ATOM     74  C   UNL     1      -8.076  -3.503  -8.279  1.00  0.00     0.135 A 
ATOM     75  F   UNL     1     -10.737  -1.147  -7.516  1.00  0.00    -0.206 F 
ATOM     76  C   UNL     1      -9.528  -1.465  -9.504  1.00  0.00     0.059 A 
ATOM     77  C   UNL     1      -7.789  -3.158  -9.597  1.00  0.00     0.059 A 
ATOM     78  F   UNL     1      -7.348  -4.474  -7.706  1.00  0.00    -0.206 F 
ATOM     79  C   UNL     1      -8.523  -2.138 -10.201  1.00  0.00     0.060 A 
BRANCH  79  80
ATOM     80  S   UNL     1      -8.148  -1.618 -11.890  1.00  0.00     0.124 S 
ATOM     81  O   UNL     1      -9.314  -2.110 -12.615  1.00  0.00    -0.237 OA
ATOM     82  O   UNL     1      -8.050  -0.168 -11.748  1.00  0.00    -0.237 OA
ATOM     83  O   UNL     1      -6.890  -2.298 -12.180  1.00  0.00    -0.744 OA
ENDBRANCH  79  80
ENDBRANCH  47  72
BRANCH  59  84
ATOM     84  C   UNL     1     -14.303  -5.786  -3.979  1.00  0.00     0.058 A 
ATOM     85  C   UNL     1     -14.460  -6.973  -4.711  1.00  0.00     0.135 A 
ATOM     86  C   UNL     1     -15.461  -5.098  -3.582  1.00  0.00     0.135 A 
ATOM     87  F   UNL     1     -13.384  -7.663  -5.119  1.00  0.00    -0.206 F 
ATOM     88  C   UNL     1     -15.720  -7.449  -5.054  1.00  0.00     0.059 A 
ATOM     89  C   UNL     1     -16.731  -5.572  -3.890  1.00  0.00     0.059 A 
ATOM     90  F   UNL     1     -15.364  -3.964  -2.870  1.00  0.00    -0.206 F 
ATOM     91  C   UNL     1     -16.850  -6.743  -4.636  1.00  0.00     0.060 A 
BRANCH  91  92
ATOM     92  S   UNL     1     -18.480  -7.394  -5.056  1.00  0.00     0.124 S 
ATOM     93  O   UNL     1     -18.559  -7.091  -6.481  1.00  0.00    -0.237 OA
ATOM     94  O   UNL     1     -18.350  -8.807  -4.714  1.00  0.00    -0.237 OA
ATOM     95  O   UNL     1     -19.382  -6.629  -4.200  1.00  0.00    -0.744 OA
ENDBRANCH  91  92
ENDBRANCH  59  84
ENDBRANCH  33  34
ENDBRANCH  25  28
ENDBRANCH  23  24
ENDBRANCH   1  23
TORSDOF 16
