REMARK SMILES CCC(C)(C)[C@@H]1CCc2c(sc(=O)n2CCCC(=O)NCCCNC(=O)c2ccc(-c3c4nc(c(-c5c(F)cc(S(=O)(=O)[O-])cc5F)c5ccc([nH]5)c(-c5c(F)cc(S(=O)(=O)[O-])cc5F)c5nc(c(-c6c(F)cc(S(=O)(=O)[O-])cc6F)c6ccc3[nH]6)C=C5)C=C4)cc2)C1
REMARK SMILES IDX 21 1 20 2 18 3 19 4 17 6 16 7 15 8 14 9 6 10 7 11 93 12 8 13
REMARK SMILES IDX 10 14 9 15 11 16 12 17 13 18 3 19 4 20 5 21 2 22 1 23 22 24
REMARK SMILES IDX 23 25 24 26 25 27 26 29 27 30 28 31 92 32 29 33 91 34 30 35
REMARK SMILES IDX 31 36 32 37 85 38 33 39 90 40 84 41 86 42 34 43 89 44 83 45
REMARK SMILES IDX 82 46 35 48 69 49 48 50 68 51 49 52 52 53 67 54 87 55 50 56
REMARK SMILES IDX 51 57 66 59 88 60 53 61 36 62 37 63 46 64 38 65 39 66 45 67
REMARK SMILES IDX 47 68 40 69 41 70 42 71 43 72 44 73 70 74 71 75 80 76 72 77
REMARK SMILES IDX 73 78 79 79 81 80 74 81 75 82 76 83 77 84 78 85 54 86 55 87
REMARK SMILES IDX 64 88 56 89 57 90 63 91 65 92 58 93 59 94 60 95 61 96 62 97
REMARK H PARENT 20 5 24 28 86 47 52 58
REMARK Flexibility Score: inf
ROOT
ATOM      1  C   UNL     1       0.696  -5.387  -0.763  1.00  0.00     0.117 C 
ENDROOT
BRANCH   1   2
ATOM      2  N   UNL     1       0.918  -6.074  -2.021  1.00  0.00    -0.356 N 
ATOM      3  C   UNL     1       2.048  -6.380  -2.708  1.00  0.00     0.220 C 
ATOM      4  O   UNL     1       1.904  -7.051  -3.735  1.00  0.00    -0.275 OA
ATOM      5  H   UNL     1       0.091  -6.377  -2.461  1.00  0.00     0.163 HD
BRANCH   3   6
ATOM      6  C   UNL     1       3.447  -6.029  -2.237  1.00  0.00     0.102 C 
BRANCH   6   7
ATOM      7  C   UNL     1       3.949  -4.587  -2.280  1.00  0.00     0.032 C 
BRANCH   7   8
ATOM      8  C   UNL     1       3.442  -3.508  -1.327  1.00  0.00     0.127 C 
BRANCH   8   9
ATOM      9  N   UNL     1       3.690  -3.519   0.123  1.00  0.00    -0.303 N 
ATOM     10  C   UNL     1       2.624  -0.173   2.581  1.00  0.00     0.000 C 
ATOM     11  C   UNL     1       3.373   0.164   1.270  1.00  0.00     0.011 C 
ATOM     12  C   UNL     1       3.275  -1.446   3.188  1.00  0.00     0.053 C 
ATOM     13  C   UNL     1       3.437  -0.980   0.237  1.00  0.00     0.055 C 
ATOM     14  C   UNL     1       3.505  -2.519   2.187  1.00  0.00     0.030 A 
ATOM     15  C   UNL     1       3.550  -2.338   0.862  1.00  0.00     0.035 A 
ATOM     16  S   UNL     1       3.718  -4.169   2.629  1.00  0.00    -0.079 S 
ATOM     17  C   UNL     1       3.823  -4.646   0.928  1.00  0.00     0.307 A 
ATOM     18  O   UNL     1       3.948  -5.825   0.628  1.00  0.00    -0.257 OA
BRANCH  10  19
ATOM     19  C   UNL     1       1.031  -0.108   2.530  1.00  0.00    -0.032 C 
ATOM     20  C   UNL     1       0.615   1.367   2.756  1.00  0.00     0.011 C 
ATOM     21  C   UNL     1       0.416  -0.915   3.703  1.00  0.00     0.011 C 
BRANCH  19  22
ATOM     22  C   UNL     1       0.348  -0.646   1.238  1.00  0.00     0.003 C 
ATOM     23  C   UNL     1       0.228   0.295   0.041  1.00  0.00     0.004 C 
ENDBRANCH  19  22
ENDBRANCH  10  19
ENDBRANCH   8   9
ENDBRANCH   7   8
ENDBRANCH   6   7
ENDBRANCH   3   6
ENDBRANCH   1   2
BRANCH   1  24
ATOM     24  C   UNL     1       0.082  -3.997  -0.971  1.00  0.00     0.042 C 
BRANCH  24  25
ATOM     25  C   UNL     1      -1.429  -4.010  -1.014  1.00  0.00     0.118 C 
BRANCH  25  26
ATOM     26  N   UNL     1      -2.052  -4.152   0.306  1.00  0.00    -0.352 N 
ATOM     27  C   UNL     1      -3.409  -4.116   0.596  1.00  0.00     0.251 C 
ATOM     28  H   UNL     1      -1.443  -4.287   1.067  1.00  0.00     0.163 HD
ATOM     29  O   UNL     1      -3.808  -3.894   1.732  1.00  0.00    -0.269 OA
BRANCH  27  30
ATOM     30  C   UNL     1      -4.351  -4.345  -0.514  1.00  0.00     0.039 A 
ATOM     31  C   UNL     1      -5.502  -3.576  -0.700  1.00  0.00     0.014 A 
ATOM     32  C   UNL     1      -3.975  -5.299  -1.451  1.00  0.00     0.014 A 
ATOM     33  C   UNL     1      -6.205  -3.715  -1.896  1.00  0.00     0.010 A 
ATOM     34  C   UNL     1      -4.504  -5.240  -2.706  1.00  0.00     0.010 A 
ATOM     35  C   UNL     1      -5.676  -4.529  -2.911  1.00  0.00    -0.014 A 
BRANCH  35  36
ATOM     36  C   UNL     1      -6.265  -4.593  -4.242  1.00  0.00     0.031 A 
ATOM     37  C   UNL     1      -6.461  -3.267  -4.887  1.00  0.00     0.074 A 
ATOM     38  C   UNL     1      -6.394  -5.758  -4.918  1.00  0.00     0.049 A 
ATOM     39  N   UNL     1      -7.580  -2.665  -5.116  1.00  0.00    -0.248 NA
ATOM     40  C   UNL     1      -5.278  -2.426  -5.143  1.00  0.00     0.031 C 
ATOM     41  C   UNL     1      -5.942  -7.103  -4.530  1.00  0.00     0.029 A 
ATOM     42  N   UNL     1      -6.864  -5.968  -6.175  1.00  0.00    -0.354 N 
ATOM     43  C   UNL     1      -7.251  -1.491  -5.786  1.00  0.00     0.074 A 
ATOM     44  C   UNL     1      -5.842  -1.293  -5.569  1.00  0.00     0.031 C 
ATOM     45  C   UNL     1      -5.922  -7.910  -5.613  1.00  0.00     0.029 A 
ATOM     46  C   UNL     1      -6.532  -7.207  -6.722  1.00  0.00     0.049 A 
ATOM     47  H   UNL     1      -7.396  -5.298  -6.661  1.00  0.00     0.167 HD
ATOM     48  C   UNL     1      -8.114  -0.926  -6.678  1.00  0.00     0.037 A 
ATOM     49  C   UNL     1      -6.720  -7.596  -8.010  1.00  0.00     0.037 A 
ATOM     50  C   UNL     1      -9.437  -1.488  -6.535  1.00  0.00     0.049 A 
ATOM     51  C   UNL     1      -7.766  -6.694  -8.572  1.00  0.00     0.074 A 
ATOM     52  C   UNL     1     -10.329  -1.592  -5.483  1.00  0.00     0.029 A 
ATOM     53  N   UNL     1      -9.835  -2.431  -7.454  1.00  0.00    -0.354 N 
ATOM     54  N   UNL     1      -9.004  -6.677  -8.149  1.00  0.00    -0.248 NA
ATOM     55  C   UNL     1      -7.314  -5.471  -9.218  1.00  0.00     0.031 C 
ATOM     56  C   UNL     1     -10.862  -2.910  -5.588  1.00  0.00     0.029 A 
ATOM     57  C   UNL     1     -10.352  -3.492  -6.750  1.00  0.00     0.049 A 
ATOM     58  H   UNL     1      -9.763  -2.360  -8.433  1.00  0.00     0.167 HD
ATOM     59  C   UNL     1      -9.341  -5.332  -8.080  1.00  0.00     0.074 A 
ATOM     60  C   UNL     1      -8.277  -4.639  -8.809  1.00  0.00     0.031 C 
ATOM     61  C   UNL     1     -10.272  -4.869  -7.192  1.00  0.00     0.037 A 
BRANCH  48  62
ATOM     62  C   UNL     1      -7.699  -0.154  -7.909  1.00  0.00     0.058 A 
ATOM     63  C   UNL     1      -8.685   0.507  -8.671  1.00  0.00     0.135 A 
ATOM     64  C   UNL     1      -6.429  -0.256  -8.520  1.00  0.00     0.135 A 
ATOM     65  F   UNL     1      -9.932   0.656  -8.196  1.00  0.00    -0.206 F 
ATOM     66  C   UNL     1      -8.447   0.967  -9.967  1.00  0.00     0.059 A 
ATOM     67  C   UNL     1      -6.155   0.245  -9.787  1.00  0.00     0.059 A 
ATOM     68  F   UNL     1      -5.415  -0.928  -7.963  1.00  0.00    -0.206 F 
ATOM     69  C   UNL     1      -7.179   0.820 -10.520  1.00  0.00     0.060 A 
BRANCH  69  70
ATOM     70  S   UNL     1      -6.888   1.338 -12.219  1.00  0.00     0.124 S 
ATOM     71  O   UNL     1      -7.677   0.361 -12.960  1.00  0.00    -0.237 OA
ATOM     72  O   UNL     1      -7.404   2.704 -12.209  1.00  0.00    -0.237 OA
ATOM     73  O   UNL     1      -5.440   1.223 -12.362  1.00  0.00    -0.744 OA
ENDBRANCH  69  70
ENDBRANCH  48  62
BRANCH  49  74
ATOM     74  C   UNL     1      -5.797  -8.407  -8.855  1.00  0.00     0.058 A 
ATOM     75  C   UNL     1      -6.192  -8.896 -10.114  1.00  0.00     0.135 A 
ATOM     76  C   UNL     1      -4.417  -8.489  -8.570  1.00  0.00     0.135 A 
ATOM     77  F   UNL     1      -7.481  -8.843 -10.481  1.00  0.00    -0.206 F 
ATOM     78  C   UNL     1      -5.271  -9.387 -11.051  1.00  0.00     0.059 A 
ATOM     79  C   UNL     1      -3.484  -8.983  -9.482  1.00  0.00     0.059 A 
ATOM     80  F   UNL     1      -3.915  -8.004  -7.425  1.00  0.00    -0.206 F 
ATOM     81  C   UNL     1      -3.914  -9.406 -10.733  1.00  0.00     0.060 A 
BRANCH  81  82
ATOM     82  S   UNL     1      -2.702  -9.863 -11.998  1.00  0.00     0.124 S 
ATOM     83  O   UNL     1      -2.951 -11.292 -12.154  1.00  0.00    -0.237 OA
ATOM     84  O   UNL     1      -3.096  -9.021 -13.122  1.00  0.00    -0.237 OA
ATOM     85  O   UNL     1      -1.422  -9.516 -11.384  1.00  0.00    -0.744 OA
ENDBRANCH  81  82
ENDBRANCH  49  74
BRANCH  61  86
ATOM     86  C   UNL     1     -11.143  -5.859  -6.454  1.00  0.00     0.058 A 
ATOM     87  C   UNL     1     -10.674  -6.839  -5.560  1.00  0.00     0.135 A 
ATOM     88  C   UNL     1     -12.533  -5.680  -6.525  1.00  0.00     0.135 A 
ATOM     89  F   UNL     1      -9.362  -7.007  -5.345  1.00  0.00    -0.206 F 
ATOM     90  C   UNL     1     -11.547  -7.629  -4.806  1.00  0.00     0.059 A 
ATOM     91  C   UNL     1     -13.420  -6.431  -5.759  1.00  0.00     0.059 A 
ATOM     92  F   UNL     1     -13.048  -4.719  -7.310  1.00  0.00    -0.206 F 
ATOM     93  C   UNL     1     -12.921  -7.416  -4.911  1.00  0.00     0.060 A 
BRANCH  93  94
ATOM     94  S   UNL     1     -14.051  -8.393  -3.897  1.00  0.00     0.124 S 
ATOM     95  O   UNL     1     -13.934  -9.717  -4.497  1.00  0.00    -0.237 OA
ATOM     96  O   UNL     1     -13.483  -8.249  -2.559  1.00  0.00    -0.237 OA
ATOM     97  O   UNL     1     -15.341  -7.733  -4.090  1.00  0.00    -0.744 OA
ENDBRANCH  93  94
ENDBRANCH  61  86
ENDBRANCH  35  36
ENDBRANCH  27  30
ENDBRANCH  25  26
ENDBRANCH  24  25
ENDBRANCH   1  24
TORSDOF 18
