REMARK SMILES C[C@H]1[C@@H](C(=O)NCCCNC(=O)c2ccc(-c3c4nc(c(-c5c(F)cc(S(=O)(=O)[O-])cc5F)c5ccc([nH]5)c(-c5c(F)cc(S(=O)(=O)[O-])cc5F)c5nc(c(-c6c(F)cc(S(=O)(=O)[O-])cc6F)c6ccc3[nH]6)C=C5)C=C4)cc2)CC[N@@H+]1CC(F)(F)F
REMARK SMILES IDX 8 1 7 2 6 3 4 4 5 5 3 7 1 8 2 9 81 10 79 11 80 12 82 14
REMARK SMILES IDX 83 15 84 16 85 17 86 18 9 19 10 20 11 21 12 23 13 24 14 25
REMARK SMILES IDX 78 26 15 27 77 28 16 29 17 30 18 31 71 32 19 33 76 34 70 35
REMARK SMILES IDX 72 36 20 37 75 38 69 39 68 40 21 42 55 43 34 44 54 45 35 46
REMARK SMILES IDX 38 47 53 48 73 49 36 50 37 51 52 53 74 54 39 55 22 56 23 57
REMARK SMILES IDX 32 58 24 59 25 60 31 61 33 62 26 63 27 64 28 65 29 66 30 67
REMARK SMILES IDX 56 68 57 69 66 70 58 71 59 72 65 73 67 74 60 75 61 76 62 77
REMARK SMILES IDX 63 78 64 79 40 80 41 81 50 82 42 83 43 84 49 85 51 86 44 87
REMARK SMILES IDX 45 88 46 89 47 90 48 91
REMARK H PARENT 6 6 81 13 10 22 72 41 38 52
REMARK Flexibility Score: inf
ROOT
ATOM      1  C   UNL     1       3.816   0.716  -1.650  1.00  0.00     0.042 C 
ENDROOT
BRANCH   1   2
ATOM      2  C   UNL     1       2.928   1.782  -1.003  1.00  0.00     0.117 C 
BRANCH   2   3
ATOM      3  N   UNL     1       1.663   1.866  -1.709  1.00  0.00    -0.356 N 
ATOM      4  C   UNL     1       0.434   1.363  -1.412  1.00  0.00     0.229 C 
ATOM      5  O   UNL     1      -0.385   1.356  -2.334  1.00  0.00    -0.275 OA
ATOM      6  H   UNL     1       1.700   2.377  -2.550  1.00  0.00     0.163 HD
BRANCH   4   7
ATOM      7  C   UNL     1       0.056   0.979   0.021  1.00  0.00     0.142 C 
ATOM      8  C   UNL     1       1.604  -1.165  -0.034  1.00  0.00     0.076 C 
ATOM      9  C   UNL     1       0.478  -0.383   0.612  1.00  0.00     0.193 C 
ATOM     10  N   UNL     1      -0.707  -1.267   0.602  1.00  0.00    -0.325 N 
ATOM     11  C   UNL     1      -1.475   0.920   0.144  1.00  0.00     0.081 C 
ATOM     12  C   UNL     1      -1.789  -0.549  -0.067  1.00  0.00     0.263 C 
ATOM     13  H   UNL     1      -0.507  -2.118   0.076  1.00  0.00     0.348 HD
BRANCH  10  14
ATOM     14  C   UNL     1      -1.054  -1.795   1.945  1.00  0.00     0.379 C 
BRANCH  14  15
ATOM     15  C   UNL     1      -1.642  -0.880   3.037  1.00  0.00     0.438 C 
ATOM     16  F   UNL     1      -2.879  -0.441   2.712  1.00  0.00    -0.165 F 
ATOM     17  F   UNL     1      -1.751  -1.549   4.210  1.00  0.00    -0.165 F 
ATOM     18  F   UNL     1      -0.868   0.204   3.267  1.00  0.00    -0.165 F 
ENDBRANCH  14  15
ENDBRANCH  10  14
ENDBRANCH   4   7
ENDBRANCH   2   3
ENDBRANCH   1   2
BRANCH   1  19
ATOM     19  C   UNL     1       4.346   1.097  -3.025  1.00  0.00     0.118 C 
BRANCH  19  20
ATOM     20  N   UNL     1       5.601   1.818  -2.938  1.00  0.00    -0.352 N 
ATOM     21  C   UNL     1       6.878   1.405  -3.231  1.00  0.00     0.251 C 
ATOM     22  H   UNL     1       5.527   2.747  -2.621  1.00  0.00     0.163 HD
ATOM     23  O   UNL     1       7.820   2.092  -2.840  1.00  0.00    -0.269 OA
BRANCH  21  24
ATOM     24  C   UNL     1       7.144   0.154  -3.989  1.00  0.00     0.039 A 
ATOM     25  C   UNL     1       8.287  -0.588  -3.669  1.00  0.00     0.014 A 
ATOM     26  C   UNL     1       6.340  -0.262  -5.054  1.00  0.00     0.014 A 
ATOM     27  C   UNL     1       8.600  -1.746  -4.388  1.00  0.00     0.010 A 
ATOM     28  C   UNL     1       6.600  -1.467  -5.710  1.00  0.00     0.010 A 
ATOM     29  C   UNL     1       7.749  -2.210  -5.404  1.00  0.00    -0.014 A 
BRANCH  29  30
ATOM     30  C   UNL     1       8.077  -3.439  -6.179  1.00  0.00     0.031 A 
ATOM     31  C   UNL     1       8.332  -3.358  -7.664  1.00  0.00     0.074 A 
ATOM     32  C   UNL     1       8.117  -4.635  -5.558  1.00  0.00     0.049 A 
ATOM     33  N   UNL     1       8.604  -4.319  -8.511  1.00  0.00    -0.248 NA
ATOM     34  C   UNL     1       8.243  -2.027  -8.284  1.00  0.00     0.031 C 
ATOM     35  C   UNL     1       7.835  -4.860  -4.139  1.00  0.00     0.029 A 
ATOM     36  N   UNL     1       8.408  -5.887  -6.041  1.00  0.00    -0.354 N 
ATOM     37  C   UNL     1       8.704  -3.713  -9.759  1.00  0.00     0.074 A 
ATOM     38  C   UNL     1       8.405  -2.310  -9.568  1.00  0.00     0.031 C 
ATOM     39  C   UNL     1       7.989  -6.165  -3.862  1.00  0.00     0.029 A 
ATOM     40  C   UNL     1       8.353  -6.874  -5.085  1.00  0.00     0.049 A 
ATOM     41  H   UNL     1       8.634  -6.062  -6.983  1.00  0.00     0.167 HD
ATOM     42  C   UNL     1       9.041  -4.263 -10.950  1.00  0.00     0.037 A 
ATOM     43  C   UNL     1       8.570  -8.201  -5.180  1.00  0.00     0.037 A 
ATOM     44  C   UNL     1       9.369  -5.654 -11.134  1.00  0.00     0.049 A 
ATOM     45  C   UNL     1       8.972  -8.787  -6.506  1.00  0.00     0.074 A 
ATOM     46  C   UNL     1       9.775  -6.298 -12.289  1.00  0.00     0.029 A 
ATOM     47  N   UNL     1       9.334  -6.614 -10.133  1.00  0.00    -0.354 N 
ATOM     48  N   UNL     1       9.117  -8.185  -7.663  1.00  0.00    -0.248 NA
ATOM     49  C   UNL     1       9.252 -10.229  -6.537  1.00  0.00     0.031 C 
ATOM     50  C   UNL     1       9.953  -7.655 -11.995  1.00  0.00     0.029 A 
ATOM     51  C   UNL     1       9.699  -7.848 -10.646  1.00  0.00     0.049 A 
ATOM     52  H   UNL     1       9.086  -6.443  -9.196  1.00  0.00     0.167 HD
ATOM     53  C   UNL     1       9.521  -9.172  -8.556  1.00  0.00     0.074 A 
ATOM     54  C   UNL     1       9.617 -10.404  -7.800  1.00  0.00     0.031 C 
ATOM     55  C   UNL     1       9.786  -9.067  -9.882  1.00  0.00     0.037 A 
BRANCH  42  56
ATOM     56  C   UNL     1       9.084  -3.353 -12.149  1.00  0.00     0.058 A 
ATOM     57  C   UNL     1      10.082  -2.375 -12.293  1.00  0.00     0.135 A 
ATOM     58  C   UNL     1       8.132  -3.470 -13.174  1.00  0.00     0.135 A 
ATOM     59  F   UNL     1      11.010  -2.209 -11.337  1.00  0.00    -0.206 F 
ATOM     60  C   UNL     1      10.113  -1.522 -13.392  1.00  0.00     0.059 A 
ATOM     61  C   UNL     1       8.160  -2.645 -14.296  1.00  0.00     0.059 A 
ATOM     62  F   UNL     1       7.157  -4.388 -13.090  1.00  0.00    -0.206 F 
ATOM     63  C   UNL     1       9.145  -1.662 -14.386  1.00  0.00     0.060 A 
BRANCH  63  64
ATOM     64  S   UNL     1       9.191  -0.543 -15.803  1.00  0.00     0.124 S 
ATOM     65  O   UNL     1       8.690   0.695 -15.210  1.00  0.00    -0.237 OA
ATOM     66  O   UNL     1      10.610  -0.544 -16.155  1.00  0.00    -0.237 OA
ATOM     67  O   UNL     1       8.309  -1.179 -16.770  1.00  0.00    -0.744 OA
ENDBRANCH  63  64
ENDBRANCH  42  56
BRANCH  43  68
ATOM     68  C   UNL     1       8.438  -9.058  -3.973  1.00  0.00     0.058 A 
ATOM     69  C   UNL     1       9.567  -9.603  -3.345  1.00  0.00     0.135 A 
ATOM     70  C   UNL     1       7.182  -9.326  -3.406  1.00  0.00     0.135 A 
ATOM     71  F   UNL     1      10.789  -9.381  -3.853  1.00  0.00    -0.206 F 
ATOM     72  C   UNL     1       9.458 -10.392  -2.204  1.00  0.00     0.059 A 
ATOM     73  C   UNL     1       7.049 -10.093  -2.253  1.00  0.00     0.059 A 
ATOM     74  F   UNL     1       6.072  -8.814  -3.960  1.00  0.00    -0.206 F 
ATOM     75  C   UNL     1       8.193 -10.628  -1.663  1.00  0.00     0.060 A 
BRANCH  75  76
ATOM     76  S   UNL     1       8.066 -11.597  -0.144  1.00  0.00     0.124 S 
ATOM     77  O   UNL     1       8.296 -12.949  -0.638  1.00  0.00    -0.237 OA
ATOM     78  O   UNL     1       9.131 -11.026   0.675  1.00  0.00    -0.237 OA
ATOM     79  O   UNL     1       6.711 -11.315   0.320  1.00  0.00    -0.744 OA
ENDBRANCH  75  76
ENDBRANCH  43  68
BRANCH  55  80
ATOM     80  C   UNL     1      10.224 -10.316 -10.595  1.00  0.00     0.058 A 
ATOM     81  C   UNL     1       9.323 -11.352 -10.885  1.00  0.00     0.135 A 
ATOM     82  C   UNL     1      11.554 -10.464 -11.021  1.00  0.00     0.135 A 
ATOM     83  F   UNL     1       8.041 -11.261 -10.496  1.00  0.00    -0.206 F 
ATOM     84  C   UNL     1       9.731 -12.507 -11.544  1.00  0.00     0.059 A 
ATOM     85  C   UNL     1      11.979 -11.599 -11.704  1.00  0.00     0.059 A 
ATOM     86  F   UNL     1      12.453  -9.497 -10.780  1.00  0.00    -0.206 F 
ATOM     87  C   UNL     1      11.063 -12.622 -11.947  1.00  0.00     0.060 A 
BRANCH  87  88
ATOM     88  S   UNL     1      11.580 -14.120 -12.814  1.00  0.00     0.124 S 
ATOM     89  O   UNL     1      11.661 -15.079 -11.717  1.00  0.00    -0.237 OA
ATOM     90  O   UNL     1      10.489 -14.329 -13.760  1.00  0.00    -0.237 OA
ATOM     91  O   UNL     1      12.856 -13.741 -13.413  1.00  0.00    -0.744 OA
ENDBRANCH  87  88
ENDBRANCH  55  80
ENDBRANCH  29  30
ENDBRANCH  21  24
ENDBRANCH  19  20
ENDBRANCH   1  19
TORSDOF 15
