REMARK SMILES O=C(NCCCNC(=O)c1cc(Cl)c2c(c1)[C@H]1C=CC[C@H]1[C@H](c1ccc(S(=O)(=O)N3CCOCC3)cc1)N2)c1ccc(-c2c3nc(c(-c4c(F)cc(S(=O)(=O)[O-])cc4F)c4ccc([nH]4)c(-c4c(F)cc(S(=O)(=O)[O-])cc4F)c4nc(c(-c5c(F)cc(S(=O)(=O)[O-])cc5F)c5ccc2[nH]5)C=C4)C=C3)cc1
REMARK SMILES IDX 5 1 4 2 3 3 1 4 2 5 39 7 40 8 104 9 41 10 103 11 42 12 43 13
REMARK SMILES IDX 44 14 97 15 45 16 102 17 96 18 98 19 46 20 101 21 95 22
REMARK SMILES IDX 94 23 47 25 81 26 60 27 80 28 61 29 64 30 79 31 99 32 62 33
REMARK SMILES IDX 63 34 78 36 100 37 65 38 48 39 49 40 58 41 50 42 51 43 57 44
REMARK SMILES IDX 59 45 52 46 53 47 54 48 55 49 56 50 82 51 83 52 92 53 84 54
REMARK SMILES IDX 85 55 91 56 93 57 86 58 87 59 88 60 89 61 90 62 66 63 67 64
REMARK SMILES IDX 76 65 68 66 69 67 75 68 77 69 70 70 71 71 72 72 73 73 74 74
REMARK SMILES IDX 6 75 7 76 8 77 9 79 10 80 11 81 16 82 12 83 15 84 13 85
REMARK SMILES IDX 14 86 17 87 38 88 18 89 21 90 22 91 19 93 20 94 23 95 24 96
REMARK SMILES IDX 37 97 25 98 36 99 26 100 27 101 28 102 29 103 30 104 31 105
REMARK SMILES IDX 35 106 32 107 34 108 33 109
REMARK H PARENT 3 6 98 24 64 35 7 78 38 92
REMARK Flexibility Score: inf
ROOT
ATOM      1  C   UNL     1       4.889   2.243  -0.453  1.00  0.00     0.042 C 
ENDROOT
BRANCH   1   2
ATOM      2  C   UNL     1       4.487   1.088   0.453  1.00  0.00     0.118 C 
BRANCH   2   3
ATOM      3  N   UNL     1       3.043   0.908   0.512  1.00  0.00    -0.352 N 
ATOM      4  O   UNL     1       1.046   0.030  -0.031  1.00  0.00    -0.269 OA
ATOM      5  C   UNL     1       2.264  -0.107   0.018  1.00  0.00     0.251 C 
ATOM      6  H   UNL     1       2.552   1.624   0.977  1.00  0.00     0.163 HD
BRANCH   5   7
ATOM      7  C   UNL     1       2.893  -1.353  -0.464  1.00  0.00     0.039 A 
ATOM      8  C   UNL     1       3.890  -1.984   0.285  1.00  0.00     0.014 A 
ATOM      9  C   UNL     1       2.452  -1.914  -1.666  1.00  0.00     0.014 A 
ATOM     10  C   UNL     1       4.530  -3.109  -0.225  1.00  0.00     0.010 A 
ATOM     11  C   UNL     1       3.051  -3.080  -2.146  1.00  0.00     0.010 A 
ATOM     12  C   UNL     1       4.111  -3.670  -1.441  1.00  0.00    -0.014 A 
BRANCH  12  13
ATOM     13  C   UNL     1       4.755  -4.909  -1.933  1.00  0.00     0.031 A 
ATOM     14  C   UNL     1       5.658  -4.883  -3.130  1.00  0.00     0.074 A 
ATOM     15  C   UNL     1       4.539  -6.057  -1.264  1.00  0.00     0.049 A 
ATOM     16  N   UNL     1       6.324  -5.866  -3.679  1.00  0.00    -0.248 NA
ATOM     17  C   UNL     1       5.841  -3.584  -3.796  1.00  0.00     0.031 C 
ATOM     18  C   UNL     1       3.695  -6.189  -0.075  1.00  0.00     0.029 A 
ATOM     19  N   UNL     1       5.024  -7.321  -1.474  1.00  0.00    -0.354 N 
ATOM     20  C   UNL     1       7.014  -5.308  -4.747  1.00  0.00     0.074 A 
ATOM     21  C   UNL     1       6.652  -3.906  -4.795  1.00  0.00     0.031 C 
ATOM     22  C   UNL     1       3.752  -7.455   0.363  1.00  0.00     0.029 A 
ATOM     23  C   UNL     1       4.598  -8.232  -0.538  1.00  0.00     0.049 A 
ATOM     24  H   UNL     1       5.620  -7.553  -2.222  1.00  0.00     0.167 HD
ATOM     25  C   UNL     1       7.880  -5.908  -5.599  1.00  0.00     0.037 A 
ATOM     26  C   UNL     1       4.856  -9.547  -0.421  1.00  0.00     0.037 A 
ATOM     27  C   UNL     1       8.213  -7.309  -5.559  1.00  0.00     0.049 A 
ATOM     28  C   UNL     1       5.756 -10.207  -1.424  1.00  0.00     0.074 A 
ATOM     29  C   UNL     1       9.060  -8.020  -6.392  1.00  0.00     0.029 A 
ATOM     30  N   UNL     1       7.710  -8.216  -4.636  1.00  0.00    -0.354 N 
ATOM     31  N   UNL     1       6.393  -9.668  -2.436  1.00  0.00    -0.248 NA
ATOM     32  C   UNL     1       5.969 -11.652  -1.273  1.00  0.00     0.031 C 
ATOM     33  C   UNL     1       9.041  -9.363  -5.994  1.00  0.00     0.029 A 
ATOM     34  C   UNL     1       8.216  -9.482  -4.887  1.00  0.00     0.049 A 
ATOM     35  H   UNL     1       7.084  -7.993  -3.909  1.00  0.00     0.167 HD
ATOM     36  C   UNL     1       7.100 -10.704  -3.033  1.00  0.00     0.074 A 
ATOM     37  C   UNL     1       6.815 -11.900  -2.265  1.00  0.00     0.031 C 
ATOM     38  C   UNL     1       7.915 -10.664  -4.116  1.00  0.00     0.037 A 
BRANCH  25  39
ATOM     39  C   UNL     1       8.513  -5.045  -6.656  1.00  0.00     0.058 A 
ATOM     40  C   UNL     1       9.498  -4.098  -6.333  1.00  0.00     0.135 A 
ATOM     41  C   UNL     1       8.136  -5.163  -8.003  1.00  0.00     0.135 A 
ATOM     42  F   UNL     1       9.884  -3.932  -5.057  1.00  0.00    -0.206 F 
ATOM     43  C   UNL     1      10.061  -3.274  -7.301  1.00  0.00     0.059 A 
ATOM     44  C   UNL     1       8.703  -4.364  -8.993  1.00  0.00     0.059 A 
ATOM     45  F   UNL     1       7.199  -6.053  -8.368  1.00  0.00    -0.206 F 
ATOM     46  C   UNL     1       9.651  -3.409  -8.629  1.00  0.00     0.060 A 
BRANCH  46  47
ATOM     47  S   UNL     1      10.364  -2.306  -9.868  1.00  0.00     0.124 S 
ATOM     48  O   UNL     1       9.699  -1.046  -9.551  1.00  0.00    -0.237 OA
ATOM     49  O   UNL     1      11.789  -2.364  -9.556  1.00  0.00    -0.237 OA
ATOM     50  O   UNL     1       9.977  -2.920 -11.133  1.00  0.00    -0.744 OA
ENDBRANCH  46  47
ENDBRANCH  25  39
BRANCH  26  51
ATOM     51  C   UNL     1       4.273 -10.299   0.718  1.00  0.00     0.058 A 
ATOM     52  C   UNL     1       5.072 -10.675   1.806  1.00  0.00     0.135 A 
ATOM     53  C   UNL     1       2.898 -10.574   0.783  1.00  0.00     0.135 A 
ATOM     54  F   UNL     1       6.391 -10.435   1.785  1.00  0.00    -0.206 F 
ATOM     55  C   UNL     1       4.526 -11.286   2.929  1.00  0.00     0.059 A 
ATOM     56  C   UNL     1       2.326 -11.166   1.904  1.00  0.00     0.059 A 
ATOM     57  F   UNL     1       2.093 -10.218  -0.230  1.00  0.00    -0.206 F 
ATOM     58  C   UNL     1       3.149 -11.515   2.974  1.00  0.00     0.060 A 
BRANCH  58  59
ATOM     59  S   UNL     1       2.440 -12.212   4.482  1.00  0.00     0.124 S 
ATOM     60  O   UNL     1       2.911 -13.590   4.419  1.00  0.00    -0.237 OA
ATOM     61  O   UNL     1       3.043 -11.376   5.516  1.00  0.00    -0.237 OA
ATOM     62  O   UNL     1       1.004 -12.026   4.295  1.00  0.00    -0.744 OA
ENDBRANCH  58  59
ENDBRANCH  26  51
BRANCH  38  63
ATOM     63  C   UNL     1       8.576 -11.950  -4.524  1.00  0.00     0.058 A 
ATOM     64  C   UNL     1       7.864 -12.966  -5.181  1.00  0.00     0.135 A 
ATOM     65  C   UNL     1       9.947 -12.148  -4.299  1.00  0.00     0.135 A 
ATOM     66  F   UNL     1       6.549 -12.829  -5.412  1.00  0.00    -0.206 F 
ATOM     67  C   UNL     1       8.487 -14.142  -5.585  1.00  0.00     0.059 A 
ATOM     68  C   UNL     1      10.595 -13.306  -4.714  1.00  0.00     0.059 A 
ATOM     69  F   UNL     1      10.673 -11.202  -3.681  1.00  0.00    -0.206 F 
ATOM     70  C   UNL     1       9.854 -14.303  -5.348  1.00  0.00     0.060 A 
BRANCH  70  71
ATOM     71  S   UNL     1      10.658 -15.819  -5.910  1.00  0.00     0.124 S 
ATOM     72  O   UNL     1      10.172 -16.788  -4.933  1.00  0.00    -0.237 OA
ATOM     73  O   UNL     1      10.134 -15.967  -7.264  1.00  0.00    -0.237 OA
ATOM     74  O   UNL     1      12.080 -15.500  -5.826  1.00  0.00    -0.744 OA
ENDBRANCH  70  71
ENDBRANCH  38  63
ENDBRANCH  12  13
ENDBRANCH   5   7
ENDBRANCH   2   3
ENDBRANCH   1   2
BRANCH   1  75
ATOM     75  C   UNL     1       4.295   3.586  -0.051  1.00  0.00     0.118 C 
BRANCH  75  76
ATOM     76  N   UNL     1       4.660   3.975   1.305  1.00  0.00    -0.352 N 
ATOM     77  C   UNL     1       5.400   5.044   1.736  1.00  0.00     0.251 C 
ATOM     78  H   UNL     1       4.325   3.383   2.016  1.00  0.00     0.163 HD
ATOM     79  O   UNL     1       5.759   5.125   2.906  1.00  0.00    -0.269 OA
BRANCH  77  80
ATOM     80  C   UNL     1       5.781   6.098   0.781  1.00  0.00     0.041 A 
ATOM     81  C   UNL     1       4.828   6.692  -0.044  1.00  0.00     0.036 A 
ATOM     82  C   UNL     1       7.108   6.522   0.746  1.00  0.00     0.020 A 
ATOM     83  C   UNL     1       5.239   7.624  -0.990  1.00  0.00     0.065 A 
ATOM     84  C   UNL     1       7.511   7.501  -0.174  1.00  0.00    -0.015 A 
ATOM     85  Cl  UNL     1       4.041   8.285  -2.052  1.00  0.00    -0.082 Cl
ATOM     86  C   UNL     1       6.588   8.013  -1.097  1.00  0.00     0.057 A 
ATOM     87  C   UNL     1       8.915   8.024  -0.116  1.00  0.00     0.049 C 
ATOM     88  N   UNL     1       6.976   8.960  -2.030  1.00  0.00    -0.376 N 
ATOM     89  C   UNL     1       9.977   7.091  -0.635  1.00  0.00    -0.023 C 
ATOM     90  C   UNL     1       9.173   9.301  -0.946  1.00  0.00     0.031 C 
ATOM     91  C   UNL     1       8.379   9.251  -2.279  1.00  0.00     0.114 C 
ATOM     92  H   UNL     1       6.287   9.448  -2.536  1.00  0.00     0.161 HD
ATOM     93  C   UNL     1      10.984   7.783  -1.181  1.00  0.00    -0.030 C 
ATOM     94  C   UNL     1      10.708   9.252  -1.115  1.00  0.00     0.034 C 
BRANCH  91  95
ATOM     95  C   UNL     1       8.467  10.554  -3.070  1.00  0.00    -0.025 A 
ATOM     96  C   UNL     1       7.463  11.545  -3.056  1.00  0.00     0.007 A 
ATOM     97  C   UNL     1       9.596  10.779  -3.860  1.00  0.00     0.007 A 
ATOM     98  C   UNL     1       7.592  12.720  -3.808  1.00  0.00     0.022 A 
ATOM     99  C   UNL     1       9.752  11.970  -4.554  1.00  0.00     0.022 A 
ATOM    100  C   UNL     1       8.753  12.934  -4.550  1.00  0.00     0.082 A 
BRANCH 100 101
ATOM    101  S   UNL     1       8.927  14.440  -5.479  1.00  0.00     0.243 S 
ATOM    102  O   UNL     1       8.079  14.299  -6.647  1.00  0.00    -0.207 OA
ATOM    103  O   UNL     1       8.753  15.525  -4.541  1.00  0.00    -0.207 OA
BRANCH 101 104
ATOM    104  N   UNL     1      10.522  14.458  -5.997  1.00  0.00    -0.193 NA
ATOM    105  C   UNL     1      10.956  13.804  -7.251  1.00  0.00     0.131 C 
ATOM    106  C   UNL     1      11.593  15.073  -5.193  1.00  0.00     0.131 C 
ATOM    107  C   UNL     1      12.233  12.969  -7.051  1.00  0.00     0.177 C 
ATOM    108  C   UNL     1      12.773  14.112  -5.046  1.00  0.00     0.177 C 
ATOM    109  O   UNL     1      13.249  13.673  -6.326  1.00  0.00    -0.379 OA
ENDBRANCH 101 104
ENDBRANCH 100 101
ENDBRANCH  91  95
ENDBRANCH  77  80
ENDBRANCH  75  76
ENDBRANCH   1  75
TORSDOF 16
