REMARK SMILES CC(C)[C@H](C(=O)NCCCNC(=O)c1ccc(-c2c3nc(c(-c4c(F)cc(S(=O)(=O)[O-])cc4F)c4ccc([nH]4)c(-c4c(F)cc(S(=O)(=O)[O-])cc4F)c4nc(c(-c5c(F)cc(S(=O)(=O)[O-])cc5F)c5ccc2[nH]5)C=C4)C=C3)cc1)N1C(=O)/C(=C/c2ccccc2Cl)SC1=S
REMARK SMILES IDX 9 1 8 2 7 3 5 4 6 5 4 7 2 8 1 9 3 10 80 11 81 12 93 13 82 14
REMARK SMILES IDX 83 15 92 16 94 17 84 18 85 19 86 20 90 21 87 22 89 23 91 24
REMARK SMILES IDX 88 25 10 26 11 27 12 28 13 30 14 31 15 32 79 33 16 34 78 35
REMARK SMILES IDX 17 36 18 37 19 38 72 39 20 40 77 41 71 42 73 43 21 44 76 45
REMARK SMILES IDX 70 46 69 47 22 49 56 50 35 51 55 52 36 53 39 54 54 55 74 56
REMARK SMILES IDX 37 57 38 58 53 60 75 61 40 62 23 63 24 64 33 65 25 66 26 67
REMARK SMILES IDX 32 68 34 69 27 70 28 71 29 72 30 73 31 74 57 75 58 76 67 77
REMARK SMILES IDX 59 78 60 79 66 80 68 81 61 82 62 83 63 84 64 85 65 86 41 87
REMARK SMILES IDX 42 88 51 89 43 90 44 91 50 92 52 93 45 94 46 95 47 96 48 97
REMARK SMILES IDX 49 98
REMARK H PARENT 7 6 11 29 73 48 39 59
REMARK Flexibility Score: inf
ROOT
ATOM      1  C   UNL     1       1.108   4.161  -1.257  1.00  0.00     0.042 C 
ENDROOT
BRANCH   1   2
ATOM      2  C   UNL     1       0.876   2.647  -1.345  1.00  0.00     0.117 C 
BRANCH   2   3
ATOM      3  N   UNL     1       1.127   2.018  -0.056  1.00  0.00    -0.354 N 
ATOM      4  C   UNL     1       0.294   1.685   0.972  1.00  0.00     0.243 C 
ATOM      5  O   UNL     1       0.827   1.576   2.081  1.00  0.00    -0.273 OA
ATOM      6  H   UNL     1       2.072   1.792   0.103  1.00  0.00     0.163 HD
BRANCH   4   7
ATOM      7  C   UNL     1      -1.238   1.469   0.786  1.00  0.00     0.184 C 
BRANCH   7   8
ATOM      8  C   UNL     1      -1.519   0.002   1.287  1.00  0.00     0.015 C 
ATOM      9  C   UNL     1      -2.845  -0.327   1.968  1.00  0.00     0.010 C 
ATOM     10  C   UNL     1      -1.365  -0.958   0.086  1.00  0.00     0.010 C 
ENDBRANCH   7   8
BRANCH   7  11
ATOM     11  N   UNL     1      -1.883   2.663   1.391  1.00  0.00    -0.280 N 
ATOM     12  C   UNL     1      -2.233   2.817   2.721  1.00  0.00     0.266 C 
ATOM     13  C   UNL     1      -2.040   3.833   0.664  1.00  0.00     0.149 C 
ATOM     14  O   UNL     1      -2.331   1.959   3.585  1.00  0.00    -0.268 OA
ATOM     15  C   UNL     1      -2.571   4.251   2.996  1.00  0.00     0.081 C 
ATOM     16  S   UNL     1      -1.887   5.203   1.746  1.00  0.00    -0.054 SA
ATOM     17  S   UNL     1      -2.456   4.015  -0.941  1.00  0.00    -0.052 S 
ATOM     18  C   UNL     1      -3.373   4.663   3.990  1.00  0.00     0.031 C 
BRANCH  18  19
ATOM     19  C   UNL     1      -3.730   6.064   4.296  1.00  0.00    -0.006 A 
ATOM     20  C   UNL     1      -3.366   6.530   5.571  1.00  0.00     0.010 A 
ATOM     21  C   UNL     1      -4.395   6.952   3.428  1.00  0.00     0.048 A 
ATOM     22  C   UNL     1      -3.607   7.854   5.949  1.00  0.00     0.001 A 
ATOM     23  C   UNL     1      -4.597   8.288   3.796  1.00  0.00     0.021 A 
ATOM     24  Cl  UNL     1      -5.064   6.450   1.911  1.00  0.00    -0.084 Cl
ATOM     25  C   UNL     1      -4.202   8.738   5.054  1.00  0.00     0.002 A 
ENDBRANCH  18  19
ENDBRANCH   7  11
ENDBRANCH   4   7
ENDBRANCH   2   3
ENDBRANCH   1   2
BRANCH   1  26
ATOM     26  C   UNL     1       2.580   4.567  -1.206  1.00  0.00     0.118 C 
BRANCH  26  27
ATOM     27  N   UNL     1       3.204   4.539  -2.519  1.00  0.00    -0.352 N 
ATOM     28  C   UNL     1       3.740   5.556  -3.273  1.00  0.00     0.251 C 
ATOM     29  H   UNL     1       3.249   3.648  -2.936  1.00  0.00     0.163 HD
ATOM     30  O   UNL     1       4.016   5.332  -4.450  1.00  0.00    -0.269 OA
BRANCH  28  31
ATOM     31  C   UNL     1       3.984   6.908  -2.708  1.00  0.00     0.039 A 
ATOM     32  C   UNL     1       3.780   8.022  -3.530  1.00  0.00     0.014 A 
ATOM     33  C   UNL     1       4.479   7.094  -1.414  1.00  0.00     0.014 A 
ATOM     34  C   UNL     1       4.026   9.312  -3.044  1.00  0.00     0.010 A 
ATOM     35  C   UNL     1       4.653   8.384  -0.906  1.00  0.00     0.010 A 
ATOM     36  C   UNL     1       4.441   9.509  -1.718  1.00  0.00    -0.014 A 
BRANCH  36  37
ATOM     37  C   UNL     1       4.659  10.878  -1.174  1.00  0.00     0.031 A 
ATOM     38  C   UNL     1       6.026  11.312  -0.710  1.00  0.00     0.074 A 
ATOM     39  C   UNL     1       3.613  11.716  -1.035  1.00  0.00     0.049 A 
ATOM     40  N   UNL     1       6.394  12.444  -0.164  1.00  0.00    -0.248 NA
ATOM     41  C   UNL     1       7.115  10.335  -0.850  1.00  0.00     0.031 C 
ATOM     42  C   UNL     1       2.227  11.400  -1.384  1.00  0.00     0.029 A 
ATOM     43  N   UNL     1       3.548  12.999  -0.548  1.00  0.00    -0.354 N 
ATOM     44  C   UNL     1       7.746  12.306   0.128  1.00  0.00     0.074 A 
ATOM     45  C   UNL     1       8.123  10.964  -0.262  1.00  0.00     0.031 C 
ATOM     46  C   UNL     1       1.452  12.461  -1.111  1.00  0.00     0.029 A 
ATOM     47  C   UNL     1       2.276  13.522  -0.538  1.00  0.00     0.049 A 
ATOM     48  H   UNL     1       4.337  13.497  -0.235  1.00  0.00     0.167 HD
ATOM     49  C   UNL     1       8.601  13.216   0.656  1.00  0.00     0.037 A 
ATOM     50  C   UNL     1       1.818  14.714  -0.110  1.00  0.00     0.037 A 
ATOM     51  C   UNL     1       8.230  14.562   1.013  1.00  0.00     0.049 A 
ATOM     52  C   UNL     1       2.787  15.726   0.435  1.00  0.00     0.074 A 
ATOM     53  C   UNL     1       9.043  15.587   1.466  1.00  0.00     0.029 A 
ATOM     54  N   UNL     1       6.939  15.068   0.968  1.00  0.00    -0.354 N 
ATOM     55  N   UNL     1       4.080  15.609   0.621  1.00  0.00    -0.248 NA
ATOM     56  C   UNL     1       2.239  17.034   0.819  1.00  0.00     0.031 C 
ATOM     57  C   UNL     1       8.236  16.698   1.740  1.00  0.00     0.029 A 
ATOM     58  C   UNL     1       6.927  16.382   1.412  1.00  0.00     0.049 A 
ATOM     59  H   UNL     1       6.147  14.568   0.666  1.00  0.00     0.167 HD
ATOM     60  C   UNL     1       4.504  16.832   1.129  1.00  0.00     0.074 A 
ATOM     61  C   UNL     1       3.331  17.679   1.207  1.00  0.00     0.031 C 
ATOM     62  C   UNL     1       5.752  17.215   1.497  1.00  0.00     0.037 A 
BRANCH  49  63
ATOM     63  C   UNL     1      10.023  12.779   0.890  1.00  0.00     0.058 A 
ATOM     64  C   UNL     1      10.905  12.521  -0.173  1.00  0.00     0.135 A 
ATOM     65  C   UNL     1      10.513  12.618   2.197  1.00  0.00     0.135 A 
ATOM     66  F   UNL     1      10.489  12.651  -1.443  1.00  0.00    -0.206 F 
ATOM     67  C   UNL     1      12.203  12.072   0.050  1.00  0.00     0.059 A 
ATOM     68  C   UNL     1      11.817  12.198   2.443  1.00  0.00     0.059 A 
ATOM     69  F   UNL     1       9.717  12.857   3.251  1.00  0.00    -0.206 F 
ATOM     70  C   UNL     1      12.647  11.904   1.363  1.00  0.00     0.060 A 
BRANCH  70  71
ATOM     71  S   UNL     1      14.321  11.287   1.637  1.00  0.00     0.124 S 
ATOM     72  O   UNL     1      14.165   9.872   1.311  1.00  0.00    -0.237 OA
ATOM     73  O   UNL     1      15.106  12.072   0.690  1.00  0.00    -0.237 OA
ATOM     74  O   UNL     1      14.566  11.582   3.045  1.00  0.00    -0.744 OA
ENDBRANCH  70  71
ENDBRANCH  49  63
BRANCH  50  75
ATOM     75  C   UNL     1       0.365  15.011  -0.206  1.00  0.00     0.058 A 
ATOM     76  C   UNL     1      -0.132  15.885  -1.183  1.00  0.00     0.135 A 
ATOM     77  C   UNL     1      -0.561  14.370   0.633  1.00  0.00     0.135 A 
ATOM     78  F   UNL     1       0.715  16.527  -2.002  1.00  0.00    -0.206 F 
ATOM     79  C   UNL     1      -1.497  16.112  -1.330  1.00  0.00     0.059 A 
ATOM     80  C   UNL     1      -1.931  14.563   0.491  1.00  0.00     0.059 A 
ATOM     81  F   UNL     1      -0.135  13.513   1.574  1.00  0.00    -0.206 F 
ATOM     82  C   UNL     1      -2.390  15.437  -0.495  1.00  0.00     0.060 A 
BRANCH  82  83
ATOM     83  S   UNL     1      -4.163  15.663  -0.757  1.00  0.00     0.124 S 
ATOM     84  O   UNL     1      -4.370  17.005  -0.227  1.00  0.00    -0.237 OA
ATOM     85  O   UNL     1      -4.278  15.523  -2.206  1.00  0.00    -0.237 OA
ATOM     86  O   UNL     1      -4.757  14.578   0.018  1.00  0.00    -0.744 OA
ENDBRANCH  82  83
ENDBRANCH  50  75
BRANCH  62  87
ATOM     87  C   UNL     1       5.922  18.619   2.008  1.00  0.00     0.058 A 
ATOM     88  C   UNL     1       5.465  19.001   3.280  1.00  0.00     0.135 A 
ATOM     89  C   UNL     1       6.591  19.583   1.237  1.00  0.00     0.135 A 
ATOM     90  F   UNL     1       4.813  18.120   4.055  1.00  0.00    -0.206 F 
ATOM     91  C   UNL     1       5.646  20.294   3.759  1.00  0.00     0.059 A 
ATOM     92  C   UNL     1       6.806  20.876   1.707  1.00  0.00     0.059 A 
ATOM     93  F   UNL     1       7.058  19.269   0.018  1.00  0.00    -0.206 F 
ATOM     94  C   UNL     1       6.318  21.225   2.965  1.00  0.00     0.060 A 
BRANCH  94  95
ATOM     95  S   UNL     1       6.571  22.893   3.609  1.00  0.00     0.124 S 
ATOM     96  O   UNL     1       5.237  23.467   3.471  1.00  0.00    -0.237 OA
ATOM     97  O   UNL     1       7.012  22.638   4.977  1.00  0.00    -0.237 OA
ATOM     98  O   UNL     1       7.589  23.449   2.723  1.00  0.00    -0.744 OA
ENDBRANCH  94  95
ENDBRANCH  62  87
ENDBRANCH  36  37
ENDBRANCH  28  31
ENDBRANCH  26  27
ENDBRANCH   1  26
TORSDOF 16
