REMARK SMILES CC[NH2+][C@@]1(C(=O)NCCCNC(=O)c2ccc(-c3c4nc(c(-c5c(F)cc(S(=O)(=O)[O-])cc5F)c5ccc([nH]5)c(-c5c(F)cc(S(=O)(=O)[O-])cc5F)c5nc(c(-c6c(F)cc(S(=O)(=O)[O-])cc6F)c6ccc3[nH]6)C=C5)C=C4)cc2)CC[C@@H]([N@@H+](C)Cc2nccn2C)C1
REMARK SMILES IDX 9 1 8 2 7 3 5 4 6 5 4 7 80 8 92 9 81 10 82 11 3 12 2 15 1 16
REMARK SMILES IDX 83 17 84 18 85 20 86 21 87 22 90 23 88 24 89 25 91 26 10 27
REMARK SMILES IDX 11 28 12 29 13 31 14 32 15 33 79 34 16 35 78 36 17 37 18 38
REMARK SMILES IDX 19 39 72 40 20 41 77 42 71 43 73 44 21 45 76 46 70 47 69 48
REMARK SMILES IDX 22 50 56 51 35 52 55 53 36 54 39 55 54 56 74 57 37 58 38 59
REMARK SMILES IDX 53 61 75 62 40 63 23 64 24 65 33 66 25 67 26 68 32 69 34 70
REMARK SMILES IDX 27 71 28 72 29 73 30 74 31 75 57 76 58 77 67 78 59 79 60 80
REMARK SMILES IDX 66 81 68 82 61 83 62 84 63 85 64 86 65 87 41 88 42 89 51 90
REMARK SMILES IDX 43 91 44 92 50 93 52 94 45 95 46 96 47 97 48 98 49 99
REMARK H PARENT 7 6 3 13 3 14 83 19 11 30 73 49 39 60
REMARK Flexibility Score: inf
ROOT
ATOM      1  C   UNL     1      -2.318  -6.399  -1.612  1.00  0.00     0.042 C 
ENDROOT
BRANCH   1   2
ATOM      2  C   UNL     1      -1.889  -5.100  -2.268  1.00  0.00     0.118 C 
BRANCH   2   3
ATOM      3  N   UNL     1      -2.015  -3.988  -1.370  1.00  0.00    -0.351 N 
ATOM      4  C   UNL     1      -1.122  -3.337  -0.586  1.00  0.00     0.281 C 
ATOM      5  O   UNL     1      -1.660  -2.586   0.242  1.00  0.00    -0.268 OA
ATOM      6  H   UNL     1      -2.930  -3.628  -1.312  1.00  0.00     0.163 HD
BRANCH   4   7
ATOM      7  C   UNL     1       0.459  -3.475  -0.690  1.00  0.00     0.181 C 
ATOM      8  C   UNL     1       1.042  -3.678  -2.099  1.00  0.00     0.085 C 
ATOM      9  C   UNL     1       1.008  -4.674   0.119  1.00  0.00     0.144 C 
ATOM     10  C   UNL     1       1.401  -5.154  -2.257  1.00  0.00     0.072 C 
ATOM     11  C   UNL     1       1.232  -5.813  -0.886  1.00  0.00     0.191 C 
BRANCH   7  12
ATOM     12  N   UNL     1       1.044  -2.240  -0.077  1.00  0.00    -0.334 N 
ATOM     13  H   UNL     1       0.671  -2.148   0.868  1.00  0.00     0.347 HD
ATOM     14  H   UNL     1       2.057  -2.359  -0.100  1.00  0.00     0.347 HD
BRANCH  12  15
ATOM     15  C   UNL     1       0.758  -1.002  -0.801  1.00  0.00     0.257 C 
ATOM     16  C   UNL     1       1.279   0.177   0.006  1.00  0.00     0.071 C 
ENDBRANCH  12  15
ENDBRANCH   7  12
BRANCH  11  17
ATOM     17  N   UNL     1       2.200  -6.844  -0.486  1.00  0.00    -0.328 N 
ATOM     18  C   UNL     1       1.906  -8.139  -1.081  1.00  0.00     0.333 C 
ATOM     19  H   UNL     1       2.026  -6.907   0.517  1.00  0.00     0.348 HD
BRANCH  17  20
ATOM     20  C   UNL     1       3.639  -6.506  -0.433  1.00  0.00     0.338 C 
BRANCH  20  21
ATOM     21  C   UNL     1       4.304  -6.021  -1.697  1.00  0.00     0.164 A 
ATOM     22  N   UNL     1       4.594  -4.749  -1.948  1.00  0.00    -0.236 NA
ATOM     23  N   UNL     1       4.612  -6.788  -2.801  1.00  0.00    -0.333 N 
ATOM     24  C   UNL     1       4.910  -4.683  -3.280  1.00  0.00     0.131 A 
ATOM     25  C   UNL     1       4.897  -5.936  -3.838  1.00  0.00     0.107 A 
ATOM     26  C   UNL     1       4.614  -8.223  -2.929  1.00  0.00     0.151 C 
ENDBRANCH  20  21
ENDBRANCH  17  20
ENDBRANCH  11  17
ENDBRANCH   4   7
ENDBRANCH   2   3
ENDBRANCH   1   2
BRANCH   1  27
ATOM     27  C   UNL     1      -3.770  -6.690  -1.913  1.00  0.00     0.118 C 
BRANCH  27  28
ATOM     28  N   UNL     1      -3.971  -6.961  -3.335  1.00  0.00    -0.352 N 
ATOM     29  C   UNL     1      -4.560  -8.037  -3.941  1.00  0.00     0.251 C 
ATOM     30  H   UNL     1      -3.632  -6.268  -3.946  1.00  0.00     0.163 HD
ATOM     31  O   UNL     1      -4.424  -8.202  -5.152  1.00  0.00    -0.269 OA
BRANCH  29  32
ATOM     32  C   UNL     1      -5.338  -8.989  -3.130  1.00  0.00     0.039 A 
ATOM     33  C   UNL     1      -5.314 -10.346  -3.455  1.00  0.00     0.014 A 
ATOM     34  C   UNL     1      -6.090  -8.536  -2.044  1.00  0.00     0.014 A 
ATOM     35  C   UNL     1      -6.030 -11.246  -2.668  1.00  0.00     0.010 A 
ATOM     36  C   UNL     1      -6.667  -9.444  -1.178  1.00  0.00     0.010 A 
ATOM     37  C   UNL     1      -6.696 -10.800  -1.514  1.00  0.00    -0.014 A 
BRANCH  37  38
ATOM     38  C   UNL     1      -7.521 -11.712  -0.692  1.00  0.00     0.031 A 
ATOM     39  C   UNL     1      -8.993 -11.426  -0.535  1.00  0.00     0.074 A 
ATOM     40  C   UNL     1      -6.942 -12.748  -0.057  1.00  0.00     0.049 A 
ATOM     41  N   UNL     1      -9.883 -12.051   0.189  1.00  0.00    -0.248 NA
ATOM     42  C   UNL     1      -9.529 -10.253  -1.251  1.00  0.00     0.031 C 
ATOM     43  C   UNL     1      -5.514 -13.075  -0.092  1.00  0.00     0.029 A 
ATOM     44  N   UNL     1      -7.485 -13.717   0.742  1.00  0.00    -0.354 N 
ATOM     45  C   UNL     1     -11.065 -11.336   0.031  1.00  0.00     0.074 A 
ATOM     46  C   UNL     1     -10.763 -10.183  -0.782  1.00  0.00     0.031 C 
ATOM     47  C   UNL     1      -5.303 -14.194   0.618  1.00  0.00     0.029 A 
ATOM     48  C   UNL     1      -6.569 -14.639   1.190  1.00  0.00     0.049 A 
ATOM     49  H   UNL     1      -8.441 -13.751   0.975  1.00  0.00     0.167 HD
ATOM     50  C   UNL     1     -12.303 -11.638   0.486  1.00  0.00     0.037 A 
ATOM     51  C   UNL     1      -6.741 -15.721   1.972  1.00  0.00     0.037 A 
ATOM     52  C   UNL     1     -12.593 -12.816   1.256  1.00  0.00     0.049 A 
ATOM     53  C   UNL     1      -8.130 -16.049   2.450  1.00  0.00     0.074 A 
ATOM     54  C   UNL     1     -13.815 -13.257   1.727  1.00  0.00     0.029 A 
ATOM     55  N   UNL     1     -11.645 -13.746   1.660  1.00  0.00    -0.354 N 
ATOM     56  N   UNL     1      -9.250 -15.396   2.243  1.00  0.00    -0.248 NA
ATOM     57  C   UNL     1      -8.282 -17.268   3.252  1.00  0.00     0.031 C 
ATOM     58  C   UNL     1     -13.600 -14.431   2.456  1.00  0.00     0.029 A 
ATOM     59  C   UNL     1     -12.253 -14.755   2.385  1.00  0.00     0.049 A 
ATOM     60  H   UNL     1     -10.682 -13.695   1.459  1.00  0.00     0.167 HD
ATOM     61  C   UNL     1     -10.247 -16.147   2.855  1.00  0.00     0.074 A 
ATOM     62  C   UNL     1      -9.595 -17.306   3.433  1.00  0.00     0.031 C 
ATOM     63  C   UNL     1     -11.580 -15.906   2.932  1.00  0.00     0.037 A 
BRANCH  50  64
ATOM     64  C   UNL     1     -13.423 -10.692   0.147  1.00  0.00     0.058 A 
ATOM     65  C   UNL     1     -13.878 -10.525  -1.173  1.00  0.00     0.135 A 
ATOM     66  C   UNL     1     -14.062  -9.952   1.154  1.00  0.00     0.135 A 
ATOM     67  F   UNL     1     -13.290 -11.189  -2.181  1.00  0.00    -0.206 F 
ATOM     68  C   UNL     1     -14.902  -9.637  -1.485  1.00  0.00     0.059 A 
ATOM     69  C   UNL     1     -15.113  -9.083   0.869  1.00  0.00     0.059 A 
ATOM     70  F   UNL     1     -13.666 -10.065   2.432  1.00  0.00    -0.206 F 
ATOM     71  C   UNL     1     -15.515  -8.922  -0.456  1.00  0.00     0.060 A 
BRANCH  71  72
ATOM     72  S   UNL     1     -16.852  -7.785  -0.877  1.00  0.00     0.124 S 
ATOM     73  O   UNL     1     -16.121  -6.709  -1.539  1.00  0.00    -0.237 OA
ATOM     74  O   UNL     1     -17.694  -8.604  -1.744  1.00  0.00    -0.237 OA
ATOM     75  O   UNL     1     -17.432  -7.446   0.418  1.00  0.00    -0.744 OA
ENDBRANCH  71  72
ENDBRANCH  50  64
BRANCH  51  76
ATOM     76  C   UNL     1      -5.581 -16.589   2.308  1.00  0.00     0.058 A 
ATOM     77  C   UNL     1      -5.473 -17.885   1.782  1.00  0.00     0.135 A 
ATOM     78  C   UNL     1      -4.550 -16.138   3.147  1.00  0.00     0.135 A 
ATOM     79  F   UNL     1      -6.431 -18.362   0.973  1.00  0.00    -0.206 F 
ATOM     80  C   UNL     1      -4.401 -18.713   2.096  1.00  0.00     0.059 A 
ATOM     81  C   UNL     1      -3.453 -16.937   3.453  1.00  0.00     0.059 A 
ATOM     82  F   UNL     1      -4.592 -14.897   3.657  1.00  0.00    -0.206 F 
ATOM     83  C   UNL     1      -3.394 -18.229   2.933  1.00  0.00     0.060 A 
BRANCH  83  84
ATOM     84  S   UNL     1      -1.988 -19.300   3.303  1.00  0.00     0.124 S 
ATOM     85  O   UNL     1      -2.596 -20.287   4.187  1.00  0.00    -0.237 OA
ATOM     86  O   UNL     1      -1.609 -19.776   1.977  1.00  0.00    -0.237 OA
ATOM     87  O   UNL     1      -1.032 -18.393   3.932  1.00  0.00    -0.744 OA
ENDBRANCH  83  84
ENDBRANCH  51  76
BRANCH  63  88
ATOM     88  C   UNL     1     -12.430 -16.945   3.609  1.00  0.00     0.058 A 
ATOM     89  C   UNL     1     -12.392 -17.149   4.996  1.00  0.00     0.135 A 
ATOM     90  C   UNL     1     -13.332 -17.713   2.854  1.00  0.00     0.135 A 
ATOM     91  F   UNL     1     -11.546 -16.442   5.761  1.00  0.00    -0.206 F 
ATOM     92  C   UNL     1     -13.194 -18.106   5.609  1.00  0.00     0.059 A 
ATOM     93  C   UNL     1     -14.167 -18.651   3.450  1.00  0.00     0.059 A 
ATOM     94  F   UNL     1     -13.419 -17.545   1.525  1.00  0.00    -0.206 F 
ATOM     95  C   UNL     1     -14.078 -18.852   4.827  1.00  0.00     0.060 A 
BRANCH  95  96
ATOM     96  S   UNL     1     -15.126 -20.077   5.637  1.00  0.00     0.124 S 
ATOM     97  O   UNL     1     -14.161 -21.127   5.947  1.00  0.00    -0.237 OA
ATOM     98  O   UNL     1     -15.646 -19.335   6.781  1.00  0.00    -0.237 OA
ATOM     99  O   UNL     1     -16.111 -20.412   4.613  1.00  0.00    -0.744 OA
ENDBRANCH  95  96
ENDBRANCH  63  88
ENDBRANCH  37  38
ENDBRANCH  29  32
ENDBRANCH  27  28
ENDBRANCH   1  27
TORSDOF 18
