REMARK SMILES O=C(C[N@@H+](C[C@@H]1COc2ccccc2O1)CC(F)(F)F)NCCCNC(=O)c1ccc(-c2c3nc(c(-c4c(F)cc(S(=O)(=O)[O-])cc4F)c4ccc([nH]4)c(-c4c(F)cc(S(=O)(=O)[O-])cc4F)c4nc(c(-c5c(F)cc(S(=O)(=O)[O-])cc5F)c5ccc2[nH]5)C=C4)C=C3)cc1
REMARK SMILES IDX 23 1 22 2 21 3 1 4 2 5 3 7 4 8 5 10 6 11 7 12 15 13 8 14
REMARK SMILES IDX 14 15 9 16 13 17 10 18 12 19 11 20 16 21 17 22 18 23 19 24
REMARK SMILES IDX 20 25 24 26 25 27 26 28 27 30 28 31 29 32 93 33 30 34 92 35
REMARK SMILES IDX 31 36 32 37 33 38 86 39 34 40 91 41 85 42 87 43 35 44 90 45
REMARK SMILES IDX 84 46 83 47 36 49 70 50 49 51 69 52 50 53 53 54 68 55 88 56
REMARK SMILES IDX 51 57 52 58 67 60 89 61 54 62 37 63 38 64 47 65 39 66 40 67
REMARK SMILES IDX 46 68 48 69 41 70 42 71 43 72 44 73 45 74 71 75 72 76 81 77
REMARK SMILES IDX 73 78 74 79 80 80 82 81 75 82 76 83 77 84 78 85 79 86 55 87
REMARK SMILES IDX 56 88 65 89 57 90 58 91 64 92 66 93 59 94 60 95 61 96 62 97
REMARK SMILES IDX 63 98
REMARK H PARENT 21 6 4 9 25 29 87 48 53 59
REMARK Flexibility Score: inf
ROOT
ATOM      1  C   UNL     1       2.502   1.087  -3.333  1.00  0.00     0.042 C 
ENDROOT
BRANCH   1   2
ATOM      2  C   UNL     1       2.235  -0.147  -2.485  1.00  0.00     0.118 C 
BRANCH   2   3
ATOM      3  N   UNL     1       2.865  -0.095  -1.184  1.00  0.00    -0.351 N 
ATOM      4  O   UNL     1       1.216   1.131  -0.163  1.00  0.00    -0.269 OA
ATOM      5  C   UNL     1       2.251   0.477  -0.091  1.00  0.00     0.275 C 
ATOM      6  H   UNL     1       3.764  -0.482  -1.076  1.00  0.00     0.163 HD
BRANCH   5   7
ATOM      7  C   UNL     1       2.982   0.241   1.238  1.00  0.00     0.363 C 
BRANCH   7   8
ATOM      8  N   UNL     1       3.556  -1.121   1.335  1.00  0.00    -0.316 N 
ATOM      9  H   UNL     1       4.183  -1.185   0.533  1.00  0.00     0.348 HD
BRANCH   8  10
ATOM     10  C   UNL     1       4.391  -1.299   2.543  1.00  0.00     0.312 C 
BRANCH  10  11
ATOM     11  C   UNL     1       3.704  -1.328   3.938  1.00  0.00     0.265 C 
ATOM     12  C   UNL     1       4.720  -1.361   5.084  1.00  0.00     0.281 C 
ATOM     13  O   UNL     1       2.811  -2.446   4.063  1.00  0.00    -0.477 OA
ATOM     14  O   UNL     1       5.533  -2.540   5.046  1.00  0.00    -0.486 OA
ATOM     15  C   UNL     1       3.459  -3.615   4.369  1.00  0.00     0.162 A 
ATOM     16  C   UNL     1       4.779  -3.663   4.821  1.00  0.00     0.161 A 
ATOM     17  C   UNL     1       2.747  -4.797   4.167  1.00  0.00     0.050 A 
ATOM     18  C   UNL     1       5.402  -4.894   5.019  1.00  0.00     0.050 A 
ATOM     19  C   UNL     1       3.371  -6.029   4.361  1.00  0.00     0.004 A 
ATOM     20  C   UNL     1       4.700  -6.077   4.781  1.00  0.00     0.004 A 
ENDBRANCH  10  11
ENDBRANCH   8  10
BRANCH   8  21
ATOM     21  C   UNL     1       2.604  -2.247   1.089  1.00  0.00     0.379 C 
BRANCH  21  22
ATOM     22  C   UNL     1       1.095  -2.239   1.460  1.00  0.00     0.438 C 
ATOM     23  F   UNL     1       0.661  -1.056   1.934  1.00  0.00    -0.165 F 
ATOM     24  F   UNL     1       0.350  -2.539   0.366  1.00  0.00    -0.165 F 
ATOM     25  F   UNL     1       0.801  -3.178   2.387  1.00  0.00    -0.165 F 
ENDBRANCH  21  22
ENDBRANCH   8  21
ENDBRANCH   7   8
ENDBRANCH   5   7
ENDBRANCH   2   3
ENDBRANCH   1   2
BRANCH   1  26
ATOM     26  C   UNL     1       3.970   1.290  -3.690  1.00  0.00     0.118 C 
BRANCH  26  27
ATOM     27  N   UNL     1       4.502   0.238  -4.548  1.00  0.00    -0.352 N 
ATOM     28  C   UNL     1       5.166   0.333  -5.750  1.00  0.00     0.251 C 
ATOM     29  H   UNL     1       4.367  -0.679  -4.217  1.00  0.00     0.163 HD
ATOM     30  O   UNL     1       5.418  -0.683  -6.386  1.00  0.00    -0.269 OA
BRANCH  28  31
ATOM     31  C   UNL     1       5.549   1.660  -6.284  1.00  0.00     0.039 A 
ATOM     32  C   UNL     1       5.314   1.940  -7.633  1.00  0.00     0.014 A 
ATOM     33  C   UNL     1       6.136   2.623  -5.461  1.00  0.00     0.014 A 
ATOM     34  C   UNL     1       5.593   3.214  -8.137  1.00  0.00     0.010 A 
ATOM     35  C   UNL     1       6.348   3.911  -5.946  1.00  0.00     0.010 A 
ATOM     36  C   UNL     1       6.074   4.222  -7.287  1.00  0.00    -0.014 A 
BRANCH  36  37
ATOM     37  C   UNL     1       6.300   5.612  -7.763  1.00  0.00     0.031 A 
ATOM     38  C   UNL     1       7.685   6.199  -7.729  1.00  0.00     0.074 A 
ATOM     39  C   UNL     1       5.251   6.377  -8.127  1.00  0.00     0.049 A 
ATOM     40  N   UNL     1       8.068   7.431  -7.937  1.00  0.00    -0.248 NA
ATOM     41  C   UNL     1       8.782   5.279  -7.383  1.00  0.00     0.031 C 
ATOM     42  C   UNL     1       3.855   5.936  -8.173  1.00  0.00     0.029 A 
ATOM     43  N   UNL     1       5.193   7.696  -8.505  1.00  0.00    -0.354 N 
ATOM     44  C   UNL     1       9.441   7.444  -7.721  1.00  0.00     0.074 A 
ATOM     45  C   UNL     1       9.818   6.103  -7.328  1.00  0.00     0.031 C 
ATOM     46  C   UNL     1       3.082   6.963  -8.562  1.00  0.00     0.029 A 
ATOM     47  C   UNL     1       3.916   8.145  -8.749  1.00  0.00     0.049 A 
ATOM     48  H   UNL     1       5.991   8.266  -8.593  1.00  0.00     0.167 HD
ATOM     49  C   UNL     1      10.309   8.474  -7.855  1.00  0.00     0.037 A 
ATOM     50  C   UNL     1       3.466   9.375  -9.067  1.00  0.00     0.037 A 
ATOM     51  C   UNL     1       9.932   9.797  -8.278  1.00  0.00     0.049 A 
ATOM     52  C   UNL     1       4.450  10.504  -9.212  1.00  0.00     0.074 A 
ATOM     53  C   UNL     1      10.745  10.897  -8.492  1.00  0.00     0.029 A 
ATOM     54  N   UNL     1       8.634  10.200  -8.558  1.00  0.00    -0.354 N 
ATOM     55  N   UNL     1       5.751  10.490  -9.041  1.00  0.00    -0.248 NA
ATOM     56  C   UNL     1       3.908  11.816  -9.596  1.00  0.00     0.031 C 
ATOM     57  C   UNL     1       9.934  11.974  -8.866  1.00  0.00     0.029 A 
ATOM     58  C   UNL     1       8.622  11.533  -8.931  1.00  0.00     0.049 A 
ATOM     59  H   UNL     1       7.838   9.623  -8.499  1.00  0.00     0.167 HD
ATOM     60  C   UNL     1       6.186  11.778  -9.331  1.00  0.00     0.074 A 
ATOM     61  C   UNL     1       5.011  12.546  -9.689  1.00  0.00     0.031 C 
ATOM     62  C   UNL     1       7.446  12.278  -9.308  1.00  0.00     0.037 A 
BRANCH  49  63
ATOM     63  C   UNL     1      11.756   8.211  -7.539  1.00  0.00     0.058 A 
ATOM     64  C   UNL     1      12.559   7.413  -8.370  1.00  0.00     0.135 A 
ATOM     65  C   UNL     1      12.356   8.787  -6.407  1.00  0.00     0.135 A 
ATOM     66  F   UNL     1      12.033   6.826  -9.457  1.00  0.00    -0.206 F 
ATOM     67  C   UNL     1      13.896   7.169  -8.073  1.00  0.00     0.059 A 
ATOM     68  C   UNL     1      13.699   8.580  -6.106  1.00  0.00     0.059 A 
ATOM     69  F   UNL     1      11.635   9.559  -5.579  1.00  0.00    -0.206 F 
ATOM     70  C   UNL     1      14.456   7.755  -6.937  1.00  0.00     0.060 A 
BRANCH  70  71
ATOM     71  S   UNL     1      16.191   7.425  -6.564  1.00  0.00     0.124 S 
ATOM     72  O   UNL     1      16.127   6.051  -6.076  1.00  0.00    -0.237 OA
ATOM     73  O   UNL     1      16.832   7.607  -7.862  1.00  0.00    -0.237 OA
ATOM     74  O   UNL     1      16.520   8.432  -5.560  1.00  0.00    -0.744 OA
ENDBRANCH  70  71
ENDBRANCH  49  63
BRANCH  50  75
ATOM     75  C   UNL     1       2.012   9.600  -9.287  1.00  0.00     0.058 A 
ATOM     76  C   UNL     1       1.509   9.842 -10.573  1.00  0.00     0.135 A 
ATOM     77  C   UNL     1       1.097   9.565  -8.223  1.00  0.00     0.135 A 
ATOM     78  F   UNL     1       2.345   9.891 -11.621  1.00  0.00    -0.206 F 
ATOM     79  C   UNL     1       0.153  10.058 -10.798  1.00  0.00     0.059 A 
ATOM     80  C   UNL     1      -0.267   9.754  -8.425  1.00  0.00     0.059 A 
ATOM     81  F   UNL     1       1.526   9.321  -6.975  1.00  0.00    -0.206 F 
ATOM     82  C   UNL     1      -0.728  10.011  -9.716  1.00  0.00     0.060 A 
BRANCH  82  83
ATOM     83  S   UNL     1      -2.491  10.248 -10.026  1.00  0.00     0.124 S 
ATOM     84  O   UNL     1      -2.555  11.683 -10.275  1.00  0.00    -0.237 OA
ATOM     85  O   UNL     1      -2.718   9.388 -11.184  1.00  0.00    -0.237 OA
ATOM     86  O   UNL     1      -3.113   9.793  -8.786  1.00  0.00    -0.744 OA
ENDBRANCH  82  83
ENDBRANCH  50  75
BRANCH  62  87
ATOM     87  C   UNL     1       7.638  13.707  -9.733  1.00  0.00     0.058 A 
ATOM     88  C   UNL     1       7.271  14.781  -8.910  1.00  0.00     0.135 A 
ATOM     89  C   UNL     1       8.266  14.000 -10.955  1.00  0.00     0.135 A 
ATOM     90  F   UNL     1       6.661  14.555  -7.735  1.00  0.00    -0.206 F 
ATOM     91  C   UNL     1       7.508  16.099  -9.288  1.00  0.00     0.059 A 
ATOM     92  C   UNL     1       8.536  15.308 -11.342  1.00  0.00     0.059 A 
ATOM     93  F   UNL     1       8.645  13.007 -11.775  1.00  0.00    -0.206 F 
ATOM     94  C   UNL     1       8.146  16.352 -10.505  1.00  0.00     0.060 A 
BRANCH  94  95
ATOM     95  S   UNL     1       8.497  18.064 -10.960  1.00  0.00     0.124 S 
ATOM     96  O   UNL     1       7.173  18.544 -11.343  1.00  0.00    -0.237 OA
ATOM     97  O   UNL     1       9.037  18.614  -9.720  1.00  0.00    -0.237 OA
ATOM     98  O   UNL     1       9.459  17.935 -12.051  1.00  0.00    -0.744 OA
ENDBRANCH  94  95
ENDBRANCH  62  87
ENDBRANCH  36  37
ENDBRANCH  28  31
ENDBRANCH  26  27
ENDBRANCH   1  26
TORSDOF 18
