REMARK SMILES CC(=O)c1cccc(C(=O)NCCCNC(=O)c2ccc(-c3c4nc(c(-c5c(F)cc(S(=O)(=O)[O-])cc5F)c5ccc([nH]5)c(-c5c(F)cc(S(=O)(=O)[O-])cc5F)c5nc(c(-c6c(F)cc(S(=O)(=O)[O-])cc6F)c6ccc3[nH]6)C=C5)C=C4)cc2)c1C
REMARK SMILES IDX 14 1 13 2 12 3 11 4 9 5 10 6 8 8 4 9 5 10 84 11 6 12 85 13
REMARK SMILES IDX 7 14 2 15 1 16 3 17 15 18 16 19 17 21 18 22 19 23 83 24
REMARK SMILES IDX 20 25 82 26 21 27 22 28 23 29 76 30 24 31 81 32 75 33 77 34
REMARK SMILES IDX 25 35 80 36 74 37 73 38 26 40 60 41 39 42 59 43 40 44 43 45
REMARK SMILES IDX 58 46 78 47 41 48 42 49 57 51 79 52 44 53 27 54 28 55 37 56
REMARK SMILES IDX 29 57 30 58 36 59 38 60 31 61 32 62 33 63 34 64 35 65 61 66
REMARK SMILES IDX 62 67 71 68 63 69 64 70 70 71 72 72 65 73 66 74 67 75 68 76
REMARK SMILES IDX 69 77 45 78 46 79 55 80 47 81 48 82 54 83 56 84 49 85 50 86
REMARK SMILES IDX 51 87 52 88 53 89
REMARK H PARENT 11 7 15 20 77 39 43 50
REMARK Flexibility Score: inf
ROOT
ATOM      1  C   UNL     1      -1.013   5.187   0.383  1.00  0.00     0.118 C 
ENDROOT
BRANCH   1   2
ATOM      2  C   UNL     1      -1.037   3.769   0.935  1.00  0.00     0.042 C 
BRANCH   2   3
ATOM      3  C   UNL     1      -0.397   3.564   2.312  1.00  0.00     0.118 C 
BRANCH   3   4
ATOM      4  N   UNL     1      -1.399   3.116   3.277  1.00  0.00    -0.352 N 
ATOM      5  C   UNL     1      -1.780   1.910   3.801  1.00  0.00     0.251 C 
ATOM      6  O   UNL     1      -2.722   1.934   4.600  1.00  0.00    -0.269 OA
ATOM      7  H   UNL     1      -1.928   3.863   3.638  1.00  0.00     0.163 HD
BRANCH   5   8
ATOM      8  C   UNL     1      -1.111   0.588   3.571  1.00  0.00     0.043 A 
ATOM      9  C   UNL     1      -0.052  -1.243   2.362  1.00  0.00     0.021 A 
ATOM     10  C   UNL     1      -0.044  -2.030   3.518  1.00  0.00     0.012 A 
ATOM     11  C   UNL     1      -0.681   0.029   2.350  1.00  0.00    -0.028 A 
ATOM     12  C   UNL     1      -0.576  -1.531   4.696  1.00  0.00     0.002 A 
ATOM     13  C   UNL     1      -0.978   0.658   1.027  1.00  0.00     0.046 C 
ATOM     14  C   UNL     1      -1.068  -0.226   4.726  1.00  0.00     0.014 A 
BRANCH   9  15
ATOM     15  C   UNL     1       0.598  -1.843   1.162  1.00  0.00     0.160 C 
ATOM     16  C   UNL     1       1.550  -0.994   0.355  1.00  0.00     0.093 C 
ATOM     17  O   UNL     1       0.395  -3.024   0.886  1.00  0.00    -0.295 OA
ENDBRANCH   9  15
ENDBRANCH   5   8
ENDBRANCH   3   4
ENDBRANCH   2   3
ENDBRANCH   1   2
BRANCH   1  18
ATOM     18  N   UNL     1      -0.400   5.202  -0.952  1.00  0.00    -0.352 N 
ATOM     19  C   UNL     1      -0.767   5.918  -2.075  1.00  0.00     0.251 C 
ATOM     20  H   UNL     1       0.385   4.618  -1.062  1.00  0.00     0.163 HD
ATOM     21  O   UNL     1      -0.270   5.762  -3.173  1.00  0.00    -0.269 OA
BRANCH  19  22
ATOM     22  C   UNL     1      -1.801   6.939  -1.847  1.00  0.00     0.039 A 
ATOM     23  C   UNL     1      -1.344   8.165  -1.347  1.00  0.00     0.014 A 
ATOM     24  C   UNL     1      -3.106   6.492  -1.656  1.00  0.00     0.014 A 
ATOM     25  C   UNL     1      -2.140   8.859  -0.450  1.00  0.00     0.010 A 
ATOM     26  C   UNL     1      -3.873   7.162  -0.722  1.00  0.00     0.010 A 
ATOM     27  C   UNL     1      -3.354   8.294  -0.063  1.00  0.00    -0.014 A 
BRANCH  27  28
ATOM     28  C   UNL     1      -4.096   8.757   1.104  1.00  0.00     0.031 A 
ATOM     29  C   UNL     1      -5.360   9.496   0.907  1.00  0.00     0.074 A 
ATOM     30  C   UNL     1      -3.663   8.472   2.353  1.00  0.00     0.049 A 
ATOM     31  N   UNL     1      -5.933  10.231   1.798  1.00  0.00    -0.248 NA
ATOM     32  C   UNL     1      -6.044   9.515  -0.378  1.00  0.00     0.031 C 
ATOM     33  C   UNL     1      -4.430   8.582   3.591  1.00  0.00     0.029 A 
ATOM     34  N   UNL     1      -2.352   8.218   2.776  1.00  0.00    -0.354 N 
ATOM     35  C   UNL     1      -7.174  10.590   1.316  1.00  0.00     0.074 A 
ATOM     36  C   UNL     1      -7.155  10.184  -0.068  1.00  0.00     0.031 C 
ATOM     37  C   UNL     1      -3.580   8.661   4.625  1.00  0.00     0.029 A 
ATOM     38  C   UNL     1      -2.238   8.749   4.078  1.00  0.00     0.049 A 
ATOM     39  H   UNL     1      -1.648   7.758   2.265  1.00  0.00     0.167 HD
ATOM     40  C   UNL     1      -8.110  11.068   2.189  1.00  0.00     0.037 A 
ATOM     41  C   UNL     1      -1.350   9.743   4.371  1.00  0.00     0.037 A 
ATOM     42  C   UNL     1      -7.505  11.335   3.499  1.00  0.00     0.049 A 
ATOM     43  C   UNL     1      -1.993  11.021   4.856  1.00  0.00     0.074 A 
ATOM     44  C   UNL     1      -7.465  10.622   4.686  1.00  0.00     0.029 A 
ATOM     45  N   UNL     1      -6.549  12.342   3.617  1.00  0.00    -0.354 N 
ATOM     46  N   UNL     1      -3.263  11.293   4.727  1.00  0.00    -0.248 NA
ATOM     47  C   UNL     1      -1.258  12.102   5.510  1.00  0.00     0.031 C 
ATOM     48  C   UNL     1      -6.423  11.155   5.487  1.00  0.00     0.029 A 
ATOM     49  C   UNL     1      -5.844  12.209   4.800  1.00  0.00     0.049 A 
ATOM     50  H   UNL     1      -6.396  13.051   2.951  1.00  0.00     0.167 HD
ATOM     51  C   UNL     1      -3.517  12.551   5.210  1.00  0.00     0.074 A 
ATOM     52  C   UNL     1      -2.236  13.002   5.721  1.00  0.00     0.031 C 
ATOM     53  C   UNL     1      -4.757  13.122   5.134  1.00  0.00     0.037 A 
BRANCH  40  54
ATOM     54  C   UNL     1      -9.613  10.988   1.945  1.00  0.00     0.058 A 
ATOM     55  C   UNL     1     -10.515  10.890   3.029  1.00  0.00     0.135 A 
ATOM     56  C   UNL     1     -10.230  10.904   0.680  1.00  0.00     0.135 A 
ATOM     57  F   UNL     1     -10.111  11.061   4.295  1.00  0.00    -0.206 F 
ATOM     58  C   UNL     1     -11.877  10.606   2.872  1.00  0.00     0.059 A 
ATOM     59  C   UNL     1     -11.574  10.564   0.496  1.00  0.00     0.059 A 
ATOM     60  F   UNL     1      -9.579  11.214  -0.444  1.00  0.00    -0.206 F 
ATOM     61  C   UNL     1     -12.392  10.402   1.600  1.00  0.00     0.060 A 
BRANCH  61  62
ATOM     62  S   UNL     1     -14.127   9.957   1.406  1.00  0.00     0.124 S 
ATOM     63  O   UNL     1     -14.230   8.756   2.231  1.00  0.00    -0.237 OA
ATOM     64  O   UNL     1     -14.805  11.142   1.919  1.00  0.00    -0.237 OA
ATOM     65  O   UNL     1     -14.263   9.733  -0.031  1.00  0.00    -0.744 OA
ENDBRANCH  61  62
ENDBRANCH  40  54
BRANCH  41  66
ATOM     66  C   UNL     1      -0.074   9.636   3.615  1.00  0.00     0.058 A 
ATOM     67  C   UNL     1       0.784   8.568   3.943  1.00  0.00     0.135 A 
ATOM     68  C   UNL     1       0.090  10.237   2.360  1.00  0.00     0.135 A 
ATOM     69  F   UNL     1       0.678   7.965   5.138  1.00  0.00    -0.206 F 
ATOM     70  C   UNL     1       1.653   8.014   3.011  1.00  0.00     0.059 A 
ATOM     71  C   UNL     1       0.960   9.697   1.408  1.00  0.00     0.059 A 
ATOM     72  F   UNL     1      -0.695  11.261   1.995  1.00  0.00    -0.206 F 
ATOM     73  C   UNL     1       1.687   8.547   1.724  1.00  0.00     0.060 A 
BRANCH  73  74
ATOM     74  S   UNL     1       2.532   7.590   0.440  1.00  0.00     0.124 S 
ATOM     75  O   UNL     1       3.932   7.769   0.803  1.00  0.00    -0.237 OA
ATOM     76  O   UNL     1       1.996   6.246   0.655  1.00  0.00    -0.237 OA
ATOM     77  O   UNL     1       2.105   8.239  -0.794  1.00  0.00    -0.744 OA
ENDBRANCH  73  74
ENDBRANCH  41  66
BRANCH  53  78
ATOM     78  C   UNL     1      -5.079  14.564   5.453  1.00  0.00     0.058 A 
ATOM     79  C   UNL     1      -4.180  15.630   5.274  1.00  0.00     0.135 A 
ATOM     80  C   UNL     1      -6.390  14.934   5.840  1.00  0.00     0.135 A 
ATOM     81  F   UNL     1      -2.944  15.426   4.795  1.00  0.00    -0.206 F 
ATOM     82  C   UNL     1      -4.528  16.957   5.535  1.00  0.00     0.059 A 
ATOM     83  C   UNL     1      -6.775  16.256   6.051  1.00  0.00     0.059 A 
ATOM     84  F   UNL     1      -7.352  14.015   6.014  1.00  0.00    -0.206 F 
ATOM     85  C   UNL     1      -5.828  17.262   5.926  1.00  0.00     0.060 A 
BRANCH  85  86
ATOM     86  S   UNL     1      -6.306  18.976   6.215  1.00  0.00     0.124 S 
ATOM     87  O   UNL     1      -6.073  19.105   7.650  1.00  0.00    -0.237 OA
ATOM     88  O   UNL     1      -5.386  19.720   5.359  1.00  0.00    -0.237 OA
ATOM     89  O   UNL     1      -7.702  19.005   5.793  1.00  0.00    -0.744 OA
ENDBRANCH  85  86
ENDBRANCH  53  78
ENDBRANCH  27  28
ENDBRANCH  19  22
ENDBRANCH   1  18
TORSDOF 14
