REMARK SMILES O=C(NCCCNC(=O)c1ccc(-c2c3nc(c(-c4c(F)cc(S(=O)(=O)[O-])cc4F)c4ccc([nH]4)c(-c4c(F)cc(S(=O)(=O)[O-])cc4F)c4nc(c(-c5c(F)cc(S(=O)(=O)[O-])cc5F)c5ccc2[nH]5)C=C4)C=C3)cc1)C1=Cc2c(ccc(Cl)c2-c2ccccc2)O[C@H]1C(F)(F)F
REMARK SMILES IDX 6 1 5 2 4 3 3 4 1 5 2 6 76 8 77 9 92 10 78 11 91 12 79 13
REMARK SMILES IDX 84 14 80 15 82 16 81 17 83 18 93 19 94 20 95 21 96 22 85 23
REMARK SMILES IDX 86 24 90 25 87 26 89 27 88 28 7 29 8 30 9 32 10 33 11 34
REMARK SMILES IDX 75 35 12 36 74 37 13 38 14 39 15 40 68 41 16 42 73 43 67 44
REMARK SMILES IDX 69 45 17 46 72 47 66 48 65 49 18 51 52 52 31 53 51 54 32 55
REMARK SMILES IDX 35 56 50 57 70 58 33 59 34 60 49 62 71 63 36 64 19 65 20 66
REMARK SMILES IDX 29 67 21 68 22 69 28 70 30 71 23 72 24 73 25 74 26 75 27 76
REMARK SMILES IDX 53 77 54 78 63 79 55 80 56 81 62 82 64 83 57 84 58 85 59 86
REMARK SMILES IDX 60 87 61 88 37 89 38 90 47 91 39 92 40 93 46 94 48 95 41 96
REMARK SMILES IDX 42 97 43 98 44 99 45 100
REMARK H PARENT 3 7 7 31 69 50 35 61
REMARK Flexibility Score: inf
ROOT
ATOM      1  C   UNL     1       3.696   2.616   3.044  1.00  0.00     0.118 C 
ENDROOT
BRANCH   1   2
ATOM      2  C   UNL     1       4.211   2.701   1.613  1.00  0.00     0.042 C 
BRANCH   2   3
ATOM      3  C   UNL     1       3.984   1.433   0.808  1.00  0.00     0.118 C 
BRANCH   3   4
ATOM      4  N   UNL     1       2.628   1.238   0.324  1.00  0.00    -0.352 N 
ATOM      5  O   UNL     1       0.981   0.329  -0.912  1.00  0.00    -0.270 OA
ATOM      6  C   UNL     1       2.172   0.354  -0.614  1.00  0.00     0.251 C 
ATOM      7  H   UNL     1       1.944   1.821   0.726  1.00  0.00     0.163 HD
BRANCH   6   8
ATOM      8  C   UNL     1       3.100  -0.590  -1.275  1.00  0.00     0.067 C 
ATOM      9  C   UNL     1       3.370  -1.730  -0.623  1.00  0.00     0.026 C 
ATOM     10  C   UNL     1       4.079  -0.096  -2.298  1.00  0.00     0.314 C 
ATOM     11  C   UNL     1       4.716  -1.625   0.006  1.00  0.00     0.027 A 
ATOM     12  O   UNL     1       5.476  -0.323  -1.905  1.00  0.00    -0.475 OA
ATOM     13  C   UNL     1       5.699  -0.888  -0.672  1.00  0.00     0.128 A 
ATOM     14  C   UNL     1       4.910  -2.099   1.329  1.00  0.00     0.011 A 
ATOM     15  C   UNL     1       6.904  -0.607  -0.040  1.00  0.00     0.049 A 
ATOM     16  C   UNL     1       6.125  -1.782   1.955  1.00  0.00     0.049 A 
ATOM     17  C   UNL     1       7.107  -1.038   1.277  1.00  0.00     0.025 A 
ATOM     18  Cl  UNL     1       6.443  -2.234   3.590  1.00  0.00    -0.084 Cl
BRANCH  10  19
ATOM     19  C   UNL     1       3.795  -0.719  -3.682  1.00  0.00     0.429 C 
ATOM     20  F   UNL     1       2.962  -1.787  -3.624  1.00  0.00    -0.167 F 
ATOM     21  F   UNL     1       3.224   0.183  -4.515  1.00  0.00    -0.167 F 
ATOM     22  F   UNL     1       4.927  -1.154  -4.286  1.00  0.00    -0.167 F 
ENDBRANCH  10  19
BRANCH  14  23
ATOM     23  C   UNL     1       3.756  -2.751   1.983  1.00  0.00    -0.016 A 
ATOM     24  C   UNL     1       2.892  -1.994   2.791  1.00  0.00     0.009 A 
ATOM     25  C   UNL     1       3.324  -4.011   1.536  1.00  0.00     0.009 A 
ATOM     26  C   UNL     1       1.590  -2.429   3.042  1.00  0.00     0.001 A 
ATOM     27  C   UNL     1       2.018  -4.439   1.778  1.00  0.00     0.001 A 
ATOM     28  C   UNL     1       1.145  -3.635   2.508  1.00  0.00     0.000 A 
ENDBRANCH  14  23
ENDBRANCH   6   8
ENDBRANCH   3   4
ENDBRANCH   2   3
ENDBRANCH   1   2
BRANCH   1  29
ATOM     29  N   UNL     1       4.477   1.738   3.913  1.00  0.00    -0.352 N 
ATOM     30  C   UNL     1       5.439   1.965   4.876  1.00  0.00     0.251 C 
ATOM     31  H   UNL     1       4.274   0.783   3.784  1.00  0.00     0.163 HD
ATOM     32  O   UNL     1       5.969   1.004   5.412  1.00  0.00    -0.269 OA
BRANCH  30  33
ATOM     33  C   UNL     1       5.886   3.334   5.228  1.00  0.00     0.039 A 
ATOM     34  C   UNL     1       7.239   3.542   5.528  1.00  0.00     0.014 A 
ATOM     35  C   UNL     1       5.008   4.411   5.276  1.00  0.00     0.014 A 
ATOM     36  C   UNL     1       7.718   4.838   5.747  1.00  0.00     0.010 A 
ATOM     37  C   UNL     1       5.503   5.707   5.360  1.00  0.00     0.010 A 
ATOM     38  C   UNL     1       6.866   5.941   5.591  1.00  0.00    -0.014 A 
BRANCH  38  39
ATOM     39  C   UNL     1       7.354   7.346   5.657  1.00  0.00     0.031 A 
ATOM     40  C   UNL     1       6.719   8.318   6.618  1.00  0.00     0.074 A 
ATOM     41  C   UNL     1       8.277   7.778   4.773  1.00  0.00     0.049 A 
ATOM     42  N   UNL     1       6.848   9.618   6.689  1.00  0.00    -0.248 NA
ATOM     43  C   UNL     1       5.769   7.759   7.595  1.00  0.00     0.031 C 
ATOM     44  C   UNL     1       8.926   6.956   3.748  1.00  0.00     0.029 A 
ATOM     45  N   UNL     1       8.817   9.026   4.580  1.00  0.00    -0.354 N 
ATOM     46  C   UNL     1       5.962  10.033   7.676  1.00  0.00     0.074 A 
ATOM     47  C   UNL     1       5.263   8.855   8.140  1.00  0.00     0.031 C 
ATOM     48  C   UNL     1       9.795   7.712   3.058  1.00  0.00     0.029 A 
ATOM     49  C   UNL     1       9.730   9.082   3.553  1.00  0.00     0.049 A 
ATOM     50  H   UNL     1       8.573   9.808   5.126  1.00  0.00     0.167 HD
ATOM     51  C   UNL     1       5.764  11.279   8.171  1.00  0.00     0.037 A 
ATOM     52  C   UNL     1      10.429  10.121   3.057  1.00  0.00     0.037 A 
ATOM     53  C   UNL     1       6.517  12.434   7.758  1.00  0.00     0.049 A 
ATOM     54  C   UNL     1      10.241  11.484   3.664  1.00  0.00     0.074 A 
ATOM     55  C   UNL     1       6.458  13.724   8.254  1.00  0.00     0.029 A 
ATOM     56  N   UNL     1       7.481  12.432   6.760  1.00  0.00    -0.354 N 
ATOM     57  N   UNL     1       9.428  11.850   4.626  1.00  0.00    -0.248 NA
ATOM     58  C   UNL     1      11.063  12.573   3.121  1.00  0.00     0.031 C 
ATOM     59  C   UNL     1       7.370  14.508   7.540  1.00  0.00     0.029 A 
ATOM     60  C   UNL     1       8.022  13.699   6.622  1.00  0.00     0.049 A 
ATOM     61  H   UNL     1       7.742  11.646   6.228  1.00  0.00     0.167 HD
ATOM     62  C   UNL     1       9.656  13.208   4.819  1.00  0.00     0.074 A 
ATOM     63  C   UNL     1      10.692  13.594   3.882  1.00  0.00     0.031 C 
ATOM     64  C   UNL     1       9.060  14.058   5.690  1.00  0.00     0.037 A 
BRANCH  51  65
ATOM     65  C   UNL     1       4.706  11.448   9.227  1.00  0.00     0.058 A 
ATOM     66  C   UNL     1       4.865  10.925  10.521  1.00  0.00     0.135 A 
ATOM     67  C   UNL     1       3.522  12.148   8.947  1.00  0.00     0.135 A 
ATOM     68  F   UNL     1       5.971  10.233  10.839  1.00  0.00    -0.206 F 
ATOM     69  C   UNL     1       3.870  11.049  11.485  1.00  0.00     0.059 A 
ATOM     70  C   UNL     1       2.525  12.312   9.906  1.00  0.00     0.059 A 
ATOM     71  F   UNL     1       3.317  12.673   7.729  1.00  0.00    -0.206 F 
ATOM     72  C   UNL     1       2.700  11.740  11.166  1.00  0.00     0.060 A 
BRANCH  72  73
ATOM     73  S   UNL     1       1.412  11.881  12.422  1.00  0.00     0.124 S 
ATOM     74  O   UNL     1       0.831  10.542  12.391  1.00  0.00    -0.237 OA
ATOM     75  O   UNL     1       2.176  12.212  13.621  1.00  0.00    -0.237 OA
ATOM     76  O   UNL     1       0.557  12.949  11.913  1.00  0.00    -0.744 OA
ENDBRANCH  72  73
ENDBRANCH  51  65
BRANCH  52  77
ATOM     77  C   UNL     1      11.397   9.904   1.949  1.00  0.00     0.058 A 
ATOM     78  C   UNL     1      12.778   9.943   2.189  1.00  0.00     0.135 A 
ATOM     79  C   UNL     1      10.968   9.629   0.641  1.00  0.00     0.135 A 
ATOM     80  F   UNL     1      13.236  10.207   3.422  1.00  0.00    -0.206 F 
ATOM     81  C   UNL     1      13.702   9.729   1.172  1.00  0.00     0.059 A 
ATOM     82  C   UNL     1      11.873   9.389  -0.389  1.00  0.00     0.059 A 
ATOM     83  F   UNL     1       9.657   9.561   0.364  1.00  0.00    -0.206 F 
ATOM     84  C   UNL     1      13.239   9.450  -0.115  1.00  0.00     0.060 A 
BRANCH  84  85
ATOM     85  S   UNL     1      14.446   9.114  -1.416  1.00  0.00     0.124 S 
ATOM     86  O   UNL     1      14.953  10.451  -1.698  1.00  0.00    -0.237 OA
ATOM     87  O   UNL     1      15.374   8.206  -0.748  1.00  0.00    -0.237 OA
ATOM     88  O   UNL     1      13.639   8.507  -2.471  1.00  0.00    -0.744 OA
ENDBRANCH  84  85
ENDBRANCH  52  77
BRANCH  64  89
ATOM     89  C   UNL     1       9.535  15.483   5.695  1.00  0.00     0.058 A 
ATOM     90  C   UNL     1       9.175  16.380   4.678  1.00  0.00     0.135 A 
ATOM     91  C   UNL     1      10.311  15.969   6.759  1.00  0.00     0.135 A 
ATOM     92  F   UNL     1       8.440  15.960   3.636  1.00  0.00    -0.206 F 
ATOM     93  C   UNL     1       9.582  17.709   4.707  1.00  0.00     0.059 A 
ATOM     94  C   UNL     1      10.710  17.300   6.821  1.00  0.00     0.059 A 
ATOM     95  F   UNL     1      10.674  15.151   7.760  1.00  0.00    -0.206 F 
ATOM     96  C   UNL     1      10.348  18.160   5.784  1.00  0.00     0.060 A 
BRANCH  96  97
ATOM     97  S   UNL     1      10.835  19.897   5.833  1.00  0.00     0.124 S 
ATOM     98  O   UNL     1      11.913  19.927   4.849  1.00  0.00    -0.237 OA
ATOM     99  O   UNL     1       9.604  20.580   5.446  1.00  0.00    -0.237 OA
ATOM    100  O   UNL     1      11.245  20.096   7.220  1.00  0.00    -0.744 OA
ENDBRANCH  96  97
ENDBRANCH  64  89
ENDBRANCH  38  39
ENDBRANCH  30  33
ENDBRANCH   1  29
TORSDOF 15
