REMARK SMILES O=C(NCCCNC(=O)c1ccc(Cl)nc1NC[C@@H]1C[N@@H+]2CCC[C@@H]2CO1)c1ccc(-c2c3nc(c(-c4c(F)cc(S(=O)(=O)[O-])cc4F)c4ccc([nH]4)c(-c4c(F)cc(S(=O)(=O)[O-])cc4F)c4nc(c(-c5c(F)cc(S(=O)(=O)[O-])cc5F)c5ccc2[nH]5)C=C4)C=C3)cc1
REMARK SMILES IDX 5 1 4 2 3 3 1 4 2 5 28 7 29 8 93 9 30 10 92 11 31 12 32 13
REMARK SMILES IDX 33 14 86 15 34 16 91 17 85 18 87 19 35 20 90 21 84 22 83 23
REMARK SMILES IDX 36 25 70 26 49 27 69 28 50 29 53 30 68 31 88 32 51 33 52 34
REMARK SMILES IDX 67 36 89 37 54 38 37 39 38 40 47 41 39 42 40 43 46 44 48 45
REMARK SMILES IDX 41 46 42 47 43 48 44 49 45 50 71 51 72 52 81 53 73 54 74 55
REMARK SMILES IDX 80 56 82 57 75 58 76 59 77 60 78 61 79 62 55 63 56 64 65 65
REMARK SMILES IDX 57 66 58 67 64 68 66 69 59 70 60 71 61 72 62 73 63 74 6 75
REMARK SMILES IDX 7 76 8 77 9 79 10 80 11 81 16 82 12 83 15 84 13 85 14 86
REMARK SMILES IDX 17 87 18 89 19 90 20 91 27 92 21 93 26 94 22 95 25 96 23 98
REMARK SMILES IDX 24 99
REMARK H PARENT 3 6 87 24 53 35 7 78 17 88 21 97
REMARK Flexibility Score: inf
ROOT
ATOM      1  C   UNL     1      13.484   1.982  14.415  1.00  0.00     0.042 C 
ENDROOT
BRANCH   1   2
ATOM      2  C   UNL     1      13.954   0.625  14.924  1.00  0.00     0.118 C 
BRANCH   2   3
ATOM      3  N   UNL     1      15.245   0.692  15.597  1.00  0.00    -0.352 N 
ATOM      4  O   UNL     1      16.699   0.869  17.302  1.00  0.00    -0.269 OA
ATOM      5  C   UNL     1      15.565   0.571  16.927  1.00  0.00     0.251 C 
ATOM      6  H   UNL     1      16.013   0.850  15.001  1.00  0.00     0.163 HD
BRANCH   5   7
ATOM      7  C   UNL     1      14.560   0.104  17.906  1.00  0.00     0.039 A 
ATOM      8  C   UNL     1      13.697  -0.948  17.598  1.00  0.00     0.014 A 
ATOM      9  C   UNL     1      14.506   0.701  19.170  1.00  0.00     0.014 A 
ATOM     10  C   UNL     1      12.683  -1.296  18.483  1.00  0.00     0.010 A 
ATOM     11  C   UNL     1      13.549   0.281  20.099  1.00  0.00     0.010 A 
ATOM     12  C   UNL     1      12.610  -0.702  19.753  1.00  0.00    -0.014 A 
BRANCH  12  13
ATOM     13  C   UNL     1      11.591  -1.183  20.721  1.00  0.00     0.031 A 
ATOM     14  C   UNL     1      10.501  -0.277  21.223  1.00  0.00     0.074 A 
ATOM     15  C   UNL     1      11.643  -2.469  21.123  1.00  0.00     0.049 A 
ATOM     16  N   UNL     1       9.531  -0.544  22.059  1.00  0.00    -0.248 NA
ATOM     17  C   UNL     1      10.501   1.109  20.729  1.00  0.00     0.031 C 
ATOM     18  C   UNL     1      12.661  -3.440  20.708  1.00  0.00     0.029 A 
ATOM     19  N   UNL     1      10.820  -3.189  21.950  1.00  0.00    -0.354 N 
ATOM     20  C   UNL     1       8.812   0.637  22.204  1.00  0.00     0.074 A 
ATOM     21  C   UNL     1       9.477   1.633  21.390  1.00  0.00     0.031 C 
ATOM     22  C   UNL     1      12.374  -4.635  21.242  1.00  0.00     0.029 A 
ATOM     23  C   UNL     1      11.197  -4.503  22.091  1.00  0.00     0.049 A 
ATOM     24  H   UNL     1      10.034  -2.802  22.400  1.00  0.00     0.167 HD
ATOM     25  C   UNL     1       7.697   0.864  22.940  1.00  0.00     0.037 A 
ATOM     26  C   UNL     1      10.669  -5.492  22.837  1.00  0.00     0.037 A 
ATOM     27  C   UNL     1       7.040  -0.139  23.741  1.00  0.00     0.049 A 
ATOM     28  C   UNL     1       9.456  -5.203  23.672  1.00  0.00     0.074 A 
ATOM     29  C   UNL     1       5.893  -0.014  24.506  1.00  0.00     0.029 A 
ATOM     30  N   UNL     1       7.473  -1.450  23.887  1.00  0.00    -0.354 N 
ATOM     31  N   UNL     1       8.779  -4.085  23.779  1.00  0.00    -0.248 NA
ATOM     32  C   UNL     1       8.938  -6.306  24.491  1.00  0.00     0.031 C 
ATOM     33  C   UNL     1       5.658  -1.234  25.148  1.00  0.00     0.029 A 
ATOM     34  C   UNL     1       6.629  -2.137  24.744  1.00  0.00     0.049 A 
ATOM     35  H   UNL     1       8.264  -1.835  23.445  1.00  0.00     0.167 HD
ATOM     36  C   UNL     1       7.743  -4.354  24.665  1.00  0.00     0.074 A 
ATOM     37  C   UNL     1       7.874  -5.745  25.050  1.00  0.00     0.031 C 
ATOM     38  C   UNL     1       6.773  -3.522  25.119  1.00  0.00     0.037 A 
BRANCH  25  39
ATOM     39  C   UNL     1       7.120   2.255  22.930  1.00  0.00     0.058 A 
ATOM     40  C   UNL     1       6.464   2.775  21.803  1.00  0.00     0.135 A 
ATOM     41  C   UNL     1       7.181   3.061  24.079  1.00  0.00     0.135 A 
ATOM     42  F   UNL     1       6.388   2.055  20.673  1.00  0.00    -0.206 F 
ATOM     43  C   UNL     1       5.912   4.053  21.806  1.00  0.00     0.059 A 
ATOM     44  C   UNL     1       6.613   4.332  24.114  1.00  0.00     0.059 A 
ATOM     45  F   UNL     1       7.794   2.614  25.186  1.00  0.00    -0.206 F 
ATOM     46  C   UNL     1       5.992   4.825  22.967  1.00  0.00     0.060 A 
BRANCH  46  47
ATOM     47  S   UNL     1       5.271   6.480  22.954  1.00  0.00     0.124 S 
ATOM     48  O   UNL     1       6.221   7.204  22.116  1.00  0.00    -0.237 OA
ATOM     49  O   UNL     1       3.957   6.243  22.363  1.00  0.00    -0.237 OA
ATOM     50  O   UNL     1       5.262   6.859  24.363  1.00  0.00    -0.744 OA
ENDBRANCH  46  47
ENDBRANCH  25  39
BRANCH  26  51
ATOM     51  C   UNL     1      11.297  -6.839  22.825  1.00  0.00     0.058 A 
ATOM     52  C   UNL     1      10.653  -7.932  22.228  1.00  0.00     0.135 A 
ATOM     53  C   UNL     1      12.570  -7.051  23.379  1.00  0.00     0.135 A 
ATOM     54  F   UNL     1       9.435  -7.780  21.688  1.00  0.00    -0.206 F 
ATOM     55  C   UNL     1      11.243  -9.191  22.189  1.00  0.00     0.059 A 
ATOM     56  C   UNL     1      13.193  -8.293  23.327  1.00  0.00     0.059 A 
ATOM     57  F   UNL     1      13.235  -6.032  23.945  1.00  0.00    -0.206 F 
ATOM     58  C   UNL     1      12.516  -9.360  22.738  1.00  0.00     0.060 A 
BRANCH  58  59
ATOM     59  S   UNL     1      13.297 -10.984  22.633  1.00  0.00     0.124 S 
ATOM     60  O   UNL     1      12.544 -11.736  23.629  1.00  0.00    -0.237 OA
ATOM     61  O   UNL     1      13.058 -11.350  21.240  1.00  0.00    -0.237 OA
ATOM     62  O   UNL     1      14.691 -10.709  22.969  1.00  0.00    -0.744 OA
ENDBRANCH  58  59
ENDBRANCH  26  51
BRANCH  38  63
ATOM     63  C   UNL     1       5.758  -4.104  26.063  1.00  0.00     0.058 A 
ATOM     64  C   UNL     1       6.080  -4.410  27.394  1.00  0.00     0.135 A 
ATOM     65  C   UNL     1       4.436  -4.319  25.641  1.00  0.00     0.135 A 
ATOM     66  F   UNL     1       7.333  -4.232  27.845  1.00  0.00    -0.206 F 
ATOM     67  C   UNL     1       5.133  -4.930  28.269  1.00  0.00     0.059 A 
ATOM     68  C   UNL     1       3.465  -4.812  26.506  1.00  0.00     0.059 A 
ATOM     69  F   UNL     1       4.074  -4.036  24.380  1.00  0.00    -0.206 F 
ATOM     70  C   UNL     1       3.826  -5.126  27.816  1.00  0.00     0.060 A 
BRANCH  70  71
ATOM     71  S   UNL     1       2.598  -5.770  28.971  1.00  0.00     0.124 S 
ATOM     72  O   UNL     1       2.990  -7.172  29.066  1.00  0.00    -0.237 OA
ATOM     73  O   UNL     1       2.836  -4.962  30.163  1.00  0.00    -0.237 OA
ATOM     74  O   UNL     1       1.329  -5.516  28.293  1.00  0.00    -0.744 OA
ENDBRANCH  70  71
ENDBRANCH  38  63
ENDBRANCH  12  13
ENDBRANCH   5   7
ENDBRANCH   2   3
ENDBRANCH   1   2
BRANCH   1  75
ATOM     75  C   UNL     1      14.402   2.603  13.371  1.00  0.00     0.118 C 
BRANCH  75  76
ATOM     76  N   UNL     1      14.510   1.775  12.180  1.00  0.00    -0.352 N 
ATOM     77  C   UNL     1      13.893   1.907  10.962  1.00  0.00     0.255 C 
ATOM     78  H   UNL     1      15.118   1.004  12.260  1.00  0.00     0.163 HD
ATOM     79  O   UNL     1      13.897   0.952  10.188  1.00  0.00    -0.269 OA
BRANCH  77  80
ATOM     80  C   UNL     1      13.245   3.179  10.574  1.00  0.00     0.082 A 
ATOM     81  C   UNL     1      13.952   4.378  10.715  1.00  0.00     0.021 A 
ATOM     82  C   UNL     1      11.977   3.191   9.963  1.00  0.00     0.140 A 
ATOM     83  C   UNL     1      13.345   5.569  10.347  1.00  0.00     0.042 A 
ATOM     84  N   UNL     1      11.386   4.356   9.613  1.00  0.00    -0.219 NA
ATOM     85  C   UNL     1      12.071   5.499   9.819  1.00  0.00     0.131 A 
ATOM     86  Cl  UNL     1      11.235   6.923   9.359  1.00  0.00    -0.062 Cl
BRANCH  82  87
ATOM     87  N   UNL     1      11.270   2.009   9.783  1.00  0.00    -0.367 N 
ATOM     88  H   UNL     1      11.544   1.203  10.279  1.00  0.00     0.162 HD
BRANCH  87  89
ATOM     89  C   UNL     1      10.130   1.936   8.876  1.00  0.00     0.152 C 
BRANCH  89  90
ATOM     90  C   UNL     1      10.404   1.060   7.605  1.00  0.00     0.192 C 
ATOM     91  C   UNL     1       9.432  -0.159   7.521  1.00  0.00     0.296 C 
ATOM     92  O   UNL     1      11.796   0.739   7.439  1.00  0.00    -0.364 OA
ATOM     93  N   UNL     1       9.957  -1.464   7.100  1.00  0.00    -0.328 N 
ATOM     94  C   UNL     1      12.145  -0.528   7.986  1.00  0.00     0.225 C 
ATOM     95  C   UNL     1       9.263  -2.587   7.742  1.00  0.00     0.262 C 
ATOM     96  C   UNL     1      11.407  -1.655   7.276  1.00  0.00     0.210 C 
ATOM     97  H   UNL     1       9.773  -1.458   6.096  1.00  0.00     0.348 HD
ATOM     98  C   UNL     1      10.282  -3.712   7.743  1.00  0.00     0.068 C 
ATOM     99  C   UNL     1      11.576  -2.979   8.021  1.00  0.00     0.073 C 
ENDBRANCH  89  90
ENDBRANCH  87  89
ENDBRANCH  82  87
ENDBRANCH  77  80
ENDBRANCH  75  76
ENDBRANCH   1  75
TORSDOF 16
