REMARK SMILES C[C@@H]1CCC[C@H]1NC(=O)c1csc(/C=C/C(=O)NCCCNC(=O)c2ccc(-c3c4nc(c(-c5c(F)cc(S(=O)(=O)[O-])cc5F)c5ccc([nH]5)c(-c5c(F)cc(S(=O)(=O)[O-])cc5F)c5nc(c(-c6c(F)cc(S(=O)(=O)[O-])cc6F)c6ccc3[nH]6)C=C5)C=C4)cc2)c1
REMARK SMILES IDX 20 1 19 2 18 3 16 4 17 5 15 7 14 8 13 9 10 10 11 11 91 12
REMARK SMILES IDX 12 13 8 14 7 15 9 17 6 18 1 19 2 20 3 21 4 22 5 23 21 24
REMARK SMILES IDX 22 25 23 26 24 28 25 29 26 30 90 31 27 32 89 33 28 34 29 35
REMARK SMILES IDX 30 36 83 37 31 38 88 39 82 40 84 41 32 42 87 43 81 44 80 45
REMARK SMILES IDX 33 47 67 48 46 49 66 50 47 51 50 52 65 53 85 54 48 55 49 56
REMARK SMILES IDX 64 58 86 59 51 60 34 61 35 62 44 63 36 64 37 65 43 66 45 67
REMARK SMILES IDX 38 68 39 69 40 70 41 71 42 72 68 73 69 74 78 75 70 76 71 77
REMARK SMILES IDX 77 78 79 79 72 80 73 81 74 82 75 83 76 84 52 85 53 86 62 87
REMARK SMILES IDX 54 88 55 89 61 90 63 91 56 92 57 93 58 94 59 95 60 96
REMARK H PARENT 18 6 7 16 22 27 84 46 50 57
REMARK Flexibility Score: inf
ROOT
ATOM      1  C   UNL     1       4.906   7.130   4.865  1.00  0.00     0.042 C 
ENDROOT
BRANCH   1   2
ATOM      2  C   UNL     1       3.892   8.130   4.315  1.00  0.00     0.118 C 
BRANCH   2   3
ATOM      3  N   UNL     1       4.371   8.761   3.095  1.00  0.00    -0.352 N 
ATOM      4  C   UNL     1       3.948   8.642   1.807  1.00  0.00     0.244 C 
ATOM      5  O   UNL     1       4.422   9.370   0.939  1.00  0.00    -0.270 OA
ATOM      6  H   UNL     1       5.128   9.377   3.222  1.00  0.00     0.163 HD
BRANCH   4   7
ATOM      7  C   UNL     1       2.849   7.718   1.457  1.00  0.00     0.072 C 
ATOM      8  C   UNL     1       2.810   6.437   1.847  1.00  0.00     0.024 C 
BRANCH   8   9
ATOM      9  C   UNL     1       1.720   5.565   1.560  1.00  0.00     0.028 A 
ATOM     10  C   UNL     1       0.188   3.781   1.781  1.00  0.00     0.051 A 
ATOM     11  C   UNL     1      -0.195   4.337   0.577  1.00  0.00     0.079 A 
ATOM     12  C   UNL     1       1.266   4.529   2.357  1.00  0.00     0.033 A 
ATOM     13  S   UNL     1       0.791   5.651   0.115  1.00  0.00    -0.144 S 
BRANCH  10  14
ATOM     14  C   UNL     1      -0.451   2.641   2.423  1.00  0.00     0.252 C 
ATOM     15  N   UNL     1      -0.586   1.470   1.724  1.00  0.00    -0.349 N 
ATOM     16  H   UNL     1      -1.097   0.765   2.185  1.00  0.00     0.164 HD
ATOM     17  O   UNL     1      -0.836   2.693   3.588  1.00  0.00    -0.269 OA
BRANCH  15  18
ATOM     18  C   UNL     1      -0.088   1.109   0.400  1.00  0.00     0.085 C 
ATOM     19  C   UNL     1       1.787  -0.162  -0.736  1.00  0.00     0.010 C 
ATOM     20  C   UNL     1       0.841  -0.112   0.465  1.00  0.00     0.008 C 
ATOM     21  C   UNL     1      -0.131  -1.292   0.470  1.00  0.00     0.005 C 
ATOM     22  C   UNL     1      -1.297  -0.861  -0.415  1.00  0.00     0.002 C 
ATOM     23  C   UNL     1      -1.249   0.666  -0.493  1.00  0.00     0.025 C 
ENDBRANCH  15  18
ENDBRANCH  10  14
ENDBRANCH   8   9
ENDBRANCH   4   7
ENDBRANCH   2   3
ENDBRANCH   1   2
BRANCH   1  24
ATOM     24  C   UNL     1       6.118   7.790   5.519  1.00  0.00     0.118 C 
BRANCH  24  25
ATOM     25  N   UNL     1       5.764   8.483   6.750  1.00  0.00    -0.352 N 
ATOM     26  C   UNL     1       6.234   8.313   8.029  1.00  0.00     0.251 C 
ATOM     27  H   UNL     1       5.081   9.185   6.649  1.00  0.00     0.163 HD
ATOM     28  O   UNL     1       5.639   8.851   8.960  1.00  0.00    -0.269 OA
BRANCH  26  29
ATOM     29  C   UNL     1       7.433   7.488   8.296  1.00  0.00     0.039 A 
ATOM     30  C   UNL     1       7.446   6.667   9.427  1.00  0.00     0.014 A 
ATOM     31  C   UNL     1       8.561   7.557   7.472  1.00  0.00     0.014 A 
ATOM     32  C   UNL     1       8.566   5.877   9.702  1.00  0.00     0.010 A 
ATOM     33  C   UNL     1       9.649   6.719   7.710  1.00  0.00     0.010 A 
ATOM     34  C   UNL     1       9.665   5.874   8.829  1.00  0.00    -0.014 A 
BRANCH  34  35
ATOM     35  C   UNL     1      10.838   4.993   9.070  1.00  0.00     0.031 A 
ATOM     36  C   UNL     1      12.192   5.588   9.349  1.00  0.00     0.074 A 
ATOM     37  C   UNL     1      10.693   3.657   8.972  1.00  0.00     0.049 A 
ATOM     38  N   UNL     1      13.342   4.986   9.508  1.00  0.00    -0.248 NA
ATOM     39  C   UNL     1      12.267   7.056   9.434  1.00  0.00     0.031 C 
ATOM     40  C   UNL     1       9.442   2.962   8.660  1.00  0.00     0.029 A 
ATOM     41  N   UNL     1      11.608   2.643   9.110  1.00  0.00    -0.354 N 
ATOM     42  C   UNL     1      14.278   5.996   9.694  1.00  0.00     0.074 A 
ATOM     43  C   UNL     1      13.570   7.253   9.582  1.00  0.00     0.031 C 
ATOM     44  C   UNL     1       9.664   1.639   8.647  1.00  0.00     0.029 A 
ATOM     45  C   UNL     1      11.077   1.390   8.912  1.00  0.00     0.049 A 
ATOM     46  H   UNL     1      12.555   2.798   9.330  1.00  0.00     0.167 HD
ATOM     47  C   UNL     1      15.604   5.886   9.955  1.00  0.00     0.037 A 
ATOM     48  C   UNL     1      11.664   0.177   8.930  1.00  0.00     0.037 A 
ATOM     49  C   UNL     1      16.296   4.631  10.092  1.00  0.00     0.049 A 
ATOM     50  C   UNL     1      13.135   0.080   9.230  1.00  0.00     0.074 A 
ATOM     51  C   UNL     1      17.624   4.411  10.417  1.00  0.00     0.029 A 
ATOM     52  N   UNL     1      15.719   3.382   9.911  1.00  0.00    -0.354 N 
ATOM     53  N   UNL     1      13.993   1.044   9.466  1.00  0.00    -0.248 NA
ATOM     54  C   UNL     1      13.717  -1.269   9.273  1.00  0.00     0.031 C 
ATOM     55  C   UNL     1      17.858   3.032  10.391  1.00  0.00     0.029 A 
ATOM     56  C   UNL     1      16.666   2.389  10.098  1.00  0.00     0.049 A 
ATOM     57  H   UNL     1      14.774   3.225   9.683  1.00  0.00     0.167 HD
ATOM     58  C   UNL     1      15.210   0.418   9.709  1.00  0.00     0.074 A 
ATOM     59  C   UNL     1      14.974  -1.008   9.605  1.00  0.00     0.031 C 
ATOM     60  C   UNL     1      16.414   0.973   9.995  1.00  0.00     0.037 A 
BRANCH  47  61
ATOM     61  C   UNL     1      16.393   7.158  10.112  1.00  0.00     0.058 A 
ATOM     62  C   UNL     1      16.230   7.994  11.229  1.00  0.00     0.135 A 
ATOM     63  C   UNL     1      17.350   7.529   9.153  1.00  0.00     0.135 A 
ATOM     64  F   UNL     1      15.320   7.695  12.170  1.00  0.00    -0.206 F 
ATOM     65  C   UNL     1      16.964   9.166  11.374  1.00  0.00     0.059 A 
ATOM     66  C   UNL     1      18.116   8.684   9.292  1.00  0.00     0.059 A 
ATOM     67  F   UNL     1      17.549   6.767   8.067  1.00  0.00    -0.206 F 
ATOM     68  C   UNL     1      17.904   9.504  10.399  1.00  0.00     0.060 A 
BRANCH  68  69
ATOM     69  S   UNL     1      18.849  11.029  10.604  1.00  0.00     0.124 S 
ATOM     70  O   UNL     1      17.841  12.039  10.294  1.00  0.00    -0.237 OA
ATOM     71  O   UNL     1      19.263  10.956  12.001  1.00  0.00    -0.237 OA
ATOM     72  O   UNL     1      19.924  10.896   9.626  1.00  0.00    -0.744 OA
ENDBRANCH  68  69
ENDBRANCH  47  61
BRANCH  48  73
ATOM     73  C   UNL     1      10.852  -1.043   8.677  1.00  0.00     0.058 A 
ATOM     74  C   UNL     1      10.557  -1.941   9.713  1.00  0.00     0.135 A 
ATOM     75  C   UNL     1      10.338  -1.324   7.402  1.00  0.00     0.135 A 
ATOM     76  F   UNL     1      11.031  -1.718  10.949  1.00  0.00    -0.206 F 
ATOM     77  C   UNL     1       9.794  -3.083   9.493  1.00  0.00     0.059 A 
ATOM     78  C   UNL     1       9.551  -2.447   7.162  1.00  0.00     0.059 A 
ATOM     79  F   UNL     1      10.576  -0.487   6.380  1.00  0.00    -0.206 F 
ATOM     80  C   UNL     1       9.293  -3.326   8.213  1.00  0.00     0.060 A 
BRANCH  80  81
ATOM     81  S   UNL     1       8.259  -4.783   7.949  1.00  0.00     0.124 S 
ATOM     82  O   UNL     1       9.248  -5.854   7.980  1.00  0.00    -0.237 OA
ATOM     83  O   UNL     1       7.346  -4.722   9.086  1.00  0.00    -0.237 OA
ATOM     84  O   UNL     1       7.646  -4.527   6.649  1.00  0.00    -0.744 OA
ENDBRANCH  80  81
ENDBRANCH  48  73
BRANCH  60  85
ATOM     85  C   UNL     1      17.564   0.038  10.246  1.00  0.00     0.058 A 
ATOM     86  C   UNL     1      18.179  -0.671   9.203  1.00  0.00     0.135 A 
ATOM     87  C   UNL     1      18.089  -0.111  11.540  1.00  0.00     0.135 A 
ATOM     88  F   UNL     1      17.712  -0.569   7.948  1.00  0.00    -0.206 F 
ATOM     89  C   UNL     1      19.261  -1.514   9.437  1.00  0.00     0.059 A 
ATOM     90  C   UNL     1      19.186  -0.928  11.793  1.00  0.00     0.059 A 
ATOM     91  F   UNL     1      17.543   0.553  12.571  1.00  0.00    -0.206 F 
ATOM     92  C   UNL     1      19.758  -1.635  10.736  1.00  0.00     0.060 A 
BRANCH  92  93
ATOM     93  S   UNL     1      21.183  -2.705  11.022  1.00  0.00     0.124 S 
ATOM     94  O   UNL     1      20.579  -4.030  10.929  1.00  0.00    -0.237 OA
ATOM     95  O   UNL     1      22.076  -2.338   9.927  1.00  0.00    -0.237 OA
ATOM     96  O   UNL     1      21.640  -2.315  12.353  1.00  0.00    -0.744 OA
ENDBRANCH  92  93
ENDBRANCH  60  85
ENDBRANCH  34  35
ENDBRANCH  26  29
ENDBRANCH  24  25
ENDBRANCH   1  24
TORSDOF 16
