REMARK SMILES CCn1cnc(S(=O)(=O)NC[C@H]2CC[C@@H](C(=O)NCCCNC(=O)c3ccc(-c4c5nc(c(-c6c(F)cc(S(=O)(=O)[O-])cc6F)c6ccc([nH]6)c(-c6c(F)cc(S(=O)(=O)[O-])cc6F)c6nc(c(-c7c(F)cc(S(=O)(=O)[O-])cc7F)c7ccc4[nH]7)C=C6)C=C5)cc3)O2)c1
REMARK SMILES IDX 19 1 18 2 16 3 17 4 15 6 12 7 13 8 91 9 14 10 11 11 10 12
REMARK SMILES IDX 7 14 8 15 9 16 6 17 3 18 4 19 92 20 5 21 2 22 1 23 20 24
REMARK SMILES IDX 21 25 22 26 23 27 24 29 25 30 26 31 90 32 27 33 89 34 28 35
REMARK SMILES IDX 29 36 30 37 83 38 31 39 88 40 82 41 84 42 32 43 87 44 81 45
REMARK SMILES IDX 80 46 33 48 67 49 46 50 66 51 47 52 50 53 65 54 85 55 48 56
REMARK SMILES IDX 49 57 64 59 86 60 51 61 34 62 35 63 44 64 36 65 37 66 43 67
REMARK SMILES IDX 45 68 38 69 39 70 40 71 41 72 42 73 68 74 69 75 78 76 70 77
REMARK SMILES IDX 71 78 77 79 79 80 72 81 73 82 74 83 75 84 76 85 52 86 53 87
REMARK SMILES IDX 62 88 54 89 55 90 61 91 63 92 56 93 57 94 58 95 59 96 60 97
REMARK H PARENT 18 5 10 13 22 28 84 47 50 58
REMARK Flexibility Score: inf
ROOT
ATOM      1  C   UNL     1       3.016   7.589  -5.468  1.00  0.00     0.117 C 
ENDROOT
BRANCH   1   2
ATOM      2  N   UNL     1       1.672   7.254  -5.907  1.00  0.00    -0.354 N 
ATOM      3  C   UNL     1       1.180   6.042  -6.312  1.00  0.00     0.249 C 
ATOM      4  O   UNL     1      -0.014   5.960  -6.601  1.00  0.00    -0.272 OA
ATOM      5  H   UNL     1       1.028   7.999  -5.914  1.00  0.00     0.163 HD
BRANCH   3   6
ATOM      6  C   UNL     1       2.125   4.832  -6.353  1.00  0.00     0.207 C 
ATOM      7  C   UNL     1       2.018   2.823  -5.132  1.00  0.00     0.134 C 
ATOM      8  C   UNL     1       2.182   2.483  -6.603  1.00  0.00     0.037 C 
ATOM      9  O   UNL     1       2.216   4.250  -5.038  1.00  0.00    -0.364 OA
ATOM     10  C   UNL     1       1.665   3.725  -7.289  1.00  0.00     0.045 C 
BRANCH   7  11
ATOM     11  C   UNL     1       0.627   2.471  -4.578  1.00  0.00     0.131 C 
BRANCH  11  12
ATOM     12  N   UNL     1       0.477   1.063  -4.148  1.00  0.00    -0.207 NA
ATOM     13  H   UNL     1      -0.523   0.865  -4.118  1.00  0.00     0.141 HD
BRANCH  12  14
ATOM     14  S   UNL     1       1.122   0.581  -2.656  1.00  0.00     0.259 S 
ATOM     15  O   UNL     1       2.545   0.863  -2.688  1.00  0.00    -0.205 OA
ATOM     16  O   UNL     1       0.619  -0.747  -2.403  1.00  0.00    -0.205 OA
BRANCH  14  17
ATOM     17  C   UNL     1       0.468   1.575  -1.381  1.00  0.00     0.188 A 
ATOM     18  N   UNL     1      -0.749   3.032  -0.305  1.00  0.00    -0.336 N 
ATOM     19  C   UNL     1       0.343   2.689   0.446  1.00  0.00     0.201 A 
ATOM     20  C   UNL     1      -0.725   2.273  -1.438  1.00  0.00     0.129 A 
ATOM     21  N   UNL     1       1.106   1.819  -0.176  1.00  0.00    -0.224 NA
BRANCH  18  22
ATOM     22  C   UNL     1      -1.709   4.055   0.062  1.00  0.00     0.120 C 
ATOM     23  C   UNL     1      -2.497   4.651  -1.095  1.00  0.00     0.027 C 
ENDBRANCH  18  22
ENDBRANCH  14  17
ENDBRANCH  12  14
ENDBRANCH  11  12
ENDBRANCH   7  11
ENDBRANCH   3   6
ENDBRANCH   1   2
BRANCH   1  24
ATOM     24  C   UNL     1       3.870   8.194  -6.587  1.00  0.00     0.042 C 
BRANCH  24  25
ATOM     25  C   UNL     1       3.409   9.587  -7.003  1.00  0.00     0.118 C 
BRANCH  25  26
ATOM     26  N   UNL     1       3.631  10.591  -5.965  1.00  0.00    -0.352 N 
ATOM     27  C   UNL     1       3.333  11.938  -6.000  1.00  0.00     0.251 C 
ATOM     28  H   UNL     1       4.048  10.265  -5.135  1.00  0.00     0.163 HD
ATOM     29  O   UNL     1       3.845  12.700  -5.187  1.00  0.00    -0.269 OA
BRANCH  27  30
ATOM     30  C   UNL     1       2.425  12.454  -7.042  1.00  0.00     0.039 A 
ATOM     31  C   UNL     1       2.743  13.629  -7.728  1.00  0.00     0.014 A 
ATOM     32  C   UNL     1       1.268  11.745  -7.359  1.00  0.00     0.014 A 
ATOM     33  C   UNL     1       1.944  14.029  -8.798  1.00  0.00     0.010 A 
ATOM     34  C   UNL     1       0.542  12.081  -8.485  1.00  0.00     0.010 A 
ATOM     35  C   UNL     1       0.858  13.234  -9.201  1.00  0.00    -0.014 A 
BRANCH  35  36
ATOM     36  C   UNL     1       0.139  13.565 -10.437  1.00  0.00     0.031 A 
ATOM     37  C   UNL     1       0.988  13.763 -11.653  1.00  0.00     0.074 A 
ATOM     38  C   UNL     1      -1.201  13.496 -10.585  1.00  0.00     0.049 A 
ATOM     39  N   UNL     1       1.131  14.833 -12.366  1.00  0.00    -0.248 NA
ATOM     40  C   UNL     1       1.844  12.647 -12.084  1.00  0.00     0.031 C 
ATOM     41  C   UNL     1      -2.205  13.003  -9.636  1.00  0.00     0.029 A 
ATOM     42  N   UNL     1      -1.943  13.758 -11.698  1.00  0.00    -0.354 N 
ATOM     43  C   UNL     1       1.947  14.484 -13.443  1.00  0.00     0.074 A 
ATOM     44  C   UNL     1       2.462  13.173 -13.143  1.00  0.00     0.031 C 
ATOM     45  C   UNL     1      -3.367  12.780 -10.287  1.00  0.00     0.029 A 
ATOM     46  C   UNL     1      -3.244  13.276 -11.645  1.00  0.00     0.049 A 
ATOM     47  H   UNL     1      -1.587  14.247 -12.475  1.00  0.00     0.167 HD
ATOM     48  C   UNL     1       1.997  15.225 -14.588  1.00  0.00     0.037 A 
ATOM     49  C   UNL     1      -4.147  13.254 -12.654  1.00  0.00     0.037 A 
ATOM     50  C   UNL     1       1.431  16.535 -14.394  1.00  0.00     0.049 A 
ATOM     51  C   UNL     1      -3.724  14.275 -13.646  1.00  0.00     0.074 A 
ATOM     52  C   UNL     1       1.702  17.597 -13.552  1.00  0.00     0.029 A 
ATOM     53  N   UNL     1       0.181  16.785 -14.905  1.00  0.00    -0.354 N 
ATOM     54  N   UNL     1      -3.723  15.560 -13.420  1.00  0.00    -0.248 NA
ATOM     55  C   UNL     1      -2.909  13.840 -14.769  1.00  0.00     0.031 C 
ATOM     56  C   UNL     1       0.424  18.130 -13.211  1.00  0.00     0.029 A 
ATOM     57  C   UNL     1      -0.536  17.396 -13.908  1.00  0.00     0.049 A 
ATOM     58  H   UNL     1      -0.138  16.569 -15.811  1.00  0.00     0.167 HD
ATOM     59  C   UNL     1      -2.603  16.037 -14.082  1.00  0.00     0.074 A 
ATOM     60  C   UNL     1      -2.205  14.955 -14.979  1.00  0.00     0.031 C 
ATOM     61  C   UNL     1      -1.939  17.152 -13.653  1.00  0.00     0.037 A 
BRANCH  48  62
ATOM     62  C   UNL     1       2.272  14.673 -15.969  1.00  0.00     0.058 A 
ATOM     63  C   UNL     1       2.488  15.560 -17.047  1.00  0.00     0.135 A 
ATOM     64  C   UNL     1       2.056  13.325 -16.329  1.00  0.00     0.135 A 
ATOM     65  F   UNL     1       2.699  16.868 -16.827  1.00  0.00    -0.206 F 
ATOM     66  C   UNL     1       2.417  15.152 -18.381  1.00  0.00     0.059 A 
ATOM     67  C   UNL     1       2.035  12.887 -17.650  1.00  0.00     0.059 A 
ATOM     68  F   UNL     1       1.756  12.387 -15.422  1.00  0.00    -0.206 F 
ATOM     69  C   UNL     1       2.170  13.814 -18.671  1.00  0.00     0.060 A 
BRANCH  69  70
ATOM     70  S   UNL     1       1.952  13.304 -20.386  1.00  0.00     0.124 S 
ATOM     71  O   UNL     1       0.653  13.889 -20.698  1.00  0.00    -0.237 OA
ATOM     72  O   UNL     1       3.104  13.918 -21.036  1.00  0.00    -0.237 OA
ATOM     73  O   UNL     1       1.988  11.846 -20.307  1.00  0.00    -0.744 OA
ENDBRANCH  69  70
ENDBRANCH  48  62
BRANCH  49  74
ATOM     74  C   UNL     1      -5.165  12.213 -12.949  1.00  0.00     0.058 A 
ATOM     75  C   UNL     1      -6.189  12.446 -13.883  1.00  0.00     0.135 A 
ATOM     76  C   UNL     1      -4.991  10.876 -12.536  1.00  0.00     0.135 A 
ATOM     77  F   UNL     1      -6.413  13.686 -14.344  1.00  0.00    -0.206 F 
ATOM     78  C   UNL     1      -6.957  11.408 -14.420  1.00  0.00     0.059 A 
ATOM     79  C   UNL     1      -5.753   9.827 -13.046  1.00  0.00     0.059 A 
ATOM     80  F   UNL     1      -4.006  10.534 -11.691  1.00  0.00    -0.206 F 
ATOM     81  C   UNL     1      -6.715  10.097 -14.012  1.00  0.00     0.060 A 
BRANCH  81  82
ATOM     82  S   UNL     1      -7.567   8.736 -14.844  1.00  0.00     0.124 S 
ATOM     83  O   UNL     1      -8.933   8.894 -14.358  1.00  0.00    -0.237 OA
ATOM     84  O   UNL     1      -7.349   9.052 -16.251  1.00  0.00    -0.237 OA
ATOM     85  O   UNL     1      -6.864   7.551 -14.359  1.00  0.00    -0.744 OA
ENDBRANCH  81  82
ENDBRANCH  49  74
BRANCH  61  86
ATOM     86  C   UNL     1      -2.608  18.055 -12.648  1.00  0.00     0.058 A 
ATOM     87  C   UNL     1      -2.965  17.669 -11.344  1.00  0.00     0.135 A 
ATOM     88  C   UNL     1      -2.737  19.416 -12.968  1.00  0.00     0.135 A 
ATOM     89  F   UNL     1      -2.776  16.412 -10.918  1.00  0.00    -0.206 F 
ATOM     90  C   UNL     1      -3.461  18.587 -10.415  1.00  0.00     0.059 A 
ATOM     91  C   UNL     1      -3.198  20.354 -12.048  1.00  0.00     0.059 A 
ATOM     92  F   UNL     1      -2.356  19.862 -14.177  1.00  0.00    -0.206 F 
ATOM     93  C   UNL     1      -3.569  19.929 -10.775  1.00  0.00     0.060 A 
BRANCH  93  94
ATOM     94  S   UNL     1      -4.120  21.129  -9.542  1.00  0.00     0.124 S 
ATOM     95  O   UNL     1      -5.544  20.828  -9.435  1.00  0.00    -0.237 OA
ATOM     96  O   UNL     1      -3.311  20.784  -8.376  1.00  0.00    -0.237 OA
ATOM     97  O   UNL     1      -3.799  22.417 -10.151  1.00  0.00    -0.744 OA
ENDBRANCH  93  94
ENDBRANCH  61  86
ENDBRANCH  35  36
ENDBRANCH  27  30
ENDBRANCH  25  26
ENDBRANCH  24  25
ENDBRANCH   1  24
TORSDOF 18
