REMARK SMILES C[C@@H](C(=O)NCCCNC(=O)c1ccc(-c2c3nc(c(-c4c(F)cc(S(=O)(=O)[O-])cc4F)c4ccc([nH]4)c(-c4c(F)cc(S(=O)(=O)[O-])cc4F)c4nc(c(-c5c(F)cc(S(=O)(=O)[O-])cc5F)c5ccc2[nH]5)C=C4)C=C3)cc1)c1ccc(-c2ccc3[nH]ccc3c2)cc1
REMARK SMILES IDX 7 1 6 2 5 3 3 4 4 5 2 7 1 8 78 9 79 10 92 11 80 12 91 13
REMARK SMILES IDX 81 14 82 15 83 16 90 17 84 18 89 19 85 20 88 21 86 22 87 23
REMARK SMILES IDX 8 25 9 26 10 27 11 29 12 30 13 31 77 32 14 33 76 34 15 35
REMARK SMILES IDX 16 36 17 37 70 38 18 39 75 40 69 41 71 42 19 43 74 44 68 45
REMARK SMILES IDX 67 46 20 48 54 49 33 50 53 51 34 52 37 53 52 54 72 55 35 56
REMARK SMILES IDX 36 57 51 59 73 60 38 61 21 62 22 63 31 64 23 65 24 66 30 67
REMARK SMILES IDX 32 68 25 69 26 70 27 71 28 72 29 73 55 74 56 75 65 76 57 77
REMARK SMILES IDX 58 78 64 79 66 80 59 81 60 82 61 83 62 84 63 85 39 86 40 87
REMARK SMILES IDX 49 88 41 89 42 90 48 91 50 92 43 93 44 94 45 95 46 96 47 97
REMARK H PARENT 5 6 86 24 9 28 71 47 37 58
REMARK Flexibility Score: inf
ROOT
ATOM      1  C   UNL     1       4.305   1.127  -0.714  1.00  0.00     0.042 C 
ENDROOT
BRANCH   1   2
ATOM      2  C   UNL     1       3.399   1.990   0.166  1.00  0.00     0.117 C 
BRANCH   2   3
ATOM      3  N   UNL     1       2.291   2.541  -0.593  1.00  0.00    -0.356 N 
ATOM      4  C   UNL     1       0.982   2.155  -0.659  1.00  0.00     0.227 C 
ATOM      5  O   UNL     1       0.295   2.704  -1.522  1.00  0.00    -0.274 OA
ATOM      6  H   UNL     1       2.520   3.319  -1.151  1.00  0.00     0.163 HD
BRANCH   4   7
ATOM      7  C   UNL     1       0.429   1.115   0.340  1.00  0.00     0.105 C 
ATOM      8  C   UNL     1       0.941  -0.278  -0.050  1.00  0.00     0.023 C 
BRANCH   7   9
ATOM      9  C   UNL     1      -1.099   1.172   0.482  1.00  0.00    -0.036 A 
ATOM     10  C   UNL     1      -1.750   2.410   0.622  1.00  0.00     0.005 A 
ATOM     11  C   UNL     1      -1.896   0.016   0.492  1.00  0.00     0.005 A 
ATOM     12  C   UNL     1      -3.146   2.492   0.665  1.00  0.00     0.009 A 
ATOM     13  C   UNL     1      -3.289   0.096   0.552  1.00  0.00     0.009 A 
ATOM     14  C   UNL     1      -3.931   1.336   0.606  1.00  0.00    -0.018 A 
BRANCH  14  15
ATOM     15  C   UNL     1      -5.389   1.412   0.530  1.00  0.00    -0.018 A 
ATOM     16  C   UNL     1      -6.005   1.710  -0.694  1.00  0.00     0.011 A 
ATOM     17  C   UNL     1      -6.184   1.164   1.662  1.00  0.00     0.019 A 
ATOM     18  C   UNL     1      -7.396   1.738  -0.832  1.00  0.00     0.027 A 
ATOM     19  C   UNL     1      -7.587   1.230   1.558  1.00  0.00    -0.000 A 
ATOM     20  C   UNL     1      -8.157   1.492   0.313  1.00  0.00     0.045 A 
ATOM     21  C   UNL     1      -8.655   1.100   2.488  1.00  0.00     0.028 A 
ATOM     22  N   UNL     1      -9.523   1.448   0.476  1.00  0.00    -0.361 N 
ATOM     23  C   UNL     1      -9.834   1.264   1.797  1.00  0.00     0.083 A 
ATOM     24  H   UNL     1     -10.181   1.537  -0.251  1.00  0.00     0.166 HD
ENDBRANCH  14  15
ENDBRANCH   7   9
ENDBRANCH   4   7
ENDBRANCH   2   3
ENDBRANCH   1   2
BRANCH   1  25
ATOM     25  C   UNL     1       5.016   1.893  -1.825  1.00  0.00     0.118 C 
BRANCH  25  26
ATOM     26  N   UNL     1       5.980   2.853  -1.312  1.00  0.00    -0.352 N 
ATOM     27  C   UNL     1       7.348   2.888  -1.444  1.00  0.00     0.251 C 
ATOM     28  H   UNL     1       5.594   3.592  -0.788  1.00  0.00     0.163 HD
ATOM     29  O   UNL     1       8.000   3.670  -0.761  1.00  0.00    -0.269 OA
BRANCH  27  30
ATOM     30  C   UNL     1       8.035   1.968  -2.380  1.00  0.00     0.039 A 
ATOM     31  C   UNL     1       9.188   1.308  -1.947  1.00  0.00     0.014 A 
ATOM     32  C   UNL     1       7.554   1.758  -3.675  1.00  0.00     0.014 A 
ATOM     33  C   UNL     1       9.803   0.368  -2.779  1.00  0.00     0.010 A 
ATOM     34  C   UNL     1       8.128   0.772  -4.477  1.00  0.00     0.010 A 
ATOM     35  C   UNL     1       9.245   0.052  -4.029  1.00  0.00    -0.014 A 
BRANCH  35  36
ATOM     36  C   UNL     1       9.768  -1.079  -4.841  1.00  0.00     0.031 A 
ATOM     37  C   UNL     1      10.359  -0.839  -6.204  1.00  0.00     0.074 A 
ATOM     38  C   UNL     1       9.620  -2.338  -4.378  1.00  0.00     0.049 A 
ATOM     39  N   UNL     1      10.767  -1.712  -7.087  1.00  0.00    -0.248 NA
ATOM     40  C   UNL     1      10.494   0.561  -6.639  1.00  0.00     0.031 C 
ATOM     41  C   UNL     1       9.019  -2.701  -3.091  1.00  0.00     0.029 A 
ATOM     42  N   UNL     1       9.940  -3.550  -4.942  1.00  0.00    -0.354 N 
ATOM     43  C   UNL     1      11.188  -0.975  -8.188  1.00  0.00     0.074 A 
ATOM     44  C   UNL     1      10.964   0.419  -7.872  1.00  0.00     0.031 C 
ATOM     45  C   UNL     1       9.016  -4.037  -2.964  1.00  0.00     0.029 A 
ATOM     46  C   UNL     1       9.566  -4.632  -4.177  1.00  0.00     0.049 A 
ATOM     47  H   UNL     1      10.393  -3.636  -5.811  1.00  0.00     0.167 HD
ATOM     48  C   UNL     1      11.722  -1.424  -9.348  1.00  0.00     0.037 A 
ATOM     49  C   UNL     1       9.628  -5.954  -4.433  1.00  0.00     0.037 A 
ATOM     50  C   UNL     1      11.971  -2.813  -9.640  1.00  0.00     0.049 A 
ATOM     51  C   UNL     1      10.204  -6.419  -5.744  1.00  0.00     0.074 A 
ATOM     52  C   UNL     1      12.600  -3.355 -10.748  1.00  0.00     0.029 A 
ATOM     53  N   UNL     1      11.591  -3.877  -8.836  1.00  0.00    -0.354 N 
ATOM     54  N   UNL     1      10.697  -5.703  -6.726  1.00  0.00    -0.248 NA
ATOM     55  C   UNL     1      10.228  -7.869  -5.987  1.00  0.00     0.031 C 
ATOM     56  C   UNL     1      12.540  -4.748 -10.646  1.00  0.00     0.029 A 
ATOM     57  C   UNL     1      11.928  -5.074  -9.448  1.00  0.00     0.049 A 
ATOM     58  H   UNL     1      11.149  -3.794  -7.961  1.00  0.00     0.167 HD
ATOM     59  C   UNL     1      11.104  -6.616  -7.693  1.00  0.00     0.074 A 
ATOM     60  C   UNL     1      10.826  -7.935  -7.168  1.00  0.00     0.031 C 
ATOM     61  C   UNL     1      11.651  -6.382  -8.911  1.00  0.00     0.037 A 
BRANCH  48  62
ATOM     62  C   UNL     1      12.082  -0.422 -10.410  1.00  0.00     0.058 A 
ATOM     63  C   UNL     1      13.205   0.411 -10.289  1.00  0.00     0.135 A 
ATOM     64  C   UNL     1      11.366  -0.386 -11.619  1.00  0.00     0.135 A 
ATOM     65  F   UNL     1      13.916   0.426  -9.151  1.00  0.00    -0.206 F 
ATOM     66  C   UNL     1      13.608   1.241 -11.330  1.00  0.00     0.059 A 
ATOM     67  C   UNL     1      11.765   0.418 -12.682  1.00  0.00     0.059 A 
ATOM     68  F   UNL     1      10.283  -1.161 -11.784  1.00  0.00    -0.206 F 
ATOM     69  C   UNL     1      12.889   1.228 -12.528  1.00  0.00     0.060 A 
BRANCH  69  70
ATOM     70  S   UNL     1      13.469   2.261 -13.890  1.00  0.00     0.124 S 
ATOM     71  O   UNL     1      13.165   3.599 -13.393  1.00  0.00    -0.237 OA
ATOM     72  O   UNL     1      14.885   1.917 -13.959  1.00  0.00    -0.237 OA
ATOM     73  O   UNL     1      12.663   1.817 -15.023  1.00  0.00    -0.744 OA
ENDBRANCH  69  70
ENDBRANCH  48  62
BRANCH  49  74
ATOM     74  C   UNL     1       9.097  -6.940  -3.451  1.00  0.00     0.058 A 
ATOM     75  C   UNL     1       9.946  -7.849  -2.802  1.00  0.00     0.135 A 
ATOM     76  C   UNL     1       7.722  -7.021  -3.173  1.00  0.00     0.135 A 
ATOM     77  F   UNL     1      11.266  -7.817  -3.037  1.00  0.00    -0.206 F 
ATOM     78  C   UNL     1       9.450  -8.828  -1.946  1.00  0.00     0.059 A 
ATOM     79  C   UNL     1       7.206  -7.968  -2.295  1.00  0.00     0.059 A 
ATOM     80  F   UNL     1       6.866  -6.164  -3.751  1.00  0.00    -0.206 F 
ATOM     81  C   UNL     1       8.076  -8.882  -1.704  1.00  0.00     0.060 A 
BRANCH  81  82
ATOM     82  S   UNL     1       7.441 -10.157  -0.594  1.00  0.00     0.124 S 
ATOM     83  O   UNL     1       7.567 -11.352  -1.419  1.00  0.00    -0.237 OA
ATOM     84  O   UNL     1       8.356 -10.061   0.539  1.00  0.00    -0.237 OA
ATOM     85  O   UNL     1       6.075  -9.716  -0.326  1.00  0.00    -0.744 OA
ENDBRANCH  81  82
ENDBRANCH  49  74
BRANCH  61  86
ATOM     86  C   UNL     1      11.998  -7.573  -9.761  1.00  0.00     0.058 A 
ATOM     87  C   UNL     1      11.003  -8.346 -10.379  1.00  0.00     0.135 A 
ATOM     88  C   UNL     1      13.339  -7.903 -10.018  1.00  0.00     0.135 A 
ATOM     89  F   UNL     1       9.706  -8.081 -10.157  1.00  0.00    -0.206 F 
ATOM     90  C   UNL     1      11.325  -9.411 -11.214  1.00  0.00     0.059 A 
ATOM     91  C   UNL     1      13.684  -8.944 -10.873  1.00  0.00     0.059 A 
ATOM     92  F   UNL     1      14.330  -7.191  -9.456  1.00  0.00    -0.206 F 
ATOM     93  C   UNL     1      12.669  -9.697 -11.462  1.00  0.00     0.060 A 
BRANCH  93  94
ATOM     94  S   UNL     1      13.068 -11.043 -12.595  1.00  0.00     0.124 S 
ATOM     95  O   UNL     1      12.699 -12.213 -11.806  1.00  0.00    -0.237 OA
ATOM     96  O   UNL     1      12.209 -10.753 -13.739  1.00  0.00    -0.237 OA
ATOM     97  O   UNL     1      14.499 -10.875 -12.835  1.00  0.00    -0.744 OA
ENDBRANCH  93  94
ENDBRANCH  61  86
ENDBRANCH  35  36
ENDBRANCH  27  30
ENDBRANCH  25  26
ENDBRANCH   1  25
TORSDOF 15
