REMARK SMILES COc1ccc([C@@H](CC(=O)NCCCNC(=O)c2ccc(-c3c4nc(c(-c5c(F)cc(S(=O)(=O)[O-])cc5F)c5ccc([nH]5)c(-c5c(F)cc(S(=O)(=O)[O-])cc5F)c5nc(c(-c6c(F)cc(S(=O)(=O)[O-])cc6F)c6ccc3[nH]6)C=C5)C=C4)cc2)NC(=O)c2ccc(Cl)c([N+](=O)[O-])c2)cc1
REMARK SMILES IDX 12 1 11 2 9 3 10 4 8 6 7 7 6 8 3 9 4 10 98 11 5 12 97 13
REMARK SMILES IDX 2 14 1 15 84 16 85 17 86 19 87 20 88 21 96 22 89 23 92 24
REMARK SMILES IDX 90 25 91 26 93 27 94 28 95 29 13 30 14 31 15 32 16 33 17 35
REMARK SMILES IDX 18 36 19 37 83 38 20 39 82 40 21 41 22 42 23 43 76 44 24 45
REMARK SMILES IDX 81 46 75 47 77 48 25 49 80 50 74 51 73 52 26 54 60 55 39 56
REMARK SMILES IDX 59 57 40 58 43 59 58 60 78 61 41 62 42 63 57 65 79 66 44 67
REMARK SMILES IDX 27 68 28 69 37 70 29 71 30 72 36 73 38 74 31 75 32 76 33 77
REMARK SMILES IDX 34 78 35 79 61 80 62 81 71 82 63 83 64 84 70 85 72 86 65 87
REMARK SMILES IDX 66 88 67 89 68 90 69 91 45 92 46 93 55 94 47 95 48 96 54 97
REMARK SMILES IDX 56 98 49 99 50 100 51 101 52 102 53 103
REMARK H PARENT 11 5 84 18 15 34 77 53 43 64
REMARK Flexibility Score: inf
ROOT
ATOM      1  C   UNL     1      -0.054  -3.655  -4.542  1.00  0.00     0.117 C 
ENDROOT
BRANCH   1   2
ATOM      2  N   UNL     1      -0.381  -3.334  -5.925  1.00  0.00    -0.356 N 
ATOM      3  C   UNL     1       0.276  -2.537  -6.814  1.00  0.00     0.222 C 
ATOM      4  O   UNL     1      -0.337  -2.170  -7.819  1.00  0.00    -0.275 OA
ATOM      5  H   UNL     1      -1.200  -3.758  -6.270  1.00  0.00     0.163 HD
BRANCH   3   6
ATOM      6  C   UNL     1       1.732  -2.166  -6.621  1.00  0.00     0.129 C 
BRANCH   6   7
ATOM      7  C   UNL     1       2.001  -0.675  -6.335  1.00  0.00     0.122 C 
BRANCH   7   8
ATOM      8  C   UNL     1       1.730  -0.286  -4.889  1.00  0.00    -0.025 A 
ATOM      9  C   UNL     1       1.103   0.042  -2.170  1.00  0.00     0.118 A 
ATOM     10  C   UNL     1       0.328   0.668  -3.144  1.00  0.00     0.047 A 
ATOM     11  C   UNL     1       2.241  -0.671  -2.530  1.00  0.00     0.047 A 
ATOM     12  C   UNL     1       0.648   0.519  -4.499  1.00  0.00     0.010 A 
ATOM     13  C   UNL     1       2.559  -0.822  -3.881  1.00  0.00     0.010 A 
BRANCH   9  14
ATOM     14  O   UNL     1       0.596  -0.052  -0.904  1.00  0.00    -0.497 OA
ATOM     15  C   UNL     1       1.310   0.755   0.026  1.00  0.00     0.278 C 
ENDBRANCH   9  14
ENDBRANCH   7   8
BRANCH   7  16
ATOM     16  N   UNL     1       1.356   0.204  -7.313  1.00  0.00    -0.345 N 
ATOM     17  C   UNL     1       1.868   1.272  -8.003  1.00  0.00     0.252 C 
ATOM     18  H   UNL     1       0.413  -0.003  -7.503  1.00  0.00     0.164 HD
ATOM     19  O   UNL     1       1.147   2.047  -8.618  1.00  0.00    -0.269 OA
BRANCH  17  20
ATOM     20  C   UNL     1       3.327   1.479  -8.027  1.00  0.00     0.046 A 
ATOM     21  C   UNL     1       3.857   2.704  -7.614  1.00  0.00     0.016 A 
ATOM     22  C   UNL     1       4.167   0.459  -8.476  1.00  0.00     0.101 A 
ATOM     23  C   UNL     1       5.244   2.882  -7.576  1.00  0.00     0.028 A 
ATOM     24  C   UNL     1       5.553   0.644  -8.411  1.00  0.00     0.288 A 
ATOM     25  C   UNL     1       6.106   1.843  -7.953  1.00  0.00     0.118 A 
ATOM     26  Cl  UNL     1       7.800   2.110  -7.764  1.00  0.00    -0.077 Cl
BRANCH  24  27
ATOM     27  N   UNL     1       6.386  -0.485  -8.775  1.00  0.00     0.064 N 
ATOM     28  O   UNL     1       7.277  -0.304  -9.613  1.00  0.00    -0.258 OA
ATOM     29  O   UNL     1       6.098  -1.575  -8.257  1.00  0.00    -0.258 OA
ENDBRANCH  24  27
ENDBRANCH  17  20
ENDBRANCH   7  16
ENDBRANCH   6   7
ENDBRANCH   3   6
ENDBRANCH   1   2
BRANCH   1  30
ATOM     30  C   UNL     1      -0.685  -2.639  -3.598  1.00  0.00     0.042 C 
BRANCH  30  31
ATOM     31  C   UNL     1      -2.165  -2.847  -3.306  1.00  0.00     0.118 C 
BRANCH  31  32
ATOM     32  N   UNL     1      -2.370  -3.716  -2.164  1.00  0.00    -0.352 N 
ATOM     33  C   UNL     1      -2.637  -3.455  -0.842  1.00  0.00     0.251 C 
ATOM     34  H   UNL     1      -2.307  -4.675  -2.376  1.00  0.00     0.163 HD
ATOM     35  O   UNL     1      -2.491  -4.392  -0.053  1.00  0.00    -0.269 OA
BRANCH  33  36
ATOM     36  C   UNL     1      -3.090  -2.134  -0.316  1.00  0.00     0.039 A 
ATOM     37  C   UNL     1      -2.829  -1.858   1.035  1.00  0.00     0.014 A 
ATOM     38  C   UNL     1      -3.865  -1.220  -1.035  1.00  0.00     0.014 A 
ATOM     39  C   UNL     1      -3.326  -0.698   1.645  1.00  0.00     0.010 A 
ATOM     40  C   UNL     1      -4.291  -0.016  -0.448  1.00  0.00     0.010 A 
ATOM     41  C   UNL     1      -4.051   0.250   0.907  1.00  0.00    -0.014 A 
BRANCH  41  42
ATOM     42  C   UNL     1      -4.566   1.488   1.567  1.00  0.00     0.031 A 
ATOM     43  C   UNL     1      -6.048   1.756   1.686  1.00  0.00     0.074 A 
ATOM     44  C   UNL     1      -3.696   2.384   2.077  1.00  0.00     0.049 A 
ATOM     45  N   UNL     1      -6.663   2.756   2.270  1.00  0.00    -0.248 NA
ATOM     46  C   UNL     1      -6.957   0.789   1.053  1.00  0.00     0.031 C 
ATOM     47  C   UNL     1      -2.237   2.286   1.990  1.00  0.00     0.029 A 
ATOM     48  N   UNL     1      -3.908   3.547   2.776  1.00  0.00    -0.354 N 
ATOM     49  C   UNL     1      -8.024   2.546   2.066  1.00  0.00     0.074 A 
ATOM     50  C   UNL     1      -8.142   1.347   1.263  1.00  0.00     0.031 C 
ATOM     51  C   UNL     1      -1.687   3.321   2.644  1.00  0.00     0.029 A 
ATOM     52  C   UNL     1      -2.749   4.173   3.173  1.00  0.00     0.049 A 
ATOM     53  H   UNL     1      -4.805   3.900   2.975  1.00  0.00     0.167 HD
ATOM     54  C   UNL     1      -9.080   3.267   2.520  1.00  0.00     0.037 A 
ATOM     55  C   UNL     1      -2.556   5.300   3.887  1.00  0.00     0.037 A 
ATOM     56  C   UNL     1      -8.973   4.445   3.344  1.00  0.00     0.049 A 
ATOM     57  C   UNL     1      -3.742   6.064   4.409  1.00  0.00     0.074 A 
ATOM     58  C   UNL     1      -9.990   5.203   3.901  1.00  0.00     0.029 A 
ATOM     59  N   UNL     1      -7.781   5.037   3.733  1.00  0.00    -0.354 N 
ATOM     60  N   UNL     1      -5.019   5.810   4.255  1.00  0.00    -0.248 NA
ATOM     61  C   UNL     1      -3.458   7.261   5.212  1.00  0.00     0.031 C 
ATOM     62  C   UNL     1      -9.414   6.273   4.596  1.00  0.00     0.029 A 
ATOM     63  C   UNL     1      -8.037   6.159   4.507  1.00  0.00     0.049 A 
ATOM     64  H   UNL     1      -6.884   4.710   3.494  1.00  0.00     0.167 HD
ATOM     65  C   UNL     1      -5.690   6.808   4.955  1.00  0.00     0.074 A 
ATOM     66  C   UNL     1      -4.678   7.654   5.551  1.00  0.00     0.031 C 
ATOM     67  C   UNL     1      -7.026   7.005   5.089  1.00  0.00     0.037 A 
BRANCH  54  68
ATOM     68  C   UNL     1     -10.460   2.797   2.141  1.00  0.00     0.058 A 
ATOM     69  C   UNL     1     -11.023   1.640   2.703  1.00  0.00     0.135 A 
ATOM     70  C   UNL     1     -11.246   3.535   1.242  1.00  0.00     0.135 A 
ATOM     71  F   UNL     1     -10.313   0.890   3.561  1.00  0.00    -0.206 F 
ATOM     72  C   UNL     1     -12.305   1.215   2.365  1.00  0.00     0.059 A 
ATOM     73  C   UNL     1     -12.540   3.143   0.908  1.00  0.00     0.059 A 
ATOM     74  F   UNL     1     -10.760   4.652   0.678  1.00  0.00    -0.206 F 
ATOM     75  C   UNL     1     -13.055   1.972   1.463  1.00  0.00     0.060 A 
BRANCH  75  76
ATOM     76  S   UNL     1     -14.717   1.410   1.035  1.00  0.00     0.124 S 
ATOM     77  O   UNL     1     -14.424   0.292   0.143  1.00  0.00    -0.237 OA
ATOM     78  O   UNL     1     -15.272   1.052   2.336  1.00  0.00    -0.237 OA
ATOM     79  O   UNL     1     -15.318   2.578   0.401  1.00  0.00    -0.744 OA
ENDBRANCH  75  76
ENDBRANCH  54  68
BRANCH  55  80
ATOM     80  C   UNL     1      -1.173   5.759   4.179  1.00  0.00     0.058 A 
ATOM     81  C   UNL     1      -0.636   5.657   5.471  1.00  0.00     0.135 A 
ATOM     82  C   UNL     1      -0.357   6.292   3.170  1.00  0.00     0.135 A 
ATOM     83  F   UNL     1      -1.382   5.162   6.470  1.00  0.00    -0.206 F 
ATOM     84  C   UNL     1       0.659   6.078   5.756  1.00  0.00     0.059 A 
ATOM     85  C   UNL     1       0.948   6.698   3.426  1.00  0.00     0.059 A 
ATOM     86  F   UNL     1      -0.820   6.395   1.915  1.00  0.00    -0.206 F 
ATOM     87  C   UNL     1       1.445   6.593   4.725  1.00  0.00     0.060 A 
BRANCH  87  88
ATOM     88  S   UNL     1       3.149   7.071   5.085  1.00  0.00     0.124 S 
ATOM     89  O   UNL     1       2.959   8.349   5.760  1.00  0.00    -0.237 OA
ATOM     90  O   UNL     1       3.609   5.967   5.922  1.00  0.00    -0.237 OA
ATOM     91  O   UNL     1       3.762   7.138   3.761  1.00  0.00    -0.744 OA
ENDBRANCH  87  88
ENDBRANCH  55  80
BRANCH  67  92
ATOM     92  C   UNL     1      -7.463   8.175   5.926  1.00  0.00     0.058 A 
ATOM     93  C   UNL     1      -7.319   9.498   5.476  1.00  0.00     0.135 A 
ATOM     94  C   UNL     1      -8.028   7.974   7.196  1.00  0.00     0.135 A 
ATOM     95  F   UNL     1      -6.781   9.745   4.271  1.00  0.00    -0.206 F 
ATOM     96  C   UNL     1      -7.678  10.581   6.272  1.00  0.00     0.059 A 
ATOM     97  C   UNL     1      -8.417   9.043   7.999  1.00  0.00     0.059 A 
ATOM     98  F   UNL     1      -8.201   6.731   7.671  1.00  0.00    -0.206 F 
ATOM     99  C   UNL     1      -8.217  10.343   7.537  1.00  0.00     0.060 A 
BRANCH  99 100
ATOM    100  S   UNL     1      -8.663  11.754   8.573  1.00  0.00     0.124 S 
ATOM    101  O   UNL     1      -7.359  12.173   9.074  1.00  0.00    -0.237 OA
ATOM    102  O   UNL     1      -9.296  12.659   7.619  1.00  0.00    -0.237 OA
ATOM    103  O   UNL     1      -9.562  11.173   9.566  1.00  0.00    -0.744 OA
ENDBRANCH  99 100
ENDBRANCH  67  92
ENDBRANCH  41  42
ENDBRANCH  33  36
ENDBRANCH  31  32
ENDBRANCH  30  31
ENDBRANCH   1  30
TORSDOF 19
