REMARK SMILES Cc1[nH]c(=O)sc1S(=O)(=O)N[C@@H]1CCCCC[C@@H]1C(=O)NCCCNC(=O)c1ccc(-c2c3nc(c(-c4c(F)cc(S(=O)(=O)[O-])cc4F)c4ccc([nH]4)c(-c4c(F)cc(S(=O)(=O)[O-])cc4F)c4nc(c(-c5c(F)cc(S(=O)(=O)[O-])cc5F)c5ccc2[nH]5)C=C4)C=C3)cc1
REMARK SMILES IDX 22 1 21 2 19 3 20 4 18 6 12 7 11 8 8 10 9 11 10 12 7 13 1 14
REMARK SMILES IDX 2 15 3 16 4 17 6 19 5 20 13 21 14 22 17 24 16 25 15 26 23 28
REMARK SMILES IDX 24 29 25 30 26 31 27 33 28 34 29 35 93 36 30 37 92 38 31 39
REMARK SMILES IDX 32 40 33 41 86 42 34 43 91 44 85 45 87 46 35 47 90 48 84 49
REMARK SMILES IDX 83 50 36 52 70 53 49 54 69 55 50 56 53 57 68 58 88 59 51 60
REMARK SMILES IDX 52 61 67 63 89 64 54 65 37 66 38 67 47 68 39 69 40 70 46 71
REMARK SMILES IDX 48 72 41 73 42 74 43 75 44 76 45 77 71 78 72 79 81 80 73 81
REMARK SMILES IDX 74 82 80 83 82 84 75 85 76 86 77 87 78 88 79 89 55 90 56 91
REMARK SMILES IDX 65 92 57 93 58 94 64 95 66 96 59 97 60 98 61 99 62 100
REMARK SMILES IDX 63 101
REMARK H PARENT 21 5 11 9 3 18 25 32 87 51 53 62
REMARK Flexibility Score: 90.00
ROOT
ATOM      1  C   UNL     1       4.496  -2.222  -0.275  1.00  0.00     0.117 C 
ENDROOT
BRANCH   1   2
ATOM      2  N   UNL     1       4.823  -1.814  -1.639  1.00  0.00    -0.356 N 
ATOM      3  C   UNL     1       4.059  -1.466  -2.713  1.00  0.00     0.224 C 
ATOM      4  O   UNL     1       4.665  -1.093  -3.722  1.00  0.00    -0.275 OA
ATOM      5  H   UNL     1       5.790  -1.785  -1.818  1.00  0.00     0.163 HD
BRANCH   3   6
ATOM      6  C   UNL     1       2.525  -1.383  -2.688  1.00  0.00     0.096 C 
BRANCH   6   7
ATOM      7  C   UNL     1       2.063   0.078  -2.444  1.00  0.00     0.082 C 
BRANCH   7   8
ATOM      8  N   UNL     1       2.806   0.658  -1.270  1.00  0.00    -0.207 NA
ATOM      9  H   UNL     1       2.527   0.117  -0.452  1.00  0.00     0.141 HD
BRANCH   8  10
ATOM     10  S   UNL     1       2.620   2.303  -0.855  1.00  0.00     0.252 S 
ATOM     11  O   UNL     1       2.535   3.014  -2.114  1.00  0.00    -0.206 OA
ATOM     12  O   UNL     1       3.733   2.552   0.040  1.00  0.00    -0.206 OA
BRANCH  10  13
ATOM     13  C   UNL     1       1.154   2.527   0.046  1.00  0.00     0.158 A 
ATOM     14  C   UNL     1       1.184   0.306   1.379  1.00  0.00     0.067 C 
ATOM     15  C   UNL     1       0.667   1.636   0.932  1.00  0.00     0.046 A 
ATOM     16  N   UNL     1      -0.536   2.043   1.473  1.00  0.00    -0.315 N 
ATOM     17  C   UNL     1      -1.015   3.257   1.070  1.00  0.00     0.305 A 
ATOM     18  H   UNL     1      -1.026   1.485   2.119  1.00  0.00     0.170 HD
ATOM     19  S   UNL     1       0.120   3.943  -0.072  1.00  0.00    -0.061 S 
ATOM     20  O   UNL     1      -2.063   3.784   1.432  1.00  0.00    -0.257 OA
ENDBRANCH  10  13
ENDBRANCH   8  10
ENDBRANCH   7   8
BRANCH   7  21
ATOM     21  C   UNL     1       0.549   0.269  -2.245  1.00  0.00     0.021 C 
BRANCH  21  22
ATOM     22  C   UNL     1      -0.422  -0.680  -2.938  1.00  0.00     0.002 CG0
ATOM     23  G   UNL     1      -0.619  -1.982  -2.167  1.00  0.00     0.000 G0
ENDBRANCH  21  22
ENDBRANCH   7  21
ENDBRANCH   6   7
BRANCH   6  24
ATOM     24  C   UNL     1       1.852  -2.471  -1.852  1.00  0.00     0.015 C 
BRANCH  24  25
ATOM     25  C   UNL     1       0.512  -2.968  -2.372  1.00  0.00     0.001 C 
BRANCH  25  26
ATOM     26  C   UNL     1      -0.619  -1.982  -2.167  1.00  0.00     0.000 CG0
ATOM     27  G   UNL     1      -0.422  -0.680  -2.938  1.00  0.00     0.000 G0
ENDBRANCH  25  26
ENDBRANCH  24  25
ENDBRANCH   6  24
ENDBRANCH   3   6
ENDBRANCH   1   2
BRANCH   1  28
ATOM     28  C   UNL     1       4.397  -3.745  -0.095  1.00  0.00     0.042 C 
BRANCH  28  29
ATOM     29  C   UNL     1       5.748  -4.408   0.070  1.00  0.00     0.118 C 
BRANCH  29  30
ATOM     30  N   UNL     1       6.361  -4.161   1.378  1.00  0.00    -0.352 N 
ATOM     31  C   UNL     1       7.598  -4.603   1.826  1.00  0.00     0.251 C 
ATOM     32  H   UNL     1       5.835  -3.621   2.011  1.00  0.00     0.163 HD
ATOM     33  O   UNL     1       7.846  -4.661   3.024  1.00  0.00    -0.269 OA
BRANCH  31  34
ATOM     34  C   UNL     1       8.592  -5.011   0.817  1.00  0.00     0.039 A 
ATOM     35  C   UNL     1       9.403  -6.136   0.967  1.00  0.00     0.014 A 
ATOM     36  C   UNL     1       8.615  -4.275  -0.358  1.00  0.00     0.014 A 
ATOM     37  C   UNL     1      10.164  -6.552  -0.126  1.00  0.00     0.010 A 
ATOM     38  C   UNL     1       9.129  -4.843  -1.488  1.00  0.00     0.010 A 
ATOM     39  C   UNL     1       9.998  -5.912  -1.367  1.00  0.00    -0.014 A 
BRANCH  39  40
ATOM     40  C   UNL     1      10.689  -6.361  -2.571  1.00  0.00     0.031 A 
ATOM     41  C   UNL     1      10.630  -7.827  -2.816  1.00  0.00     0.074 A 
ATOM     42  C   UNL     1      11.203  -5.512  -3.491  1.00  0.00     0.049 A 
ATOM     43  N   UNL     1      11.588  -8.683  -2.692  1.00  0.00    -0.248 NA
ATOM     44  C   UNL     1       9.318  -8.438  -3.079  1.00  0.00     0.031 C 
ATOM     45  C   UNL     1      11.097  -4.047  -3.585  1.00  0.00     0.029 A 
ATOM     46  N   UNL     1      11.895  -5.818  -4.619  1.00  0.00    -0.354 N 
ATOM     47  C   UNL     1      11.061  -9.913  -3.070  1.00  0.00     0.074 A 
ATOM     48  C   UNL     1       9.632  -9.736  -3.122  1.00  0.00     0.031 C 
ATOM     49  C   UNL     1      11.486  -3.633  -4.811  1.00  0.00     0.029 A 
ATOM     50  C   UNL     1      12.066  -4.762  -5.506  1.00  0.00     0.049 A 
ATOM     51  H   UNL     1      12.250  -6.720  -4.794  1.00  0.00     0.167 HD
ATOM     52  C   UNL     1      11.860 -10.924  -3.513  1.00  0.00     0.037 A 
ATOM     53  C   UNL     1      12.655  -4.814  -6.726  1.00  0.00     0.037 A 
ATOM     54  C   UNL     1      13.244 -10.671  -3.194  1.00  0.00     0.049 A 
ATOM     55  C   UNL     1      13.518  -6.024  -6.724  1.00  0.00     0.074 A 
ATOM     56  C   UNL     1      13.940 -10.498  -2.012  1.00  0.00     0.029 A 
ATOM     57  N   UNL     1      14.043 -10.135  -4.176  1.00  0.00    -0.354 N 
ATOM     58  N   UNL     1      14.566  -6.164  -5.955  1.00  0.00    -0.248 NA
ATOM     59  C   UNL     1      12.932  -7.263  -7.210  1.00  0.00     0.031 C 
ATOM     60  C   UNL     1      14.853  -9.434  -2.277  1.00  0.00     0.029 A 
ATOM     61  C   UNL     1      14.721  -9.076  -3.620  1.00  0.00     0.049 A 
ATOM     62  H   UNL     1      14.116 -10.451  -5.106  1.00  0.00     0.167 HD
ATOM     63  C   UNL     1      14.524  -7.484  -5.526  1.00  0.00     0.074 A 
ATOM     64  C   UNL     1      13.533  -8.128  -6.388  1.00  0.00     0.031 C 
ATOM     65  C   UNL     1      15.081  -7.870  -4.339  1.00  0.00     0.037 A 
BRANCH  52  66
ATOM     66  C   UNL     1      11.435 -11.975  -4.507  1.00  0.00     0.058 A 
ATOM     67  C   UNL     1      12.250 -13.104  -4.727  1.00  0.00     0.135 A 
ATOM     68  C   UNL     1      10.386 -11.791  -5.435  1.00  0.00     0.135 A 
ATOM     69  F   UNL     1      13.288 -13.366  -3.917  1.00  0.00    -0.206 F 
ATOM     70  C   UNL     1      12.065 -13.958  -5.816  1.00  0.00     0.059 A 
ATOM     71  C   UNL     1      10.150 -12.659  -6.495  1.00  0.00     0.059 A 
ATOM     72  F   UNL     1       9.598 -10.709  -5.414  1.00  0.00    -0.206 F 
ATOM     73  C   UNL     1      11.017 -13.719  -6.700  1.00  0.00     0.060 A 
BRANCH  73  74
ATOM     74  S   UNL     1      10.828 -14.765  -8.155  1.00  0.00     0.124 S 
ATOM     75  O   UNL     1      11.998 -14.387  -8.939  1.00  0.00    -0.237 OA
ATOM     76  O   UNL     1      10.852 -16.102  -7.571  1.00  0.00    -0.237 OA
ATOM     77  O   UNL     1       9.539 -14.350  -8.702  1.00  0.00    -0.744 OA
ENDBRANCH  73  74
ENDBRANCH  52  66
BRANCH  53  78
ATOM     78  C   UNL     1      12.220  -4.128  -7.971  1.00  0.00     0.058 A 
ATOM     79  C   UNL     1      13.054  -4.071  -9.100  1.00  0.00     0.135 A 
ATOM     80  C   UNL     1      10.869  -3.776  -8.176  1.00  0.00     0.135 A 
ATOM     81  F   UNL     1      14.349  -4.407  -8.997  1.00  0.00    -0.206 F 
ATOM     82  C   UNL     1      12.568  -3.738 -10.370  1.00  0.00     0.059 A 
ATOM     83  C   UNL     1      10.363  -3.437  -9.431  1.00  0.00     0.059 A 
ATOM     84  F   UNL     1       9.979  -3.845  -7.174  1.00  0.00    -0.206 F 
ATOM     85  C   UNL     1      11.214  -3.446 -10.530  1.00  0.00     0.060 A 
BRANCH  85  86
ATOM     86  S   UNL     1      10.547  -3.201 -12.195  1.00  0.00     0.124 S 
ATOM     87  O   UNL     1      11.133  -1.919 -12.569  1.00  0.00    -0.237 OA
ATOM     88  O   UNL     1      11.060  -4.367 -12.906  1.00  0.00    -0.237 OA
ATOM     89  O   UNL     1       9.102  -3.190 -11.984  1.00  0.00    -0.744 OA
ENDBRANCH  85  86
ENDBRANCH  53  78
BRANCH  65  90
ATOM     90  C   UNL     1      15.974  -6.892  -3.609  1.00  0.00     0.058 A 
ATOM     91  C   UNL     1      15.545  -5.671  -3.056  1.00  0.00     0.135 A 
ATOM     92  C   UNL     1      17.283  -7.298  -3.307  1.00  0.00     0.135 A 
ATOM     93  F   UNL     1      14.283  -5.249  -3.212  1.00  0.00    -0.206 F 
ATOM     94  C   UNL     1      16.385  -4.880  -2.266  1.00  0.00     0.059 A 
ATOM     95  C   UNL     1      18.128  -6.541  -2.498  1.00  0.00     0.059 A 
ATOM     96  F   UNL     1      17.739  -8.480  -3.753  1.00  0.00    -0.206 F 
ATOM     97  C   UNL     1      17.676  -5.327  -1.988  1.00  0.00     0.060 A 
BRANCH  97  98
ATOM     98  S   UNL     1      18.736  -4.350  -0.897  1.00  0.00     0.124 S 
ATOM     99  O   UNL     1      19.056  -3.197  -1.731  1.00  0.00    -0.237 OA
ATOM    100  O   UNL     1      17.862  -4.085   0.243  1.00  0.00    -0.237 OA
ATOM    101  O   UNL     1      19.855  -5.247  -0.616  1.00  0.00    -0.744 OA
ENDBRANCH  97  98
ENDBRANCH  65  90
ENDBRANCH  39  40
ENDBRANCH  31  34
ENDBRANCH  29  30
ENDBRANCH  28  29
ENDBRANCH   1  28
TORSDOF 16
