REMARK SMILES C[C@@H](O)c1ccc(F)cc1OCC(C)(C)C(=O)NCCCNC(=O)c1ccc(-c2c3nc(c(-c4c(F)cc(S(=O)(=O)[O-])cc4F)c4ccc([nH]4)c(-c4c(F)cc(S(=O)(=O)[O-])cc4F)c4nc(c(-c5c(F)cc(S(=O)(=O)[O-])cc5F)c5ccc2[nH]5)C=C4)C=C3)cc1
REMARK SMILES IDX 19 1 18 2 16 3 17 4 13 6 14 7 15 8 12 9 11 10 10 11 4 12
REMARK SMILES IDX 5 13 6 14 9 15 7 16 8 17 2 18 1 19 3 20 20 22 21 23 22 24
REMARK SMILES IDX 23 25 24 27 25 28 26 29 90 30 27 31 89 32 28 33 29 34 30 35
REMARK SMILES IDX 83 36 31 37 88 38 82 39 84 40 32 41 87 42 81 43 80 44 33 46
REMARK SMILES IDX 67 47 46 48 66 49 47 50 50 51 65 52 85 53 48 54 49 55 64 57
REMARK SMILES IDX 86 58 51 59 34 60 35 61 44 62 36 63 37 64 43 65 45 66 38 67
REMARK SMILES IDX 39 68 40 69 41 70 42 71 68 72 69 73 78 74 70 75 71 76 77 77
REMARK SMILES IDX 79 78 72 79 73 80 74 81 75 82 76 83 52 84 53 85 62 86 54 87
REMARK SMILES IDX 55 88 61 89 63 90 56 91 57 92 58 93 59 94 60 95
REMARK H PARENT 18 5 3 21 22 26 84 45 50 56
REMARK Flexibility Score: inf
ROOT
ATOM      1  C   UNL     1       1.794  -1.722   3.684  1.00  0.00     0.117 C 
ENDROOT
BRANCH   1   2
ATOM      2  N   UNL     1       1.194  -0.664   4.493  1.00  0.00    -0.355 N 
ATOM      3  C   UNL     1       0.654   0.539   4.103  1.00  0.00     0.229 C 
ATOM      4  O   UNL     1       0.075   1.207   4.958  1.00  0.00    -0.274 OA
ATOM      5  H   UNL     1       1.173  -0.838   5.462  1.00  0.00     0.163 HD
BRANCH   3   6
ATOM      6  C   UNL     1       0.834   1.016   2.648  1.00  0.00     0.077 C 
ATOM      7  C   UNL     1       0.317  -0.105   1.724  1.00  0.00     0.025 C 
ATOM      8  C   UNL     1       2.351   1.296   2.478  1.00  0.00     0.025 C 
BRANCH   6   9
ATOM      9  C   UNL     1       0.147   2.401   2.399  1.00  0.00     0.245 C 
BRANCH   9  10
ATOM     10  O   UNL     1      -1.236   2.384   2.090  1.00  0.00    -0.492 OA
BRANCH  10  11
ATOM     11  C   UNL     1      -1.810   2.126   0.878  1.00  0.00     0.128 A 
ATOM     12  C   UNL     1      -1.266   1.862  -0.404  1.00  0.00     0.022 A 
ATOM     13  C   UNL     1      -2.164   1.433  -1.417  1.00  0.00     0.013 A 
ATOM     14  C   UNL     1      -3.527   1.257  -1.183  1.00  0.00     0.040 A 
ATOM     15  C   UNL     1      -3.201   2.006   1.072  1.00  0.00     0.086 A 
ATOM     16  C   UNL     1      -4.037   1.563   0.061  1.00  0.00     0.126 A 
ATOM     17  F   UNL     1      -5.345   1.404   0.303  1.00  0.00    -0.207 F 
BRANCH  12  18
ATOM     18  C   UNL     1       0.196   1.933  -0.809  1.00  0.00     0.145 C 
ATOM     19  C   UNL     1       0.719   0.696  -1.556  1.00  0.00     0.044 C 
BRANCH  18  20
ATOM     20  O   UNL     1       0.383   3.075  -1.641  1.00  0.00    -0.389 OA
ATOM     21  H   UNL     1      -0.141   2.975  -2.451  1.00  0.00     0.211 HD
ENDBRANCH  18  20
ENDBRANCH  12  18
ENDBRANCH  10  11
ENDBRANCH   9  10
ENDBRANCH   6   9
ENDBRANCH   3   6
ENDBRANCH   1   2
BRANCH   1  22
ATOM     22  C   UNL     1       3.046  -2.308   4.285  1.00  0.00     0.042 C 
BRANCH  22  23
ATOM     23  C   UNL     1       2.738  -3.237   5.438  1.00  0.00     0.118 C 
BRANCH  23  24
ATOM     24  N   UNL     1       1.989  -4.422   5.022  1.00  0.00    -0.352 N 
ATOM     25  C   UNL     1       2.340  -5.751   5.100  1.00  0.00     0.251 C 
ATOM     26  H   UNL     1       1.104  -4.243   4.629  1.00  0.00     0.163 HD
ATOM     27  O   UNL     1       1.671  -6.603   4.539  1.00  0.00    -0.269 OA
BRANCH  25  28
ATOM     28  C   UNL     1       3.558  -6.113   5.851  1.00  0.00     0.039 A 
ATOM     29  C   UNL     1       4.469  -7.011   5.295  1.00  0.00     0.014 A 
ATOM     30  C   UNL     1       3.826  -5.491   7.071  1.00  0.00     0.014 A 
ATOM     31  C   UNL     1       5.696  -7.213   5.927  1.00  0.00     0.010 A 
ATOM     32  C   UNL     1       5.093  -5.585   7.618  1.00  0.00     0.010 A 
ATOM     33  C   UNL     1       6.036  -6.461   7.065  1.00  0.00    -0.014 A 
BRANCH  33  34
ATOM     34  C   UNL     1       7.356  -6.589   7.727  1.00  0.00     0.031 A 
ATOM     35  C   UNL     1       7.417  -7.001   9.173  1.00  0.00     0.074 A 
ATOM     36  C   UNL     1       8.477  -6.250   7.062  1.00  0.00     0.049 A 
ATOM     37  N   UNL     1       8.448  -7.055   9.972  1.00  0.00    -0.248 NA
ATOM     38  C   UNL     1       6.140  -7.352   9.820  1.00  0.00     0.031 C 
ATOM     39  C   UNL     1       8.533  -5.771   5.678  1.00  0.00     0.029 A 
ATOM     40  N   UNL     1       9.788  -6.253   7.463  1.00  0.00    -0.354 N 
ATOM     41  C   UNL     1       7.941  -7.412  11.215  1.00  0.00     0.074 A 
ATOM     42  C   UNL     1       6.505  -7.492  11.084  1.00  0.00     0.031 C 
ATOM     43  C   UNL     1       9.815  -5.568   5.334  1.00  0.00     0.029 A 
ATOM     44  C   UNL     1      10.668  -5.862   6.482  1.00  0.00     0.049 A 
ATOM     45  H   UNL     1      10.073  -6.510   8.370  1.00  0.00     0.167 HD
ATOM     46  C   UNL     1       8.614  -7.687  12.355  1.00  0.00     0.037 A 
ATOM     47  C   UNL     1      12.011  -5.756   6.505  1.00  0.00     0.037 A 
ATOM     48  C   UNL     1      10.047  -7.667  12.456  1.00  0.00     0.049 A 
ATOM     49  C   UNL     1      12.744  -6.108   7.769  1.00  0.00     0.074 A 
ATOM     50  C   UNL     1      10.838  -8.004  13.539  1.00  0.00     0.029 A 
ATOM     51  N   UNL     1      10.905  -7.301  11.429  1.00  0.00    -0.354 N 
ATOM     52  N   UNL     1      12.254  -6.495   8.923  1.00  0.00    -0.248 NA
ATOM     53  C   UNL     1      14.210  -6.013   7.737  1.00  0.00     0.031 C 
ATOM     54  C   UNL     1      12.174  -7.813  13.176  1.00  0.00     0.029 A 
ATOM     55  C   UNL     1      12.218  -7.394  11.855  1.00  0.00     0.049 A 
ATOM     56  H   UNL     1      10.622  -7.018  10.529  1.00  0.00     0.167 HD
ATOM     57  C   UNL     1      13.349  -6.704   9.751  1.00  0.00     0.074 A 
ATOM     58  C   UNL     1      14.530  -6.413   8.962  1.00  0.00     0.031 C 
ATOM     59  C   UNL     1      13.376  -7.100  11.047  1.00  0.00     0.037 A 
BRANCH  46  60
ATOM     60  C   UNL     1       7.808  -8.059  13.567  1.00  0.00     0.058 A 
ATOM     61  C   UNL     1       7.733  -7.195  14.670  1.00  0.00     0.135 A 
ATOM     62  C   UNL     1       7.119  -9.282  13.645  1.00  0.00     0.135 A 
ATOM     63  F   UNL     1       8.362  -6.010  14.646  1.00  0.00    -0.206 F 
ATOM     64  C   UNL     1       7.007  -7.530  15.808  1.00  0.00     0.059 A 
ATOM     65  C   UNL     1       6.364  -9.625  14.761  1.00  0.00     0.059 A 
ATOM     66  F   UNL     1       7.135 -10.133  12.607  1.00  0.00    -0.206 F 
ATOM     67  C   UNL     1       6.323  -8.747  15.844  1.00  0.00     0.060 A 
BRANCH  67  68
ATOM     68  S   UNL     1       5.337  -9.144  17.303  1.00  0.00     0.124 S 
ATOM     69  O   UNL     1       6.369  -9.464  18.282  1.00  0.00    -0.237 OA
ATOM     70  O   UNL     1       4.605  -7.901  17.528  1.00  0.00    -0.237 OA
ATOM     71  O   UNL     1       4.518 -10.269  16.859  1.00  0.00    -0.744 OA
ENDBRANCH  67  68
ENDBRANCH  46  60
BRANCH  47  72
ATOM     72  C   UNL     1      12.734  -5.353   5.272  1.00  0.00     0.058 A 
ATOM     73  C   UNL     1      12.675  -4.039   4.784  1.00  0.00     0.135 A 
ATOM     74  C   UNL     1      13.442  -6.300   4.517  1.00  0.00     0.135 A 
ATOM     75  F   UNL     1      11.999  -3.099   5.462  1.00  0.00    -0.206 F 
ATOM     76  C   UNL     1      13.264  -3.685   3.574  1.00  0.00     0.059 A 
ATOM     77  C   UNL     1      14.057  -5.966   3.314  1.00  0.00     0.059 A 
ATOM     78  F   UNL     1      13.534  -7.567   4.949  1.00  0.00    -0.206 F 
ATOM     79  C   UNL     1      13.943  -4.659   2.841  1.00  0.00     0.060 A 
BRANCH  79  80
ATOM     80  S   UNL     1      14.656  -4.192   1.248  1.00  0.00     0.124 S 
ATOM     81  O   UNL     1      13.457  -3.981   0.444  1.00  0.00    -0.237 OA
ATOM     82  O   UNL     1      15.410  -2.991   1.591  1.00  0.00    -0.237 OA
ATOM     83  O   UNL     1      15.461  -5.354   0.884  1.00  0.00    -0.744 OA
ENDBRANCH  79  80
ENDBRANCH  47  72
BRANCH  59  84
ATOM     84  C   UNL     1      14.719  -7.255  11.699  1.00  0.00     0.058 A 
ATOM     85  C   UNL     1      15.219  -8.531  12.001  1.00  0.00     0.135 A 
ATOM     86  C   UNL     1      15.464  -6.139  12.110  1.00  0.00     0.135 A 
ATOM     87  F   UNL     1      14.540  -9.629  11.634  1.00  0.00    -0.206 F 
ATOM     88  C   UNL     1      16.403  -8.696  12.710  1.00  0.00     0.059 A 
ATOM     89  C   UNL     1      16.663  -6.281  12.799  1.00  0.00     0.059 A 
ATOM     90  F   UNL     1      15.030  -4.899  11.833  1.00  0.00    -0.206 F 
ATOM     91  C   UNL     1      17.115  -7.564  13.111  1.00  0.00     0.060 A 
BRANCH  91  92
ATOM     92  S   UNL     1      18.649  -7.795  14.033  1.00  0.00     0.124 S 
ATOM     93  O   UNL     1      18.153  -8.235  15.332  1.00  0.00    -0.237 OA
ATOM     94  O   UNL     1      19.337  -8.808  13.238  1.00  0.00    -0.237 OA
ATOM     95  O   UNL     1      19.261  -6.469  14.009  1.00  0.00    -0.744 OA
ENDBRANCH  91  92
ENDBRANCH  59  84
ENDBRANCH  33  34
ENDBRANCH  25  28
ENDBRANCH  23  24
ENDBRANCH  22  23
ENDBRANCH   1  22
TORSDOF 18
