REMARK SMILES O=C(Cn1nnnc1[C@H]1Cc2ccccc2S1)NCCCNC(=O)c1ccc(-c2c3nc(c(-c4c(F)cc(S(=O)(=O)[O-])cc4F)c4ccc([nH]4)c(-c4c(F)cc(S(=O)(=O)[O-])cc4F)c4nc(c(-c5c(F)cc(S(=O)(=O)[O-])cc5F)c5ccc2[nH]5)C=C4)C=C3)cc1
REMARK SMILES IDX 20 1 19 2 18 3 1 4 2 5 3 7 4 8 5 9 8 10 6 11 7 12 9 13 10 14
REMARK SMILES IDX 17 15 11 16 16 17 12 18 15 19 13 20 14 21 21 22 22 23 23 24
REMARK SMILES IDX 24 26 25 27 26 28 90 29 27 30 89 31 28 32 29 33 30 34 83 35
REMARK SMILES IDX 31 36 88 37 82 38 84 39 32 40 87 41 81 42 80 43 33 45 67 46
REMARK SMILES IDX 46 47 66 48 47 49 50 50 65 51 85 52 48 53 49 54 64 56 86 57
REMARK SMILES IDX 51 58 34 59 35 60 44 61 36 62 37 63 43 64 45 65 38 66 39 67
REMARK SMILES IDX 40 68 41 69 42 70 68 71 69 72 78 73 70 74 71 75 77 76 79 77
REMARK SMILES IDX 72 78 73 79 74 80 75 81 76 82 52 83 53 84 62 85 54 86 55 87
REMARK SMILES IDX 61 88 63 89 56 90 57 91 58 92 59 93 60 94
REMARK H PARENT 18 6 22 25 84 44 50 55
REMARK Flexibility Score: inf
ROOT
ATOM      1  C   UNL     1       1.557  -3.250   1.363  1.00  0.00     0.042 C 
ENDROOT
BRANCH   1   2
ATOM      2  C   UNL     1       1.478  -1.739   1.467  1.00  0.00     0.117 C 
BRANCH   2   3
ATOM      3  N   UNL     1       2.329  -1.047   0.517  1.00  0.00    -0.354 N 
ATOM      4  O   UNL     1       0.949   0.775   0.339  1.00  0.00    -0.273 OA
ATOM      5  C   UNL     1       2.032   0.242   0.122  1.00  0.00     0.241 C 
ATOM      6  H   UNL     1       3.124  -1.500   0.152  1.00  0.00     0.163 HD
BRANCH   5   7
ATOM      7  C   UNL     1       3.170   0.963  -0.556  1.00  0.00     0.248 C 
BRANCH   7   8
ATOM      8  N   UNL     1       3.898   1.752   0.411  1.00  0.00    -0.219 N 
ATOM      9  N   UNL     1       3.377   2.936   0.790  1.00  0.00    -0.044 NA
ATOM     10  C   UNL     1       5.097   1.556   1.064  1.00  0.00     0.165 A 
ATOM     11  N   UNL     1       4.177   3.394   1.734  1.00  0.00    -0.024 NA
ATOM     12  N   UNL     1       5.238   2.554   1.921  1.00  0.00    -0.113 NA
BRANCH  10  13
ATOM     13  C   UNL     1       6.144   0.513   0.834  1.00  0.00     0.126 C 
ATOM     14  C   UNL     1       5.863  -0.860   1.473  1.00  0.00     0.059 C 
ATOM     15  S   UNL     1       6.508   0.281  -0.943  1.00  0.00    -0.114 SA
ATOM     16  C   UNL     1       6.255  -1.923   0.482  1.00  0.00    -0.033 A 
ATOM     17  C   UNL     1       6.474  -1.474  -0.816  1.00  0.00     0.011 A 
ATOM     18  C   UNL     1       6.349  -3.284   0.756  1.00  0.00     0.005 A 
ATOM     19  C   UNL     1       6.664  -2.364  -1.864  1.00  0.00     0.015 A 
ATOM     20  C   UNL     1       6.528  -4.193  -0.288  1.00  0.00     0.000 A 
ATOM     21  C   UNL     1       6.662  -3.734  -1.600  1.00  0.00     0.001 A 
ENDBRANCH  10  13
ENDBRANCH   7   8
ENDBRANCH   5   7
ENDBRANCH   2   3
ENDBRANCH   1   2
BRANCH   1  22
ATOM     22  C   UNL     1       2.951  -3.837   1.505  1.00  0.00     0.118 C 
BRANCH  22  23
ATOM     23  N   UNL     1       3.684  -3.435   2.700  1.00  0.00    -0.352 N 
ATOM     24  C   UNL     1       4.540  -4.096   3.549  1.00  0.00     0.251 C 
ATOM     25  H   UNL     1       3.534  -2.495   2.950  1.00  0.00     0.163 HD
ATOM     26  O   UNL     1       5.336  -3.417   4.199  1.00  0.00    -0.269 OA
BRANCH  24  27
ATOM     27  C   UNL     1       4.438  -5.545   3.816  1.00  0.00     0.039 A 
ATOM     28  C   UNL     1       3.914  -6.452   2.909  1.00  0.00     0.014 A 
ATOM     29  C   UNL     1       4.696  -5.952   5.133  1.00  0.00     0.014 A 
ATOM     30  C   UNL     1       3.282  -7.576   3.393  1.00  0.00     0.010 A 
ATOM     31  C   UNL     1       4.188  -7.155   5.594  1.00  0.00     0.010 A 
ATOM     32  C   UNL     1       3.358  -7.890   4.755  1.00  0.00    -0.014 A 
BRANCH  32  33
ATOM     33  C   UNL     1       2.595  -9.052   5.202  1.00  0.00     0.031 A 
ATOM     34  C   UNL     1       2.806 -10.257   4.352  1.00  0.00     0.074 A 
ATOM     35  C   UNL     1       1.791  -9.051   6.285  1.00  0.00     0.049 A 
ATOM     36  N   UNL     1       1.950 -10.866   3.598  1.00  0.00    -0.248 NA
ATOM     37  C   UNL     1       4.198 -10.706   4.165  1.00  0.00     0.031 C 
ATOM     38  C   UNL     1       1.670  -8.019   7.320  1.00  0.00     0.029 A 
ATOM     39  N   UNL     1       0.970 -10.037   6.746  1.00  0.00    -0.354 N 
ATOM     40  C   UNL     1       2.652 -11.912   3.009  1.00  0.00     0.074 A 
ATOM     41  C   UNL     1       4.049 -11.660   3.247  1.00  0.00     0.031 C 
ATOM     42  C   UNL     1       1.040  -8.538   8.396  1.00  0.00     0.029 A 
ATOM     43  C   UNL     1       0.584  -9.877   8.072  1.00  0.00     0.049 A 
ATOM     44  H   UNL     1       0.676 -10.794   6.190  1.00  0.00     0.167 HD
ATOM     45  C   UNL     1       2.029 -13.045   2.590  1.00  0.00     0.037 A 
ATOM     46  C   UNL     1       0.004 -10.815   8.860  1.00  0.00     0.037 A 
ATOM     47  C   UNL     1       0.618 -12.845   2.414  1.00  0.00     0.049 A 
ATOM     48  C   UNL     1      -0.632 -11.806   7.957  1.00  0.00     0.074 A 
ATOM     49  C   UNL     1      -0.178 -12.144   1.534  1.00  0.00     0.029 A 
ATOM     50  N   UNL     1      -0.162 -13.160   3.495  1.00  0.00    -0.354 N 
ATOM     51  N   UNL     1      -1.640 -11.540   7.172  1.00  0.00    -0.248 NA
ATOM     52  C   UNL     1       0.082 -13.039   7.654  1.00  0.00     0.031 C 
ATOM     53  C   UNL     1      -1.335 -11.770   2.277  1.00  0.00     0.029 A 
ATOM     54  C   UNL     1      -1.215 -12.285   3.569  1.00  0.00     0.049 A 
ATOM     55  H   UNL     1       0.007 -13.899   4.122  1.00  0.00     0.167 HD
ATOM     56  C   UNL     1      -1.432 -12.327   6.052  1.00  0.00     0.074 A 
ATOM     57  C   UNL     1      -0.462 -13.330   6.470  1.00  0.00     0.031 C 
ATOM     58  C   UNL     1      -1.848 -11.915   4.820  1.00  0.00     0.037 A 
BRANCH  45  59
ATOM     59  C   UNL     1       2.635 -14.418   2.770  1.00  0.00     0.058 A 
ATOM     60  C   UNL     1       2.059 -15.535   2.137  1.00  0.00     0.135 A 
ATOM     61  C   UNL     1       3.593 -14.709   3.770  1.00  0.00     0.135 A 
ATOM     62  F   UNL     1       1.107 -15.374   1.204  1.00  0.00    -0.206 F 
ATOM     63  C   UNL     1       2.393 -16.845   2.490  1.00  0.00     0.059 A 
ATOM     64  C   UNL     1       3.982 -16.000   4.096  1.00  0.00     0.059 A 
ATOM     65  F   UNL     1       4.123 -13.757   4.547  1.00  0.00    -0.206 F 
ATOM     66  C   UNL     1       3.355 -17.065   3.474  1.00  0.00     0.060 A 
BRANCH  66  67
ATOM     67  S   UNL     1       3.746 -18.749   3.980  1.00  0.00     0.124 S 
ATOM     68  O   UNL     1       2.509 -19.150   4.640  1.00  0.00    -0.237 OA
ATOM     69  O   UNL     1       4.027 -19.390   2.700  1.00  0.00    -0.237 OA
ATOM     70  O   UNL     1       4.902 -18.576   4.854  1.00  0.00    -0.744 OA
ENDBRANCH  66  67
ENDBRANCH  45  59
BRANCH  46  71
ATOM     71  C   UNL     1       0.310 -11.118  10.287  1.00  0.00     0.058 A 
ATOM     72  C   UNL     1      -0.468 -12.046  11.004  1.00  0.00     0.135 A 
ATOM     73  C   UNL     1       1.537 -10.753  10.876  1.00  0.00     0.135 A 
ATOM     74  F   UNL     1      -1.650 -12.455  10.517  1.00  0.00    -0.206 F 
ATOM     75  C   UNL     1      -0.018 -12.641  12.187  1.00  0.00     0.059 A 
ATOM     76  C   UNL     1       2.001 -11.323  12.061  1.00  0.00     0.059 A 
ATOM     77  F   UNL     1       2.377  -9.903  10.268  1.00  0.00    -0.206 F 
ATOM     78  C   UNL     1       1.234 -12.295  12.691  1.00  0.00     0.060 A 
BRANCH  78  79
ATOM     79  S   UNL     1       1.918 -13.212  14.091  1.00  0.00     0.124 S 
ATOM     80  O   UNL     1       1.034 -12.799  15.181  1.00  0.00    -0.237 OA
ATOM     81  O   UNL     1       1.769 -14.598  13.647  1.00  0.00    -0.237 OA
ATOM     82  O   UNL     1       3.286 -12.732  14.180  1.00  0.00    -0.744 OA
ENDBRANCH  78  79
ENDBRANCH  46  71
BRANCH  58  83
ATOM     83  C   UNL     1      -2.919 -10.858   4.761  1.00  0.00     0.058 A 
ATOM     84  C   UNL     1      -2.758  -9.524   5.173  1.00  0.00     0.135 A 
ATOM     85  C   UNL     1      -4.133 -11.197   4.144  1.00  0.00     0.135 A 
ATOM     86  F   UNL     1      -1.597  -9.097   5.692  1.00  0.00    -0.206 F 
ATOM     87  C   UNL     1      -3.772  -8.578   5.006  1.00  0.00     0.059 A 
ATOM     88  C   UNL     1      -5.144 -10.265   3.937  1.00  0.00     0.059 A 
ATOM     89  F   UNL     1      -4.327 -12.444   3.684  1.00  0.00    -0.206 F 
ATOM     90  C   UNL     1      -4.961  -8.957   4.380  1.00  0.00     0.060 A 
BRANCH  90  91
ATOM     91  S   UNL     1      -6.236  -7.713   4.080  1.00  0.00     0.124 S 
ATOM     92  O   UNL     1      -6.705  -7.422   5.430  1.00  0.00    -0.237 OA
ATOM     93  O   UNL     1      -5.484  -6.646   3.425  1.00  0.00    -0.237 OA
ATOM     94  O   UNL     1      -7.194  -8.406   3.222  1.00  0.00    -0.744 OA
ENDBRANCH  90  91
ENDBRANCH  58  83
ENDBRANCH  32  33
ENDBRANCH  24  27
ENDBRANCH  22  23
ENDBRANCH   1  22
TORSDOF 15
