REMARK SMILES Cc1ccc(S(=O)(=O)Nc2ccc(N3CCNC3=O)cc2)cc1C(=O)NCCCNC(=O)c1ccc(-c2c3nc(c(-c4c(F)cc(S(=O)(=O)[O-])cc4F)c4ccc([nH]4)c(-c4c(F)cc(S(=O)(=O)[O-])cc4F)c4nc(c(-c5c(F)cc(S(=O)(=O)[O-])cc5F)c5ccc2[nH]5)C=C4)C=C3)cc1
REMARK SMILES IDX 27 1 26 2 24 3 25 4 23 6 1 7 2 8 3 9 4 10 22 11 5 12 6 13
REMARK SMILES IDX 7 14 8 15 9 16 10 18 11 19 21 20 12 21 20 22 13 23 14 24
REMARK SMILES IDX 15 25 18 26 16 27 17 28 19 29 28 31 29 32 30 33 31 34 32 36
REMARK SMILES IDX 33 37 34 38 98 39 35 40 97 41 36 42 37 43 38 44 91 45 39 46
REMARK SMILES IDX 96 47 90 48 92 49 40 50 95 51 89 52 88 53 41 55 75 56 54 57
REMARK SMILES IDX 74 58 55 59 58 60 73 61 93 62 56 63 57 64 72 66 94 67 59 68
REMARK SMILES IDX 42 69 43 70 52 71 44 72 45 73 51 74 53 75 46 76 47 77 48 78
REMARK SMILES IDX 49 79 50 80 76 81 77 82 86 83 78 84 79 85 85 86 87 87 80 88
REMARK SMILES IDX 81 89 82 90 83 91 84 92 60 93 61 94 70 95 62 96 63 97 69 98
REMARK SMILES IDX 71 99 64 100 65 101 66 102 67 103 68 104
REMARK H PARENT 26 5 9 17 17 30 30 35 92 54 58 65
REMARK Flexibility Score: inf
ROOT
ATOM      1  C   UNL     1       3.424   0.217   1.216  1.00  0.00     0.118 C 
ENDROOT
BRANCH   1   2
ATOM      2  N   UNL     1       2.536   1.218   0.586  1.00  0.00    -0.352 N 
ATOM      3  C   UNL     1       1.183   1.435   0.413  1.00  0.00     0.251 C 
ATOM      4  O   UNL     1       0.775   2.594   0.281  1.00  0.00    -0.269 OA
ATOM      5  H   UNL     1       3.062   1.940   0.171  1.00  0.00     0.163 HD
BRANCH   3   6
ATOM      6  C   UNL     1       0.142   0.364   0.325  1.00  0.00     0.044 A 
ATOM      7  C   UNL     1       1.652  -1.287  -0.925  1.00  0.00     0.045 C 
ATOM      8  C   UNL     1       0.386  -0.909  -0.213  1.00  0.00    -0.038 A 
ATOM      9  C   UNL     1      -0.648  -1.857  -0.223  1.00  0.00     0.005 A 
ATOM     10  C   UNL     1      -1.960  -1.473   0.027  1.00  0.00     0.022 A 
ATOM     11  C   UNL     1      -1.213   0.750   0.565  1.00  0.00     0.036 A 
ATOM     12  C   UNL     1      -2.263  -0.138   0.311  1.00  0.00     0.088 A 
BRANCH  12  13
ATOM     13  S   UNL     1      -3.988   0.258   0.118  1.00  0.00     0.261 S 
ATOM     14  O   UNL     1      -4.309  -0.036  -1.268  1.00  0.00    -0.201 OA
ATOM     15  O   UNL     1      -4.694  -0.454   1.167  1.00  0.00    -0.201 OA
BRANCH  13  16
ATOM     16  N   UNL     1      -4.406   1.876   0.307  1.00  0.00    -0.280 N 
ATOM     17  H   UNL     1      -5.307   2.091   0.638  1.00  0.00     0.180 HD
BRANCH  16  18
ATOM     18  C   UNL     1      -3.519   2.947   0.012  1.00  0.00     0.049 A 
ATOM     19  C   UNL     1      -3.464   3.941   0.986  1.00  0.00     0.029 A 
ATOM     20  C   UNL     1      -2.837   3.104  -1.190  1.00  0.00     0.029 A 
ATOM     21  C   UNL     1      -2.590   5.012   0.838  1.00  0.00     0.028 A 
ATOM     22  C   UNL     1      -1.976   4.201  -1.347  1.00  0.00     0.028 A 
ATOM     23  C   UNL     1      -1.806   5.132  -0.313  1.00  0.00     0.046 A 
BRANCH  23  24
ATOM     24  N   UNL     1      -0.812   6.125  -0.371  1.00  0.00    -0.293 N 
ATOM     25  C   UNL     1      -0.123   6.603   0.810  1.00  0.00     0.149 C 
ATOM     26  C   UNL     1      -0.256   6.699  -1.523  1.00  0.00     0.321 C 
ATOM     27  C   UNL     1       1.143   7.239   0.260  1.00  0.00     0.139 C 
ATOM     28  N   UNL     1       0.831   7.469  -1.120  1.00  0.00    -0.336 N 
ATOM     29  O   UNL     1      -0.641   6.612  -2.678  1.00  0.00    -0.248 OA
ATOM     30  H   UNL     1       1.321   8.090  -1.706  1.00  0.00     0.165 HD
ENDBRANCH  23  24
ENDBRANCH  16  18
ENDBRANCH  13  16
ENDBRANCH  12  13
ENDBRANCH   3   6
ENDBRANCH   1   2
BRANCH   1  31
ATOM     31  C   UNL     1       4.728  -0.281   0.400  1.00  0.00     0.042 C 
BRANCH  31  32
ATOM     32  C   UNL     1       6.104   0.460   0.713  1.00  0.00     0.118 C 
BRANCH  32  33
ATOM     33  N   UNL     1       7.454   0.170  -0.005  1.00  0.00    -0.352 N 
ATOM     34  C   UNL     1       8.658   0.938  -0.262  1.00  0.00     0.251 C 
ATOM     35  H   UNL     1       7.502  -0.744  -0.368  1.00  0.00     0.163 HD
ATOM     36  O   UNL     1       9.647   0.554   0.386  1.00  0.00    -0.269 OA
BRANCH  34  37
ATOM     37  C   UNL     1       8.971   2.111  -1.266  1.00  0.00     0.039 A 
ATOM     38  C   UNL     1       9.878   3.156  -0.900  1.00  0.00     0.014 A 
ATOM     39  C   UNL     1       8.349   2.335  -2.488  1.00  0.00     0.014 A 
ATOM     40  C   UNL     1       9.720   4.504  -1.412  1.00  0.00     0.010 A 
ATOM     41  C   UNL     1       8.184   3.666  -2.992  1.00  0.00     0.010 A 
ATOM     42  C   UNL     1       8.685   4.792  -2.318  1.00  0.00    -0.014 A 
BRANCH  42  43
ATOM     43  C   UNL     1       7.939   6.121  -2.385  1.00  0.00     0.031 A 
ATOM     44  C   UNL     1       8.167   7.083  -3.458  1.00  0.00     0.074 A 
ATOM     45  C   UNL     1       6.888   6.543  -1.617  1.00  0.00     0.049 A 
ATOM     46  N   UNL     1       8.359   8.352  -3.283  1.00  0.00    -0.248 NA
ATOM     47  C   UNL     1       8.035   6.666  -4.840  1.00  0.00     0.031 C 
ATOM     48  C   UNL     1       5.982   7.704  -1.676  1.00  0.00     0.029 A 
ATOM     49  N   UNL     1       6.319   5.901  -0.546  1.00  0.00    -0.354 N 
ATOM     50  C   UNL     1       8.038   8.938  -4.489  1.00  0.00     0.074 A 
ATOM     51  C   UNL     1       8.048   7.851  -5.454  1.00  0.00     0.031 C 
ATOM     52  C   UNL     1       5.314   7.826  -0.504  1.00  0.00     0.029 A 
ATOM     53  C   UNL     1       5.783   6.785   0.386  1.00  0.00     0.049 A 
ATOM     54  H   UNL     1       6.292   4.922  -0.447  1.00  0.00     0.167 HD
ATOM     55  C   UNL     1       7.494  10.194  -4.566  1.00  0.00     0.037 A 
ATOM     56  C   UNL     1       6.349   6.853   1.637  1.00  0.00     0.037 A 
ATOM     57  C   UNL     1       7.045  10.695  -3.251  1.00  0.00     0.049 A 
ATOM     58  C   UNL     1       7.134   8.138   1.751  1.00  0.00     0.074 A 
ATOM     59  C   UNL     1       5.798  10.977  -2.701  1.00  0.00     0.029 A 
ATOM     60  N   UNL     1       7.916  10.712  -2.173  1.00  0.00    -0.354 N 
ATOM     61  N   UNL     1       6.937   9.151   0.958  1.00  0.00    -0.248 NA
ATOM     62  C   UNL     1       8.246   8.373   2.672  1.00  0.00     0.031 C 
ATOM     63  C   UNL     1       5.946  11.184  -1.297  1.00  0.00     0.029 A 
ATOM     64  C   UNL     1       7.284  11.045  -0.985  1.00  0.00     0.049 A 
ATOM     65  H   UNL     1       8.877  10.509  -2.243  1.00  0.00     0.167 HD
ATOM     66  C   UNL     1       7.943  10.058   1.101  1.00  0.00     0.074 A 
ATOM     67  C   UNL     1       8.703   9.564   2.238  1.00  0.00     0.031 C 
ATOM     68  C   UNL     1       8.086  11.105   0.235  1.00  0.00     0.037 A 
BRANCH  55  69
ATOM     69  C   UNL     1       7.093  10.829  -5.894  1.00  0.00     0.058 A 
ATOM     70  C   UNL     1       6.175  11.897  -5.972  1.00  0.00     0.135 A 
ATOM     71  C   UNL     1       7.643  10.454  -7.142  1.00  0.00     0.135 A 
ATOM     72  F   UNL     1       5.687  12.486  -4.873  1.00  0.00    -0.206 F 
ATOM     73  C   UNL     1       5.748  12.452  -7.183  1.00  0.00     0.059 A 
ATOM     74  C   UNL     1       7.176  10.932  -8.369  1.00  0.00     0.059 A 
ATOM     75  F   UNL     1       8.724   9.662  -7.219  1.00  0.00    -0.206 F 
ATOM     76  C   UNL     1       6.230  11.942  -8.381  1.00  0.00     0.060 A 
BRANCH  76  77
ATOM     77  S   UNL     1       5.696  12.684  -9.933  1.00  0.00     0.124 S 
ATOM     78  O   UNL     1       4.243  12.579  -9.847  1.00  0.00    -0.237 OA
ATOM     79  O   UNL     1       6.244  14.032  -9.825  1.00  0.00    -0.237 OA
ATOM     80  O   UNL     1       6.319  11.838 -10.948  1.00  0.00    -0.744 OA
ENDBRANCH  76  77
ENDBRANCH  55  69
BRANCH  56  81
ATOM     81  C   UNL     1       6.747   5.492   2.269  1.00  0.00     0.058 A 
ATOM     82  C   UNL     1       5.639   4.659   2.536  1.00  0.00     0.135 A 
ATOM     83  C   UNL     1       7.745   4.844   1.564  1.00  0.00     0.135 A 
ATOM     84  F   UNL     1       4.898   4.873   3.631  1.00  0.00    -0.206 F 
ATOM     85  C   UNL     1       5.205   3.696   1.619  1.00  0.00     0.059 A 
ATOM     86  C   UNL     1       7.316   3.900   0.621  1.00  0.00     0.059 A 
ATOM     87  F   UNL     1       8.942   5.434   1.399  1.00  0.00    -0.206 F 
ATOM     88  C   UNL     1       5.994   3.495   0.510  1.00  0.00     0.060 A 
BRANCH  88  89
ATOM     89  S   UNL     1       5.187   3.014  -1.191  1.00  0.00     0.124 S 
ATOM     90  O   UNL     1       3.814   2.817  -0.756  1.00  0.00    -0.237 OA
ATOM     91  O   UNL     1       5.358   4.162  -2.041  1.00  0.00    -0.237 OA
ATOM     92  O   UNL     1       5.840   1.794  -1.650  1.00  0.00    -0.744 OA
ENDBRANCH  88  89
ENDBRANCH  56  81
BRANCH  68  93
ATOM     93  C   UNL     1       9.034  12.256   0.442  1.00  0.00     0.058 A 
ATOM     94  C   UNL     1       9.361  12.745   1.718  1.00  0.00     0.135 A 
ATOM     95  C   UNL     1       9.540  13.009  -0.644  1.00  0.00     0.135 A 
ATOM     96  F   UNL     1       8.813  12.220   2.825  1.00  0.00    -0.206 F 
ATOM     97  C   UNL     1      10.226  13.822   1.904  1.00  0.00     0.059 A 
ATOM     98  C   UNL     1      10.367  14.112  -0.483  1.00  0.00     0.059 A 
ATOM     99  F   UNL     1       9.256  12.713  -1.918  1.00  0.00    -0.206 F 
ATOM    100  C   UNL     1      10.738  14.488   0.795  1.00  0.00     0.060 A 
BRANCH 100 101
ATOM    101  S   UNL     1      11.865  15.866   1.034  1.00  0.00     0.124 S 
ATOM    102  O   UNL     1      11.219  16.615   2.107  1.00  0.00    -0.237 OA
ATOM    103  O   UNL     1      13.096  15.172   1.397  1.00  0.00    -0.237 OA
ATOM    104  O   UNL     1      11.877  16.530  -0.266  1.00  0.00    -0.744 OA
ENDBRANCH 100 101
ENDBRANCH  68  93
ENDBRANCH  42  43
ENDBRANCH  34  37
ENDBRANCH  32  33
ENDBRANCH  31  32
ENDBRANCH   1  31
TORSDOF 17
