REMARK SMILES O=C(CSC(=S)N1CCCC1)NCCCNC(=O)c1ccc(-c2c3nc(c(-c4c(F)cc(S(=O)(=O)[O-])cc4F)c4ccc([nH]4)c(-c4c(F)cc(S(=O)(=O)[O-])cc4F)c4nc(c(-c5c(F)cc(S(=O)(=O)[O-])cc5F)c5ccc2[nH]5)C=C4)C=C3)cc1
REMARK SMILES IDX 14 1 13 2 12 3 1 4 2 5 3 7 4 8 5 9 6 10 7 11 8 12 11 13 9 14
REMARK SMILES IDX 10 15 15 16 16 17 17 18 18 20 19 21 20 22 84 23 21 24 83 25
REMARK SMILES IDX 22 26 23 27 24 28 77 29 25 30 82 31 76 32 78 33 26 34 81 35
REMARK SMILES IDX 75 36 74 37 27 39 61 40 40 41 60 42 41 43 44 44 59 45 79 46
REMARK SMILES IDX 42 47 43 48 58 50 80 51 45 52 28 53 29 54 38 55 30 56 31 57
REMARK SMILES IDX 37 58 39 59 32 60 33 61 34 62 35 63 36 64 62 65 63 66 72 67
REMARK SMILES IDX 64 68 65 69 71 70 73 71 66 72 67 73 68 74 69 75 70 76 46 77
REMARK SMILES IDX 47 78 56 79 48 80 49 81 55 82 57 83 50 84 51 85 52 86 53 87
REMARK SMILES IDX 54 88
REMARK H PARENT 12 6 16 19 78 38 44 49
REMARK Flexibility Score: inf
ROOT
ATOM      1  C   UNL     1       2.397  -0.889   3.268  1.00  0.00     0.042 C 
ENDROOT
BRANCH   1   2
ATOM      2  C   UNL     1       2.101   0.356   2.440  1.00  0.00     0.117 C 
BRANCH   2   3
ATOM      3  N   UNL     1       2.729   0.353   1.133  1.00  0.00    -0.355 N 
ATOM      4  O   UNL     1       0.948  -0.586   0.045  1.00  0.00    -0.274 OA
ATOM      5  C   UNL     1       2.047  -0.035  -0.000  1.00  0.00     0.230 C 
ATOM      6  H   UNL     1       3.669   0.635   1.053  1.00  0.00     0.163 HD
BRANCH   5   7
ATOM      7  C   UNL     1       2.760   0.175  -1.328  1.00  0.00     0.177 C 
BRANCH   7   8
ATOM      8  S   UNL     1       3.891   1.585  -1.392  1.00  0.00    -0.087 SA
BRANCH   8   9
ATOM      9  C   UNL     1       2.895   3.043  -1.301  1.00  0.00     0.136 C 
ATOM     10  S   UNL     1       1.252   3.071  -0.957  1.00  0.00    -0.053 S 
BRANCH   9  11
ATOM     11  N   UNL     1       3.636   4.213  -1.463  1.00  0.00    -0.358 N 
ATOM     12  C   UNL     1       4.844   4.382  -2.268  1.00  0.00     0.118 C 
ATOM     13  C   UNL     1       3.282   5.484  -0.829  1.00  0.00     0.118 C 
ATOM     14  C   UNL     1       5.545   5.572  -1.640  1.00  0.00     0.023 C 
ATOM     15  C   UNL     1       4.390   6.462  -1.205  1.00  0.00     0.023 C 
ENDBRANCH   9  11
ENDBRANCH   8   9
ENDBRANCH   7   8
ENDBRANCH   5   7
ENDBRANCH   2   3
ENDBRANCH   1   2
BRANCH   1  16
ATOM     16  C   UNL     1       3.865  -1.083   3.641  1.00  0.00     0.118 C 
BRANCH  16  17
ATOM     17  N   UNL     1       4.413   0.015   4.424  1.00  0.00    -0.352 N 
ATOM     18  C   UNL     1       5.124   0.021   5.599  1.00  0.00     0.251 C 
ATOM     19  H   UNL     1       4.245   0.909   4.046  1.00  0.00     0.163 HD
ATOM     20  O   UNL     1       5.382   1.105   6.122  1.00  0.00    -0.269 OA
BRANCH  18  21
ATOM     21  C   UNL     1       5.562  -1.233   6.258  1.00  0.00     0.039 A 
ATOM     22  C   UNL     1       5.529  -1.289   7.656  1.00  0.00     0.014 A 
ATOM     23  C   UNL     1       6.043  -2.329   5.539  1.00  0.00     0.014 A 
ATOM     24  C   UNL     1       5.916  -2.456   8.322  1.00  0.00     0.010 A 
ATOM     25  C   UNL     1       6.362  -3.519   6.201  1.00  0.00     0.010 A 
ATOM     26  C   UNL     1       6.300  -3.597   7.599  1.00  0.00    -0.014 A 
BRANCH  26  27
ATOM     27  C   UNL     1       6.603  -4.874   8.303  1.00  0.00     0.031 A 
ATOM     28  C   UNL     1       7.981  -5.478   8.259  1.00  0.00     0.074 A 
ATOM     29  C   UNL     1       5.613  -5.514   8.958  1.00  0.00     0.049 A 
ATOM     30  N   UNL     1       8.418  -6.579   8.818  1.00  0.00    -0.248 NA
ATOM     31  C   UNL     1       8.996  -4.768   7.465  1.00  0.00     0.031 C 
ATOM     32  C   UNL     1       4.219  -5.069   9.025  1.00  0.00     0.029 A 
ATOM     33  N   UNL     1       5.624  -6.674   9.692  1.00  0.00    -0.354 N 
ATOM     34  C   UNL     1       9.751  -6.698   8.440  1.00  0.00     0.074 A 
ATOM     35  C   UNL     1      10.037  -5.584   7.561  1.00  0.00     0.031 C 
ATOM     36  C   UNL     1       3.518  -5.926   9.784  1.00  0.00     0.029 A 
ATOM     37  C   UNL     1       4.402  -6.997  10.233  1.00  0.00     0.049 A 
ATOM     38  H   UNL     1       6.432  -7.223   9.819  1.00  0.00     0.167 HD
ATOM     39  C   UNL     1      10.659  -7.636   8.808  1.00  0.00     0.037 A 
ATOM     40  C   UNL     1       4.032  -8.034  11.009  1.00  0.00     0.037 A 
ATOM     41  C   UNL     1      10.376  -8.735   9.698  1.00  0.00     0.049 A 
ATOM     42  C   UNL     1       5.064  -9.045  11.427  1.00  0.00     0.074 A 
ATOM     43  C   UNL     1      11.243  -9.704  10.172  1.00  0.00     0.029 A 
ATOM     44  N   UNL     1       9.133  -9.012  10.248  1.00  0.00    -0.354 N 
ATOM     45  N   UNL     1       6.336  -9.103  11.114  1.00  0.00    -0.248 NA
ATOM     46  C   UNL     1       4.612 -10.123  12.317  1.00  0.00     0.031 C 
ATOM     47  C   UNL     1      10.517 -10.589  10.978  1.00  0.00     0.029 A 
ATOM     48  C   UNL     1       9.207 -10.144  11.045  1.00  0.00     0.049 A 
ATOM     49  H   UNL     1       8.317  -8.482  10.095  1.00  0.00     0.167 HD
ATOM     50  C   UNL     1       6.843 -10.208  11.789  1.00  0.00     0.074 A 
ATOM     51  C   UNL     1       5.743 -10.777  12.540  1.00  0.00     0.031 C 
ATOM     52  C   UNL     1       8.105 -10.705  11.787  1.00  0.00     0.037 A 
BRANCH  39  53
ATOM     53  C   UNL     1      12.053  -7.512   8.252  1.00  0.00     0.058 A 
ATOM     54  C   UNL     1      12.922  -6.488   8.665  1.00  0.00     0.135 A 
ATOM     55  C   UNL     1      12.542  -8.449   7.327  1.00  0.00     0.135 A 
ATOM     56  F   UNL     1      12.504  -5.558   9.538  1.00  0.00    -0.206 F 
ATOM     57  C   UNL     1      14.213  -6.379   8.158  1.00  0.00     0.059 A 
ATOM     58  C   UNL     1      13.840  -8.375   6.827  1.00  0.00     0.059 A 
ATOM     59  F   UNL     1      11.757  -9.450   6.899  1.00  0.00    -0.206 F 
ATOM     60  C   UNL     1      14.662  -7.327   7.238  1.00  0.00     0.060 A 
BRANCH  60  61
ATOM     61  S   UNL     1      16.341  -7.174   6.590  1.00  0.00     0.124 S 
ATOM     62  O   UNL     1      16.198  -6.040   5.679  1.00  0.00    -0.237 OA
ATOM     63  O   UNL     1      17.121  -6.918   7.799  1.00  0.00    -0.237 OA
ATOM     64  O   UNL     1      16.581  -8.463   5.955  1.00  0.00    -0.744 OA
ENDBRANCH  60  61
ENDBRANCH  39  53
BRANCH  40  65
ATOM     65  C   UNL     1       2.624  -8.145  11.475  1.00  0.00     0.058 A 
ATOM     66  C   UNL     1       2.288  -7.915  12.817  1.00  0.00     0.135 A 
ATOM     67  C   UNL     1       1.587  -8.468  10.587  1.00  0.00     0.135 A 
ATOM     68  F   UNL     1       3.246  -7.609  13.705  1.00  0.00    -0.206 F 
ATOM     69  C   UNL     1       0.976  -8.018  13.268  1.00  0.00     0.059 A 
ATOM     70  C   UNL     1       0.263  -8.551  11.009  1.00  0.00     0.059 A 
ATOM     71  F   UNL     1       1.854  -8.680   9.289  1.00  0.00    -0.206 F 
ATOM     72  C   UNL     1      -0.030  -8.335  12.355  1.00  0.00     0.060 A 
BRANCH  72  73
ATOM     73  S   UNL     1      -1.737  -8.416  12.939  1.00  0.00     0.124 S 
ATOM     74  O   UNL     1      -1.740  -9.683  13.662  1.00  0.00    -0.237 OA
ATOM     75  O   UNL     1      -1.839  -7.213  13.759  1.00  0.00    -0.237 OA
ATOM     76  O   UNL     1      -2.515  -8.391  11.705  1.00  0.00    -0.744 OA
ENDBRANCH  72  73
ENDBRANCH  40  65
BRANCH  52  77
ATOM     77  C   UNL     1       8.368 -11.907  12.653  1.00  0.00     0.058 A 
ATOM     78  C   UNL     1       7.864 -13.177  12.330  1.00  0.00     0.135 A 
ATOM     79  C   UNL     1       9.138 -11.786  13.822  1.00  0.00     0.135 A 
ATOM     80  F   UNL     1       7.120 -13.348  11.226  1.00  0.00    -0.206 F 
ATOM     81  C   UNL     1       8.075 -14.275  13.158  1.00  0.00     0.059 A 
ATOM     82  C   UNL     1       9.385 -12.876  14.650  1.00  0.00     0.059 A 
ATOM     83  F   UNL     1       9.656 -10.598  14.171  1.00  0.00    -0.206 F 
ATOM     84  C   UNL     1       8.831 -14.113  14.321  1.00  0.00     0.060 A 
BRANCH  84  85
ATOM     85  S   UNL     1       9.089 -15.540  15.396  1.00  0.00     0.124 S 
ATOM     86  O   UNL     1       7.797 -15.639  16.066  1.00  0.00    -0.237 OA
ATOM     87  O   UNL     1       9.391 -16.602  14.442  1.00  0.00    -0.237 OA
ATOM     88  O   UNL     1      10.206 -15.129  16.241  1.00  0.00    -0.744 OA
ENDBRANCH  84  85
ENDBRANCH  52  77
ENDBRANCH  26  27
ENDBRANCH  18  21
ENDBRANCH  16  17
ENDBRANCH   1  16
TORSDOF 16
