REMARK SMILES CCc1n[nH]c(C(=O)NC[C@@H]2CC[C@@H](C(=O)NCCCNC(=O)c3ccc(-c4c5nc(c(-c6c(F)cc(S(=O)(=O)[O-])cc6F)c6ccc([nH]6)c(-c6c(F)cc(S(=O)(=O)[O-])cc6F)c6nc(c(-c7c(F)cc(S(=O)(=O)[O-])cc7F)c7ccc4[nH]7)C=C6)C=C5)cc3)O2)n1
REMARK SMILES IDX 18 1 17 2 15 3 16 4 14 6 11 7 12 8 90 9 13 10 10 11 9 12
REMARK SMILES IDX 7 13 8 14 6 16 3 17 4 18 91 19 5 20 2 22 1 23 19 24 20 25
REMARK SMILES IDX 21 26 22 27 23 29 24 30 25 31 89 32 26 33 88 34 27 35 28 36
REMARK SMILES IDX 29 37 82 38 30 39 87 40 81 41 83 42 31 43 86 44 80 45 79 46
REMARK SMILES IDX 32 48 66 49 45 50 65 51 46 52 49 53 64 54 84 55 47 56 48 57
REMARK SMILES IDX 63 59 85 60 50 61 33 62 34 63 43 64 35 65 36 66 42 67 44 68
REMARK SMILES IDX 37 69 38 70 39 71 40 72 41 73 67 74 68 75 77 76 69 77 70 78
REMARK SMILES IDX 76 79 78 80 71 81 72 82 73 83 74 84 75 85 51 86 52 87 61 88
REMARK SMILES IDX 53 89 54 90 60 91 62 92 55 93 56 94 57 95 58 96 59 97
REMARK H PARENT 17 5 9 15 5 21 21 28 83 47 49 58
REMARK Flexibility Score: inf
ROOT
ATOM      1  C   UNL     1      -3.381   8.711  -1.680  1.00  0.00     0.117 C 
ENDROOT
BRANCH   1   2
ATOM      2  N   UNL     1      -4.146   8.198  -0.558  1.00  0.00    -0.354 N 
ATOM      3  C   UNL     1      -4.024   7.018   0.121  1.00  0.00     0.249 C 
ATOM      4  O   UNL     1      -4.829   6.791   1.028  1.00  0.00    -0.272 OA
ATOM      5  H   UNL     1      -4.864   8.790  -0.237  1.00  0.00     0.163 HD
BRANCH   3   6
ATOM      6  C   UNL     1      -2.888   6.049  -0.229  1.00  0.00     0.207 C 
ATOM      7  C   UNL     1      -1.518   4.701   1.115  1.00  0.00     0.138 C 
ATOM      8  C   UNL     1      -2.115   3.843   0.013  1.00  0.00     0.037 C 
ATOM      9  O   UNL     1      -1.886   6.065   0.807  1.00  0.00    -0.363 OA
ATOM     10  C   UNL     1      -3.364   4.610  -0.342  1.00  0.00     0.045 C 
BRANCH   7  11
ATOM     11  C   UNL     1       0.009   4.616   1.197  1.00  0.00     0.148 C 
BRANCH  11  12
ATOM     12  N   UNL     1       0.494   4.894   2.546  1.00  0.00    -0.347 N 
ATOM     13  C   UNL     1       0.988   4.032   3.494  1.00  0.00     0.288 C 
ATOM     14  O   UNL     1       1.405   4.513   4.552  1.00  0.00    -0.266 OA
ATOM     15  H   UNL     1       0.462   5.841   2.816  1.00  0.00     0.164 HD
BRANCH  13  16
ATOM     16  C   UNL     1       1.042   2.610   3.245  1.00  0.00     0.214 A 
ATOM     17  C   UNL     1       0.936   0.646   2.466  1.00  0.00     0.151 A 
ATOM     18  N   UNL     1       1.670   0.480   3.572  1.00  0.00    -0.158 NA
ATOM     19  N   UNL     1       0.504   1.928   2.252  1.00  0.00    -0.207 NA
ATOM     20  N   UNL     1       1.702   1.734   4.059  1.00  0.00    -0.255 N 
ATOM     21  H   UNL     1       2.148   1.989   4.899  1.00  0.00     0.192 HD
BRANCH  17  22
ATOM     22  C   UNL     1       0.621  -0.454   1.519  1.00  0.00     0.076 C 
ATOM     23  C   UNL     1       1.116  -0.158   0.110  1.00  0.00     0.012 C 
ENDBRANCH  17  22
ENDBRANCH  13  16
ENDBRANCH  11  12
ENDBRANCH   7  11
ENDBRANCH   3   6
ENDBRANCH   1   2
BRANCH   1  24
ATOM     24  C   UNL     1      -4.057   8.420  -3.016  1.00  0.00     0.042 C 
BRANCH  24  25
ATOM     25  C   UNL     1      -5.415   9.099  -3.185  1.00  0.00     0.118 C 
BRANCH  25  26
ATOM     26  N   UNL     1      -5.326  10.555  -3.201  1.00  0.00    -0.352 N 
ATOM     27  C   UNL     1      -5.756  11.451  -4.152  1.00  0.00     0.251 C 
ATOM     28  H   UNL     1      -4.893  10.956  -2.414  1.00  0.00     0.163 HD
ATOM     29  O   UNL     1      -5.449  12.636  -4.055  1.00  0.00    -0.269 OA
BRANCH  27  30
ATOM     30  C   UNL     1      -6.562  10.983  -5.299  1.00  0.00     0.039 A 
ATOM     31  C   UNL     1      -6.231  11.413  -6.587  1.00  0.00     0.014 A 
ATOM     32  C   UNL     1      -7.638  10.114  -5.104  1.00  0.00     0.014 A 
ATOM     33  C   UNL     1      -6.925  10.903  -7.689  1.00  0.00     0.010 A 
ATOM     34  C   UNL     1      -8.278   9.553  -6.204  1.00  0.00     0.010 A 
ATOM     35  C   UNL     1      -7.925   9.935  -7.509  1.00  0.00    -0.014 A 
BRANCH  35  36
ATOM     36  C   UNL     1      -8.630   9.297  -8.653  1.00  0.00     0.031 A 
ATOM     37  C   UNL     1     -10.121   9.456  -8.784  1.00  0.00     0.074 A 
ATOM     38  C   UNL     1      -7.957   8.485  -9.494  1.00  0.00     0.049 A 
ATOM     39  N   UNL     1     -10.953   8.823  -9.568  1.00  0.00    -0.248 NA
ATOM     40  C   UNL     1     -10.764  10.434  -7.890  1.00  0.00     0.031 C 
ATOM     41  C   UNL     1      -6.515   8.229  -9.456  1.00  0.00     0.029 A 
ATOM     42  N   UNL     1      -8.403   7.695 -10.527  1.00  0.00    -0.354 N 
ATOM     43  C   UNL     1     -12.217   9.297  -9.239  1.00  0.00     0.074 A 
ATOM     44  C   UNL     1     -12.048  10.249  -8.164  1.00  0.00     0.031 C 
ATOM     45  C   UNL     1      -6.199   7.339 -10.411  1.00  0.00     0.029 A 
ATOM     46  C   UNL     1      -7.417   6.920 -11.096  1.00  0.00     0.049 A 
ATOM     47  H   UNL     1      -9.339   7.684 -10.831  1.00  0.00     0.167 HD
ATOM     48  C   UNL     1     -13.409   8.972  -9.791  1.00  0.00     0.037 A 
ATOM     49  C   UNL     1      -7.491   5.955 -12.036  1.00  0.00     0.037 A 
ATOM     50  C   UNL     1     -13.562   8.057 -10.891  1.00  0.00     0.049 A 
ATOM     51  C   UNL     1      -8.833   5.612 -12.633  1.00  0.00     0.074 A 
ATOM     52  C   UNL     1     -14.721   7.720 -11.568  1.00  0.00     0.029 A 
ATOM     53  N   UNL     1     -12.532   7.336 -11.474  1.00  0.00    -0.354 N 
ATOM     54  N   UNL     1     -10.012   6.113 -12.349  1.00  0.00    -0.248 NA
ATOM     55  C   UNL     1      -8.860   4.576 -13.677  1.00  0.00     0.031 C 
ATOM     56  C   UNL     1     -14.401   6.754 -12.525  1.00  0.00     0.029 A 
ATOM     57  C   UNL     1     -13.033   6.539 -12.489  1.00  0.00     0.049 A 
ATOM     58  H   UNL     1     -11.586   7.384 -11.207  1.00  0.00     0.167 HD
ATOM     59  C   UNL     1     -10.908   5.487 -13.210  1.00  0.00     0.074 A 
ATOM     60  C   UNL     1     -10.140   4.569 -14.022  1.00  0.00     0.031 C 
ATOM     61  C   UNL     1     -12.247   5.663 -13.320  1.00  0.00     0.037 A 
BRANCH  48  62
ATOM     62  C   UNL     1     -14.653   9.601  -9.229  1.00  0.00     0.058 A 
ATOM     63  C   UNL     1     -14.957  10.955  -9.438  1.00  0.00     0.135 A 
ATOM     64  C   UNL     1     -15.600   8.813  -8.553  1.00  0.00     0.135 A 
ATOM     65  F   UNL     1     -14.080  11.757 -10.062  1.00  0.00    -0.206 F 
ATOM     66  C   UNL     1     -16.154  11.507  -8.993  1.00  0.00     0.059 A 
ATOM     67  C   UNL     1     -16.815   9.337  -8.125  1.00  0.00     0.059 A 
ATOM     68  F   UNL     1     -15.356   7.513  -8.323  1.00  0.00    -0.206 F 
ATOM     69  C   UNL     1     -17.081  10.687  -8.347  1.00  0.00     0.060 A 
BRANCH  69  70
ATOM     70  S   UNL     1     -18.652  11.409  -7.827  1.00  0.00     0.124 S 
ATOM     71  O   UNL     1     -18.229  12.259  -6.719  1.00  0.00    -0.237 OA
ATOM     72  O   UNL     1     -19.086  12.108  -9.033  1.00  0.00    -0.237 OA
ATOM     73  O   UNL     1     -19.454  10.248  -7.455  1.00  0.00    -0.744 OA
ENDBRANCH  69  70
ENDBRANCH  48  62
BRANCH  49  74
ATOM     74  C   UNL     1      -6.266   5.223 -12.466  1.00  0.00     0.058 A 
ATOM     75  C   UNL     1      -5.758   5.360 -13.766  1.00  0.00     0.135 A 
ATOM     76  C   UNL     1      -5.599   4.346 -11.596  1.00  0.00     0.135 A 
ATOM     77  F   UNL     1      -6.361   6.182 -14.639  1.00  0.00    -0.206 F 
ATOM     78  C   UNL     1      -4.659   4.626 -14.203  1.00  0.00     0.059 A 
ATOM     79  C   UNL     1      -4.479   3.625 -11.998  1.00  0.00     0.059 A 
ATOM     80  F   UNL     1      -6.029   4.191 -10.334  1.00  0.00    -0.206 F 
ATOM     81  C   UNL     1      -4.029   3.757 -13.311  1.00  0.00     0.060 A 
BRANCH  81  82
ATOM     82  S   UNL     1      -2.602   2.810 -13.884  1.00  0.00     0.124 S 
ATOM     83  O   UNL     1      -3.235   1.826 -14.755  1.00  0.00    -0.237 OA
ATOM     84  O   UNL     1      -1.802   3.833 -14.550  1.00  0.00    -0.237 OA
ATOM     85  O   UNL     1      -2.030   2.285 -12.648  1.00  0.00    -0.744 OA
ENDBRANCH  81  82
ENDBRANCH  49  74
BRANCH  61  86
ATOM     86  C   UNL     1     -12.976   4.917 -14.403  1.00  0.00     0.058 A 
ATOM     87  C   UNL     1     -13.252   3.546 -14.306  1.00  0.00     0.135 A 
ATOM     88  C   UNL     1     -13.509   5.620 -15.497  1.00  0.00     0.135 A 
ATOM     89  F   UNL     1     -12.759   2.827 -13.286  1.00  0.00    -0.206 F 
ATOM     90  C   UNL     1     -14.036   2.897 -15.255  1.00  0.00     0.059 A 
ATOM     91  C   UNL     1     -14.318   4.998 -16.441  1.00  0.00     0.059 A 
ATOM     92  F   UNL     1     -13.280   6.937 -15.631  1.00  0.00    -0.206 F 
ATOM     93  C   UNL     1     -14.576   3.635 -16.312  1.00  0.00     0.060 A 
BRANCH  93  94
ATOM     94  S   UNL     1     -15.665   2.798 -17.484  1.00  0.00     0.124 S 
ATOM     95  O   UNL     1     -14.718   1.975 -18.230  1.00  0.00    -0.237 OA
ATOM     96  O   UNL     1     -16.576   2.076 -16.601  1.00  0.00    -0.237 OA
ATOM     97  O   UNL     1     -16.267   3.897 -18.234  1.00  0.00    -0.744 OA
ENDBRANCH  93  94
ENDBRANCH  61  86
ENDBRANCH  35  36
ENDBRANCH  27  30
ENDBRANCH  25  26
ENDBRANCH  24  25
ENDBRANCH   1  24
TORSDOF 17
