REMARK SMILES Cc1cc(C(=O)N[C@@H](C(=O)NCCCNC(=O)c2ccc(-c3c4nc(c(-c5c(F)cc(S(=O)(=O)[O-])cc5F)c5ccc([nH]5)c(-c5c(F)cc(S(=O)(=O)[O-])cc5F)c5nc(c(-c6c(F)cc(S(=O)(=O)[O-])cc6F)c6ccc3[nH]6)C=C5)C=C4)cc2)c2c(C)n[nH]c2C)c2ccc(C)c(C)c2n1
REMARK SMILES IDX 13 1 12 2 11 3 9 4 10 5 8 7 7 8 5 9 6 10 4 12 1 13 2 14 3 15
REMARK SMILES IDX 99 16 98 17 91 18 96 19 92 20 94 21 97 22 93 23 95 24 84 25
REMARK SMILES IDX 85 26 89 27 86 28 87 29 88 30 90 31 14 33 15 34 16 35 17 37
REMARK SMILES IDX 18 38 19 39 83 40 20 41 82 42 21 43 22 44 23 45 76 46 24 47
REMARK SMILES IDX 81 48 75 49 77 50 25 51 80 52 74 53 73 54 26 56 60 57 39 58
REMARK SMILES IDX 59 59 40 60 43 61 58 62 78 63 41 64 42 65 57 67 79 68 44 69
REMARK SMILES IDX 27 70 28 71 37 72 29 73 30 74 36 75 38 76 31 77 32 78 33 79
REMARK SMILES IDX 34 80 35 81 61 82 62 83 71 84 63 85 64 86 70 87 72 88 65 89
REMARK SMILES IDX 66 90 67 91 68 92 69 93 45 94 46 95 55 96 47 97 48 98 54 99
REMARK SMILES IDX 56 100 49 101 50 102 51 103 52 104 53 105
REMARK H PARENT 11 6 7 11 88 32 15 36 77 55 43 66
REMARK Flexibility Score: inf
ROOT
ATOM      1  C   UNL     1       3.112   4.796  -4.354  1.00  0.00     0.042 C 
ENDROOT
BRANCH   1   2
ATOM      2  C   UNL     1       2.937   5.159  -2.641  1.00  0.00     0.117 C 
BRANCH   2   3
ATOM      3  N   UNL     1       1.718   5.800  -2.078  1.00  0.00    -0.354 N 
ATOM      4  C   UNL     1       0.573   5.153  -1.652  1.00  0.00     0.247 C 
ATOM      5  O   UNL     1      -0.550   5.654  -1.821  1.00  0.00    -0.272 OA
ATOM      6  H   UNL     1       1.727   6.781  -2.001  1.00  0.00     0.163 HD
BRANCH   4   7
ATOM      7  C   UNL     1       0.834   3.822  -1.021  1.00  0.00     0.206 C 
BRANCH   7   8
ATOM      8  N   UNL     1       0.611   3.346  -2.538  1.00  0.00    -0.336 N 
ATOM      9  C   UNL     1       0.620   3.960  -3.824  1.00  0.00     0.252 C 
ATOM     10  O   UNL     1       0.798   3.190  -4.776  1.00  0.00    -0.269 OA
ATOM     11  H   UNL     1       0.418   2.382  -2.594  1.00  0.00     0.165 HD
BRANCH   9  12
ATOM     12  C   UNL     1       0.236   5.481  -4.157  1.00  0.00     0.051 A 
ATOM     13  C   UNL     1      -3.172   6.255  -5.403  1.00  0.00     0.067 C 
ATOM     14  C   UNL     1      -1.690   6.306  -5.250  1.00  0.00     0.039 A 
ATOM     15  C   UNL     1      -1.111   5.338  -4.498  1.00  0.00     0.038 A 
ATOM     16  N   UNL     1      -0.955   7.158  -5.977  1.00  0.00    -0.253 NA
ATOM     17  C   UNL     1       0.381   7.047  -5.926  1.00  0.00     0.074 A 
ATOM     18  C   UNL     1       1.153   6.695  -4.525  1.00  0.00     0.013 A 
ATOM     19  C   UNL     1       1.220   7.056  -7.399  1.00  0.00    -0.022 A 
ATOM     20  C   UNL     1       2.990   6.954  -4.400  1.00  0.00     0.011 A 
ATOM     21  C   UNL     1       2.986   6.822  -7.561  1.00  0.00    -0.046 A 
ATOM     22  C   UNL     1       0.386   7.829  -8.420  1.00  0.00     0.047 C 
ATOM     23  C   UNL     1       4.005   6.727  -5.939  1.00  0.00     0.004 A 
ATOM     24  C   UNL     1       3.256   7.413  -8.984  1.00  0.00     0.044 C 
ENDBRANCH   9  12
ENDBRANCH   7   8
BRANCH   7  25
ATOM     25  C   UNL     1      -0.131   4.263   0.201  1.00  0.00     0.027 A 
ATOM     26  C   UNL     1      -1.208   3.577   0.847  1.00  0.00     0.065 A 
ATOM     27  C   UNL     1      -0.170   5.548   0.811  1.00  0.00     0.038 A 
ATOM     28  C   UNL     1      -1.720   2.204   0.636  1.00  0.00     0.069 C 
ATOM     29  N   UNL     1      -1.869   4.365   1.706  1.00  0.00    -0.180 NA
ATOM     30  N   UNL     1      -1.307   5.562   1.556  1.00  0.00    -0.282 N 
ATOM     31  C   UNL     1       0.514   6.860   0.525  1.00  0.00     0.066 C 
ATOM     32  H   UNL     1      -1.682   6.384   1.949  1.00  0.00     0.190 HD
ENDBRANCH   7  25
ENDBRANCH   4   7
ENDBRANCH   2   3
ENDBRANCH   1   2
BRANCH   1  33
ATOM     33  C   UNL     1       2.358   5.743  -5.877  1.00  0.00     0.118 C 
BRANCH  33  34
ATOM     34  N   UNL     1       2.493   7.870  -5.997  1.00  0.00    -0.352 N 
ATOM     35  C   UNL     1       3.797   8.892  -6.484  1.00  0.00     0.251 C 
ATOM     36  H   UNL     1       1.675   8.348  -5.730  1.00  0.00     0.163 HD
ATOM     37  O   UNL     1       3.647  10.090  -6.207  1.00  0.00    -0.269 OA
BRANCH  35  38
ATOM     38  C   UNL     1       5.340   8.403  -7.277  1.00  0.00     0.039 A 
ATOM     39  C   UNL     1       6.486   9.202  -7.394  1.00  0.00     0.014 A 
ATOM     40  C   UNL     1       5.622   7.099  -7.835  1.00  0.00     0.014 A 
ATOM     41  C   UNL     1       7.694   8.725  -8.087  1.00  0.00     0.010 A 
ATOM     42  C   UNL     1       6.705   6.636  -8.534  1.00  0.00     0.010 A 
ATOM     43  C   UNL     1       7.768   7.460  -8.711  1.00  0.00    -0.014 A 
BRANCH  43  44
ATOM     44  C   UNL     1       8.807   6.742  -9.492  1.00  0.00     0.031 A 
ATOM     45  C   UNL     1       8.588   6.514 -10.982  1.00  0.00     0.074 A 
ATOM     46  C   UNL     1       9.587   5.863  -8.822  1.00  0.00     0.049 A 
ATOM     47  N   UNL     1       9.340   5.884 -11.847  1.00  0.00    -0.248 NA
ATOM     48  C   UNL     1       7.313   6.996 -11.559  1.00  0.00     0.031 C 
ATOM     49  C   UNL     1       9.568   5.666  -7.365  1.00  0.00     0.029 A 
ATOM     50  N   UNL     1      10.483   4.923  -9.261  1.00  0.00    -0.354 N 
ATOM     51  C   UNL     1       8.681   5.979 -13.072  1.00  0.00     0.074 A 
ATOM     52  C   UNL     1       7.400   6.592 -12.820  1.00  0.00     0.031 C 
ATOM     53  C   UNL     1      10.465   4.724  -7.031  1.00  0.00     0.029 A 
ATOM     54  C   UNL     1      11.140   4.274  -8.239  1.00  0.00     0.049 A 
ATOM     55  H   UNL     1      10.641   4.731 -10.213  1.00  0.00     0.167 HD
ATOM     56  C   UNL     1       9.149   5.641 -14.299  1.00  0.00     0.037 A 
ATOM     57  C   UNL     1      12.221   3.473  -8.285  1.00  0.00     0.037 A 
ATOM     58  C   UNL     1      10.412   4.971 -14.471  1.00  0.00     0.049 A 
ATOM     59  C   UNL     1      12.837   3.228  -9.635  1.00  0.00     0.074 A 
ATOM     60  C   UNL     1      11.100   4.681 -15.633  1.00  0.00     0.029 A 
ATOM     61  N   UNL     1      11.166   4.463 -13.419  1.00  0.00    -0.354 N 
ATOM     62  N   UNL     1      12.381   3.574 -10.819  1.00  0.00    -0.248 NA
ATOM     63  C   UNL     1      14.126   2.532  -9.663  1.00  0.00     0.031 C 
ATOM     64  C   UNL     1      12.251   3.964 -15.284  1.00  0.00     0.029 A 
ATOM     65  C   UNL     1      12.307   3.853 -13.902  1.00  0.00     0.049 A 
ATOM     66  H   UNL     1      10.922   4.529 -12.468  1.00  0.00     0.167 HD
ATOM     67  C   UNL     1      13.337   3.157 -11.734  1.00  0.00     0.074 A 
ATOM     68  C   UNL     1      14.411   2.561 -10.958  1.00  0.00     0.031 C 
ATOM     69  C   UNL     1      13.335   3.249 -13.088  1.00  0.00     0.037 A 
BRANCH  56  70
ATOM     70  C   UNL     1       8.370   6.079 -15.519  1.00  0.00     0.058 A 
ATOM     71  C   UNL     1       8.191   7.447 -15.800  1.00  0.00     0.135 A 
ATOM     72  C   UNL     1       7.887   5.163 -16.468  1.00  0.00     0.135 A 
ATOM     73  F   UNL     1       8.631   8.378 -14.938  1.00  0.00    -0.206 F 
ATOM     74  C   UNL     1       7.551   7.887 -16.955  1.00  0.00     0.059 A 
ATOM     75  C   UNL     1       7.265   5.582 -17.648  1.00  0.00     0.059 A 
ATOM     76  F   UNL     1       8.025   3.843 -16.267  1.00  0.00    -0.206 F 
ATOM     77  C   UNL     1       7.098   6.947 -17.879  1.00  0.00     0.060 A 
BRANCH  77  78
ATOM     78  S   UNL     1       6.309   7.548 -19.390  1.00  0.00     0.124 S 
ATOM     79  O   UNL     1       5.089   8.154 -18.864  1.00  0.00    -0.237 OA
ATOM     80  O   UNL     1       7.305   8.481 -19.908  1.00  0.00    -0.237 OA
ATOM     81  O   UNL     1       6.116   6.337 -20.181  1.00  0.00    -0.744 OA
ENDBRANCH  77  78
ENDBRANCH  56  70
BRANCH  57  82
ATOM     82  C   UNL     1      12.881   3.052  -7.018  1.00  0.00     0.058 A 
ATOM     83  C   UNL     1      14.073   3.669  -6.601  1.00  0.00     0.135 A 
ATOM     84  C   UNL     1      12.306   2.107  -6.155  1.00  0.00     0.135 A 
ATOM     85  F   UNL     1      14.656   4.593  -7.379  1.00  0.00    -0.206 F 
ATOM     86  C   UNL     1      14.682   3.351  -5.390  1.00  0.00     0.059 A 
ATOM     87  C   UNL     1      12.884   1.789  -4.926  1.00  0.00     0.059 A 
ATOM     88  F   UNL     1      11.147   1.517  -6.482  1.00  0.00    -0.206 F 
ATOM     89  C   UNL     1      14.076   2.412  -4.556  1.00  0.00     0.060 A 
BRANCH  89  90
ATOM     90  S   UNL     1      14.852   2.046  -2.965  1.00  0.00     0.124 S 
ATOM     91  O   UNL     1      16.084   1.388  -3.382  1.00  0.00    -0.237 OA
ATOM     92  O   UNL     1      15.002   3.378  -2.388  1.00  0.00    -0.237 OA
ATOM     93  O   UNL     1      13.873   1.190  -2.302  1.00  0.00    -0.744 OA
ENDBRANCH  89  90
ENDBRANCH  57  82
BRANCH  69  94
ATOM     94  C   UNL     1      14.523   2.675 -13.802  1.00  0.00     0.058 A 
ATOM     95  C   UNL     1      14.745   1.290 -13.849  1.00  0.00     0.135 A 
ATOM     96  C   UNL     1      15.424   3.514 -14.475  1.00  0.00     0.135 A 
ATOM     97  F   UNL     1      13.909   0.449 -13.220  1.00  0.00    -0.206 F 
ATOM     98  C   UNL     1      15.847   0.759 -14.502  1.00  0.00     0.059 A 
ATOM     99  C   UNL     1      16.512   3.001 -15.169  1.00  0.00     0.059 A 
ATOM    100  F   UNL     1      15.243   4.845 -14.473  1.00  0.00    -0.206 F 
ATOM    101  C   UNL     1      16.726   1.623 -15.159  1.00  0.00     0.060 A 
BRANCH 101 102
ATOM    102  S   UNL     1      18.153   0.914 -16.000  1.00  0.00     0.124 S 
ATOM    103  O   UNL     1      18.962   0.464 -14.872  1.00  0.00    -0.237 OA
ATOM    104  O   UNL     1      17.544  -0.140 -16.805  1.00  0.00    -0.237 OA
ATOM    105  O   UNL     1      18.698   2.038 -16.754  1.00  0.00    -0.744 OA
ENDBRANCH 101 102
ENDBRANCH  69  94
ENDBRANCH  43  44
ENDBRANCH  35  38
ENDBRANCH  33  34
ENDBRANCH   1  33
TORSDOF 16
