REMARK SMILES Cc1n[nH]c(CN(C)C(=O)N[C@](C)(C(=O)NCCCNC(=O)c2ccc(-c3c4nc(c(-c5c(F)cc(S(=O)(=O)[O-])cc5F)c5ccc([nH]5)c(-c5c(F)cc(S(=O)(=O)[O-])cc5F)c5nc(c(-c6c(F)cc(S(=O)(=O)[O-])cc6F)c6ccc3[nH]6)C=C5)C=C4)cc2)C(F)(F)F)n1
REMARK SMILES IDX 17 1 16 2 14 3 15 4 12 6 13 7 11 8 9 9 10 10 7 12 8 13 6 14
REMARK SMILES IDX 5 15 1 16 2 17 3 18 93 19 4 20 89 22 90 23 91 24 92 25 18 26
REMARK SMILES IDX 19 27 20 28 21 29 22 31 23 32 24 33 88 34 25 35 87 36 26 37
REMARK SMILES IDX 27 38 28 39 81 40 29 41 86 42 80 43 82 44 30 45 85 46 79 47
REMARK SMILES IDX 78 48 31 50 65 51 44 52 64 53 45 54 48 55 63 56 83 57 46 58
REMARK SMILES IDX 47 59 62 61 84 62 49 63 32 64 33 65 42 66 34 67 35 68 41 69
REMARK SMILES IDX 43 70 36 71 37 72 38 73 39 74 40 75 66 76 67 77 76 78 68 79
REMARK SMILES IDX 69 80 75 81 77 82 70 83 71 84 72 85 73 86 74 87 50 88 51 89
REMARK SMILES IDX 60 90 52 91 53 92 59 93 61 94 54 95 55 96 56 97 57 98 58 99
REMARK H PARENT 16 5 11 11 4 21 20 30 82 49 48 60
REMARK Flexibility Score: inf
ROOT
ATOM      1  C   UNL     1      -5.567  -3.103   5.168  1.00  0.00     0.117 C 
ENDROOT
BRANCH   1   2
ATOM      2  N   UNL     1      -5.622  -1.949   4.284  1.00  0.00    -0.354 N 
ATOM      3  C   UNL     1      -5.347  -1.717   2.969  1.00  0.00     0.255 C 
ATOM      4  O   UNL     1      -5.648  -0.576   2.602  1.00  0.00    -0.272 OA
ATOM      5  H   UNL     1      -5.934  -1.139   4.748  1.00  0.00     0.163 HD
BRANCH   3   6
ATOM      6  C   UNL     1      -4.906  -2.812   1.956  1.00  0.00     0.213 C 
ATOM      7  C   UNL     1      -3.766  -3.697   2.473  1.00  0.00     0.056 C 
BRANCH   6   8
ATOM      8  N   UNL     1      -6.174  -3.614   1.809  1.00  0.00    -0.316 N 
ATOM      9  C   UNL     1      -6.899  -4.400   1.019  1.00  0.00     0.318 C 
ATOM     10  O   UNL     1      -7.860  -4.920   1.607  1.00  0.00    -0.249 OA
ATOM     11  H   UNL     1      -6.675  -3.513   2.650  1.00  0.00     0.166 HD
BRANCH   9  12
ATOM     12  N   UNL     1      -6.698  -4.638  -0.296  1.00  0.00    -0.320 N 
ATOM     13  C   UNL     1      -5.639  -4.156  -1.150  1.00  0.00     0.149 C 
BRANCH  12  14
ATOM     14  C   UNL     1      -7.642  -5.551  -0.945  1.00  0.00     0.197 C 
BRANCH  14  15
ATOM     15  C   UNL     1      -7.252  -6.963  -0.675  1.00  0.00     0.144 A 
ATOM     16  C   UNL     1      -5.216  -9.805  -0.206  1.00  0.00     0.092 C 
ATOM     17  C   UNL     1      -6.300  -8.815  -0.345  1.00  0.00     0.147 A 
ATOM     18  N   UNL     1      -7.562  -9.067   0.023  1.00  0.00    -0.159 NA
ATOM     19  N   UNL     1      -6.079  -7.547  -0.817  1.00  0.00    -0.215 NA
ATOM     20  N   UNL     1      -8.138  -7.869  -0.166  1.00  0.00    -0.262 N 
ATOM     21  H   UNL     1      -9.080  -7.668   0.037  1.00  0.00     0.192 HD
ENDBRANCH  14  15
ENDBRANCH  12  14
ENDBRANCH   9  12
ENDBRANCH   6   8
BRANCH   6  22
ATOM     22  C   UNL     1      -4.340  -1.986   0.777  1.00  0.00     0.420 C 
ATOM     23  F   UNL     1      -3.419  -1.083   1.200  1.00  0.00    -0.168 F 
ATOM     24  F   UNL     1      -3.661  -2.776  -0.095  1.00  0.00    -0.168 F 
ATOM     25  F   UNL     1      -5.281  -1.328   0.070  1.00  0.00    -0.168 F 
ENDBRANCH   6  22
ENDBRANCH   3   6
ENDBRANCH   1   2
BRANCH   1  26
ATOM     26  C   UNL     1      -4.301  -3.136   6.030  1.00  0.00     0.042 C 
BRANCH  26  27
ATOM     27  C   UNL     1      -4.214  -1.982   7.023  1.00  0.00     0.118 C 
BRANCH  27  28
ATOM     28  N   UNL     1      -5.208  -2.049   8.094  1.00  0.00    -0.352 N 
ATOM     29  C   UNL     1      -5.363  -1.182   9.168  1.00  0.00     0.251 C 
ATOM     30  H   UNL     1      -5.844  -2.799   8.049  1.00  0.00     0.163 HD
ATOM     31  O   UNL     1      -5.998  -1.519  10.150  1.00  0.00    -0.269 OA
BRANCH  29  32
ATOM     32  C   UNL     1      -4.722   0.148   9.098  1.00  0.00     0.039 A 
ATOM     33  C   UNL     1      -4.051   0.692  10.197  1.00  0.00     0.014 A 
ATOM     34  C   UNL     1      -4.751   0.823   7.884  1.00  0.00     0.014 A 
ATOM     35  C   UNL     1      -3.328   1.873  10.027  1.00  0.00     0.010 A 
ATOM     36  C   UNL     1      -3.903   1.882   7.675  1.00  0.00     0.010 A 
ATOM     37  C   UNL     1      -3.230   2.451   8.751  1.00  0.00    -0.014 A 
BRANCH  37  38
ATOM     38  C   UNL     1      -2.349   3.594   8.509  1.00  0.00     0.031 A 
ATOM     39  C   UNL     1      -0.953   3.442   9.011  1.00  0.00     0.074 A 
ATOM     40  C   UNL     1      -2.679   4.631   7.707  1.00  0.00     0.049 A 
ATOM     41  N   UNL     1      -0.377   4.100   9.963  1.00  0.00    -0.248 NA
ATOM     42  C   UNL     1      -0.135   2.340   8.477  1.00  0.00     0.031 C 
ATOM     43  C   UNL     1      -3.883   4.807   6.884  1.00  0.00     0.029 A 
ATOM     44  N   UNL     1      -1.931   5.715   7.365  1.00  0.00    -0.354 N 
ATOM     45  C   UNL     1       0.943   3.657   9.998  1.00  0.00     0.074 A 
ATOM     46  C   UNL     1       0.981   2.459   9.199  1.00  0.00     0.031 C 
ATOM     47  C   UNL     1      -3.670   5.777   5.969  1.00  0.00     0.029 A 
ATOM     48  C   UNL     1      -2.401   6.415   6.260  1.00  0.00     0.049 A 
ATOM     49  H   UNL     1      -1.123   5.982   7.860  1.00  0.00     0.167 HD
ATOM     50  C   UNL     1       1.945   4.439  10.493  1.00  0.00     0.037 A 
ATOM     51  C   UNL     1      -1.785   7.436   5.615  1.00  0.00     0.037 A 
ATOM     52  C   UNL     1       1.417   5.537  11.266  1.00  0.00     0.049 A 
ATOM     53  C   UNL     1      -0.805   8.017   6.568  1.00  0.00     0.074 A 
ATOM     54  C   UNL     1       0.596   5.636  12.374  1.00  0.00     0.029 A 
ATOM     55  N   UNL     1       1.405   6.785  10.689  1.00  0.00    -0.354 N 
ATOM     56  N   UNL     1      -1.141   8.639   7.665  1.00  0.00    -0.248 NA
ATOM     57  C   UNL     1       0.557   7.506   6.537  1.00  0.00     0.031 C 
ATOM     58  C   UNL     1      -0.249   6.754  12.106  1.00  0.00     0.029 A 
ATOM     59  C   UNL     1       0.153   7.310  10.891  1.00  0.00     0.049 A 
ATOM     60  H   UNL     1       2.154   7.219  10.219  1.00  0.00     0.167 HD
ATOM     61  C   UNL     1      -0.215   8.221   8.609  1.00  0.00     0.074 A 
ATOM     62  C   UNL     1       0.861   7.605   7.834  1.00  0.00     0.031 C 
ATOM     63  C   UNL     1      -0.531   8.158   9.938  1.00  0.00     0.037 A 
BRANCH  50  64
ATOM     64  C   UNL     1       3.373   4.426   9.994  1.00  0.00     0.058 A 
ATOM     65  C   UNL     1       4.359   5.155  10.692  1.00  0.00     0.135 A 
ATOM     66  C   UNL     1       3.754   3.965   8.714  1.00  0.00     0.135 A 
ATOM     67  F   UNL     1       4.109   5.646  11.916  1.00  0.00    -0.206 F 
ATOM     68  C   UNL     1       5.597   5.472  10.128  1.00  0.00     0.059 A 
ATOM     69  C   UNL     1       5.002   4.222   8.156  1.00  0.00     0.059 A 
ATOM     70  F   UNL     1       2.903   3.331   7.899  1.00  0.00    -0.206 F 
ATOM     71  C   UNL     1       5.900   5.015   8.850  1.00  0.00     0.060 A 
BRANCH  71  72
ATOM     72  S   UNL     1       7.443   5.520   8.069  1.00  0.00     0.124 S 
ATOM     73  O   UNL     1       7.194   6.936   7.829  1.00  0.00    -0.237 OA
ATOM     74  O   UNL     1       8.422   5.208   9.105  1.00  0.00    -0.237 OA
ATOM     75  O   UNL     1       7.507   4.677   6.879  1.00  0.00    -0.744 OA
ENDBRANCH  71  72
ENDBRANCH  50  64
BRANCH  51  76
ATOM     76  C   UNL     1      -1.773   7.728   4.157  1.00  0.00     0.058 A 
ATOM     77  C   UNL     1      -1.262   8.942   3.665  1.00  0.00     0.135 A 
ATOM     78  C   UNL     1      -1.993   6.715   3.201  1.00  0.00     0.135 A 
ATOM     79  F   UNL     1      -1.010   9.957   4.505  1.00  0.00    -0.206 F 
ATOM     80  C   UNL     1      -0.927   9.119   2.318  1.00  0.00     0.059 A 
ATOM     81  C   UNL     1      -1.679   6.873   1.851  1.00  0.00     0.059 A 
ATOM     82  F   UNL     1      -2.431   5.500   3.565  1.00  0.00    -0.206 F 
ATOM     83  C   UNL     1      -1.116   8.068   1.422  1.00  0.00     0.060 A 
BRANCH  83  84
ATOM     84  S   UNL     1      -0.497   8.219  -0.271  1.00  0.00     0.124 S 
ATOM     85  O   UNL     1      -1.423   9.189  -0.846  1.00  0.00    -0.237 OA
ATOM     86  O   UNL     1       0.868   8.690  -0.059  1.00  0.00    -0.237 OA
ATOM     87  O   UNL     1      -0.608   6.861  -0.796  1.00  0.00    -0.744 OA
ENDBRANCH  83  84
ENDBRANCH  51  76
BRANCH  63  88
ATOM     88  C   UNL     1      -1.803   8.823  10.405  1.00  0.00     0.058 A 
ATOM     89  C   UNL     1      -3.096   8.467   9.980  1.00  0.00     0.135 A 
ATOM     90  C   UNL     1      -1.715   9.774  11.434  1.00  0.00     0.135 A 
ATOM     91  F   UNL     1      -3.285   7.490   9.085  1.00  0.00    -0.206 F 
ATOM     92  C   UNL     1      -4.241   9.066  10.511  1.00  0.00     0.059 A 
ATOM     93  C   UNL     1      -2.843  10.360  12.003  1.00  0.00     0.059 A 
ATOM     94  F   UNL     1      -0.515  10.112  11.936  1.00  0.00    -0.206 F 
ATOM     95  C   UNL     1      -4.104  10.015  11.523  1.00  0.00     0.060 A 
BRANCH  95  96
ATOM     96  S   UNL     1      -5.587  10.749  12.247  1.00  0.00     0.124 S 
ATOM     97  O   UNL     1      -6.055  11.618  11.173  1.00  0.00    -0.237 OA
ATOM     98  O   UNL     1      -6.418   9.581  12.526  1.00  0.00    -0.237 OA
ATOM     99  O   UNL     1      -5.082  11.439  13.432  1.00  0.00    -0.744 OA
ENDBRANCH  95  96
ENDBRANCH  63  88
ENDBRANCH  37  38
ENDBRANCH  29  32
ENDBRANCH  27  28
ENDBRANCH  26  27
ENDBRANCH   1  26
TORSDOF 18
