REMARK SMILES O=C(NCCCNC(=O)c1cc([C@@H]2C=NN=C2c2ccc(F)cc2)c2c(ccc3ccccc32)n1)c1ccc(-c2c3nc(c(-c4c(F)cc(S(=O)(=O)[O-])cc4F)c4ccc([nH]4)c(-c4c(F)cc(S(=O)(=O)[O-])cc4F)c4nc(c(-c5c(F)cc(S(=O)(=O)[O-])cc5F)c5ccc2[nH]5)C=C4)C=C3)cc1
REMARK SMILES IDX 4 1 3 2 1 3 2 4 36 6 37 7 101 8 38 9 100 10 39 11 40 12
REMARK SMILES IDX 41 13 94 14 42 15 99 16 93 17 95 18 43 19 98 20 92 21 91 22
REMARK SMILES IDX 44 24 78 25 57 26 77 27 58 28 61 29 76 30 96 31 59 32 60 33
REMARK SMILES IDX 75 35 97 36 62 37 45 38 46 39 55 40 47 41 48 42 54 43 56 44
REMARK SMILES IDX 49 45 50 46 51 47 52 48 53 49 79 50 80 51 89 52 81 53 82 54
REMARK SMILES IDX 88 55 90 56 83 57 84 58 85 59 86 60 87 61 63 62 64 63 73 64
REMARK SMILES IDX 65 65 66 66 72 67 74 68 67 69 68 70 69 71 70 72 71 73 5 74
REMARK SMILES IDX 6 75 7 76 8 77 9 79 10 80 11 81 35 82 12 83 26 84 25 85
REMARK SMILES IDX 27 86 34 87 28 88 29 89 33 90 30 91 32 92 31 93 13 94 14 95
REMARK SMILES IDX 17 96 15 97 16 98 18 99 19 100 24 101 20 102 23 103 21 104
REMARK SMILES IDX 22 105
REMARK H PARENT 3 5 95 23 61 34 7 78
REMARK Flexibility Score: inf
ROOT
ATOM      1  C   UNL     1       4.599   0.639   0.785  1.00  0.00     0.118 C 
ENDROOT
BRANCH   1   2
ATOM      2  N   UNL     1       3.175   0.406   0.916  1.00  0.00    -0.352 N 
ATOM      3  O   UNL     1       1.100  -0.262   0.630  1.00  0.00    -0.269 OA
ATOM      4  C   UNL     1       2.180  -0.021   0.082  1.00  0.00     0.251 C 
ATOM      5  H   UNL     1       2.846   0.602   1.823  1.00  0.00     0.163 HD
BRANCH   4   6
ATOM      6  C   UNL     1       2.274  -0.145  -1.401  1.00  0.00     0.039 A 
ATOM      7  C   UNL     1       3.442  -0.102  -2.163  1.00  0.00     0.014 A 
ATOM      8  C   UNL     1       1.044  -0.296  -2.072  1.00  0.00     0.014 A 
ATOM      9  C   UNL     1       3.373  -0.131  -3.560  1.00  0.00     0.010 A 
ATOM     10  C   UNL     1       0.971  -0.332  -3.461  1.00  0.00     0.010 A 
ATOM     11  C   UNL     1       2.136  -0.215  -4.210  1.00  0.00    -0.014 A 
BRANCH  11  12
ATOM     12  C   UNL     1       2.106  -0.333  -5.671  1.00  0.00     0.031 A 
ATOM     13  C   UNL     1       2.716  -1.589  -6.212  1.00  0.00     0.074 A 
ATOM     14  C   UNL     1       1.434   0.515  -6.480  1.00  0.00     0.049 A 
ATOM     15  N   UNL     1       3.705  -1.720  -7.037  1.00  0.00    -0.248 NA
ATOM     16  C   UNL     1       2.212  -2.870  -5.687  1.00  0.00     0.031 C 
ATOM     17  C   UNL     1       0.529   1.606  -6.108  1.00  0.00     0.029 A 
ATOM     18  N   UNL     1       1.354   0.513  -7.842  1.00  0.00    -0.354 N 
ATOM     19  C   UNL     1       3.844  -3.090  -7.270  1.00  0.00     0.074 A 
ATOM     20  C   UNL     1       2.982  -3.751  -6.325  1.00  0.00     0.031 C 
ATOM     21  C   UNL     1      -0.164   2.010  -7.200  1.00  0.00     0.029 A 
ATOM     22  C   UNL     1       0.343   1.311  -8.369  1.00  0.00     0.049 A 
ATOM     23  H   UNL     1       1.965  -0.011  -8.408  1.00  0.00     0.167 HD
ATOM     24  C   UNL     1       4.544  -3.592  -8.327  1.00  0.00     0.037 A 
ATOM     25  C   UNL     1      -0.073   1.351  -9.664  1.00  0.00     0.037 A 
ATOM     26  C   UNL     1       5.421  -2.608  -8.899  1.00  0.00     0.049 A 
ATOM     27  C   UNL     1       1.027   0.794 -10.492  1.00  0.00     0.074 A 
ATOM     28  C   UNL     1       6.524  -1.917  -8.440  1.00  0.00     0.029 A 
ATOM     29  N   UNL     1       4.996  -1.929 -10.013  1.00  0.00    -0.354 N 
ATOM     30  N   UNL     1       2.194   1.359 -10.636  1.00  0.00    -0.248 NA
ATOM     31  C   UNL     1       0.976  -0.626 -10.801  1.00  0.00     0.031 C 
ATOM     32  C   UNL     1       6.388  -0.607  -8.984  1.00  0.00     0.029 A 
ATOM     33  C   UNL     1       5.249  -0.598  -9.790  1.00  0.00     0.049 A 
ATOM     34  H   UNL     1       4.588  -2.321 -10.819  1.00  0.00     0.167 HD
ATOM     35  C   UNL     1       3.098   0.308 -10.642  1.00  0.00     0.074 A 
ATOM     36  C   UNL     1       2.283  -0.893 -10.810  1.00  0.00     0.031 C 
ATOM     37  C   UNL     1       4.393   0.478 -10.242  1.00  0.00     0.037 A 
BRANCH  24  38
ATOM     38  C   UNL     1       4.248  -4.909  -9.001  1.00  0.00     0.058 A 
ATOM     39  C   UNL     1       2.967  -5.503  -8.993  1.00  0.00     0.135 A 
ATOM     40  C   UNL     1       5.182  -5.489  -9.885  1.00  0.00     0.135 A 
ATOM     41  F   UNL     1       1.953  -4.984  -8.288  1.00  0.00    -0.206 F 
ATOM     42  C   UNL     1       2.640  -6.604  -9.778  1.00  0.00     0.059 A 
ATOM     43  C   UNL     1       4.860  -6.564 -10.720  1.00  0.00     0.059 A 
ATOM     44  F   UNL     1       6.421  -4.983  -9.998  1.00  0.00    -0.206 F 
ATOM     45  C   UNL     1       3.585  -7.116 -10.656  1.00  0.00     0.060 A 
BRANCH  45  46
ATOM     46  S   UNL     1       3.075  -8.449 -11.757  1.00  0.00     0.124 S 
ATOM     47  O   UNL     1       2.855  -9.540 -10.812  1.00  0.00    -0.237 OA
ATOM     48  O   UNL     1       1.878  -7.890 -12.374  1.00  0.00    -0.237 OA
ATOM     49  O   UNL     1       4.222  -8.610 -12.646  1.00  0.00    -0.744 OA
ENDBRANCH  45  46
ENDBRANCH  24  38
BRANCH  25  50
ATOM     50  C   UNL     1      -1.468   1.453 -10.186  1.00  0.00     0.058 A 
ATOM     51  C   UNL     1      -2.567   1.021  -9.419  1.00  0.00     0.135 A 
ATOM     52  C   UNL     1      -1.721   1.677 -11.555  1.00  0.00     0.135 A 
ATOM     53  F   UNL     1      -2.430   0.734  -8.116  1.00  0.00    -0.206 F 
ATOM     54  C   UNL     1      -3.819   0.768  -9.979  1.00  0.00     0.059 A 
ATOM     55  C   UNL     1      -2.969   1.428 -12.141  1.00  0.00     0.059 A 
ATOM     56  F   UNL     1      -0.728   2.074 -12.367  1.00  0.00    -0.206 F 
ATOM     57  C   UNL     1      -4.004   0.941 -11.347  1.00  0.00     0.060 A 
BRANCH  57  58
ATOM     58  S   UNL     1      -5.586   0.427 -12.057  1.00  0.00     0.124 S 
ATOM     59  O   UNL     1      -5.591  -1.003 -11.771  1.00  0.00    -0.237 OA
ATOM     60  O   UNL     1      -6.537   1.227 -11.295  1.00  0.00    -0.237 OA
ATOM     61  O   UNL     1      -5.460   0.784 -13.469  1.00  0.00    -0.744 OA
ENDBRANCH  57  58
ENDBRANCH  25  50
BRANCH  37  62
ATOM     62  C   UNL     1       4.902   1.883 -10.025  1.00  0.00     0.058 A 
ATOM     63  C   UNL     1       6.048   2.288 -10.725  1.00  0.00     0.135 A 
ATOM     64  C   UNL     1       4.413   2.763  -9.040  1.00  0.00     0.135 A 
ATOM     65  F   UNL     1       6.597   1.474 -11.643  1.00  0.00    -0.206 F 
ATOM     66  C   UNL     1       6.691   3.493 -10.457  1.00  0.00     0.059 A 
ATOM     67  C   UNL     1       5.021   3.994  -8.778  1.00  0.00     0.059 A 
ATOM     68  F   UNL     1       3.381   2.419  -8.258  1.00  0.00    -0.206 F 
ATOM     69  C   UNL     1       6.172   4.341  -9.480  1.00  0.00     0.060 A 
BRANCH  69  70
ATOM     70  S   UNL     1       7.056   5.874  -9.125  1.00  0.00     0.124 S 
ATOM     71  O   UNL     1       8.303   5.377  -8.550  1.00  0.00    -0.237 OA
ATOM     72  O   UNL     1       7.172   6.481 -10.448  1.00  0.00    -0.237 OA
ATOM     73  O   UNL     1       6.179   6.575  -8.192  1.00  0.00    -0.744 OA
ENDBRANCH  69  70
ENDBRANCH  37  62
ENDBRANCH  11  12
ENDBRANCH   4   6
ENDBRANCH   1   2
BRANCH   1  74
ATOM     74  C   UNL     1       4.972   2.022   0.263  1.00  0.00     0.042 C 
BRANCH  74  75
ATOM     75  C   UNL     1       4.472   3.185   1.116  1.00  0.00     0.118 C 
BRANCH  75  76
ATOM     76  N   UNL     1       5.034   3.203   2.462  1.00  0.00    -0.351 N 
ATOM     77  C   UNL     1       5.868   4.108   3.088  1.00  0.00     0.269 C 
ATOM     78  H   UNL     1       4.774   2.437   3.022  1.00  0.00     0.163 HD
ATOM     79  O   UNL     1       6.284   3.838   4.215  1.00  0.00    -0.268 OA
BRANCH  77  80
ATOM     80  C   UNL     1       6.222   5.411   2.447  1.00  0.00     0.129 A 
ATOM     81  C   UNL     1       5.261   6.175   1.834  1.00  0.00     0.039 A 
ATOM     82  N   UNL     1       7.479   5.848   2.593  1.00  0.00    -0.243 NA
ATOM     83  C   UNL     1       5.590   7.416   1.236  1.00  0.00    -0.021 A 
ATOM     84  C   UNL     1       7.809   7.049   2.100  1.00  0.00     0.072 A 
ATOM     85  C   UNL     1       6.940   7.934   1.385  1.00  0.00     0.012 A 
ATOM     86  C   UNL     1       9.113   7.396   2.377  1.00  0.00     0.029 A 
ATOM     87  C   UNL     1       7.532   9.227   0.969  1.00  0.00    -0.009 A 
ATOM     88  C   UNL     1       9.656   8.609   1.986  1.00  0.00     0.011 A 
ATOM     89  C   UNL     1       8.888   9.526   1.287  1.00  0.00    -0.018 A 
ATOM     90  C   UNL     1       6.879  10.269   0.271  1.00  0.00     0.009 A 
ATOM     91  C   UNL     1       9.497  10.743   0.924  1.00  0.00     0.009 A 
ATOM     92  C   UNL     1       7.482  11.479  -0.098  1.00  0.00     0.001 A 
ATOM     93  C   UNL     1       8.798  11.719   0.230  1.00  0.00     0.001 A 
BRANCH  83  94
ATOM     94  C   UNL     1       4.376   8.039   0.582  1.00  0.00     0.115 C 
ATOM     95  C   UNL     1       4.434   8.413  -0.853  1.00  0.00     0.123 C 
ATOM     96  C   UNL     1       3.764   9.293   1.119  1.00  0.00     0.083 C 
ATOM     97  N   UNL     1       3.832   9.534  -1.093  1.00  0.00    -0.162 NA
ATOM     98  N   UNL     1       3.398  10.094   0.159  1.00  0.00    -0.154 NA
BRANCH  96  99
ATOM     99  C   UNL     1       3.441   9.525   2.543  1.00  0.00    -0.001 A 
ATOM    100  C   UNL     1       2.238  10.179   2.840  1.00  0.00     0.013 A 
ATOM    101  C   UNL     1       4.273   9.111   3.590  1.00  0.00     0.013 A 
ATOM    102  C   UNL     1       1.855  10.376   4.169  1.00  0.00     0.040 A 
ATOM    103  C   UNL     1       3.886   9.304   4.918  1.00  0.00     0.040 A 
ATOM    104  C   UNL     1       2.678   9.928   5.195  1.00  0.00     0.123 A 
ATOM    105  F   UNL     1       2.306  10.107   6.469  1.00  0.00    -0.207 F 
ENDBRANCH  96  99
ENDBRANCH  83  94
ENDBRANCH  77  80
ENDBRANCH  75  76
ENDBRANCH  74  75
ENDBRANCH   1  74
TORSDOF 15
