REMARK SMILES CC[C@@](C)([NH2+]Cc1ccc(C(N)=O)cc1F)C(=O)NCCCNC(=O)c1ccc(-c2c3nc(c(-c4c(F)cc(S(=O)(=O)[O-])cc4F)c4ccc([nH]4)c(-c4c(F)cc(S(=O)(=O)[O-])cc4F)c4nc(c(-c5c(F)cc(S(=O)(=O)[O-])cc5F)c5ccc2[nH]5)C=C4)C=C3)cc1
REMARK SMILES IDX 20 1 19 2 17 3 18 4 3 6 4 7 2 8 1 9 5 10 6 13 7 14 8 15
REMARK SMILES IDX 15 16 9 17 14 18 16 19 10 20 11 21 12 22 13 23 21 26 22 27
REMARK SMILES IDX 23 28 24 29 25 31 26 32 27 33 91 34 28 35 90 36 29 37 30 38
REMARK SMILES IDX 31 39 84 40 32 41 89 42 83 43 85 44 33 45 88 46 82 47 81 48
REMARK SMILES IDX 34 50 68 51 47 52 67 53 48 54 51 55 66 56 86 57 49 58 50 59
REMARK SMILES IDX 65 61 87 62 52 63 35 64 36 65 45 66 37 67 38 68 44 69 46 70
REMARK SMILES IDX 39 71 40 72 41 73 42 74 43 75 69 76 70 77 79 78 71 79 72 80
REMARK SMILES IDX 78 81 80 82 73 83 74 84 75 85 76 86 77 87 53 88 54 89 63 90
REMARK SMILES IDX 55 91 56 92 62 93 64 94 57 95 58 96 59 97 60 98 61 99
REMARK H PARENT 19 5 5 11 5 12 12 24 12 25 23 30 85 49 51 60
REMARK Flexibility Score: inf
ROOT
ATOM      1  C   UNL     1       3.322   3.720  -2.282  1.00  0.00     0.118 C 
ENDROOT
BRANCH   1   2
ATOM      2  N   UNL     1       3.422   3.107  -0.980  1.00  0.00    -0.351 N 
ATOM      3  C   UNL     1       2.528   2.535  -0.133  1.00  0.00     0.281 C 
ATOM      4  O   UNL     1       3.037   2.236   0.959  1.00  0.00    -0.268 OA
ATOM      5  H   UNL     1       4.342   3.102  -0.628  1.00  0.00     0.163 HD
BRANCH   3   6
ATOM      6  C   UNL     1       1.033   2.137  -0.467  1.00  0.00     0.172 C 
ATOM      7  C   UNL     1       0.950   1.069  -1.567  1.00  0.00     0.090 C 
BRANCH   6   8
ATOM      8  C   UNL     1       0.466   1.474   0.863  1.00  0.00     0.075 C 
ATOM      9  C   UNL     1       0.955   0.053   1.179  1.00  0.00     0.011 C 
ENDBRANCH   6   8
BRANCH   6  10
ATOM     10  N   UNL     1       0.090   3.276  -0.671  1.00  0.00    -0.330 N 
ATOM     11  H   UNL     1       0.017   3.706   0.251  1.00  0.00     0.347 HD
ATOM     12  H   UNL     1      -0.640   2.759  -1.161  1.00  0.00     0.347 HD
BRANCH  10  13
ATOM     13  C   UNL     1       0.171   4.410  -1.587  1.00  0.00     0.301 C 
BRANCH  13  14
ATOM     14  C   UNL     1      -0.198   4.239  -3.054  1.00  0.00     0.042 A 
ATOM     15  C   UNL     1       0.203   3.151  -3.825  1.00  0.00     0.013 A 
ATOM     16  C   UNL     1      -0.845   5.261  -3.764  1.00  0.00     0.132 A 
ATOM     17  C   UNL     1      -0.090   3.004  -5.175  1.00  0.00     0.014 A 
ATOM     18  C   UNL     1      -1.152   5.147  -5.132  1.00  0.00     0.053 A 
ATOM     19  F   UNL     1      -1.167   6.401  -3.137  1.00  0.00    -0.206 F 
ATOM     20  C   UNL     1      -0.808   3.988  -5.835  1.00  0.00     0.042 A 
BRANCH  20  21
ATOM     21  C   UNL     1      -1.163   3.817  -7.266  1.00  0.00     0.248 C 
ATOM     22  N   UNL     1      -1.127   2.546  -7.779  1.00  0.00    -0.366 N 
ATOM     23  O   UNL     1      -1.500   4.765  -7.966  1.00  0.00    -0.270 OA
ATOM     24  H   UNL     1      -0.855   1.792  -7.208  1.00  0.00     0.159 HD
ATOM     25  H   UNL     1      -1.375   2.387  -8.719  1.00  0.00     0.159 HD
ENDBRANCH  20  21
ENDBRANCH  13  14
ENDBRANCH  10  13
ENDBRANCH   6  10
ENDBRANCH   3   6
ENDBRANCH   1   2
BRANCH   1  26
ATOM     26  C   UNL     1       3.443   5.238  -2.200  1.00  0.00     0.042 C 
BRANCH  26  27
ATOM     27  C   UNL     1       4.857   5.740  -2.411  1.00  0.00     0.118 C 
BRANCH  27  28
ATOM     28  N   UNL     1       5.283   5.600  -3.795  1.00  0.00    -0.352 N 
ATOM     29  C   UNL     1       5.733   6.548  -4.682  1.00  0.00     0.251 C 
ATOM     30  H   UNL     1       5.242   4.683  -4.152  1.00  0.00     0.163 HD
ATOM     31  O   UNL     1       5.849   6.244  -5.867  1.00  0.00    -0.269 OA
BRANCH  29  32
ATOM     32  C   UNL     1       6.063   7.918  -4.227  1.00  0.00     0.039 A 
ATOM     33  C   UNL     1       5.836   8.993  -5.092  1.00  0.00     0.014 A 
ATOM     34  C   UNL     1       6.628   8.151  -2.971  1.00  0.00     0.014 A 
ATOM     35  C   UNL     1       6.148  10.292  -4.682  1.00  0.00     0.010 A 
ATOM     36  C   UNL     1       6.817   9.450  -2.518  1.00  0.00     0.010 A 
ATOM     37  C   UNL     1       6.622  10.533  -3.382  1.00  0.00    -0.014 A 
BRANCH  37  38
ATOM     38  C   UNL     1       7.000  11.897  -2.932  1.00  0.00     0.031 A 
ATOM     39  C   UNL     1       8.422  12.174  -2.514  1.00  0.00     0.074 A 
ATOM     40  C   UNL     1       6.068  12.867  -2.865  1.00  0.00     0.049 A 
ATOM     41  N   UNL     1       8.945  13.277  -2.043  1.00  0.00    -0.248 NA
ATOM     42  C   UNL     1       9.379  11.056  -2.604  1.00  0.00     0.031 C 
ATOM     43  C   UNL     1       4.651  12.704  -3.200  1.00  0.00     0.029 A 
ATOM     44  N   UNL     1       6.171  14.185  -2.498  1.00  0.00    -0.354 N 
ATOM     45  C   UNL     1      10.276  12.978  -1.772  1.00  0.00     0.074 A 
ATOM     46  C   UNL     1      10.465  11.575  -2.054  1.00  0.00     0.031 C 
ATOM     47  C   UNL     1       4.029  13.886  -3.067  1.00  0.00     0.029 A 
ATOM     48  C   UNL     1       4.989  14.881  -2.599  1.00  0.00     0.049 A 
ATOM     49  H   UNL     1       7.012  14.594  -2.191  1.00  0.00     0.167 HD
ATOM     50  C   UNL     1      11.264  13.809  -1.365  1.00  0.00     0.037 A 
ATOM     51  C   UNL     1       4.713  16.176  -2.347  1.00  0.00     0.037 A 
ATOM     52  C   UNL     1      11.076  15.214  -1.128  1.00  0.00     0.049 A 
ATOM     53  C   UNL     1       5.827  17.082  -1.896  1.00  0.00     0.074 A 
ATOM     54  C   UNL     1      12.017  16.156  -0.755  1.00  0.00     0.029 A 
ATOM     55  N   UNL     1       9.865  15.882  -1.252  1.00  0.00    -0.354 N 
ATOM     56  N   UNL     1       7.090  16.792  -1.684  1.00  0.00    -0.248 NA
ATOM     57  C   UNL     1       5.486  18.490  -1.658  1.00  0.00     0.031 C 
ATOM     58  C   UNL     1      11.367  17.385  -0.609  1.00  0.00     0.029 A 
ATOM     59  C   UNL     1      10.034  17.221  -0.950  1.00  0.00     0.049 A 
ATOM     60  H   UNL     1       9.014  15.464  -1.516  1.00  0.00     0.167 HD
ATOM     61  C   UNL     1       7.700  17.988  -1.321  1.00  0.00     0.074 A 
ATOM     62  C   UNL     1       6.669  19.005  -1.348  1.00  0.00     0.031 C 
ATOM     63  C   UNL     1       8.996  18.222  -0.999  1.00  0.00     0.037 A 
BRANCH  50  64
ATOM     64  C   UNL     1      12.640  13.229  -1.177  1.00  0.00     0.058 A 
ATOM     65  C   UNL     1      13.220  13.158   0.100  1.00  0.00     0.135 A 
ATOM     66  C   UNL     1      13.411  12.790  -2.267  1.00  0.00     0.135 A 
ATOM     67  F   UNL     1      12.528  13.555   1.180  1.00  0.00    -0.206 F 
ATOM     68  C   UNL     1      14.517  12.691   0.287  1.00  0.00     0.059 A 
ATOM     69  C   UNL     1      14.698  12.289  -2.100  1.00  0.00     0.059 A 
ATOM     70  F   UNL     1      12.898  12.810  -3.508  1.00  0.00    -0.206 F 
ATOM     71  C   UNL     1      15.249  12.258  -0.820  1.00  0.00     0.060 A 
BRANCH  71  72
ATOM     72  S   UNL     1      16.920  11.629  -0.556  1.00  0.00     0.124 S 
ATOM     73  O   UNL     1      17.639  12.838  -0.171  1.00  0.00    -0.237 OA
ATOM     74  O   UNL     1      16.712  10.646   0.502  1.00  0.00    -0.237 OA
ATOM     75  O   UNL     1      17.280  11.069  -1.856  1.00  0.00    -0.744 OA
ENDBRANCH  71  72
ENDBRANCH  50  64
BRANCH  51  76
ATOM     76  C   UNL     1       3.336  16.694  -2.570  1.00  0.00     0.058 A 
ATOM     77  C   UNL     1       2.263  16.297  -1.757  1.00  0.00     0.135 A 
ATOM     78  C   UNL     1       3.059  17.567  -3.634  1.00  0.00     0.135 A 
ATOM     79  F   UNL     1       2.470  15.453  -0.734  1.00  0.00    -0.206 F 
ATOM     80  C   UNL     1       0.963  16.725  -2.004  1.00  0.00     0.059 A 
ATOM     81  C   UNL     1       1.770  18.032  -3.885  1.00  0.00     0.059 A 
ATOM     82  F   UNL     1       4.052  17.983  -4.435  1.00  0.00    -0.206 F 
ATOM     83  C   UNL     1       0.726  17.591  -3.073  1.00  0.00     0.060 A 
BRANCH  83  84
ATOM     84  S   UNL     1      -0.971  18.125  -3.382  1.00  0.00     0.124 S 
ATOM     85  O   UNL     1      -1.596  16.878  -3.811  1.00  0.00    -0.237 OA
ATOM     86  O   UNL     1      -1.377  18.622  -2.071  1.00  0.00    -0.237 OA
ATOM     87  O   UNL     1      -0.823  19.142  -4.418  1.00  0.00    -0.744 OA
ENDBRANCH  83  84
ENDBRANCH  51  76
BRANCH  63  88
ATOM     88  C   UNL     1       9.397  19.638  -0.689  1.00  0.00     0.058 A 
ATOM     89  C   UNL     1      10.245  20.338  -1.564  1.00  0.00     0.135 A 
ATOM     90  C   UNL     1       9.027  20.266   0.509  1.00  0.00     0.135 A 
ATOM     91  F   UNL     1      10.637  19.778  -2.720  1.00  0.00    -0.206 F 
ATOM     92  C   UNL     1      10.727  21.602  -1.251  1.00  0.00     0.059 A 
ATOM     93  C   UNL     1       9.473  21.545   0.828  1.00  0.00     0.059 A 
ATOM     94  F   UNL     1       8.213  19.642   1.375  1.00  0.00    -0.206 F 
ATOM     95  C   UNL     1      10.338  22.198  -0.051  1.00  0.00     0.060 A 
BRANCH  95  96
ATOM     96  S   UNL     1      10.969  23.844   0.333  1.00  0.00     0.124 S 
ATOM     97  O   UNL     1      12.379  23.573   0.589  1.00  0.00    -0.237 OA
ATOM     98  O   UNL     1      10.676  24.579  -0.893  1.00  0.00    -0.237 OA
ATOM     99  O   UNL     1      10.184  24.244   1.498  1.00  0.00    -0.744 OA
ENDBRANCH  95  96
ENDBRANCH  63  88
ENDBRANCH  37  38
ENDBRANCH  29  32
ENDBRANCH  27  28
ENDBRANCH  26  27
ENDBRANCH   1  26
TORSDOF 18
