REMARK SMILES O=C(NCCCNC(=O)c1ccc(-c2c3nc(c(-c4c(F)cc(S(=O)(=O)[O-])cc4F)c4ccc([nH]4)c(-c4c(F)cc(S(=O)(=O)[O-])cc4F)c4nc(c(-c5c(F)cc(S(=O)(=O)[O-])cc5F)c5ccc2[nH]5)C=C4)C=C3)cc1)C1=Cc2c(cc(Cl)c(Cl)c2Cl)O[C@H]1C(F)(F)F
REMARK SMILES IDX 6 1 5 2 4 3 3 4 1 5 2 6 76 8 77 9 88 10 78 11 87 12 79 13
REMARK SMILES IDX 85 14 80 15 83 16 86 17 81 18 84 19 82 20 89 21 90 22 91 23
REMARK SMILES IDX 92 24 7 25 8 26 9 28 10 29 11 30 75 31 12 32 74 33 13 34
REMARK SMILES IDX 14 35 15 36 68 37 16 38 73 39 67 40 69 41 17 42 72 43 66 44
REMARK SMILES IDX 65 45 18 47 52 48 31 49 51 50 32 51 35 52 50 53 70 54 33 55
REMARK SMILES IDX 34 56 49 58 71 59 36 60 19 61 20 62 29 63 21 64 22 65 28 66
REMARK SMILES IDX 30 67 23 68 24 69 25 70 26 71 27 72 53 73 54 74 63 75 55 76
REMARK SMILES IDX 56 77 62 78 64 79 57 80 58 81 59 82 60 83 61 84 37 85 38 86
REMARK SMILES IDX 47 87 39 88 40 89 46 90 48 91 41 92 42 93 43 94 44 95 45 96
REMARK H PARENT 3 7 7 27 69 46 35 57
REMARK Flexibility Score: inf
ROOT
ATOM      1  C   UNL     1       3.818   1.013   3.909  1.00  0.00     0.118 C 
ENDROOT
BRANCH   1   2
ATOM      2  C   UNL     1       4.106   1.456   2.488  1.00  0.00     0.042 C 
BRANCH   2   3
ATOM      3  C   UNL     1       3.819   0.422   1.425  1.00  0.00     0.118 C 
BRANCH   3   4
ATOM      4  N   UNL     1       2.477   0.355   0.892  1.00  0.00    -0.352 N 
ATOM      5  O   UNL     1       0.930  -0.084  -0.696  1.00  0.00    -0.270 OA
ATOM      6  C   UNL     1       2.106  -0.102  -0.348  1.00  0.00     0.251 C 
ATOM      7  H   UNL     1       1.754   0.670   1.480  1.00  0.00     0.163 HD
BRANCH   6   8
ATOM      8  C   UNL     1       3.142  -0.574  -1.312  1.00  0.00     0.067 C 
ATOM      9  C   UNL     1       3.734  -1.763  -1.098  1.00  0.00     0.027 C 
ATOM     10  C   UNL     1       3.858   0.512  -2.074  1.00  0.00     0.314 C 
ATOM     11  C   UNL     1       5.134  -1.590  -0.622  1.00  0.00     0.037 A 
ATOM     12  O   UNL     1       5.309   0.494  -1.881  1.00  0.00    -0.475 OA
ATOM     13  C   UNL     1       5.817  -0.421  -0.992  1.00  0.00     0.131 A 
ATOM     14  C   UNL     1       5.678  -2.441   0.361  1.00  0.00     0.072 A 
ATOM     15  C   UNL     1       6.987  -0.056  -0.331  1.00  0.00     0.069 A 
ATOM     16  C   UNL     1       6.839  -2.056   1.055  1.00  0.00     0.079 A 
ATOM     17  Cl  UNL     1       4.830  -3.903   0.773  1.00  0.00    -0.082 Cl
ATOM     18  C   UNL     1       7.467  -0.844   0.722  1.00  0.00     0.064 A 
ATOM     19  Cl  UNL     1       7.447  -3.028   2.357  1.00  0.00    -0.081 Cl
ATOM     20  Cl  UNL     1       8.797  -0.211   1.629  1.00  0.00    -0.083 Cl
BRANCH  10  21
ATOM     21  C   UNL     1       3.516   0.480  -3.578  1.00  0.00     0.429 C 
ATOM     22  F   UNL     1       2.579  -0.446  -3.887  1.00  0.00    -0.167 F 
ATOM     23  F   UNL     1       3.045   1.679  -3.997  1.00  0.00    -0.167 F 
ATOM     24  F   UNL     1       4.603   0.193  -4.335  1.00  0.00    -0.167 F 
ENDBRANCH  10  21
ENDBRANCH   6   8
ENDBRANCH   3   4
ENDBRANCH   2   3
ENDBRANCH   1   2
BRANCH   1  25
ATOM     25  N   UNL     1       4.556  -0.173   4.337  1.00  0.00    -0.352 N 
ATOM     26  C   UNL     1       5.487  -0.372   5.332  1.00  0.00     0.251 C 
ATOM     27  H   UNL     1       4.349  -0.983   3.816  1.00  0.00     0.163 HD
ATOM     28  O   UNL     1       6.000  -1.486   5.444  1.00  0.00    -0.269 OA
BRANCH  26  29
ATOM     29  C   UNL     1       5.902   0.719   6.244  1.00  0.00     0.039 A 
ATOM     30  C   UNL     1       7.215   0.753   6.727  1.00  0.00     0.014 A 
ATOM     31  C   UNL     1       5.005   1.702   6.651  1.00  0.00     0.014 A 
ATOM     32  C   UNL     1       7.630   1.806   7.551  1.00  0.00     0.010 A 
ATOM     33  C   UNL     1       5.457   2.827   7.325  1.00  0.00     0.010 A 
ATOM     34  C   UNL     1       6.762   2.875   7.826  1.00  0.00    -0.014 A 
BRANCH  34  35
ATOM     35  C   UNL     1       7.152   4.016   8.696  1.00  0.00     0.031 A 
ATOM     36  C   UNL     1       6.330   4.328   9.925  1.00  0.00     0.074 A 
ATOM     37  C   UNL     1       8.179   4.814   8.345  1.00  0.00     0.049 A 
ATOM     38  N   UNL     1       6.423   5.338  10.751  1.00  0.00    -0.248 NA
ATOM     39  C   UNL     1       5.218   3.411  10.236  1.00  0.00     0.031 C 
ATOM     40  C   UNL     1       9.003   4.662   7.143  1.00  0.00     0.029 A 
ATOM     41  N   UNL     1       8.703   5.920   8.964  1.00  0.00    -0.354 N 
ATOM     42  C   UNL     1       5.367   5.194  11.646  1.00  0.00     0.074 A 
ATOM     43  C   UNL     1       4.598   4.051  11.213  1.00  0.00     0.031 C 
ATOM     44  C   UNL     1       9.951   5.613   7.135  1.00  0.00     0.029 A 
ATOM     45  C   UNL     1       9.781   6.465   8.306  1.00  0.00     0.049 A 
ATOM     46  H   UNL     1       8.341   6.290   9.802  1.00  0.00     0.167 HD
ATOM     47  C   UNL     1       5.085   5.919  12.754  1.00  0.00     0.037 A 
ATOM     48  C   UNL     1      10.546   7.528   8.619  1.00  0.00     0.037 A 
ATOM     49  C   UNL     1       5.894   7.016  13.212  1.00  0.00     0.049 A 
ATOM     50  C   UNL     1      10.252   8.284   9.886  1.00  0.00     0.074 A 
ATOM     51  C   UNL     1       5.749   7.777  14.358  1.00  0.00     0.029 A 
ATOM     52  N   UNL     1       7.015   7.498  12.550  1.00  0.00    -0.354 N 
ATOM     53  N   UNL     1       9.284   8.099  10.753  1.00  0.00    -0.248 NA
ATOM     54  C   UNL     1      11.166   9.381  10.229  1.00  0.00     0.031 C 
ATOM     55  C   UNL     1       6.761   8.744  14.369  1.00  0.00     0.029 A 
ATOM     56  C   UNL     1       7.567   8.551  13.258  1.00  0.00     0.049 A 
ATOM     57  H   UNL     1       7.366   7.142  11.702  1.00  0.00     0.167 HD
ATOM     58  C   UNL     1       9.489   9.036  11.760  1.00  0.00     0.074 A 
ATOM     59  C   UNL     1      10.684   9.773  11.400  1.00  0.00     0.031 C 
ATOM     60  C   UNL     1       8.760   9.267  12.881  1.00  0.00     0.037 A 
BRANCH  47  61
ATOM     61  C   UNL     1       3.864   5.534  13.549  1.00  0.00     0.058 A 
ATOM     62  C   UNL     1       3.787   4.315  14.246  1.00  0.00     0.135 A 
ATOM     63  C   UNL     1       2.757   6.394  13.623  1.00  0.00     0.135 A 
ATOM     64  F   UNL     1       4.807   3.443  14.198  1.00  0.00    -0.206 F 
ATOM     65  C   UNL     1       2.644   3.945  14.948  1.00  0.00     0.059 A 
ATOM     66  C   UNL     1       1.616   6.060  14.348  1.00  0.00     0.059 A 
ATOM     67  F   UNL     1       2.771   7.571  12.977  1.00  0.00    -0.206 F 
ATOM     68  C   UNL     1       1.563   4.825  14.992  1.00  0.00     0.060 A 
BRANCH  68  69
ATOM     69  S   UNL     1       0.087   4.329  15.905  1.00  0.00     0.124 S 
ATOM     70  O   UNL     1      -0.479   3.319  15.017  1.00  0.00    -0.237 OA
ATOM     71  O   UNL     1       0.647   3.830  17.157  1.00  0.00    -0.237 OA
ATOM     72  O   UNL     1      -0.678   5.568  16.014  1.00  0.00    -0.744 OA
ENDBRANCH  68  69
ENDBRANCH  47  61
BRANCH  48  73
ATOM     73  C   UNL     1      11.693   7.902   7.747  1.00  0.00     0.058 A 
ATOM     74  C   UNL     1      13.016   7.703   8.170  1.00  0.00     0.135 A 
ATOM     75  C   UNL     1      11.493   8.445   6.468  1.00  0.00     0.135 A 
ATOM     76  F   UNL     1      13.260   7.189   9.386  1.00  0.00    -0.206 F 
ATOM     77  C   UNL     1      14.100   8.045   7.368  1.00  0.00     0.059 A 
ATOM     78  C   UNL     1      12.560   8.770   5.636  1.00  0.00     0.059 A 
ATOM     79  F   UNL     1      10.248   8.636   6.006  1.00  0.00    -0.206 F 
ATOM     80  C   UNL     1      13.861   8.576   6.100  1.00  0.00     0.060 A 
BRANCH  80  81
ATOM     81  S   UNL     1      15.275   8.969   5.046  1.00  0.00     0.124 S 
ATOM     82  O   UNL     1      15.803  10.163   5.696  1.00  0.00    -0.237 OA
ATOM     83  O   UNL     1      16.089   7.763   5.164  1.00  0.00    -0.237 OA
ATOM     84  O   UNL     1      14.667   9.179   3.735  1.00  0.00    -0.744 OA
ENDBRANCH  80  81
ENDBRANCH  48  73
BRANCH  60  85
ATOM     85  C   UNL     1       9.264  10.331  13.816  1.00  0.00     0.058 A 
ATOM     86  C   UNL     1       9.211  11.694  13.486  1.00  0.00     0.135 A 
ATOM     87  C   UNL     1       9.794   9.978  15.068  1.00  0.00     0.135 A 
ATOM     88  F   UNL     1       8.713  12.084  12.302  1.00  0.00    -0.206 F 
ATOM     89  C   UNL     1       9.714  12.667  14.343  1.00  0.00     0.059 A 
ATOM     90  C   UNL     1      10.272  10.936  15.954  1.00  0.00     0.059 A 
ATOM     91  F   UNL     1       9.850   8.689  15.440  1.00  0.00    -0.206 F 
ATOM     92  C   UNL     1      10.249  12.277  15.572  1.00  0.00     0.060 A 
BRANCH  92  93
ATOM     93  S   UNL     1      10.911  13.546  16.671  1.00  0.00     0.124 S 
ATOM     94  O   UNL     1      12.174  13.869  16.016  1.00  0.00    -0.237 OA
ATOM     95  O   UNL     1       9.882  14.580  16.611  1.00  0.00    -0.237 OA
ATOM     96  O   UNL     1      11.025  12.858  17.954  1.00  0.00    -0.744 OA
ENDBRANCH  92  93
ENDBRANCH  60  85
ENDBRANCH  34  35
ENDBRANCH  26  29
ENDBRANCH   1  25
TORSDOF 14
