REMARK SMILES CCC[C@](C)(Nc1cccc(Br)c1)C(=O)NCCCNC(=O)c1ccc(-c2c3nc(c(-c4c(F)cc(S(=O)(=O)[O-])cc4F)c4ccc([nH]4)c(-c4c(F)cc(S(=O)(=O)[O-])cc4F)c4nc(c(-c5c(F)cc(S(=O)(=O)[O-])cc5F)c5ccc2[nH]5)C=C4)C=C3)cc1
REMARK SMILES IDX 18 1 17 2 16 3 14 4 15 5 4 7 5 8 3 9 2 10 1 11 6 12 7 14
REMARK SMILES IDX 8 15 13 16 9 17 11 18 10 19 12 20 19 21 20 22 21 23 22 25
REMARK SMILES IDX 23 26 24 27 88 28 25 29 87 30 26 31 27 32 28 33 81 34 29 35
REMARK SMILES IDX 86 36 80 37 82 38 30 39 85 40 79 41 78 42 31 44 65 45 44 46
REMARK SMILES IDX 64 47 45 48 48 49 63 50 83 51 46 52 47 53 62 55 84 56 49 57
REMARK SMILES IDX 32 58 33 59 42 60 34 61 35 62 41 63 43 64 36 65 37 66 38 67
REMARK SMILES IDX 39 68 40 69 66 70 67 71 76 72 68 73 69 74 75 75 77 76 70 77
REMARK SMILES IDX 71 78 72 79 73 80 74 81 50 82 51 83 60 84 52 85 53 86 59 87
REMARK SMILES IDX 61 88 54 89 55 90 56 91 57 92 58 93
REMARK H PARENT 16 6 6 13 20 24 82 43 48 54
REMARK Flexibility Score: inf
ROOT
ATOM      1  C   UNL     1      -0.176  -2.361   5.664  1.00  0.00     0.042 C 
ENDROOT
BRANCH   1   2
ATOM      2  C   UNL     1      -0.941  -1.890   4.433  1.00  0.00     0.117 C 
BRANCH   2   3
ATOM      3  N   UNL     1      -0.241  -0.936   3.588  1.00  0.00    -0.354 N 
ATOM      4  C   UNL     1       0.371  -1.068   2.373  1.00  0.00     0.245 C 
ATOM      5  O   UNL     1       0.827  -0.025   1.885  1.00  0.00    -0.272 OA
ATOM      6  H   UNL     1      -0.201  -0.025   3.960  1.00  0.00     0.163 HD
BRANCH   4   7
ATOM      7  C   UNL     1       0.478  -2.431   1.623  1.00  0.00     0.114 C 
ATOM      8  C   UNL     1       1.298  -2.243   0.324  1.00  0.00     0.045 C 
BRANCH   7   9
ATOM      9  C   UNL     1      -0.975  -2.843   1.205  1.00  0.00     0.038 C 
BRANCH   9  10
ATOM     10  C   UNL     1      -1.278  -4.310   0.866  1.00  0.00    -0.000 C 
ATOM     11  C   UNL     1      -1.425  -5.236   2.069  1.00  0.00     0.004 C 
ENDBRANCH   9  10
ENDBRANCH   7   9
BRANCH   7  12
ATOM     12  N   UNL     1       1.158  -3.499   2.388  1.00  0.00    -0.371 N 
ATOM     13  H   UNL     1       0.744  -4.389   2.305  1.00  0.00     0.161 HD
BRANCH  12  14
ATOM     14  C   UNL     1       2.280  -3.457   3.202  1.00  0.00     0.036 A 
ATOM     15  C   UNL     1       2.818  -2.310   3.792  1.00  0.00     0.026 A 
ATOM     16  C   UNL     1       2.858  -4.686   3.575  1.00  0.00     0.041 A 
ATOM     17  C   UNL     1       3.833  -2.382   4.760  1.00  0.00     0.003 A 
ATOM     18  C   UNL     1       3.899  -4.758   4.506  1.00  0.00     0.020 A 
ATOM     19  C   UNL     1       4.373  -3.610   5.122  1.00  0.00     0.016 A 
ATOM     20  Br  UNL     1       4.659  -6.436   4.934  1.00  0.00    -0.051 Br
ENDBRANCH  12  14
ENDBRANCH   7  12
ENDBRANCH   4   7
ENDBRANCH   2   3
ENDBRANCH   1   2
BRANCH   1  21
ATOM     21  C   UNL     1       0.497  -1.269   6.483  1.00  0.00     0.118 C 
BRANCH  21  22
ATOM     22  N   UNL     1      -0.458  -0.410   7.162  1.00  0.00    -0.352 N 
ATOM     23  C   UNL     1      -0.678  -0.214   8.504  1.00  0.00     0.251 C 
ATOM     24  H   UNL     1      -1.040   0.116   6.566  1.00  0.00     0.163 HD
ATOM     25  O   UNL     1      -1.666   0.426   8.855  1.00  0.00    -0.269 OA
BRANCH  23  26
ATOM     26  C   UNL     1       0.237  -0.775   9.528  1.00  0.00     0.039 A 
ATOM     27  C   UNL     1      -0.320  -1.305  10.697  1.00  0.00     0.014 A 
ATOM     28  C   UNL     1       1.628  -0.736   9.385  1.00  0.00     0.014 A 
ATOM     29  C   UNL     1       0.507  -1.834  11.691  1.00  0.00     0.010 A 
ATOM     30  C   UNL     1       2.450  -1.328  10.348  1.00  0.00     0.010 A 
ATOM     31  C   UNL     1       1.901  -1.873  11.517  1.00  0.00    -0.014 A 
BRANCH  31  32
ATOM     32  C   UNL     1       2.776  -2.478  12.557  1.00  0.00     0.031 A 
ATOM     33  C   UNL     1       3.751  -1.630  13.330  1.00  0.00     0.074 A 
ATOM     34  C   UNL     1       2.710  -3.804  12.793  1.00  0.00     0.049 A 
ATOM     35  N   UNL     1       4.574  -1.982  14.286  1.00  0.00    -0.248 NA
ATOM     36  C   UNL     1       3.829  -0.206  12.970  1.00  0.00     0.031 C 
ATOM     37  C   UNL     1       1.851  -4.748  12.075  1.00  0.00     0.029 A 
ATOM     38  N   UNL     1       3.376  -4.588  13.703  1.00  0.00    -0.354 N 
ATOM     39  C   UNL     1       5.270  -0.830  14.635  1.00  0.00     0.074 A 
ATOM     40  C   UNL     1       4.808   0.221  13.754  1.00  0.00     0.031 C 
ATOM     41  C   UNL     1       2.024  -5.977  12.587  1.00  0.00     0.029 A 
ATOM     42  C   UNL     1       3.021  -5.915  13.652  1.00  0.00     0.049 A 
ATOM     43  H   UNL     1       4.044  -4.233  14.332  1.00  0.00     0.167 HD
ATOM     44  C   UNL     1       6.191  -0.657  15.614  1.00  0.00     0.037 A 
ATOM     45  C   UNL     1       3.446  -6.965  14.382  1.00  0.00     0.037 A 
ATOM     46  C   UNL     1       6.634  -1.698  16.506  1.00  0.00     0.049 A 
ATOM     47  C   UNL     1       4.451  -6.744  15.479  1.00  0.00     0.074 A 
ATOM     48  C   UNL     1       7.513  -1.603  17.572  1.00  0.00     0.029 A 
ATOM     49  N   UNL     1       6.236  -3.025  16.436  1.00  0.00    -0.354 N 
ATOM     50  N   UNL     1       5.038  -5.630  15.846  1.00  0.00    -0.248 NA
ATOM     51  C   UNL     1       4.840  -7.920  16.269  1.00  0.00     0.031 C 
ATOM     52  C   UNL     1       7.677  -2.880  18.122  1.00  0.00     0.029 A 
ATOM     53  C   UNL     1       6.866  -3.762  17.426  1.00  0.00     0.049 A 
ATOM     54  H   UNL     1       5.599  -3.389  15.780  1.00  0.00     0.167 HD
ATOM     55  C   UNL     1       5.852  -5.968  16.922  1.00  0.00     0.074 A 
ATOM     56  C   UNL     1       5.667  -7.385  17.157  1.00  0.00     0.031 C 
ATOM     57  C   UNL     1       6.679  -5.174  17.648  1.00  0.00     0.037 A 
BRANCH  44  58
ATOM     58  C   UNL     1       6.783   0.717  15.776  1.00  0.00     0.058 A 
ATOM     59  C   UNL     1       6.033   1.786  16.293  1.00  0.00     0.135 A 
ATOM     60  C   UNL     1       8.126   0.961  15.444  1.00  0.00     0.135 A 
ATOM     61  F   UNL     1       4.741   1.612  16.614  1.00  0.00    -0.206 F 
ATOM     62  C   UNL     1       6.582   3.055  16.445  1.00  0.00     0.059 A 
ATOM     63  C   UNL     1       8.704   2.217  15.613  1.00  0.00     0.059 A 
ATOM     64  F   UNL     1       8.890  -0.025  14.949  1.00  0.00    -0.206 F 
ATOM     65  C   UNL     1       7.919   3.261  16.099  1.00  0.00     0.060 A 
BRANCH  65  66
ATOM     66  S   UNL     1       8.618   4.914  16.302  1.00  0.00     0.124 S 
ATOM     67  O   UNL     1       8.014   5.623  15.178  1.00  0.00    -0.237 OA
ATOM     68  O   UNL     1       8.138   5.298  17.625  1.00  0.00    -0.237 OA
ATOM     69  O   UNL     1      10.057   4.688  16.202  1.00  0.00    -0.744 OA
ENDBRANCH  65  66
ENDBRANCH  44  58
BRANCH  45  70
ATOM     70  C   UNL     1       2.894  -8.320  14.116  1.00  0.00     0.058 A 
ATOM     71  C   UNL     1       2.003  -8.927  15.013  1.00  0.00     0.135 A 
ATOM     72  C   UNL     1       3.232  -9.026  12.951  1.00  0.00     0.135 A 
ATOM     73  F   UNL     1       1.655  -8.294  16.144  1.00  0.00    -0.206 F 
ATOM     74  C   UNL     1       1.476 -10.191  14.773  1.00  0.00     0.059 A 
ATOM     75  C   UNL     1       2.700 -10.281  12.677  1.00  0.00     0.059 A 
ATOM     76  F   UNL     1       4.069  -8.481  12.054  1.00  0.00    -0.206 F 
ATOM     77  C   UNL     1       1.828 -10.860  13.599  1.00  0.00     0.060 A 
BRANCH  77  78
ATOM     78  S   UNL     1       1.093 -12.476  13.266  1.00  0.00     0.124 S 
ATOM     79  O   UNL     1       1.842 -13.333  14.177  1.00  0.00    -0.237 OA
ATOM     80  O   UNL     1      -0.309 -12.252  13.607  1.00  0.00    -0.237 OA
ATOM     81  O   UNL     1       1.358 -12.677  11.845  1.00  0.00    -0.744 OA
ENDBRANCH  77  78
ENDBRANCH  45  70
BRANCH  57  82
ATOM     82  C   UNL     1       7.431  -5.820  18.780  1.00  0.00     0.058 A 
ATOM     83  C   UNL     1       8.504  -6.694  18.547  1.00  0.00     0.135 A 
ATOM     84  C   UNL     1       7.087  -5.545  20.113  1.00  0.00     0.135 A 
ATOM     85  F   UNL     1       8.870  -6.995  17.291  1.00  0.00    -0.206 F 
ATOM     86  C   UNL     1       9.188  -7.300  19.596  1.00  0.00     0.059 A 
ATOM     87  C   UNL     1       7.774  -6.119  21.178  1.00  0.00     0.059 A 
ATOM     88  F   UNL     1       6.076  -4.706  20.392  1.00  0.00    -0.206 F 
ATOM     89  C   UNL     1       8.813  -7.010  20.909  1.00  0.00     0.060 A 
BRANCH  89  90
ATOM     90  S   UNL     1       9.711  -7.796  22.264  1.00  0.00     0.124 S 
ATOM     91  O   UNL     1       9.151  -9.143  22.244  1.00  0.00    -0.237 OA
ATOM     92  O   UNL     1      11.100  -7.680  21.830  1.00  0.00    -0.237 OA
ATOM     93  O   UNL     1       9.354  -6.984  23.423  1.00  0.00    -0.744 OA
ENDBRANCH  89  90
ENDBRANCH  57  82
ENDBRANCH  31  32
ENDBRANCH  23  26
ENDBRANCH  21  22
ENDBRANCH   1  21
TORSDOF 17
