REMARK SMILES Cn1cc(C(=O)NCCCNC(=O)c2ccc(-c3c4nc(c(-c5c(F)cc(S(=O)(=O)[O-])cc5F)c5ccc([nH]5)c(-c5c(F)cc(S(=O)(=O)[O-])cc5F)c5nc(c(-c6c(F)cc(S(=O)(=O)[O-])cc6F)c6ccc3[nH]6)C=C5)C=C4)cc2)c(C(=O)Nc2ccc(-c3nc4cc(Cl)ccc4o3)cc2)n1
REMARK SMILES IDX 9 1 8 2 7 3 5 4 6 5 4 7 1 8 2 9 3 10 100 11 80 12 81 13
REMARK SMILES IDX 82 14 83 15 84 17 85 18 99 19 86 20 98 21 87 22 88 23 89 24
REMARK SMILES IDX 97 25 90 26 96 27 91 28 95 29 92 30 94 31 93 32 10 33 11 34
REMARK SMILES IDX 12 35 13 37 14 38 15 39 79 40 16 41 78 42 17 43 18 44 19 45
REMARK SMILES IDX 72 46 20 47 77 48 71 49 73 50 21 51 76 52 70 53 69 54 22 56
REMARK SMILES IDX 56 57 35 58 55 59 36 60 39 61 54 62 74 63 37 64 38 65 53 67
REMARK SMILES IDX 75 68 40 69 23 70 24 71 33 72 25 73 26 74 32 75 34 76 27 77
REMARK SMILES IDX 28 78 29 79 30 80 31 81 57 82 58 83 67 84 59 85 60 86 66 87
REMARK SMILES IDX 68 88 61 89 62 90 63 91 64 92 65 93 41 94 42 95 51 96 43 97
REMARK SMILES IDX 44 98 50 99 52 100 45 101 46 102 47 103 48 104 49 105
REMARK H PARENT 7 6 83 16 11 36 73 55 39 66
REMARK Flexibility Score: inf
ROOT
ATOM      1  C   UNL     1       0.419  -4.351  -0.445  1.00  0.00     0.042 C 
ENDROOT
BRANCH   1   2
ATOM      2  C   UNL     1       0.484  -3.931   1.023  1.00  0.00     0.118 C 
BRANCH   2   3
ATOM      3  N   UNL     1       1.591  -3.072   1.402  1.00  0.00    -0.352 N 
ATOM      4  C   UNL     1       1.769  -1.709   1.365  1.00  0.00     0.255 C 
ATOM      5  O   UNL     1       2.671  -1.254   2.071  1.00  0.00    -0.269 OA
ATOM      6  H   UNL     1       2.369  -3.562   1.755  1.00  0.00     0.163 HD
BRANCH   4   7
ATOM      7  C   UNL     1       0.960  -0.839   0.525  1.00  0.00     0.090 A 
ATOM      8  C   UNL     1      -2.023   0.519  -0.990  1.00  0.00     0.173 C 
ATOM      9  N   UNL     1      -0.705   0.151  -0.529  1.00  0.00    -0.274 N 
ATOM     10  C   UNL     1      -0.361  -0.983   0.140  1.00  0.00     0.123 A 
ATOM     11  N   UNL     1       0.302   1.014  -0.669  1.00  0.00    -0.167 NA
ATOM     12  C   UNL     1       1.335   0.455  -0.005  1.00  0.00     0.163 A 
BRANCH  12  13
ATOM     13  C   UNL     1       2.574   1.245   0.172  1.00  0.00     0.276 C 
ATOM     14  O   UNL     1       2.530   2.445   0.467  1.00  0.00    -0.267 OA
ATOM     15  N   UNL     1       3.829   0.681   0.102  1.00  0.00    -0.321 N 
ATOM     16  H   UNL     1       4.545   1.259   0.451  1.00  0.00     0.170 HD
BRANCH  15  17
ATOM     17  C   UNL     1       4.277  -0.555  -0.369  1.00  0.00     0.041 A 
ATOM     18  C   UNL     1       5.401  -1.093   0.267  1.00  0.00     0.027 A 
ATOM     19  C   UNL     1       3.655  -1.268  -1.392  1.00  0.00     0.027 A 
ATOM     20  C   UNL     1       5.796  -2.403   0.001  1.00  0.00     0.016 A 
ATOM     21  C   UNL     1       4.089  -2.562  -1.698  1.00  0.00     0.016 A 
ATOM     22  C   UNL     1       5.115  -3.163  -0.955  1.00  0.00     0.037 A 
BRANCH  22  23
ATOM     23  C   UNL     1       5.386  -4.585  -1.088  1.00  0.00     0.227 A 
ATOM     24  N   UNL     1       5.513  -5.338  -2.164  1.00  0.00    -0.209 NA
ATOM     25  O   UNL     1       5.344  -5.280   0.097  1.00  0.00    -0.436 OA
ATOM     26  C   UNL     1       5.594  -6.615  -1.659  1.00  0.00     0.111 A 
ATOM     27  C   UNL     1       5.452  -6.583  -0.281  1.00  0.00     0.155 A 
ATOM     28  C   UNL     1       5.742  -7.852  -2.297  1.00  0.00     0.053 A 
ATOM     29  C   UNL     1       5.405  -7.699   0.542  1.00  0.00     0.051 A 
ATOM     30  C   UNL     1       5.693  -9.003  -1.498  1.00  0.00     0.043 A 
ATOM     31  C   UNL     1       5.519  -8.932  -0.110  1.00  0.00     0.024 A 
ATOM     32  Cl  UNL     1       5.829 -10.549  -2.244  1.00  0.00    -0.084 Cl
ENDBRANCH  22  23
ENDBRANCH  15  17
ENDBRANCH  12  13
ENDBRANCH   4   7
ENDBRANCH   2   3
ENDBRANCH   1   2
BRANCH   1  33
ATOM     33  C   UNL     1       1.520  -5.295  -0.934  1.00  0.00     0.118 C 
BRANCH  33  34
ATOM     34  N   UNL     1       1.699  -6.479  -0.112  1.00  0.00    -0.352 N 
ATOM     35  C   UNL     1       1.732  -7.819  -0.404  1.00  0.00     0.251 C 
ATOM     36  H   UNL     1       1.821  -6.281   0.845  1.00  0.00     0.163 HD
ATOM     37  O   UNL     1       1.838  -8.603   0.540  1.00  0.00    -0.269 OA
BRANCH  35  38
ATOM     38  C   UNL     1       1.638  -8.361  -1.784  1.00  0.00     0.039 A 
ATOM     39  C   UNL     1       0.971  -9.583  -1.958  1.00  0.00     0.014 A 
ATOM     40  C   UNL     1       2.261  -7.767  -2.884  1.00  0.00     0.014 A 
ATOM     41  C   UNL     1       0.882 -10.176  -3.222  1.00  0.00     0.010 A 
ATOM     42  C   UNL     1       2.162  -8.351  -4.152  1.00  0.00     0.010 A 
ATOM     43  C   UNL     1       1.465  -9.554  -4.333  1.00  0.00    -0.014 A 
BRANCH  43  44
ATOM     44  C   UNL     1       1.304 -10.113  -5.698  1.00  0.00     0.031 A 
ATOM     45  C   UNL     1       2.421 -10.862  -6.364  1.00  0.00     0.074 A 
ATOM     46  C   UNL     1       0.161  -9.879  -6.368  1.00  0.00     0.049 A 
ATOM     47  N   UNL     1       2.499 -11.302  -7.594  1.00  0.00    -0.248 NA
ATOM     48  C   UNL     1       3.605 -11.147  -5.543  1.00  0.00     0.031 C 
ATOM     49  C   UNL     1      -0.994  -9.156  -5.834  1.00  0.00     0.029 A 
ATOM     50  N   UNL     1      -0.205 -10.198  -7.651  1.00  0.00    -0.354 N 
ATOM     51  C   UNL     1       3.746 -11.903  -7.703  1.00  0.00     0.074 A 
ATOM     52  C   UNL     1       4.393 -11.766  -6.413  1.00  0.00     0.031 C 
ATOM     53  C   UNL     1      -1.931  -9.061  -6.791  1.00  0.00     0.029 A 
ATOM     54  C   UNL     1      -1.433  -9.697  -8.009  1.00  0.00     0.049 A 
ATOM     55  H   UNL     1       0.357 -10.734  -8.255  1.00  0.00     0.167 HD
ATOM     56  C   UNL     1       4.300 -12.513  -8.779  1.00  0.00     0.037 A 
ATOM     57  C   UNL     1      -2.076  -9.719  -9.192  1.00  0.00     0.037 A 
ATOM     58  C   UNL     1       3.656 -12.661 -10.059  1.00  0.00     0.049 A 
ATOM     59  C   UNL     1      -1.447 -10.400 -10.370  1.00  0.00     0.074 A 
ATOM     60  C   UNL     1       4.132 -13.288 -11.198  1.00  0.00     0.029 A 
ATOM     61  N   UNL     1       2.395 -12.176 -10.370  1.00  0.00    -0.354 N 
ATOM     62  N   UNL     1      -0.273 -10.978 -10.452  1.00  0.00    -0.248 NA
ATOM     63  C   UNL     1      -2.228 -10.436 -11.614  1.00  0.00     0.031 C 
ATOM     64  C   UNL     1       3.163 -13.170 -12.203  1.00  0.00     0.029 A 
ATOM     65  C   UNL     1       2.078 -12.483 -11.684  1.00  0.00     0.049 A 
ATOM     66  H   UNL     1       1.810 -11.685  -9.749  1.00  0.00     0.167 HD
ATOM     67  C   UNL     1      -0.177 -11.456 -11.753  1.00  0.00     0.074 A 
ATOM     68  C   UNL     1      -1.413 -11.103 -12.422  1.00  0.00     0.031 C 
ATOM     69  C   UNL     1       0.844 -12.129 -12.336  1.00  0.00     0.037 A 
BRANCH  56  70
ATOM     70  C   UNL     1       5.687 -13.059  -8.617  1.00  0.00     0.058 A 
ATOM     71  C   UNL     1       5.917 -14.295  -7.995  1.00  0.00     0.135 A 
ATOM     72  C   UNL     1       6.795 -12.349  -9.106  1.00  0.00     0.135 A 
ATOM     73  F   UNL     1       4.889 -15.004  -7.502  1.00  0.00    -0.206 F 
ATOM     74  C   UNL     1       7.204 -14.802  -7.843  1.00  0.00     0.059 A 
ATOM     75  C   UNL     1       8.089 -12.842  -8.975  1.00  0.00     0.059 A 
ATOM     76  F   UNL     1       6.624 -11.161  -9.707  1.00  0.00    -0.206 F 
ATOM     77  C   UNL     1       8.285 -14.063  -8.328  1.00  0.00     0.060 A 
BRANCH  77  78
ATOM     78  S   UNL     1       9.957 -14.714  -8.125  1.00  0.00     0.124 S 
ATOM     79  O   UNL     1      10.286 -14.253  -6.780  1.00  0.00    -0.237 OA
ATOM     80  O   UNL     1       9.763 -16.154  -8.270  1.00  0.00    -0.237 OA
ATOM     81  O   UNL     1      10.697 -14.075  -9.209  1.00  0.00    -0.744 OA
ENDBRANCH  77  78
ENDBRANCH  56  70
BRANCH  57  82
ATOM     82  C   UNL     1      -3.395  -9.054  -9.305  1.00  0.00     0.058 A 
ATOM     83  C   UNL     1      -4.583  -9.792  -9.228  1.00  0.00     0.135 A 
ATOM     84  C   UNL     1      -3.487  -7.659  -9.418  1.00  0.00     0.135 A 
ATOM     85  F   UNL     1      -4.536 -11.128  -9.123  1.00  0.00    -0.206 F 
ATOM     86  C   UNL     1      -5.825  -9.167  -9.245  1.00  0.00     0.059 A 
ATOM     87  C   UNL     1      -4.717  -7.011  -9.426  1.00  0.00     0.059 A 
ATOM     88  F   UNL     1      -2.372  -6.914  -9.480  1.00  0.00    -0.206 F 
ATOM     89  C   UNL     1      -5.881  -7.775  -9.338  1.00  0.00     0.060 A 
BRANCH  89  90
ATOM     90  S   UNL     1      -7.486  -6.950  -9.247  1.00  0.00     0.124 S 
ATOM     91  O   UNL     1      -7.918  -6.996 -10.638  1.00  0.00    -0.237 OA
ATOM     92  O   UNL     1      -8.227  -7.801  -8.319  1.00  0.00    -0.237 OA
ATOM     93  O   UNL     1      -7.145  -5.628  -8.729  1.00  0.00    -0.744 OA
ENDBRANCH  89  90
ENDBRANCH  57  82
BRANCH  69  94
ATOM     94  C   UNL     1       0.659 -12.545 -13.764  1.00  0.00     0.058 A 
ATOM     95  C   UNL     1       0.914 -11.657 -14.819  1.00  0.00     0.135 A 
ATOM     96  C   UNL     1       0.257 -13.851 -14.080  1.00  0.00     0.135 A 
ATOM     97  F   UNL     1       1.294 -10.396 -14.564  1.00  0.00    -0.206 F 
ATOM     98  C   UNL     1       0.768 -12.049 -16.146  1.00  0.00     0.059 A 
ATOM     99  C   UNL     1       0.111 -14.266 -15.400  1.00  0.00     0.059 A 
ATOM    100  F   UNL     1       0.002 -14.735 -13.103  1.00  0.00    -0.206 F 
ATOM    101  C   UNL     1       0.360 -13.355 -16.427  1.00  0.00     0.060 A 
BRANCH 101 102
ATOM    102  S   UNL     1       0.197 -13.875 -18.149  1.00  0.00     0.124 S 
ATOM    103  O   UNL     1      -1.153 -13.420 -18.465  1.00  0.00    -0.237 OA
ATOM    104  O   UNL     1       1.280 -13.151 -18.808  1.00  0.00    -0.237 OA
ATOM    105  O   UNL     1       0.375 -15.322 -18.078  1.00  0.00    -0.744 OA
ENDBRANCH 101 102
ENDBRANCH  69  94
ENDBRANCH  43  44
ENDBRANCH  35  38
ENDBRANCH  33  34
ENDBRANCH   1  33
TORSDOF 16
