REMARK SMILES O=C(NCCCNC(=O)c1cc(S(=O)(=O)ON2C(=O)c3cccc4cccc(c34)C2=O)ccc1Br)c1ccc(-c2c3nc(c(-c4c(F)cc(S(=O)(=O)[O-])cc4F)c4ccc([nH]4)c(-c4c(F)cc(S(=O)(=O)[O-])cc4F)c4nc(c(-c5c(F)cc(S(=O)(=O)[O-])cc5F)c5ccc2[nH]5)C=C4)C=C3)cc1
REMARK SMILES IDX 5 1 4 2 3 3 1 4 2 5 36 7 37 8 101 9 38 10 100 11 39 12 40 13
REMARK SMILES IDX 41 14 94 15 42 16 99 17 93 18 95 19 43 20 98 21 92 22 91 23
REMARK SMILES IDX 44 25 78 26 57 27 77 28 58 29 61 30 76 31 96 32 59 33 60 34
REMARK SMILES IDX 75 36 97 37 62 38 45 39 46 40 55 41 47 42 48 43 54 44 56 45
REMARK SMILES IDX 49 46 50 47 51 48 52 49 53 50 79 51 80 52 89 53 81 54 82 55
REMARK SMILES IDX 88 56 90 57 83 58 84 59 85 60 86 61 87 62 63 63 64 64 73 65
REMARK SMILES IDX 65 66 66 67 72 68 74 69 67 70 68 71 69 72 70 73 71 74 6 75
REMARK SMILES IDX 7 76 8 77 9 79 10 80 11 81 34 82 12 83 33 84 35 85 32 86
REMARK SMILES IDX 13 87 14 88 15 89 16 90 17 91 18 92 30 93 19 94 20 95 28 96
REMARK SMILES IDX 31 97 21 98 29 99 27 100 22 101 24 102 26 103 23 104 25 105
REMARK H PARENT 3 6 95 24 61 35 7 78
REMARK Flexibility Score: inf
ROOT
ATOM      1  C   UNL     1       4.910  -2.158  -1.057  1.00  0.00     0.042 C 
ENDROOT
BRANCH   1   2
ATOM      2  C   UNL     1       4.541  -0.683  -1.162  1.00  0.00     0.118 C 
BRANCH   2   3
ATOM      3  N   UNL     1       3.111  -0.433  -1.015  1.00  0.00    -0.352 N 
ATOM      4  O   UNL     1       1.166   0.115  -0.031  1.00  0.00    -0.269 OA
ATOM      5  C   UNL     1       2.394   0.153   0.003  1.00  0.00     0.251 C 
ATOM      6  H   UNL     1       2.565  -0.735  -1.776  1.00  0.00     0.163 HD
BRANCH   5   7
ATOM      7  C   UNL     1       3.079   0.794   1.149  1.00  0.00     0.039 A 
ATOM      8  C   UNL     1       4.223   1.568   0.965  1.00  0.00     0.014 A 
ATOM      9  C   UNL     1       2.554   0.634   2.437  1.00  0.00     0.014 A 
ATOM     10  C   UNL     1       4.949   2.004   2.067  1.00  0.00     0.010 A 
ATOM     11  C   UNL     1       3.227   1.173   3.540  1.00  0.00     0.010 A 
ATOM     12  C   UNL     1       4.460   1.819   3.370  1.00  0.00    -0.014 A 
BRANCH  12  13
ATOM     13  C   UNL     1       5.252   2.337   4.519  1.00  0.00     0.031 A 
ATOM     14  C   UNL     1       5.809   1.407   5.567  1.00  0.00     0.074 A 
ATOM     15  C   UNL     1       5.522   3.656   4.580  1.00  0.00     0.049 A 
ATOM     16  N   UNL     1       6.577   1.687   6.590  1.00  0.00    -0.248 NA
ATOM     17  C   UNL     1       5.451  -0.016   5.464  1.00  0.00     0.031 C 
ATOM     18  C   UNL     1       5.025   4.661   3.635  1.00  0.00     0.029 A 
ATOM     19  N   UNL     1       6.306   4.378   5.444  1.00  0.00    -0.354 N 
ATOM     20  C   UNL     1       6.769   0.487   7.267  1.00  0.00     0.074 A 
ATOM     21  C   UNL     1       6.020  -0.522   6.550  1.00  0.00     0.031 C 
ATOM     22  C   UNL     1       5.572   5.849   3.925  1.00  0.00     0.029 A 
ATOM     23  C   UNL     1       6.407   5.708   5.112  1.00  0.00     0.049 A 
ATOM     24  H   UNL     1       6.752   3.981   6.226  1.00  0.00     0.167 HD
ATOM     25  C   UNL     1       7.509   0.248   8.378  1.00  0.00     0.037 A 
ATOM     26  C   UNL     1       7.094   6.708   5.696  1.00  0.00     0.037 A 
ATOM     27  C   UNL     1       8.283   1.250   9.067  1.00  0.00     0.049 A 
ATOM     28  C   UNL     1       7.917   6.413   6.916  1.00  0.00     0.074 A 
ATOM     29  C   UNL     1       9.102   1.096  10.172  1.00  0.00     0.029 A 
ATOM     30  N   UNL     1       8.335   2.591   8.717  1.00  0.00    -0.354 N 
ATOM     31  N   UNL     1       8.107   5.266   7.522  1.00  0.00    -0.248 NA
ATOM     32  C   UNL     1       8.612   7.548   7.536  1.00  0.00     0.031 C 
ATOM     33  C   UNL     1       9.619   2.351  10.514  1.00  0.00     0.029 A 
ATOM     34  C   UNL     1       9.157   3.280   9.596  1.00  0.00     0.049 A 
ATOM     35  H   UNL     1       7.859   2.996   7.956  1.00  0.00     0.167 HD
ATOM     36  C   UNL     1       8.958   5.537   8.587  1.00  0.00     0.074 A 
ATOM     37  C   UNL     1       9.258   6.955   8.530  1.00  0.00     0.031 C 
ATOM     38  C   UNL     1       9.445   4.690   9.527  1.00  0.00     0.037 A 
BRANCH  25  39
ATOM     39  C   UNL     1       7.502  -1.150   8.935  1.00  0.00     0.058 A 
ATOM     40  C   UNL     1       8.177  -2.206   8.303  1.00  0.00     0.135 A 
ATOM     41  C   UNL     1       6.836  -1.430  10.140  1.00  0.00     0.135 A 
ATOM     42  F   UNL     1       8.818  -1.999   7.141  1.00  0.00    -0.206 F 
ATOM     43  C   UNL     1       8.167  -3.495   8.829  1.00  0.00     0.059 A 
ATOM     44  C   UNL     1       6.834  -2.706  10.697  1.00  0.00     0.059 A 
ATOM     45  F   UNL     1       6.177  -0.457  10.790  1.00  0.00    -0.206 F 
ATOM     46  C   UNL     1       7.489  -3.736  10.025  1.00  0.00     0.060 A 
BRANCH  46  47
ATOM     47  S   UNL     1       7.477  -5.415  10.691  1.00  0.00     0.124 S 
ATOM     48  O   UNL     1       6.524  -6.073   9.804  1.00  0.00    -0.237 OA
ATOM     49  O   UNL     1       8.870  -5.824  10.538  1.00  0.00    -0.237 OA
ATOM     50  O   UNL     1       7.030  -5.231  12.068  1.00  0.00    -0.744 OA
ENDBRANCH  46  47
ENDBRANCH  25  39
BRANCH  26  51
ATOM     51  C   UNL     1       7.038   8.076   5.119  1.00  0.00     0.058 A 
ATOM     52  C   UNL     1       8.151   8.634   4.475  1.00  0.00     0.135 A 
ATOM     53  C   UNL     1       5.860   8.839   5.171  1.00  0.00     0.135 A 
ATOM     54  F   UNL     1       9.300   7.945   4.405  1.00  0.00    -0.206 F 
ATOM     55  C   UNL     1       8.104   9.904   3.909  1.00  0.00     0.059 A 
ATOM     56  C   UNL     1       5.780  10.099   4.589  1.00  0.00     0.059 A 
ATOM     57  F   UNL     1       4.762   8.341   5.761  1.00  0.00    -0.206 F 
ATOM     58  C   UNL     1       6.911  10.627   3.968  1.00  0.00     0.060 A 
BRANCH  58  59
ATOM     59  S   UNL     1       6.838  12.250   3.179  1.00  0.00     0.124 S 
ATOM     60  O   UNL     1       7.557  13.076   4.142  1.00  0.00    -0.237 OA
ATOM     61  O   UNL     1       7.518  12.008   1.911  1.00  0.00    -0.237 OA
ATOM     62  O   UNL     1       5.404  12.505   3.073  1.00  0.00    -0.744 OA
ENDBRANCH  58  59
ENDBRANCH  26  51
BRANCH  38  63
ATOM     63  C   UNL     1      10.374   5.273  10.553  1.00  0.00     0.058 A 
ATOM     64  C   UNL     1       9.905   6.094  11.590  1.00  0.00     0.135 A 
ATOM     65  C   UNL     1      11.749   4.991  10.508  1.00  0.00     0.135 A 
ATOM     66  F   UNL     1       8.600   6.400  11.671  1.00  0.00    -0.206 F 
ATOM     67  C   UNL     1      10.771   6.640  12.531  1.00  0.00     0.059 A 
ATOM     68  C   UNL     1      12.630   5.507  11.453  1.00  0.00     0.059 A 
ATOM     69  F   UNL     1      12.247   4.204   9.541  1.00  0.00    -0.206 F 
ATOM     70  C   UNL     1      12.133   6.344  12.451  1.00  0.00     0.060 A 
BRANCH  70  71
ATOM     71  S   UNL     1      13.249   7.047  13.685  1.00  0.00     0.124 S 
ATOM     72  O   UNL     1      13.384   8.419  13.209  1.00  0.00    -0.237 OA
ATOM     73  O   UNL     1      12.497   6.876  14.924  1.00  0.00    -0.237 OA
ATOM     74  O   UNL     1      14.446   6.219  13.568  1.00  0.00    -0.744 OA
ENDBRANCH  70  71
ENDBRANCH  38  63
ENDBRANCH  12  13
ENDBRANCH   5   7
ENDBRANCH   2   3
ENDBRANCH   1   2
BRANCH   1  75
ATOM     75  C   UNL     1       4.314  -3.038  -2.145  1.00  0.00     0.118 C 
BRANCH  75  76
ATOM     76  N   UNL     1       4.730  -2.651  -3.484  1.00  0.00    -0.352 N 
ATOM     77  C   UNL     1       5.364  -3.391  -4.447  1.00  0.00     0.252 C 
ATOM     78  H   UNL     1       4.527  -1.721  -3.735  1.00  0.00     0.163 HD
ATOM     79  O   UNL     1       5.660  -2.891  -5.528  1.00  0.00    -0.269 OA
BRANCH  77  80
ATOM     80  C   UNL     1       5.769  -4.778  -4.165  1.00  0.00     0.055 A 
ATOM     81  C   UNL     1       7.144  -5.019  -4.101  1.00  0.00     0.038 A 
ATOM     82  C   UNL     1       4.867  -5.835  -4.006  1.00  0.00     0.030 A 
ATOM     83  C   UNL     1       7.612  -6.310  -3.827  1.00  0.00     0.097 A 
ATOM     84  C   UNL     1       5.348  -7.117  -3.700  1.00  0.00     0.018 A 
ATOM     85  Br  UNL     1       2.993  -5.628  -4.236  1.00  0.00    -0.050 Br
ATOM     86  C   UNL     1       6.724  -7.361  -3.602  1.00  0.00     0.024 A 
BRANCH  83  87
ATOM     87  S   UNL     1       9.381  -6.516  -3.743  1.00  0.00     0.318 S 
ATOM     88  O   UNL     1       9.836  -6.348  -5.107  1.00  0.00    -0.192 OA
ATOM     89  O   UNL     1       9.763  -5.644  -2.647  1.00  0.00    -0.192 OA
BRANCH  87  90
ATOM     90  O   UNL     1       9.626  -8.064  -3.291  1.00  0.00    -0.134 OA
BRANCH  90  91
ATOM     91  N   UNL     1      10.943  -8.606  -3.328  1.00  0.00    -0.127 N 
ATOM     92  C   UNL     1      12.077  -7.817  -3.332  1.00  0.00     0.286 C 
ATOM     93  C   UNL     1      10.900  -9.998  -3.372  1.00  0.00     0.286 C 
ATOM     94  O   UNL     1      12.130  -6.599  -3.443  1.00  0.00    -0.266 OA
ATOM     95  C   UNL     1      13.364  -8.533  -3.190  1.00  0.00     0.051 A 
ATOM     96  C   UNL     1      12.213 -10.689  -3.290  1.00  0.00     0.051 A 
ATOM     97  O   UNL     1       9.870 -10.664  -3.459  1.00  0.00    -0.266 OA
ATOM     98  C   UNL     1      14.546  -7.792  -3.057  1.00  0.00     0.014 A 
ATOM     99  C   UNL     1      13.387  -9.932  -3.176  1.00  0.00     0.007 A 
ATOM    100  C   UNL     1      12.268 -12.089  -3.289  1.00  0.00     0.014 A 
ATOM    101  C   UNL     1      15.765  -8.443  -2.905  1.00  0.00     0.001 A 
ATOM    102  C   UNL     1      14.632 -10.593  -3.038  1.00  0.00    -0.017 A 
ATOM    103  C   UNL     1      13.496 -12.739  -3.165  1.00  0.00     0.001 A 
ATOM    104  C   UNL     1      15.807  -9.836  -2.898  1.00  0.00     0.009 A 
ATOM    105  C   UNL     1      14.669 -11.995  -3.035  1.00  0.00     0.009 A 
ENDBRANCH  90  91
ENDBRANCH  87  90
ENDBRANCH  83  87
ENDBRANCH  77  80
ENDBRANCH  75  76
ENDBRANCH   1  75
TORSDOF 16
