REMARK SMILES O=C(NCCCNC(=O)[C@@]1(c2ccccc2)CCCC[NH2+]1)c1ccc(-c2c3nc(c(-c4c(F)cc(S(=O)(=O)[O-])cc4F)c4ccc([nH]4)c(-c4c(F)cc(S(=O)(=O)[O-])cc4F)c4nc(c(-c5c(F)cc(S(=O)(=O)[O-])cc5F)c5ccc2[nH]5)C=C4)C=C3)cc1
REMARK SMILES IDX 4 1 3 2 1 3 2 4 22 6 23 7 87 8 24 9 86 10 25 11 26 12 27 13
REMARK SMILES IDX 80 14 28 15 85 16 79 17 81 18 29 19 84 20 78 21 77 22 30 24
REMARK SMILES IDX 64 25 43 26 63 27 44 28 47 29 62 30 82 31 45 32 46 33 61 35
REMARK SMILES IDX 83 36 48 37 31 38 32 39 41 40 33 41 34 42 40 43 42 44 35 45
REMARK SMILES IDX 36 46 37 47 38 48 39 49 65 50 66 51 75 52 67 53 68 54 74 55
REMARK SMILES IDX 76 56 69 57 70 58 71 59 72 60 73 61 49 62 50 63 59 64 51 65
REMARK SMILES IDX 52 66 58 67 60 68 53 69 54 70 55 71 56 72 57 73 5 74 6 75
REMARK SMILES IDX 7 76 8 77 9 79 10 80 17 81 21 82 18 83 20 84 19 87 11 88
REMARK SMILES IDX 12 89 16 90 13 91 15 92 14 93
REMARK H PARENT 3 5 81 23 47 34 7 78 21 85 21 86
REMARK Flexibility Score: inf
ROOT
ATOM      1  C   UNL     1       8.878   1.083  -9.419  1.00  0.00     0.118 C 
ENDROOT
BRANCH   1   2
ATOM      2  N   UNL     1       8.069   2.226  -9.831  1.00  0.00    -0.352 N 
ATOM      3  O   UNL     1       7.629   4.347 -10.459  1.00  0.00    -0.269 OA
ATOM      4  C   UNL     1       8.454   3.452 -10.326  1.00  0.00     0.251 C 
ATOM      5  H   UNL     1       7.097   2.100  -9.740  1.00  0.00     0.163 HD
BRANCH   4   6
ATOM      6  C   UNL     1       9.874   3.685 -10.663  1.00  0.00     0.039 A 
ATOM      7  C   UNL     1      10.605   2.699 -11.321  1.00  0.00     0.014 A 
ATOM      8  C   UNL     1      10.490   4.882 -10.289  1.00  0.00     0.014 A 
ATOM      9  C   UNL     1      11.983   2.806 -11.398  1.00  0.00     0.010 A 
ATOM     10  C   UNL     1      11.863   5.048 -10.500  1.00  0.00     0.010 A 
ATOM     11  C   UNL     1      12.630   3.992 -11.015  1.00  0.00    -0.014 A 
BRANCH  11  12
ATOM     12  C   UNL     1      14.095   4.103 -11.234  1.00  0.00     0.031 A 
ATOM     13  C   UNL     1      15.046   4.321 -10.090  1.00  0.00     0.074 A 
ATOM     14  C   UNL     1      14.563   3.939 -12.488  1.00  0.00     0.049 A 
ATOM     15  N   UNL     1      16.351   4.418 -10.118  1.00  0.00    -0.248 NA
ATOM     16  C   UNL     1      14.467   4.460  -8.744  1.00  0.00     0.031 C 
ATOM     17  C   UNL     1      13.727   3.732 -13.676  1.00  0.00     0.029 A 
ATOM     18  N   UNL     1      15.842   3.882 -12.974  1.00  0.00    -0.354 N 
ATOM     19  C   UNL     1      16.747   4.666  -8.808  1.00  0.00     0.074 A 
ATOM     20  C   UNL     1      15.542   4.713  -8.008  1.00  0.00     0.031 C 
ATOM     21  C   UNL     1      14.512   3.494 -14.734  1.00  0.00     0.029 A 
ATOM     22  C   UNL     1      15.904   3.619 -14.322  1.00  0.00     0.049 A 
ATOM     23  H   UNL     1      16.639   4.016 -12.412  1.00  0.00     0.167 HD
ATOM     24  C   UNL     1      18.001   4.837  -8.324  1.00  0.00     0.037 A 
ATOM     25  C   UNL     1      16.961   3.511 -15.147  1.00  0.00     0.037 A 
ATOM     26  C   UNL     1      19.194   4.753  -9.128  1.00  0.00     0.049 A 
ATOM     27  C   UNL     1      18.336   3.692 -14.582  1.00  0.00     0.074 A 
ATOM     28  C   UNL     1      20.513   4.881  -8.728  1.00  0.00     0.029 A 
ATOM     29  N   UNL     1      19.215   4.516 -10.496  1.00  0.00    -0.354 N 
ATOM     30  N   UNL     1      18.688   3.927 -13.340  1.00  0.00    -0.248 NA
ATOM     31  C   UNL     1      19.456   3.610 -15.526  1.00  0.00     0.031 C 
ATOM     32  C   UNL     1      21.329   4.755  -9.859  1.00  0.00     0.029 A 
ATOM     33  C   UNL     1      20.521   4.510 -10.958  1.00  0.00     0.049 A 
ATOM     34  H   UNL     1      18.417   4.373 -11.056  1.00  0.00     0.167 HD
ATOM     35  C   UNL     1      20.072   4.024 -13.352  1.00  0.00     0.074 A 
ATOM     36  C   UNL     1      20.494   3.794 -14.721  1.00  0.00     0.031 C 
ATOM     37  C   UNL     1      20.916   4.287 -12.326  1.00  0.00     0.037 A 
BRANCH  24  38
ATOM     38  C   UNL     1      18.152   5.156  -6.861  1.00  0.00     0.058 A 
ATOM     39  C   UNL     1      17.963   4.185  -5.866  1.00  0.00     0.135 A 
ATOM     40  C   UNL     1      18.538   6.444  -6.453  1.00  0.00     0.135 A 
ATOM     41  F   UNL     1      17.579   2.942  -6.198  1.00  0.00    -0.206 F 
ATOM     42  C   UNL     1      18.131   4.484  -4.516  1.00  0.00     0.059 A 
ATOM     43  C   UNL     1      18.732   6.760  -5.111  1.00  0.00     0.059 A 
ATOM     44  F   UNL     1      18.732   7.411  -7.363  1.00  0.00    -0.206 F 
ATOM     45  C   UNL     1      18.513   5.775  -4.148  1.00  0.00     0.060 A 
BRANCH  45  46
ATOM     46  S   UNL     1      18.730   6.149  -2.395  1.00  0.00     0.124 S 
ATOM     47  O   UNL     1      17.344   6.226  -1.942  1.00  0.00    -0.237 OA
ATOM     48  O   UNL     1      19.487   4.995  -1.919  1.00  0.00    -0.237 OA
ATOM     49  O   UNL     1      19.459   7.413  -2.404  1.00  0.00    -0.744 OA
ENDBRANCH  45  46
ENDBRANCH  24  38
BRANCH  25  50
ATOM     50  C   UNL     1      16.737   3.239 -16.590  1.00  0.00     0.058 A 
ATOM     51  C   UNL     1      17.060   1.997 -17.151  1.00  0.00     0.135 A 
ATOM     52  C   UNL     1      16.136   4.199 -17.420  1.00  0.00     0.135 A 
ATOM     53  F   UNL     1      17.637   1.049 -16.397  1.00  0.00    -0.206 F 
ATOM     54  C   UNL     1      16.795   1.713 -18.487  1.00  0.00     0.059 A 
ATOM     55  C   UNL     1      15.837   3.930 -18.750  1.00  0.00     0.059 A 
ATOM     56  F   UNL     1      15.789   5.396 -16.922  1.00  0.00    -0.206 F 
ATOM     57  C   UNL     1      16.177   2.685 -19.277  1.00  0.00     0.060 A 
BRANCH  57  58
ATOM     58  S   UNL     1      15.765   2.285 -20.989  1.00  0.00     0.124 S 
ATOM     59  O   UNL     1      17.063   2.415 -21.640  1.00  0.00    -0.237 OA
ATOM     60  O   UNL     1      15.241   0.928 -20.872  1.00  0.00    -0.237 OA
ATOM     61  O   UNL     1      14.776   3.300 -21.339  1.00  0.00    -0.744 OA
ENDBRANCH  57  58
ENDBRANCH  25  50
BRANCH  37  62
ATOM     62  C   UNL     1      22.381   4.331 -12.650  1.00  0.00     0.058 A 
ATOM     63  C   UNL     1      22.948   5.422 -13.325  1.00  0.00     0.135 A 
ATOM     64  C   UNL     1      23.228   3.283 -12.258  1.00  0.00     0.135 A 
ATOM     65  F   UNL     1      22.175   6.443 -13.729  1.00  0.00    -0.206 F 
ATOM     66  C   UNL     1      24.305   5.463 -13.623  1.00  0.00     0.059 A 
ATOM     67  C   UNL     1      24.592   3.314 -12.526  1.00  0.00     0.059 A 
ATOM     68  F   UNL     1      22.733   2.221 -11.604  1.00  0.00    -0.206 F 
ATOM     69  C   UNL     1      25.119   4.403 -13.221  1.00  0.00     0.060 A 
BRANCH  69  70
ATOM     70  S   UNL     1      26.884   4.475 -13.592  1.00  0.00     0.124 S 
ATOM     71  O   UNL     1      26.899   4.131 -15.010  1.00  0.00    -0.237 OA
ATOM     72  O   UNL     1      27.217   5.859 -13.271  1.00  0.00    -0.237 OA
ATOM     73  O   UNL     1      27.459   3.475 -12.696  1.00  0.00    -0.744 OA
ENDBRANCH  69  70
ENDBRANCH  37  62
ENDBRANCH  11  12
ENDBRANCH   4   6
ENDBRANCH   1   2
BRANCH   1  74
ATOM     74  C   UNL     1       8.879   0.864  -7.916  1.00  0.00     0.042 C 
BRANCH  74  75
ATOM     75  C   UNL     1       7.520   0.488  -7.367  1.00  0.00     0.118 C 
BRANCH  75  76
ATOM     76  N   UNL     1       7.020  -0.764  -7.914  1.00  0.00    -0.350 N 
ATOM     77  C   UNL     1       6.183  -1.690  -7.347  1.00  0.00     0.286 C 
ATOM     78  H   UNL     1       7.328  -0.978  -8.824  1.00  0.00     0.163 HD
ATOM     79  O   UNL     1       5.667  -2.503  -8.120  1.00  0.00    -0.267 OA
BRANCH  77  80
ATOM     80  C   UNL     1       5.946  -1.718  -5.784  1.00  0.00     0.201 C 
ATOM     81  C   UNL     1       4.922  -2.814  -5.392  1.00  0.00     0.085 C 
ATOM     82  N   UNL     1       7.255  -2.024  -5.123  1.00  0.00    -0.330 N 
ATOM     83  C   UNL     1       5.428  -4.245  -5.604  1.00  0.00     0.013 C 
ATOM     84  C   UNL     1       7.773  -3.351  -5.456  1.00  0.00     0.261 C 
ATOM     85  H   UNL     1       7.129  -1.970  -4.113  1.00  0.00     0.347 HD
ATOM     86  H   UNL     1       7.933  -1.341  -5.462  1.00  0.00     0.347 HD
ATOM     87  C   UNL     1       6.815  -4.444  -5.011  1.00  0.00     0.062 C 
BRANCH  80  88
ATOM     88  C   UNL     1       5.376  -0.357  -5.311  1.00  0.00     0.022 A 
ATOM     89  C   UNL     1       5.780   0.224  -4.095  1.00  0.00     0.011 A 
ATOM     90  C   UNL     1       4.497   0.380  -6.131  1.00  0.00     0.011 A 
ATOM     91  C   UNL     1       5.411   1.531  -3.767  1.00  0.00     0.001 A 
ATOM     92  C   UNL     1       4.144   1.693  -5.810  1.00  0.00     0.001 A 
ATOM     93  C   UNL     1       4.616   2.273  -4.636  1.00  0.00     0.000 A 
ENDBRANCH  80  88
ENDBRANCH  77  80
ENDBRANCH  75  76
ENDBRANCH  74  75
ENDBRANCH   1  74
TORSDOF 14
