REMARK SMILES CCCCCC(=O)N1CCC[C@H](C(=O)NCCCNC(=O)c2ccc(-c3c4nc(c(-c5c(F)cc(S(=O)(=O)[O-])cc5F)c5ccc([nH]5)c(-c5c(F)cc(S(=O)(=O)[O-])cc5F)c5nc(c(-c6c(F)cc(S(=O)(=O)[O-])cc6F)c6ccc3[nH]6)C=C5)C=C4)cc2)C1
REMARK SMILES IDX 16 1 15 2 13 3 14 4 12 6 8 7 9 8 88 9 10 10 11 11 6 12 7 13
REMARK SMILES IDX 5 14 4 15 3 16 2 17 1 18 17 19 18 20 19 21 20 22 21 24 22 25
REMARK SMILES IDX 23 26 87 27 24 28 86 29 25 30 26 31 27 32 80 33 28 34 85 35
REMARK SMILES IDX 79 36 81 37 29 38 84 39 78 40 77 41 30 43 64 44 43 45 63 46
REMARK SMILES IDX 44 47 47 48 62 49 82 50 45 51 46 52 61 54 83 55 48 56 31 57
REMARK SMILES IDX 32 58 41 59 33 60 34 61 40 62 42 63 35 64 36 65 37 66 38 67
REMARK SMILES IDX 39 68 65 69 66 70 75 71 67 72 68 73 74 74 76 75 69 76 70 77
REMARK SMILES IDX 71 78 72 79 73 80 49 81 50 82 59 83 51 84 52 85 58 86 60 87
REMARK SMILES IDX 53 88 54 89 55 90 56 91 57 92
REMARK H PARENT 15 5 19 23 81 42 47 53
REMARK Flexibility Score: inf
ROOT
ATOM      1  C   UNL     1      -1.390  -6.346   1.616  1.00  0.00     0.117 C 
ENDROOT
BRANCH   1   2
ATOM      2  N   UNL     1      -0.121  -6.922   1.232  1.00  0.00    -0.356 N 
ATOM      3  C   UNL     1       0.699  -6.643   0.189  1.00  0.00     0.224 C 
ATOM      4  O   UNL     1       1.778  -7.246   0.157  1.00  0.00    -0.275 OA
ATOM      5  H   UNL     1       0.202  -7.636   1.828  1.00  0.00     0.163 HD
BRANCH   3   6
ATOM      6  C   UNL     1       0.360  -5.646  -0.924  1.00  0.00     0.098 C 
ATOM      7  N   UNL     1      -1.214  -3.725  -0.387  1.00  0.00    -0.342 N 
ATOM      8  C   UNL     1      -2.082  -4.123  -1.500  1.00  0.00     0.119 C 
ATOM      9  C   UNL     1       0.160  -4.203  -0.450  1.00  0.00     0.132 C 
ATOM     10  C   UNL     1      -2.062  -5.621  -1.767  1.00  0.00     0.022 C 
ATOM     11  C   UNL     1      -0.652  -6.160  -1.945  1.00  0.00     0.017 C 
BRANCH   7  12
ATOM     12  C   UNL     1      -1.771  -2.985   0.639  1.00  0.00     0.222 C 
ATOM     13  O   UNL     1      -2.999  -3.009   0.810  1.00  0.00    -0.275 OA
BRANCH  12  14
ATOM     14  C   UNL     1      -0.990  -2.030   1.550  1.00  0.00     0.100 C 
BRANCH  14  15
ATOM     15  C   UNL     1       0.509  -1.972   1.815  1.00  0.00     0.010 C 
BRANCH  15  16
ATOM     16  C   UNL     1       1.468  -1.527   0.701  1.00  0.00     0.000 C 
BRANCH  16  17
ATOM     17  C   UNL     1       0.903  -0.612  -0.384  1.00  0.00    -0.003 C 
ATOM     18  C   UNL     1       0.933   0.850   0.024  1.00  0.00     0.004 C 
ENDBRANCH  16  17
ENDBRANCH  15  16
ENDBRANCH  14  15
ENDBRANCH  12  14
ENDBRANCH   7  12
ENDBRANCH   3   6
ENDBRANCH   1   2
BRANCH   1  19
ATOM     19  C   UNL     1      -2.554  -7.297   1.419  1.00  0.00     0.042 C 
BRANCH  19  20
ATOM     20  C   UNL     1      -2.916  -8.030   2.692  1.00  0.00     0.118 C 
BRANCH  20  21
ATOM     21  N   UNL     1      -3.521  -7.149   3.688  1.00  0.00    -0.352 N 
ATOM     22  C   UNL     1      -4.750  -7.221   4.306  1.00  0.00     0.251 C 
ATOM     23  H   UNL     1      -2.963  -6.385   3.961  1.00  0.00     0.163 HD
ATOM     24  O   UNL     1      -5.136  -6.303   5.012  1.00  0.00    -0.269 OA
BRANCH  22  25
ATOM     25  C   UNL     1      -5.608  -8.405   4.079  1.00  0.00     0.039 A 
ATOM     26  C   UNL     1      -6.979  -8.230   3.877  1.00  0.00     0.014 A 
ATOM     27  C   UNL     1      -5.048  -9.681   4.027  1.00  0.00     0.014 A 
ATOM     28  C   UNL     1      -7.771  -9.333   3.548  1.00  0.00     0.010 A 
ATOM     29  C   UNL     1      -5.806 -10.744   3.565  1.00  0.00     0.010 A 
ATOM     30  C   UNL     1      -7.182 -10.591   3.348  1.00  0.00    -0.014 A 
BRANCH  30  31
ATOM     31  C   UNL     1      -7.973 -11.789   2.972  1.00  0.00     0.031 A 
ATOM     32  C   UNL     1      -7.949 -12.996   3.874  1.00  0.00     0.074 A 
ATOM     33  C   UNL     1      -8.626 -11.829   1.795  1.00  0.00     0.049 A 
ATOM     34  N   UNL     1      -8.439 -14.191   3.674  1.00  0.00    -0.248 NA
ATOM     35  C   UNL     1      -7.226 -12.853   5.149  1.00  0.00     0.031 C 
ATOM     36  C   UNL     1      -8.679 -10.743   0.813  1.00  0.00     0.029 A 
ATOM     37  N   UNL     1      -9.365 -12.831   1.220  1.00  0.00    -0.354 N 
ATOM     38  C   UNL     1      -8.046 -14.946   4.773  1.00  0.00     0.074 A 
ATOM     39  C   UNL     1      -7.216 -14.098   5.597  1.00  0.00     0.031 C 
ATOM     40  C   UNL     1      -9.445 -11.123  -0.222  1.00  0.00     0.029 A 
ATOM     41  C   UNL     1      -9.901 -12.492  -0.000  1.00  0.00     0.049 A 
ATOM     42  H   UNL     1      -9.500 -13.710   1.641  1.00  0.00     0.167 HD
ATOM     43  C   UNL     1      -8.375 -16.221   5.088  1.00  0.00     0.037 A 
ATOM     44  C   UNL     1     -10.673 -13.206  -0.841  1.00  0.00     0.037 A 
ATOM     45  C   UNL     1      -9.251 -17.035   4.290  1.00  0.00     0.049 A 
ATOM     46  C   UNL     1     -11.057 -14.609  -0.460  1.00  0.00     0.074 A 
ATOM     47  C   UNL     1      -9.714 -18.312   4.546  1.00  0.00     0.029 A 
ATOM     48  N   UNL     1      -9.805 -16.640   3.079  1.00  0.00    -0.354 N 
ATOM     49  N   UNL     1     -10.720 -15.295   0.608  1.00  0.00    -0.248 NA
ATOM     50  C   UNL     1     -11.929 -15.335  -1.393  1.00  0.00     0.031 C 
ATOM     51  C   UNL     1     -10.523 -18.703   3.472  1.00  0.00     0.029 A 
ATOM     52  C   UNL     1     -10.597 -17.653   2.569  1.00  0.00     0.049 A 
ATOM     53  H   UNL     1      -9.656 -15.768   2.647  1.00  0.00     0.167 HD
ATOM     54  C   UNL     1     -11.363 -16.522   0.490  1.00  0.00     0.074 A 
ATOM     55  C   UNL     1     -12.111 -16.482  -0.751  1.00  0.00     0.031 C 
ATOM     56  C   UNL     1     -11.340 -17.584   1.334  1.00  0.00     0.037 A 
BRANCH  43  57
ATOM     57  C   UNL     1      -7.784 -16.792   6.349  1.00  0.00     0.058 A 
ATOM     58  C   UNL     1      -8.141 -16.307   7.620  1.00  0.00     0.135 A 
ATOM     59  C   UNL     1      -6.821 -17.811   6.288  1.00  0.00     0.135 A 
ATOM     60  F   UNL     1      -9.045 -15.321   7.738  1.00  0.00    -0.206 F 
ATOM     61  C   UNL     1      -7.519 -16.765   8.776  1.00  0.00     0.059 A 
ATOM     62  C   UNL     1      -6.211 -18.311   7.436  1.00  0.00     0.059 A 
ATOM     63  F   UNL     1      -6.444 -18.317   5.104  1.00  0.00    -0.206 F 
ATOM     64  C   UNL     1      -6.547 -17.760   8.673  1.00  0.00     0.060 A 
BRANCH  64  65
ATOM     65  S   UNL     1      -5.714 -18.314  10.175  1.00  0.00     0.124 S 
ATOM     66  O   UNL     1      -4.795 -17.206  10.421  1.00  0.00    -0.237 OA
ATOM     67  O   UNL     1      -6.819 -18.440  11.120  1.00  0.00    -0.237 OA
ATOM     68  O   UNL     1      -5.090 -19.570   9.774  1.00  0.00    -0.744 OA
ENDBRANCH  64  65
ENDBRANCH  43  57
BRANCH  44  69
ATOM     69  C   UNL     1     -11.181 -12.577  -2.088  1.00  0.00     0.058 A 
ATOM     70  C   UNL     1     -12.526 -12.194  -2.196  1.00  0.00     0.135 A 
ATOM     71  C   UNL     1     -10.333 -12.296  -3.171  1.00  0.00     0.135 A 
ATOM     72  F   UNL     1     -13.377 -12.446  -1.190  1.00  0.00    -0.206 F 
ATOM     73  C   UNL     1     -13.015 -11.555  -3.331  1.00  0.00     0.059 A 
ATOM     74  C   UNL     1     -10.793 -11.639  -4.309  1.00  0.00     0.059 A 
ATOM     75  F   UNL     1      -9.033 -12.627  -3.110  1.00  0.00    -0.206 F 
ATOM     76  C   UNL     1     -12.138 -11.275  -4.380  1.00  0.00     0.060 A 
BRANCH  76  77
ATOM     77  S   UNL     1     -12.767 -10.375  -5.814  1.00  0.00     0.124 S 
ATOM     78  O   UNL     1     -13.585 -11.392  -6.465  1.00  0.00    -0.237 OA
ATOM     79  O   UNL     1     -13.494  -9.274  -5.190  1.00  0.00    -0.237 OA
ATOM     80  O   UNL     1     -11.553  -9.989  -6.528  1.00  0.00    -0.744 OA
ENDBRANCH  76  77
ENDBRANCH  44  69
BRANCH  56  81
ATOM     81  C   UNL     1     -12.177 -18.776   0.967  1.00  0.00     0.058 A 
ATOM     82  C   UNL     1     -11.797 -19.657  -0.057  1.00  0.00     0.135 A 
ATOM     83  C   UNL     1     -13.339 -19.075   1.697  1.00  0.00     0.135 A 
ATOM     84  F   UNL     1     -10.698 -19.410  -0.787  1.00  0.00    -0.206 F 
ATOM     85  C   UNL     1     -12.550 -20.787  -0.355  1.00  0.00     0.059 A 
ATOM     86  C   UNL     1     -14.092 -20.213   1.432  1.00  0.00     0.059 A 
ATOM     87  F   UNL     1     -13.738 -18.269   2.693  1.00  0.00    -0.206 F 
ATOM     88  C   UNL     1     -13.694 -21.059   0.398  1.00  0.00     0.060 A 
BRANCH  88  89
ATOM     89  S   UNL     1     -14.637 -22.554   0.031  1.00  0.00     0.124 S 
ATOM     90  O   UNL     1     -15.316 -22.177  -1.205  1.00  0.00    -0.237 OA
ATOM     91  O   UNL     1     -13.588 -23.560  -0.103  1.00  0.00    -0.237 OA
ATOM     92  O   UNL     1     -15.498 -22.707   1.199  1.00  0.00    -0.744 OA
ENDBRANCH  88  89
ENDBRANCH  56  81
ENDBRANCH  30  31
ENDBRANCH  22  25
ENDBRANCH  20  21
ENDBRANCH  19  20
ENDBRANCH   1  19
TORSDOF 18
