REMARK SMILES CCN(c1cccc(F)c1)c1cc(C)c(N)c(C(=O)NCCCNC(=O)c2ccc(-c3c4nc(c(-c5c(F)cc(S(=O)(=O)[O-])cc5F)c5ccc([nH]5)c(-c5c(F)cc(S(=O)(=O)[O-])cc5F)c5nc(c(-c6c(F)cc(S(=O)(=O)[O-])cc6F)c6ccc3[nH]6)C=C5)C=C4)cc2)c1
REMARK SMILES IDX 22 1 21 2 20 3 18 4 19 5 17 7 11 8 12 9 93 10 13 11 14 12
REMARK SMILES IDX 15 13 3 14 2 15 1 16 4 17 5 18 10 19 6 20 8 21 7 22 9 23
REMARK SMILES IDX 16 24 23 27 24 28 25 29 26 31 27 32 28 33 92 34 29 35 91 36
REMARK SMILES IDX 30 37 31 38 32 39 85 40 33 41 90 42 84 43 86 44 34 45 89 46
REMARK SMILES IDX 83 47 82 48 35 50 69 51 48 52 68 53 49 54 52 55 67 56 87 57
REMARK SMILES IDX 50 58 51 59 66 61 88 62 53 63 36 64 37 65 46 66 38 67 39 68
REMARK SMILES IDX 45 69 47 70 40 71 41 72 42 73 43 74 44 75 70 76 71 77 80 78
REMARK SMILES IDX 72 79 73 80 79 81 81 82 74 83 75 84 76 85 77 86 78 87 54 88
REMARK SMILES IDX 55 89 64 90 56 91 57 92 63 93 65 94 58 95 59 96 60 97 61 98
REMARK SMILES IDX 62 99
REMARK H PARENT 20 6 16 25 16 26 24 30 86 49 52 60
REMARK Flexibility Score: inf
ROOT
ATOM      1  C   UNL     1       1.956  -0.120   7.086  1.00  0.00     0.042 C 
ENDROOT
BRANCH   1   2
ATOM      2  C   UNL     1       2.706   1.163   6.720  1.00  0.00     0.118 C 
BRANCH   2   3
ATOM      3  N   UNL     1       4.115   0.891   6.489  1.00  0.00    -0.352 N 
ATOM      4  C   UNL     1       4.869   0.683   5.360  1.00  0.00     0.253 C 
ATOM      5  O   UNL     1       6.070   0.463   5.545  1.00  0.00    -0.269 OA
ATOM      6  H   UNL     1       4.642   0.847   7.320  1.00  0.00     0.163 HD
BRANCH   4   7
ATOM      7  C   UNL     1       4.335   0.753   3.959  1.00  0.00     0.065 A 
ATOM      8  C   UNL     1       2.451   0.657   2.387  1.00  0.00     0.042 A 
ATOM      9  C   UNL     1       3.318   1.015   1.356  1.00  0.00     0.031 A 
ATOM     10  C   UNL     1       2.994   0.478   3.667  1.00  0.00     0.042 A 
ATOM     11  C   UNL     1       4.695   1.191   1.584  1.00  0.00    -0.025 A 
ATOM     12  C   UNL     1       5.578   1.548   0.418  1.00  0.00     0.047 C 
ATOM     13  C   UNL     1       5.216   1.062   2.890  1.00  0.00     0.047 A 
BRANCH   8  14
ATOM     14  N   UNL     1       1.048   0.576   2.209  1.00  0.00    -0.342 N 
BRANCH  14  15
ATOM     15  C   UNL     1       0.548  -0.534   1.373  1.00  0.00     0.119 C 
ATOM     16  C   UNL     1       0.744  -0.294  -0.119  1.00  0.00     0.027 C 
ENDBRANCH  14  15
BRANCH  14  17
ATOM     17  C   UNL     1       0.141   1.246   3.067  1.00  0.00     0.044 A 
ATOM     18  C   UNL     1      -0.963   0.619   3.670  1.00  0.00     0.026 A 
ATOM     19  C   UNL     1       0.376   2.593   3.397  1.00  0.00     0.065 A 
ATOM     20  C   UNL     1      -1.805   1.311   4.552  1.00  0.00     0.005 A 
ATOM     21  C   UNL     1      -0.465   3.275   4.272  1.00  0.00     0.125 A 
ATOM     22  C   UNL     1      -1.555   2.646   4.853  1.00  0.00     0.039 A 
ATOM     23  F   UNL     1      -0.211   4.559   4.564  1.00  0.00    -0.207 F 
ENDBRANCH  14  17
ENDBRANCH   8  14
BRANCH  13  24
ATOM     24  N   UNL     1       6.554   1.406   3.129  1.00  0.00    -0.398 N 
ATOM     25  H   UNL     1       7.150   1.617   2.375  1.00  0.00     0.156 HD
ATOM     26  H   UNL     1       6.897   1.437   4.051  1.00  0.00     0.156 HD
ENDBRANCH  13  24
ENDBRANCH   4   7
ENDBRANCH   2   3
ENDBRANCH   1   2
BRANCH   1  27
ATOM     27  C   UNL     1       2.259  -0.616   8.500  1.00  0.00     0.118 C 
BRANCH  27  28
ATOM     28  N   UNL     1       1.688   0.260   9.511  1.00  0.00    -0.352 N 
ATOM     29  C   UNL     1       0.845  -0.026  10.553  1.00  0.00     0.251 C 
ATOM     30  H   UNL     1       1.948   1.206   9.434  1.00  0.00     0.163 HD
ATOM     31  O   UNL     1       0.293   0.901  11.140  1.00  0.00    -0.269 OA
BRANCH  29  32
ATOM     32  C   UNL     1       0.592  -1.422  10.978  1.00  0.00     0.039 A 
ATOM     33  C   UNL     1      -0.693  -1.760  11.416  1.00  0.00     0.014 A 
ATOM     34  C   UNL     1       1.615  -2.373  11.032  1.00  0.00     0.014 A 
ATOM     35  C   UNL     1      -0.956  -3.049  11.884  1.00  0.00     0.010 A 
ATOM     36  C   UNL     1       1.338  -3.678  11.443  1.00  0.00     0.010 A 
ATOM     37  C   UNL     1       0.054  -4.023  11.891  1.00  0.00    -0.014 A 
BRANCH  37  38
ATOM     38  C   UNL     1      -0.215  -5.394  12.396  1.00  0.00     0.031 A 
ATOM     39  C   UNL     1       0.450  -5.882  13.656  1.00  0.00     0.074 A 
ATOM     40  C   UNL     1      -1.042  -6.207  11.710  1.00  0.00     0.049 A 
ATOM     41  N   UNL     1       0.362  -7.052  14.236  1.00  0.00    -0.248 NA
ATOM     42  C   UNL     1       1.348  -4.940  14.342  1.00  0.00     0.031 C 
ATOM     43  C   UNL     1      -1.720  -5.859  10.460  1.00  0.00     0.029 A 
ATOM     44  N   UNL     1      -1.456  -7.490  11.967  1.00  0.00    -0.354 N 
ATOM     45  C   UNL     1       1.199  -6.990  15.344  1.00  0.00     0.074 A 
ATOM     46  C   UNL     1       1.823  -5.686  15.330  1.00  0.00     0.031 C 
ATOM     47  C   UNL     1      -2.488  -6.891  10.075  1.00  0.00     0.029 A 
ATOM     48  C   UNL     1      -2.336  -7.983  11.033  1.00  0.00     0.049 A 
ATOM     49  H   UNL     1      -1.151  -8.008  12.746  1.00  0.00     0.167 HD
ATOM     50  C   UNL     1       1.410  -7.927  16.300  1.00  0.00     0.037 A 
ATOM     51  C   UNL     1      -2.956  -9.177  10.959  1.00  0.00     0.037 A 
ATOM     52  C   UNL     1       0.763  -9.214  16.325  1.00  0.00     0.049 A 
ATOM     53  C   UNL     1      -2.725 -10.193  12.043  1.00  0.00     0.074 A 
ATOM     54  C   UNL     1       0.887 -10.222  17.265  1.00  0.00     0.029 A 
ATOM     55  N   UNL     1      -0.139  -9.665  15.373  1.00  0.00    -0.354 N 
ATOM     56  N   UNL     1      -1.949 -10.108  13.097  1.00  0.00    -0.248 NA
ATOM     57  C   UNL     1      -3.460 -11.460  11.935  1.00  0.00     0.031 C 
ATOM     58  C   UNL     1       0.081 -11.294  16.867  1.00  0.00     0.029 A 
ATOM     59  C   UNL     1      -0.577 -10.937  15.701  1.00  0.00     0.049 A 
ATOM     60  H   UNL     1      -0.425  -9.157  14.580  1.00  0.00     0.167 HD
ATOM     61  C   UNL     1      -2.122 -11.299  13.793  1.00  0.00     0.074 A 
ATOM     62  C   UNL     1      -3.082 -12.084  13.043  1.00  0.00     0.031 C 
ATOM     63  C   UNL     1      -1.541 -11.702  14.950  1.00  0.00     0.037 A 
BRANCH  50  64
ATOM     64  C   UNL     1       2.370  -7.591  17.407  1.00  0.00     0.058 A 
ATOM     65  C   UNL     1       3.614  -8.237  17.499  1.00  0.00     0.135 A 
ATOM     66  C   UNL     1       2.043  -6.658  18.405  1.00  0.00     0.135 A 
ATOM     67  F   UNL     1       3.981  -9.134  16.570  1.00  0.00    -0.206 F 
ATOM     68  C   UNL     1       4.495  -7.975  18.544  1.00  0.00     0.059 A 
ATOM     69  C   UNL     1       2.920  -6.362  19.445  1.00  0.00     0.059 A 
ATOM     70  F   UNL     1       0.876  -5.996  18.353  1.00  0.00    -0.206 F 
ATOM     71  C   UNL     1       4.139  -7.035  19.512  1.00  0.00     0.060 A 
BRANCH  71  72
ATOM     72  S   UNL     1       5.312  -6.668  20.835  1.00  0.00     0.124 S 
ATOM     73  O   UNL     1       5.219  -7.867  21.660  1.00  0.00    -0.237 OA
ATOM     74  O   UNL     1       6.562  -6.497  20.100  1.00  0.00    -0.237 OA
ATOM     75  O   UNL     1       4.776  -5.448  21.432  1.00  0.00    -0.744 OA
ENDBRANCH  71  72
ENDBRANCH  50  64
BRANCH  51  76
ATOM     76  C   UNL     1      -3.896  -9.444   9.840  1.00  0.00     0.058 A 
ATOM     77  C   UNL     1      -3.435  -9.637   8.529  1.00  0.00     0.135 A 
ATOM     78  C   UNL     1      -5.282  -9.456  10.055  1.00  0.00     0.135 A 
ATOM     79  F   UNL     1      -2.119  -9.623   8.269  1.00  0.00    -0.206 F 
ATOM     80  C   UNL     1      -4.316  -9.804   7.466  1.00  0.00     0.059 A 
ATOM     81  C   UNL     1      -6.183  -9.644   9.011  1.00  0.00     0.059 A 
ATOM     82  F   UNL     1      -5.769  -9.286  11.294  1.00  0.00    -0.206 F 
ATOM     83  C   UNL     1      -5.689  -9.797   7.716  1.00  0.00     0.060 A 
BRANCH  83  84
ATOM     84  S   UNL     1      -6.817  -9.981   6.318  1.00  0.00     0.124 S 
ATOM     85  O   UNL     1      -6.649  -8.699   5.640  1.00  0.00    -0.237 OA
ATOM     86  O   UNL     1      -6.265 -11.142   5.628  1.00  0.00    -0.237 OA
ATOM     87  O   UNL     1      -8.113 -10.190   6.955  1.00  0.00    -0.744 OA
ENDBRANCH  83  84
ENDBRANCH  51  76
BRANCH  63  88
ATOM     88  C   UNL     1      -1.948 -13.039  15.502  1.00  0.00     0.058 A 
ATOM     89  C   UNL     1      -2.748 -13.115  16.653  1.00  0.00     0.135 A 
ATOM     90  C   UNL     1      -1.496 -14.240  14.934  1.00  0.00     0.135 A 
ATOM     91  F   UNL     1      -3.202 -11.995  17.238  1.00  0.00    -0.206 F 
ATOM     92  C   UNL     1      -3.078 -14.337  17.229  1.00  0.00     0.059 A 
ATOM     93  C   UNL     1      -1.833 -15.475  15.479  1.00  0.00     0.059 A 
ATOM     94  F   UNL     1      -0.737 -14.219  13.826  1.00  0.00    -0.206 F 
ATOM     95  C   UNL     1      -2.613 -15.512  16.636  1.00  0.00     0.060 A 
BRANCH  95  96
ATOM     96  S   UNL     1      -3.071 -17.092  17.380  1.00  0.00     0.124 S 
ATOM     97  O   UNL     1      -2.216 -17.125  18.561  1.00  0.00    -0.237 OA
ATOM     98  O   UNL     1      -4.498 -16.916  17.632  1.00  0.00    -0.237 OA
ATOM     99  O   UNL     1      -2.743 -18.062  16.339  1.00  0.00    -0.744 OA
ENDBRANCH  95  96
ENDBRANCH  63  88
ENDBRANCH  37  38
ENDBRANCH  29  32
ENDBRANCH  27  28
ENDBRANCH   1  27
TORSDOF 17
