REMARK SMILES CC(=O)N1CCCN(S(=O)(=O)c2ccc(C)c(C(=O)NCCCNC(=O)c3ccc(-c4c5nc(c(-c6c(F)cc(S(=O)(=O)[O-])cc6F)c6ccc([nH]6)c(-c6c(F)cc(S(=O)(=O)[O-])cc6F)c6nc(c(-c7c(F)cc(S(=O)(=O)[O-])cc7F)c7ccc4[nH]7)C=C6)C=C5)cc3)c2)CC1
REMARK SMILES IDX 18 1 19 2 20 3 17 5 12 6 13 7 93 8 14 9 15 10 16 11 9 12
REMARK SMILES IDX 10 13 11 14 8 15 94 16 95 17 4 18 2 19 1 20 3 21 5 22 6 23
REMARK SMILES IDX 7 25 21 27 22 28 23 29 24 30 25 31 26 33 27 34 28 35 92 36
REMARK SMILES IDX 29 37 91 38 30 39 31 40 32 41 85 42 33 43 90 44 84 45 86 46
REMARK SMILES IDX 34 47 89 48 83 49 82 50 35 52 69 53 48 54 68 55 49 56 52 57
REMARK SMILES IDX 67 58 87 59 50 60 51 61 66 63 88 64 53 65 36 66 37 67 46 68
REMARK SMILES IDX 38 69 39 70 45 71 47 72 40 73 41 74 42 75 43 76 44 77 70 78
REMARK SMILES IDX 71 79 80 80 72 81 73 82 79 83 81 84 74 85 75 86 76 87 77 88
REMARK SMILES IDX 78 89 54 90 55 91 64 92 56 93 57 94 63 95 65 96 58 97 59 98
REMARK SMILES IDX 60 99 61 100 62 101
REMARK H PARENT 20 4 24 32 86 51 52 62
REMARK Flexibility Score: 80.00
ROOT
ATOM      1  C   UNL     1      -0.565  -8.890  -2.436  1.00  0.00     0.251 C 
ATOM      2  O   UNL     1       0.589  -9.175  -2.769  1.00  0.00    -0.269 OA
ATOM      3  N   UNL     1      -1.567  -9.790  -2.682  1.00  0.00    -0.352 N 
ATOM      4  H   UNL     1      -1.303 -10.539  -3.263  1.00  0.00     0.163 HD
ENDROOT
BRANCH   1   5
ATOM      5  C   UNL     1      -0.771  -7.608  -1.696  1.00  0.00     0.044 A 
ATOM      6  C   UNL     1       0.379  -5.997  -0.288  1.00  0.00     0.083 A 
ATOM      7  C   UNL     1      -0.649  -5.102  -0.529  1.00  0.00     0.022 A 
ATOM      8  C   UNL     1       0.330  -7.251  -0.877  1.00  0.00     0.035 A 
ATOM      9  C   UNL     1      -1.779  -5.461  -1.203  1.00  0.00     0.005 A 
ATOM     10  C   UNL     1      -1.845  -6.691  -1.836  1.00  0.00    -0.038 A 
ATOM     11  C   UNL     1      -3.093  -6.797  -2.637  1.00  0.00     0.045 C 
BRANCH   6  12
ATOM     12  S   UNL     1       1.795  -5.411   0.582  1.00  0.00     0.243 S 
ATOM     13  O   UNL     1       2.289  -4.290  -0.162  1.00  0.00    -0.207 OA
ATOM     14  O   UNL     1       2.669  -6.553   0.863  1.00  0.00    -0.207 OA
BRANCH  12  15
ATOM     15  N   UNL     1       1.246  -4.866   2.105  1.00  0.00    -0.196 NA
BRANCH  15  16
ATOM     16  C   UNL     1       0.025  -4.054   2.297  1.00  0.00     0.124 C 
BRANCH  16  17
ATOM     17  C   UNL     1       0.044  -2.687   1.629  1.00  0.00     0.136 C 
BRANCH  17  18
ATOM     18  N   UNL     1       1.044  -1.720   2.032  1.00  0.00    -0.342 N 
BRANCH  18  19
ATOM     19  C   UNL     1       0.611  -0.426   1.695  1.00  0.00     0.219 C 
ATOM     20  C   UNL     1       1.186   0.143   0.413  1.00  0.00     0.114 C 
ATOM     21  O   UNL     1      -0.362   0.095   2.241  1.00  0.00    -0.275 OA
ENDBRANCH  18  19
BRANCH  18  22
ATOM     22  C   UNL     1       2.445  -2.081   1.838  1.00  0.00     0.121 C 
BRANCH  22  23
ATOM     23  C   UNL     1       3.056  -3.193   2.697  1.00  0.00     0.038 CG0
ATOM     24  G   UNL     1       2.293  -4.461   3.058  1.00  0.00     0.000 G0
ENDBRANCH  22  23
ENDBRANCH  18  22
ENDBRANCH  17  18
ENDBRANCH  16  17
ENDBRANCH  15  16
BRANCH  15  25
ATOM     25  C   UNL     1       2.293  -4.461   3.058  1.00  0.00     0.104 CG0
ATOM     26  G   UNL     1       3.056  -3.193   2.697  1.00  0.00     0.000 G0
ENDBRANCH  15  25
ENDBRANCH  12  15
ENDBRANCH   6  12
ENDBRANCH   1   5
BRANCH   3  27
ATOM     27  C   UNL     1      -2.958  -9.839  -2.237  1.00  0.00     0.118 C 
BRANCH  27  28
ATOM     28  C   UNL     1      -4.086  -9.457  -3.340  1.00  0.00     0.042 C 
BRANCH  28  29
ATOM     29  C   UNL     1      -4.637 -10.723  -4.023  1.00  0.00     0.118 C 
BRANCH  29  30
ATOM     30  N   UNL     1      -5.886 -11.083  -5.091  1.00  0.00    -0.352 N 
ATOM     31  C   UNL     1      -6.436 -11.825  -6.380  1.00  0.00     0.251 C 
ATOM     32  H   UNL     1      -6.660 -10.585  -4.743  1.00  0.00     0.163 HD
ATOM     33  O   UNL     1      -7.623 -12.168  -6.170  1.00  0.00    -0.269 OA
BRANCH  31  34
ATOM     34  C   UNL     1      -5.854 -12.486  -7.909  1.00  0.00     0.039 A 
ATOM     35  C   UNL     1      -5.908 -13.866  -8.270  1.00  0.00     0.014 A 
ATOM     36  C   UNL     1      -5.093 -11.866  -8.876  1.00  0.00     0.014 A 
ATOM     37  C   UNL     1      -4.685 -14.534  -8.707  1.00  0.00     0.010 A 
ATOM     38  C   UNL     1      -3.869 -12.477  -9.252  1.00  0.00     0.010 A 
ATOM     39  C   UNL     1      -3.533 -13.767  -8.867  1.00  0.00    -0.014 A 
BRANCH  39  40
ATOM     40  C   UNL     1      -2.067 -14.155  -8.676  1.00  0.00     0.031 A 
ATOM     41  C   UNL     1      -1.315 -14.375  -9.903  1.00  0.00     0.074 A 
ATOM     42  C   UNL     1      -1.259 -14.204  -7.561  1.00  0.00     0.049 A 
ATOM     43  N   UNL     1      -0.698 -15.457 -10.232  1.00  0.00    -0.248 NA
ATOM     44  C   UNL     1      -1.252 -13.322 -10.900  1.00  0.00     0.031 C 
ATOM     45  C   UNL     1       0.151 -14.630  -7.355  1.00  0.00     0.029 A 
ATOM     46  N   UNL     1      -1.588 -13.992  -6.237  1.00  0.00    -0.354 N 
ATOM     47  C   UNL     1       0.098 -15.104 -11.303  1.00  0.00     0.074 A 
ATOM     48  C   UNL     1      -0.484 -13.894 -11.820  1.00  0.00     0.031 C 
ATOM     49  C   UNL     1       0.307 -15.088  -6.085  1.00  0.00     0.029 A 
ATOM     50  C   UNL     1      -0.981 -14.979  -5.452  1.00  0.00     0.049 A 
ATOM     51  H   UNL     1      -2.158 -13.264  -5.899  1.00  0.00     0.167 HD
ATOM     52  C   UNL     1       1.326 -15.678 -11.471  1.00  0.00     0.037 A 
ATOM     53  C   UNL     1      -1.770 -15.974  -4.938  1.00  0.00     0.037 A 
ATOM     54  C   UNL     1       1.630 -16.555 -10.328  1.00  0.00     0.049 A 
ATOM     55  C   UNL     1      -1.467 -17.295  -5.554  1.00  0.00     0.074 A 
ATOM     56  C   UNL     1       2.460 -16.391  -9.228  1.00  0.00     0.029 A 
ATOM     57  N   UNL     1       0.774 -17.606 -10.008  1.00  0.00    -0.354 N 
ATOM     58  N   UNL     1      -0.863 -17.378  -6.700  1.00  0.00    -0.248 NA
ATOM     59  C   UNL     1      -1.760 -18.598  -4.967  1.00  0.00     0.031 C 
ATOM     60  C   UNL     1       2.011 -17.267  -8.203  1.00  0.00     0.029 A 
ATOM     61  C   UNL     1       0.929 -17.984  -8.687  1.00  0.00     0.049 A 
ATOM     62  H   UNL     1       0.143 -18.024 -10.638  1.00  0.00     0.167 HD
ATOM     63  C   UNL     1      -0.610 -18.677  -6.986  1.00  0.00     0.074 A 
ATOM     64  C   UNL     1      -1.204 -19.412  -5.883  1.00  0.00     0.031 C 
ATOM     65  C   UNL     1       0.088 -19.023  -8.102  1.00  0.00     0.037 A 
BRANCH  52  66
ATOM     66  C   UNL     1       2.370 -15.171 -12.460  1.00  0.00     0.058 A 
ATOM     67  C   UNL     1       3.733 -15.502 -12.310  1.00  0.00     0.135 A 
ATOM     68  C   UNL     1       2.098 -14.377 -13.599  1.00  0.00     0.135 A 
ATOM     69  F   UNL     1       4.149 -16.336 -11.347  1.00  0.00    -0.206 F 
ATOM     70  C   UNL     1       4.736 -15.028 -13.163  1.00  0.00     0.059 A 
ATOM     71  C   UNL     1       3.086 -13.832 -14.422  1.00  0.00     0.059 A 
ATOM     72  F   UNL     1       0.853 -14.174 -14.042  1.00  0.00    -0.206 F 
ATOM     73  C   UNL     1       4.407 -14.177 -14.208  1.00  0.00     0.060 A 
BRANCH  73  74
ATOM     74  S   UNL     1       5.695 -13.627 -15.339  1.00  0.00     0.124 S 
ATOM     75  O   UNL     1       6.617 -12.934 -14.446  1.00  0.00    -0.237 OA
ATOM     76  O   UNL     1       6.172 -14.891 -15.891  1.00  0.00    -0.237 OA
ATOM     77  O   UNL     1       4.981 -12.769 -16.283  1.00  0.00    -0.744 OA
ENDBRANCH  73  74
ENDBRANCH  52  66
BRANCH  53  78
ATOM     78  C   UNL     1      -3.139 -15.486  -4.593  1.00  0.00     0.058 A 
ATOM     79  C   UNL     1      -3.091 -14.395  -3.743  1.00  0.00     0.135 A 
ATOM     80  C   UNL     1      -4.037 -15.274  -5.623  1.00  0.00     0.135 A 
ATOM     81  F   UNL     1      -2.980 -14.574  -2.421  1.00  0.00    -0.206 F 
ATOM     82  C   UNL     1      -3.409 -13.104  -4.206  1.00  0.00     0.059 A 
ATOM     83  C   UNL     1      -4.380 -13.948  -6.007  1.00  0.00     0.059 A 
ATOM     84  F   UNL     1      -4.707 -16.306  -6.162  1.00  0.00    -0.206 F 
ATOM     85  C   UNL     1      -3.729 -12.822  -5.540  1.00  0.00     0.060 A 
BRANCH  85  86
ATOM     86  S   UNL     1      -3.236 -10.961  -6.561  1.00  0.00     0.124 S 
ATOM     87  O   UNL     1      -2.616 -10.071  -5.588  1.00  0.00    -0.237 OA
ATOM     88  O   UNL     1      -2.244 -11.350  -7.545  1.00  0.00    -0.237 OA
ATOM     89  O   UNL     1      -4.461 -10.346  -7.067  1.00  0.00    -0.744 OA
ENDBRANCH  85  86
ENDBRANCH  53  78
BRANCH  65  90
ATOM     90  C   UNL     1       0.134 -20.412  -8.649  1.00  0.00     0.058 A 
ATOM     91  C   UNL     1      -0.888 -21.354  -8.454  1.00  0.00     0.135 A 
ATOM     92  C   UNL     1       1.182 -20.798  -9.513  1.00  0.00     0.135 A 
ATOM     93  F   UNL     1      -2.010 -21.051  -7.784  1.00  0.00    -0.206 F 
ATOM     94  C   UNL     1      -0.810 -22.640  -8.970  1.00  0.00     0.059 A 
ATOM     95  C   UNL     1       1.238 -22.049 -10.104  1.00  0.00     0.059 A 
ATOM     96  F   UNL     1       2.190 -19.967  -9.820  1.00  0.00    -0.206 F 
ATOM     97  C   UNL     1       0.264 -22.980  -9.785  1.00  0.00     0.060 A 
BRANCH  97  98
ATOM     98  S   UNL     1       0.370 -24.648 -10.436  1.00  0.00     0.124 S 
ATOM     99  O   UNL     1       0.928 -25.364  -9.293  1.00  0.00    -0.237 OA
ATOM    100  O   UNL     1      -1.022 -24.953 -10.754  1.00  0.00    -0.237 OA
ATOM    101  O   UNL     1       1.254 -24.507 -11.587  1.00  0.00    -0.744 OA
ENDBRANCH  97  98
ENDBRANCH  65  90
ENDBRANCH  39  40
ENDBRANCH  31  34
ENDBRANCH  29  30
ENDBRANCH  28  29
ENDBRANCH  27  28
ENDBRANCH   3  27
TORSDOF 16
