REMARK SMILES Cc1cc(/C=C2/C(=O)NC(=S)[NH+]=C2NCCCNC(=O)c2ccc(-c3c4nc(c(-c5c(F)cc(S(=O)(=O)[O-])cc5F)c5ccc([nH]5)c(-c5c(F)cc(S(=O)(=O)[O-])cc5F)c5nc(c(-c6c(F)cc(S(=O)(=O)[O-])cc6F)c6ccc3[nH]6)C=C5)C=C4)cc2)c(C)n1-c1cccc(C(=O)[O-])c1
REMARK SMILES IDX 16 1 15 2 14 3 5 4 6 5 7 6 13 7 8 8 9 9 12 10 10 11 11 15
REMARK SMILES IDX 4 16 1 17 2 18 3 19 89 20 87 21 88 22 90 23 91 24 98 25
REMARK SMILES IDX 92 26 94 27 93 28 95 29 96 30 97 31 17 32 18 33 19 34 20 36
REMARK SMILES IDX 21 37 22 38 86 39 23 40 85 41 24 42 25 43 26 44 79 45 27 46
REMARK SMILES IDX 84 47 78 48 80 49 28 50 83 51 77 52 76 53 29 55 63 56 42 57
REMARK SMILES IDX 62 58 43 59 46 60 61 61 81 62 44 63 45 64 60 66 82 67 47 68
REMARK SMILES IDX 30 69 31 70 40 71 32 72 33 73 39 74 41 75 34 76 35 77 36 78
REMARK SMILES IDX 37 79 38 80 64 81 65 82 74 83 66 84 67 85 73 86 75 87 68 88
REMARK SMILES IDX 69 89 70 90 71 91 72 92 48 93 49 94 58 95 50 96 51 97 57 98
REMARK SMILES IDX 59 99 52 100 53 101 54 102 55 103 56 104
REMARK H PARENT 9 12 12 13 14 14 18 35 80 54 46 65
REMARK Flexibility Score: inf
ROOT
ATOM      1  C   UNL     1      -1.236   4.634   1.733  1.00  0.00     0.059 C 
ENDROOT
BRANCH   1   2
ATOM      2  C   UNL     1      -1.498   4.385   3.164  1.00  0.00     0.195 C 
BRANCH   2   3
ATOM      3  N   UNL     1      -0.382   4.824   3.913  1.00  0.00    -0.305 N 
ATOM      4  C   UNL     1       0.062   1.746   4.575  1.00  0.00     0.032 C 
ATOM      5  C   UNL     1      -0.187   2.801   5.404  1.00  0.00     0.128 C 
ATOM      6  C   UNL     1      -0.657   2.478   6.790  1.00  0.00     0.319 C 
ATOM      7  C   UNL     1      -0.229   4.274   5.133  1.00  0.00     0.234 C 
ATOM      8  O   UNL     1      -0.956   1.348   7.166  1.00  0.00    -0.250 OA
ATOM      9  N   UNL     1      -0.814   3.557   7.624  1.00  0.00    -0.229 N 
ATOM     10  N   UNL     1      -0.315   5.199   6.042  1.00  0.00    -0.236 N 
ATOM     11  C   UNL     1      -0.585   4.870   7.325  1.00  0.00     0.295 C 
ATOM     12  H   UNL     1      -1.126   3.364   8.538  1.00  0.00     0.268 HD
ATOM     13  H   UNL     1      -0.182   6.142   5.794  1.00  0.00     0.268 HD
ATOM     14  H   UNL     1       0.248   5.494   3.563  1.00  0.00     0.256 HD
ATOM     15  S   UNL     1      -0.788   6.020   8.526  1.00  0.00    -0.005 S 
BRANCH   4  16
ATOM     16  C   UNL     1       0.252   1.591   3.136  1.00  0.00    -0.003 A 
ATOM     17  C   UNL     1       0.586  -0.423   0.005  1.00  0.00     0.065 C 
ATOM     18  C   UNL     1       0.337   0.574   1.078  1.00  0.00     0.020 A 
ATOM     19  C   UNL     1       0.071   0.361   2.429  1.00  0.00     0.031 A 
ATOM     20  N   UNL     1       0.335   1.962   0.907  1.00  0.00    -0.318 N 
ATOM     21  C   UNL     1       0.878   2.387   2.177  1.00  0.00     0.027 A 
ATOM     22  C   UNL     1       2.076   3.254   2.421  1.00  0.00     0.065 C 
BRANCH  20  23
ATOM     23  C   UNL     1       0.170   2.697  -0.411  1.00  0.00     0.046 A 
ATOM     24  C   UNL     1       1.767   2.814  -1.148  1.00  0.00     0.026 A 
ATOM     25  C   UNL     1      -0.969   4.168  -0.524  1.00  0.00     0.036 A 
ATOM     26  C   UNL     1       2.365   4.292  -1.888  1.00  0.00     0.003 A 
ATOM     27  C   UNL     1      -0.281   5.840  -1.253  1.00  0.00    -0.001 A 
ATOM     28  C   UNL     1       1.415   5.770  -1.928  1.00  0.00     0.010 A 
BRANCH  27  29
ATOM     29  C   UNL     1      -0.749   7.089  -1.941  1.00  0.00     0.072 C 
ATOM     30  O   UNL     1      -0.358   7.388  -3.061  1.00  0.00    -0.545 OA
ATOM     31  O   UNL     1      -1.605   7.878  -1.311  1.00  0.00    -0.545 OA
ENDBRANCH  27  29
ENDBRANCH  20  23
ENDBRANCH   4  16
ENDBRANCH   2   3
ENDBRANCH   1   2
BRANCH   1  32
ATOM     32  C   UNL     1       0.109   5.314   1.101  1.00  0.00     0.119 C 
BRANCH  32  33
ATOM     33  N   UNL     1       0.830   4.582  -0.397  1.00  0.00    -0.352 N 
ATOM     34  C   UNL     1      -0.008   4.127  -2.150  1.00  0.00     0.251 C 
ATOM     35  H   UNL     1       1.791   4.377  -0.334  1.00  0.00     0.163 HD
ATOM     36  O   UNL     1       0.462   3.461  -3.097  1.00  0.00    -0.269 OA
BRANCH  34  37
ATOM     37  C   UNL     1      -1.819   4.750  -2.596  1.00  0.00     0.039 A 
ATOM     38  C   UNL     1      -2.207   5.200  -3.840  1.00  0.00     0.014 A 
ATOM     39  C   UNL     1      -2.937   5.365  -1.674  1.00  0.00     0.014 A 
ATOM     40  C   UNL     1      -3.418   6.193  -4.018  1.00  0.00     0.010 A 
ATOM     41  C   UNL     1      -4.131   6.312  -1.863  1.00  0.00     0.010 A 
ATOM     42  C   UNL     1      -4.429   6.852  -3.079  1.00  0.00    -0.014 A 
BRANCH  42  43
ATOM     43  C   UNL     1      -5.790   7.918  -3.523  1.00  0.00     0.031 A 
ATOM     44  C   UNL     1      -5.691   7.725  -4.963  1.00  0.00     0.074 A 
ATOM     45  C   UNL     1      -6.763   9.002  -3.311  1.00  0.00     0.049 A 
ATOM     46  N   UNL     1      -4.693   8.346  -5.499  1.00  0.00    -0.248 NA
ATOM     47  C   UNL     1      -6.194   6.571  -5.689  1.00  0.00     0.031 C 
ATOM     48  C   UNL     1      -6.899  10.001  -2.204  1.00  0.00     0.029 A 
ATOM     49  N   UNL     1      -7.886   9.574  -4.159  1.00  0.00    -0.354 N 
ATOM     50  C   UNL     1      -4.441   7.746  -6.700  1.00  0.00     0.074 A 
ATOM     51  C   UNL     1      -5.370   6.610  -6.748  1.00  0.00     0.031 C 
ATOM     52  C   UNL     1      -7.995  10.839  -2.314  1.00  0.00     0.029 A 
ATOM     53  C   UNL     1      -8.798  10.611  -3.531  1.00  0.00     0.049 A 
ATOM     54  H   UNL     1      -8.019   9.279  -5.089  1.00  0.00     0.167 HD
ATOM     55  C   UNL     1      -4.037   8.626  -7.644  1.00  0.00     0.037 A 
ATOM     56  C   UNL     1      -9.977  11.306  -4.005  1.00  0.00     0.037 A 
ATOM     57  C   UNL     1      -5.220   9.245  -8.184  1.00  0.00     0.049 A 
ATOM     58  C   UNL     1      -9.629  11.592  -5.398  1.00  0.00     0.074 A 
ATOM     59  C   UNL     1      -6.461   8.710  -8.487  1.00  0.00     0.029 A 
ATOM     60  N   UNL     1      -5.407  10.582  -7.929  1.00  0.00    -0.354 N 
ATOM     61  N   UNL     1      -8.822  12.554  -5.717  1.00  0.00    -0.248 NA
ATOM     62  C   UNL     1     -10.290  10.911  -6.499  1.00  0.00     0.031 C 
ATOM     63  C   UNL     1      -7.373   9.598  -7.897  1.00  0.00     0.029 A 
ATOM     64  C   UNL     1      -6.744  10.821  -7.717  1.00  0.00     0.049 A 
ATOM     65  H   UNL     1      -4.696  11.262  -7.902  1.00  0.00     0.167 HD
ATOM     66  C   UNL     1      -8.482  12.252  -6.997  1.00  0.00     0.074 A 
ATOM     67  C   UNL     1      -9.565  11.414  -7.499  1.00  0.00     0.031 C 
ATOM     68  C   UNL     1      -7.152  12.098  -7.198  1.00  0.00     0.037 A 
BRANCH  55  69
ATOM     69  C   UNL     1      -2.786   9.376  -7.189  1.00  0.00     0.058 A 
ATOM     70  C   UNL     1      -1.575   9.048  -7.807  1.00  0.00     0.135 A 
ATOM     71  C   UNL     1      -2.714  10.293  -6.105  1.00  0.00     0.135 A 
ATOM     72  F   UNL     1      -1.560   8.171  -8.823  1.00  0.00    -0.206 F 
ATOM     73  C   UNL     1      -0.363   9.606  -7.397  1.00  0.00     0.059 A 
ATOM     74  C   UNL     1      -1.507  10.825  -5.648  1.00  0.00     0.059 A 
ATOM     75  F   UNL     1      -3.823  10.705  -5.470  1.00  0.00    -0.206 F 
ATOM     76  C   UNL     1      -0.337  10.491  -6.317  1.00  0.00     0.060 A 
BRANCH  76  77
ATOM     77  S   UNL     1       1.246  11.219  -5.836  1.00  0.00     0.124 S 
ATOM     78  O   UNL     1       2.119  10.051  -5.755  1.00  0.00    -0.237 OA
ATOM     79  O   UNL     1       1.508  12.113  -6.959  1.00  0.00    -0.237 OA
ATOM     80  O   UNL     1       0.959  11.861  -4.557  1.00  0.00    -0.744 OA
ENDBRANCH  76  77
ENDBRANCH  55  69
BRANCH  56  81
ATOM     81  C   UNL     1     -11.378  12.231  -3.791  1.00  0.00     0.058 A 
ATOM     82  C   UNL     1     -11.900  13.142  -4.817  1.00  0.00     0.135 A 
ATOM     83  C   UNL     1     -12.411  11.890  -2.893  1.00  0.00     0.135 A 
ATOM     84  F   UNL     1     -11.098  13.688  -5.742  1.00  0.00    -0.206 F 
ATOM     85  C   UNL     1     -13.268  13.513  -5.012  1.00  0.00     0.059 A 
ATOM     86  C   UNL     1     -13.798  12.284  -3.054  1.00  0.00     0.059 A 
ATOM     87  F   UNL     1     -12.137  11.098  -1.849  1.00  0.00    -0.206 F 
ATOM     88  C   UNL     1     -14.232  13.043  -4.146  1.00  0.00     0.060 A 
BRANCH  88  89
ATOM     89  S   UNL     1     -16.012  13.304  -4.543  1.00  0.00     0.124 S 
ATOM     90  O   UNL     1     -16.177  14.747  -4.408  1.00  0.00    -0.237 OA
ATOM     91  O   UNL     1     -16.115  12.789  -5.907  1.00  0.00    -0.237 OA
ATOM     92  O   UNL     1     -16.705  12.503  -3.537  1.00  0.00    -0.744 OA
ENDBRANCH  88  89
ENDBRANCH  56  81
BRANCH  68  93
ATOM     93  C   UNL     1      -6.228  13.209  -6.743  1.00  0.00     0.058 A 
ATOM     94  C   UNL     1      -6.210  13.854  -5.484  1.00  0.00     0.135 A 
ATOM     95  C   UNL     1      -5.327  13.706  -7.701  1.00  0.00     0.135 A 
ATOM     96  F   UNL     1      -6.931  13.414  -4.442  1.00  0.00    -0.206 F 
ATOM     97  C   UNL     1      -5.416  14.978  -5.240  1.00  0.00     0.059 A 
ATOM     98  C   UNL     1      -4.482  14.782  -7.458  1.00  0.00     0.059 A 
ATOM     99  F   UNL     1      -5.257  13.134  -8.915  1.00  0.00    -0.206 F 
ATOM    100  C   UNL     1      -4.565  15.443  -6.239  1.00  0.00     0.060 A 
BRANCH 100 101
ATOM    101  S   UNL     1      -3.579  16.923  -5.940  1.00  0.00     0.124 S 
ATOM    102  O   UNL     1      -4.599  17.968  -5.948  1.00  0.00    -0.237 OA
ATOM    103  O   UNL     1      -2.973  16.645  -4.643  1.00  0.00    -0.237 OA
ATOM    104  O   UNL     1      -2.660  16.952  -7.075  1.00  0.00    -0.744 OA
ENDBRANCH 100 101
ENDBRANCH  68  93
ENDBRANCH  42  43
ENDBRANCH  34  37
ENDBRANCH  32  33
ENDBRANCH   1  32
TORSDOF 15
