REMARK SMILES CCn1cc(C)c(C(=O)NCCCNC(=O)c2ccc(-c3c4nc(c(-c5c(F)cc(S(=O)(=O)[O-])cc5F)c5ccc([nH]5)c(-c5c(F)cc(S(=O)(=O)[O-])cc5F)c5nc(c(-c6c(F)cc(S(=O)(=O)[O-])cc6F)c6ccc3[nH]6)C=C5)C=C4)cc2)c1CC(=O)N1CC[NH+](C)CC1
REMARK SMILES IDX 12 1 11 2 10 3 8 4 9 5 7 7 3 8 4 9 83 10 5 11 6 12 2 13 1 14
REMARK SMILES IDX 84 15 85 16 86 17 87 18 88 19 93 20 89 21 92 22 90 23 91 24
REMARK SMILES IDX 13 26 14 27 15 28 16 30 17 31 18 32 82 33 19 34 81 35 20 36
REMARK SMILES IDX 21 37 22 38 75 39 23 40 80 41 74 42 76 43 24 44 79 45 73 46
REMARK SMILES IDX 72 47 25 49 59 50 38 51 58 52 39 53 42 54 57 55 77 56 40 57
REMARK SMILES IDX 41 58 56 60 78 61 43 62 26 63 27 64 36 65 28 66 29 67 35 68
REMARK SMILES IDX 37 69 30 70 31 71 32 72 33 73 34 74 60 75 61 76 70 77 62 78
REMARK SMILES IDX 63 79 69 80 71 81 64 82 65 83 66 84 67 85 68 86 44 87 45 88
REMARK SMILES IDX 54 89 46 90 47 91 53 92 55 93 48 94 49 95 50 96 51 97 52 98
REMARK H PARENT 10 6 90 25 14 29 76 48 42 59
REMARK Flexibility Score: inf
ROOT
ATOM      1  C   UNL     1       2.805  -2.912   5.660  1.00  0.00     0.042 C 
ENDROOT
BRANCH   1   2
ATOM      2  C   UNL     1       1.530  -2.217   6.136  1.00  0.00     0.118 C 
BRANCH   2   3
ATOM      3  N   UNL     1       1.779  -0.829   6.463  1.00  0.00    -0.352 N 
ATOM      4  C   UNL     1       1.593   0.350   5.796  1.00  0.00     0.253 C 
ATOM      5  O   UNL     1       1.825   1.354   6.477  1.00  0.00    -0.269 OA
ATOM      6  H   UNL     1       2.165  -0.708   7.360  1.00  0.00     0.163 HD
BRANCH   4   7
ATOM      7  C   UNL     1       1.131   0.485   4.395  1.00  0.00     0.064 A 
ATOM      8  N   UNL     1       0.463   0.260   2.267  1.00  0.00    -0.350 N 
ATOM      9  C   UNL     1       0.199   1.554   2.596  1.00  0.00     0.090 A 
ATOM     10  C   UNL     1       1.269  -0.318   3.241  1.00  0.00     0.040 A 
ATOM     11  C   UNL     1       0.647   1.761   3.877  1.00  0.00    -0.020 A 
ATOM     12  C   UNL     1       0.680   3.091   4.554  1.00  0.00     0.047 C 
BRANCH   8  13
ATOM     13  C   UNL     1       0.013  -0.326   1.011  1.00  0.00     0.118 C 
ATOM     14  C   UNL     1       0.875   0.091  -0.167  1.00  0.00     0.027 C 
ENDBRANCH   8  13
BRANCH  10  15
ATOM     15  C   UNL     1       2.043  -1.554   2.892  1.00  0.00     0.155 C 
BRANCH  15  16
ATOM     16  C   UNL     1       3.577  -1.613   2.856  1.00  0.00     0.228 C 
ATOM     17  O   UNL     1       4.041  -2.704   2.474  1.00  0.00    -0.274 OA
ATOM     18  N   UNL     1       4.448  -0.628   3.279  1.00  0.00    -0.331 N 
ATOM     19  C   UNL     1       5.820  -1.032   3.633  1.00  0.00     0.181 C 
ATOM     20  C   UNL     1       4.105   0.737   3.663  1.00  0.00     0.181 C 
ATOM     21  C   UNL     1       6.876   0.057   3.373  1.00  0.00     0.283 C 
ATOM     22  C   UNL     1       5.210   1.777   3.429  1.00  0.00     0.283 C 
ATOM     23  N   UNL     1       6.544   1.390   3.903  1.00  0.00    -0.334 N 
ATOM     24  C   UNL     1       6.645   1.452   5.361  1.00  0.00     0.332 C 
ATOM     25  H   UNL     1       7.230   2.058   3.553  1.00  0.00     0.347 HD
ENDBRANCH  15  16
ENDBRANCH  10  15
ENDBRANCH   4   7
ENDBRANCH   2   3
ENDBRANCH   1   2
BRANCH   1  26
ATOM     26  C   UNL     1       3.693  -3.404   6.770  1.00  0.00     0.118 C 
BRANCH  26  27
ATOM     27  N   UNL     1       3.272  -4.679   7.348  1.00  0.00    -0.352 N 
ATOM     28  C   UNL     1       4.010  -5.518   8.181  1.00  0.00     0.251 C 
ATOM     29  H   UNL     1       2.362  -4.979   7.124  1.00  0.00     0.163 HD
ATOM     30  O   UNL     1       3.694  -6.685   8.325  1.00  0.00    -0.269 OA
BRANCH  28  31
ATOM     31  C   UNL     1       5.190  -4.951   8.873  1.00  0.00     0.039 A 
ATOM     32  C   UNL     1       6.335  -5.685   9.184  1.00  0.00     0.014 A 
ATOM     33  C   UNL     1       5.146  -3.596   9.159  1.00  0.00     0.014 A 
ATOM     34  C   UNL     1       7.409  -5.007   9.764  1.00  0.00     0.010 A 
ATOM     35  C   UNL     1       6.303  -2.908   9.314  1.00  0.00     0.010 A 
ATOM     36  C   UNL     1       7.370  -3.604   9.828  1.00  0.00    -0.014 A 
BRANCH  36  37
ATOM     37  C   UNL     1       8.444  -2.778  10.349  1.00  0.00     0.031 A 
ATOM     38  C   UNL     1       9.722  -3.014   9.651  1.00  0.00     0.074 A 
ATOM     39  C   UNL     1       8.239  -1.730  11.184  1.00  0.00     0.049 A 
ATOM     40  N   UNL     1      10.713  -3.721  10.072  1.00  0.00    -0.248 NA
ATOM     41  C   UNL     1       9.817  -2.634   8.232  1.00  0.00     0.031 C 
ATOM     42  C   UNL     1       6.972  -1.162  11.672  1.00  0.00     0.029 A 
ATOM     43  N   UNL     1       9.153  -0.873  11.712  1.00  0.00    -0.354 N 
ATOM     44  C   UNL     1      11.681  -3.607   9.084  1.00  0.00     0.074 A 
ATOM     45  C   UNL     1      10.984  -3.189   7.897  1.00  0.00     0.031 C 
ATOM     46  C   UNL     1       7.192   0.055  12.221  1.00  0.00     0.029 A 
ATOM     47  C   UNL     1       8.623   0.284  12.284  1.00  0.00     0.049 A 
ATOM     48  H   UNL     1      10.120  -1.056  11.692  1.00  0.00     0.167 HD
ATOM     49  C   UNL     1      13.000  -3.551   9.418  1.00  0.00     0.037 A 
ATOM     50  C   UNL     1       9.329   1.351  12.748  1.00  0.00     0.037 A 
ATOM     51  C   UNL     1      13.197  -3.962  10.792  1.00  0.00     0.049 A 
ATOM     52  C   UNL     1      10.720   0.868  12.982  1.00  0.00     0.074 A 
ATOM     53  C   UNL     1      12.870  -5.093  11.518  1.00  0.00     0.029 A 
ATOM     54  N   UNL     1      13.417  -2.975  11.726  1.00  0.00    -0.354 N 
ATOM     55  N   UNL     1      11.031  -0.015  13.894  1.00  0.00    -0.248 NA
ATOM     56  C   UNL     1      11.655   0.972  11.873  1.00  0.00     0.031 C 
ATOM     57  C   UNL     1      12.418  -4.603  12.780  1.00  0.00     0.029 A 
ATOM     58  C   UNL     1      12.592  -3.219  12.796  1.00  0.00     0.049 A 
ATOM     59  H   UNL     1      14.053  -2.228  11.641  1.00  0.00     0.167 HD
ATOM     60  C   UNL     1      11.933  -0.868  13.271  1.00  0.00     0.074 A 
ATOM     61  C   UNL     1      12.325  -0.171  12.046  1.00  0.00     0.031 C 
ATOM     62  C   UNL     1      12.045  -2.179  13.643  1.00  0.00     0.037 A 
BRANCH  49  63
ATOM     63  C   UNL     1      14.033  -2.751   8.660  1.00  0.00     0.058 A 
ATOM     64  C   UNL     1      15.390  -2.889   9.017  1.00  0.00     0.135 A 
ATOM     65  C   UNL     1      13.742  -1.671   7.794  1.00  0.00     0.135 A 
ATOM     66  F   UNL     1      15.783  -3.876   9.838  1.00  0.00    -0.206 F 
ATOM     67  C   UNL     1      16.366  -1.981   8.610  1.00  0.00     0.059 A 
ATOM     68  C   UNL     1      14.708  -0.789   7.331  1.00  0.00     0.059 A 
ATOM     69  F   UNL     1      12.497  -1.353   7.426  1.00  0.00    -0.206 F 
ATOM     70  C   UNL     1      16.010  -0.926   7.776  1.00  0.00     0.060 A 
BRANCH  70  71
ATOM     71  S   UNL     1      17.249   0.295   7.317  1.00  0.00     0.124 S 
ATOM     72  O   UNL     1      17.490   0.957   8.594  1.00  0.00    -0.237 OA
ATOM     73  O   UNL     1      18.329  -0.549   6.817  1.00  0.00    -0.237 OA
ATOM     74  O   UNL     1      16.569   1.098   6.305  1.00  0.00    -0.744 OA
ENDBRANCH  70  71
ENDBRANCH  49  63
BRANCH  50  75
ATOM     75  C   UNL     1       8.999   2.803  12.650  1.00  0.00     0.058 A 
ATOM     76  C   UNL     1       9.744   3.774  13.347  1.00  0.00     0.135 A 
ATOM     77  C   UNL     1       8.147   3.293  11.639  1.00  0.00     0.135 A 
ATOM     78  F   UNL     1      10.594   3.402  14.317  1.00  0.00    -0.206 F 
ATOM     79  C   UNL     1       9.694   5.138  13.023  1.00  0.00     0.059 A 
ATOM     80  C   UNL     1       8.075   4.646  11.303  1.00  0.00     0.059 A 
ATOM     81  F   UNL     1       7.426   2.455  10.880  1.00  0.00    -0.206 F 
ATOM     82  C   UNL     1       8.873   5.561  11.979  1.00  0.00     0.060 A 
BRANCH  82  83
ATOM     83  S   UNL     1       8.944   7.285  11.427  1.00  0.00     0.124 S 
ATOM     84  O   UNL     1       8.325   7.988  12.546  1.00  0.00    -0.237 OA
ATOM     85  O   UNL     1      10.377   7.497  11.255  1.00  0.00    -0.237 OA
ATOM     86  O   UNL     1       8.166   7.276  10.190  1.00  0.00    -0.744 OA
ENDBRANCH  82  83
ENDBRANCH  50  75
BRANCH  62  87
ATOM     87  C   UNL     1      11.397  -2.620  14.935  1.00  0.00     0.058 A 
ATOM     88  C   UNL     1      10.019  -2.553  15.220  1.00  0.00     0.135 A 
ATOM     89  C   UNL     1      12.208  -3.261  15.884  1.00  0.00     0.135 A 
ATOM     90  F   UNL     1       9.151  -2.063  14.325  1.00  0.00    -0.206 F 
ATOM     91  C   UNL     1       9.488  -3.043  16.418  1.00  0.00     0.059 A 
ATOM     92  C   UNL     1      11.697  -3.787  17.067  1.00  0.00     0.059 A 
ATOM     93  F   UNL     1      13.521  -3.419  15.649  1.00  0.00    -0.206 F 
ATOM     94  C   UNL     1      10.338  -3.653  17.340  1.00  0.00     0.060 A 
BRANCH  94  95
ATOM     95  S   UNL     1       9.658  -4.303  18.882  1.00  0.00     0.124 S 
ATOM     96  O   UNL     1       9.288  -3.082  19.591  1.00  0.00    -0.237 OA
ATOM     97  O   UNL     1       8.547  -5.128  18.417  1.00  0.00    -0.237 OA
ATOM     98  O   UNL     1      10.775  -5.045  19.462  1.00  0.00    -0.744 OA
ENDBRANCH  94  95
ENDBRANCH  62  87
ENDBRANCH  36  37
ENDBRANCH  28  31
ENDBRANCH  26  27
ENDBRANCH   1  26
TORSDOF 16
