REMARK SMILES CCC[NH2+][C@]1(C(=O)NCCCNC(=O)c2ccc(-c3c4nc(c(-c5c(F)cc(S(=O)(=O)[O-])cc5F)c5ccc([nH]5)c(-c5c(F)cc(S(=O)(=O)[O-])cc5F)c5nc(c(-c6c(F)cc(S(=O)(=O)[O-])cc6F)c6ccc3[nH]6)C=C5)C=C4)cc2)CCC[C@@H]([N@@H+](C)[C@@H](C)C2CC2)C1
REMARK SMILES IDX 10 1 9 2 8 3 6 4 7 5 5 7 81 8 92 9 82 10 84 11 83 12 4 13
REMARK SMILES IDX 3 16 2 17 1 18 85 19 86 20 87 22 88 23 89 24 90 25 91 26
REMARK SMILES IDX 11 27 12 28 13 29 14 31 15 32 16 33 80 34 17 35 79 36 18 37
REMARK SMILES IDX 19 38 20 39 73 40 21 41 78 42 72 43 74 44 22 45 77 46 71 47
REMARK SMILES IDX 70 48 23 50 57 51 36 52 56 53 37 54 40 55 55 56 75 57 38 58
REMARK SMILES IDX 39 59 54 61 76 62 41 63 24 64 25 65 34 66 26 67 27 68 33 69
REMARK SMILES IDX 35 70 28 71 29 72 30 73 31 74 32 75 58 76 59 77 68 78 60 79
REMARK SMILES IDX 61 80 67 81 69 82 62 83 63 84 64 85 65 86 66 87 42 88 43 89
REMARK SMILES IDX 52 90 44 91 45 92 51 93 53 94 46 95 47 96 48 97 49 98 50 99
REMARK H PARENT 8 6 4 14 4 15 85 21 12 30 74 49 40 60
REMARK Flexibility Score: inf
ROOT
ATOM      1  C   UNL     1      -1.965   1.538   3.841  1.00  0.00     0.042 C 
ENDROOT
BRANCH   1   2
ATOM      2  C   UNL     1      -1.819   0.043   3.590  1.00  0.00     0.118 C 
BRANCH   2   3
ATOM      3  N   UNL     1      -0.720  -0.223   2.686  1.00  0.00    -0.351 N 
ATOM      4  C   UNL     1       0.582  -0.581   2.823  1.00  0.00     0.281 C 
ATOM      5  O   UNL     1       1.128  -0.725   1.719  1.00  0.00    -0.268 OA
ATOM      6  H   UNL     1      -0.981  -0.120   1.742  1.00  0.00     0.163 HD
BRANCH   4   7
ATOM      7  C   UNL     1       1.272  -1.018   4.189  1.00  0.00     0.181 C 
ATOM      8  C   UNL     1       0.890  -0.169   5.422  1.00  0.00     0.079 C 
ATOM      9  C   UNL     1       0.822  -2.485   4.368  1.00  0.00     0.144 C 
ATOM     10  C   UNL     1       1.209  -0.849   6.759  1.00  0.00     0.013 C 
ATOM     11  C   UNL     1       0.887  -3.153   5.739  1.00  0.00     0.190 C 
ATOM     12  C   UNL     1       0.491  -2.195   6.874  1.00  0.00     0.065 C 
BRANCH   7  13
ATOM     13  N   UNL     1       2.768  -0.894   4.152  1.00  0.00    -0.333 N 
ATOM     14  H   UNL     1       2.997   0.078   4.357  1.00  0.00     0.347 HD
ATOM     15  H   UNL     1       3.099  -1.578   4.833  1.00  0.00     0.347 HD
BRANCH  13  16
ATOM     16  C   UNL     1       3.451  -1.251   2.911  1.00  0.00     0.261 C 
BRANCH  16  17
ATOM     17  C   UNL     1       4.969  -1.356   3.087  1.00  0.00     0.058 C 
ATOM     18  C   UNL     1       5.398  -2.525   3.958  1.00  0.00     0.010 C 
ENDBRANCH  16  17
ENDBRANCH  13  16
ENDBRANCH   7  13
BRANCH  11  19
ATOM     19  N   UNL     1       0.259  -4.513   5.718  1.00  0.00    -0.332 N 
ATOM     20  C   UNL     1       0.742  -5.288   6.879  1.00  0.00     0.333 C 
ATOM     21  H   UNL     1       0.574  -4.825   4.799  1.00  0.00     0.348 HD
BRANCH  19  22
ATOM     22  C   UNL     1      -1.205  -4.736   5.550  1.00  0.00     0.184 C 
ATOM     23  C   UNL     1      -2.154  -3.987   6.494  1.00  0.00     0.075 C 
BRANCH  22  24
ATOM     24  C   UNL     1      -1.841  -4.868   4.168  1.00  0.00     0.047 C 
ATOM     25  C   UNL     1      -2.337  -3.670   3.389  1.00  0.00     0.010 C 
ATOM     26  C   UNL     1      -1.244  -4.536   2.822  1.00  0.00     0.010 C 
ENDBRANCH  22  24
ENDBRANCH  19  22
ENDBRANCH  11  19
ENDBRANCH   4   7
ENDBRANCH   2   3
ENDBRANCH   1   2
BRANCH   1  27
ATOM     27  C   UNL     1      -2.409   2.305   2.596  1.00  0.00     0.118 C 
BRANCH  27  28
ATOM     28  N   UNL     1      -3.753   1.931   2.167  1.00  0.00    -0.352 N 
ATOM     29  C   UNL     1      -4.900   2.684   2.104  1.00  0.00     0.251 C 
ATOM     30  H   UNL     1      -3.853   0.995   1.879  1.00  0.00     0.163 HD
ATOM     31  O   UNL     1      -5.981   2.129   1.946  1.00  0.00    -0.269 OA
BRANCH  29  32
ATOM     32  C   UNL     1      -4.827   4.155   2.235  1.00  0.00     0.039 A 
ATOM     33  C   UNL     1      -5.790   4.818   3.000  1.00  0.00     0.014 A 
ATOM     34  C   UNL     1      -3.822   4.879   1.591  1.00  0.00     0.014 A 
ATOM     35  C   UNL     1      -5.702   6.201   3.173  1.00  0.00     0.010 A 
ATOM     36  C   UNL     1      -3.684   6.240   1.835  1.00  0.00     0.010 A 
ATOM     37  C   UNL     1      -4.625   6.918   2.623  1.00  0.00    -0.014 A 
BRANCH  37  38
ATOM     38  C   UNL     1      -4.463   8.375   2.859  1.00  0.00     0.031 A 
ATOM     39  C   UNL     1      -4.487   9.333   1.698  1.00  0.00     0.074 A 
ATOM     40  C   UNL     1      -4.219   8.824   4.106  1.00  0.00     0.049 A 
ATOM     41  N   UNL     1      -4.279  10.624   1.689  1.00  0.00    -0.248 NA
ATOM     42  C   UNL     1      -4.750   8.760   0.367  1.00  0.00     0.031 C 
ATOM     43  C   UNL     1      -4.120   7.985   5.303  1.00  0.00     0.029 A 
ATOM     44  N   UNL     1      -3.996  10.094   4.575  1.00  0.00    -0.354 N 
ATOM     45  C   UNL     1      -4.368  11.013   0.357  1.00  0.00     0.074 A 
ATOM     46  C   UNL     1      -4.592   9.814  -0.419  1.00  0.00     0.031 C 
ATOM     47  C   UNL     1      -3.881   8.764   6.370  1.00  0.00     0.029 A 
ATOM     48  C   UNL     1      -3.764  10.150   5.930  1.00  0.00     0.049 A 
ATOM     49  H   UNL     1      -4.001  10.890   3.997  1.00  0.00     0.167 HD
ATOM     50  C   UNL     1      -4.295  12.260  -0.168  1.00  0.00     0.037 A 
ATOM     51  C   UNL     1      -3.480  11.199   6.726  1.00  0.00     0.037 A 
ATOM     52  C   UNL     1      -4.096  13.450   0.618  1.00  0.00     0.049 A 
ATOM     53  C   UNL     1      -3.402  12.575   6.120  1.00  0.00     0.074 A 
ATOM     54  C   UNL     1      -4.064  14.766   0.193  1.00  0.00     0.029 A 
ATOM     55  N   UNL     1      -3.892  13.468   1.991  1.00  0.00    -0.354 N 
ATOM     56  N   UNL     1      -3.555  12.932   4.867  1.00  0.00    -0.248 NA
ATOM     57  C   UNL     1      -3.122  13.690   7.035  1.00  0.00     0.031 C 
ATOM     58  C   UNL     1      -3.793  15.576   1.299  1.00  0.00     0.029 A 
ATOM     59  C   UNL     1      -3.713  14.771   2.425  1.00  0.00     0.049 A 
ATOM     60  H   UNL     1      -3.877  12.672   2.570  1.00  0.00     0.167 HD
ATOM     61  C   UNL     1      -3.421  14.316   4.848  1.00  0.00     0.074 A 
ATOM     62  C   UNL     1      -3.184  14.731   6.216  1.00  0.00     0.031 C 
ATOM     63  C   UNL     1      -3.491  15.167   3.794  1.00  0.00     0.037 A 
BRANCH  50  64
ATOM     64  C   UNL     1      -4.435  12.401  -1.660  1.00  0.00     0.058 A 
ATOM     65  C   UNL     1      -5.654  12.158  -2.314  1.00  0.00     0.135 A 
ATOM     66  C   UNL     1      -3.347  12.819  -2.444  1.00  0.00     0.135 A 
ATOM     67  F   UNL     1      -6.724  11.742  -1.617  1.00  0.00    -0.206 F 
ATOM     68  C   UNL     1      -5.782  12.294  -3.692  1.00  0.00     0.059 A 
ATOM     69  C   UNL     1      -3.461  12.993  -3.821  1.00  0.00     0.059 A 
ATOM     70  F   UNL     1      -2.157  13.066  -1.873  1.00  0.00    -0.206 F 
ATOM     71  C   UNL     1      -4.679  12.713  -4.438  1.00  0.00     0.060 A 
BRANCH  71  72
ATOM     72  S   UNL     1      -4.866  12.893  -6.224  1.00  0.00     0.124 S 
ATOM     73  O   UNL     1      -4.944  11.498  -6.650  1.00  0.00    -0.237 OA
ATOM     74  O   UNL     1      -6.104  13.658  -6.332  1.00  0.00    -0.237 OA
ATOM     75  O   UNL     1      -3.655  13.604  -6.624  1.00  0.00    -0.744 OA
ENDBRANCH  71  72
ENDBRANCH  50  64
BRANCH  51  76
ATOM     76  C   UNL     1      -3.271  10.991   8.185  1.00  0.00     0.058 A 
ATOM     77  C   UNL     1      -4.206  11.456   9.121  1.00  0.00     0.135 A 
ATOM     78  C   UNL     1      -2.145  10.309   8.672  1.00  0.00     0.135 A 
ATOM     79  F   UNL     1      -5.297  12.118   8.707  1.00  0.00    -0.206 F 
ATOM     80  C   UNL     1      -4.025  11.271  10.488  1.00  0.00     0.059 A 
ATOM     81  C   UNL     1      -1.955  10.086  10.032  1.00  0.00     0.059 A 
ATOM     82  F   UNL     1      -1.230   9.826   7.817  1.00  0.00    -0.206 F 
ATOM     83  C   UNL     1      -2.896  10.581  10.934  1.00  0.00     0.060 A 
BRANCH  83  84
ATOM     84  S   UNL     1      -2.695  10.304  12.707  1.00  0.00     0.124 S 
ATOM     85  O   UNL     1      -2.358  11.642  13.177  1.00  0.00    -0.237 OA
ATOM     86  O   UNL     1      -4.013   9.805  13.090  1.00  0.00    -0.237 OA
ATOM     87  O   UNL     1      -1.618   9.320  12.773  1.00  0.00    -0.744 OA
ENDBRANCH  83  84
ENDBRANCH  51  76
BRANCH  63  88
ATOM     88  C   UNL     1      -3.357  16.638   4.078  1.00  0.00     0.058 A 
ATOM     89  C   UNL     1      -2.127  17.216   4.428  1.00  0.00     0.135 A 
ATOM     90  C   UNL     1      -4.465  17.489   3.934  1.00  0.00     0.135 A 
ATOM     91  F   UNL     1      -1.038  16.447   4.585  1.00  0.00    -0.206 F 
ATOM     92  C   UNL     1      -2.005  18.585   4.646  1.00  0.00     0.059 A 
ATOM     93  C   UNL     1      -4.359  18.864   4.118  1.00  0.00     0.059 A 
ATOM     94  F   UNL     1      -5.663  16.989   3.591  1.00  0.00    -0.206 F 
ATOM     95  C   UNL     1      -3.126  19.401   4.484  1.00  0.00     0.060 A 
BRANCH  95  96
ATOM     96  S   UNL     1      -2.943  21.180   4.728  1.00  0.00     0.124 S 
ATOM     97  O   UNL     1      -2.809  21.266   6.178  1.00  0.00    -0.237 OA
ATOM     98  O   UNL     1      -1.738  21.478   3.961  1.00  0.00    -0.237 OA
ATOM     99  O   UNL     1      -4.180  21.728   4.178  1.00  0.00    -0.744 OA
ENDBRANCH  95  96
ENDBRANCH  63  88
ENDBRANCH  37  38
ENDBRANCH  29  32
ENDBRANCH  27  28
ENDBRANCH   1  27
TORSDOF 19
