REMARK SMILES O=C(NCCCNC(=O)c1ccc(-c2c3nc(c(-c4c(F)cc(S(=O)(=O)[O-])cc4F)c4ccc([nH]4)c(-c4c(F)cc(S(=O)(=O)[O-])cc4F)c4nc(c(-c5c(F)cc(S(=O)(=O)[O-])cc5F)c5ccc2[nH]5)C=C4)C=C3)cc1)c1ccc(/C=C/c2ccnc(-c3cccc([N+](=O)[O-])c3)[n+]2[O-])cc1
REMARK SMILES IDX 4 1 3 2 1 3 2 4 76 6 77 7 99 8 78 9 98 10 79 11 80 12 81 13
REMARK SMILES IDX 82 14 83 15 96 16 84 17 86 18 97 19 85 20 87 21 88 22 95 23
REMARK SMILES IDX 89 24 91 25 90 26 92 27 93 28 94 29 5 30 6 31 7 32 8 33 9 35
REMARK SMILES IDX 10 36 11 37 75 38 12 39 74 40 13 41 14 42 15 43 68 44 16 45
REMARK SMILES IDX 73 46 67 47 69 48 17 49 72 50 66 51 65 52 18 54 52 55 31 56
REMARK SMILES IDX 51 57 32 58 35 59 50 60 70 61 33 62 34 63 49 65 71 66 36 67
REMARK SMILES IDX 19 68 20 69 29 70 21 71 22 72 28 73 30 74 23 75 24 76 25 77
REMARK SMILES IDX 26 78 27 79 53 80 54 81 63 82 55 83 56 84 62 85 64 86 57 87
REMARK SMILES IDX 58 88 59 89 60 90 61 91 37 92 38 93 47 94 39 95 40 96 46 97
REMARK SMILES IDX 48 98 41 99 42 100 43 101 44 102 45 103
REMARK H PARENT 3 5 7 34 69 53 35 64
REMARK Flexibility Score: inf
ROOT
ATOM      1  C   UNL     1       4.477  -1.081  -0.508  1.00  0.00     0.118 C 
ENDROOT
BRANCH   1   2
ATOM      2  N   UNL     1       3.032  -0.898  -0.532  1.00  0.00    -0.352 N 
ATOM      3  O   UNL     1       1.062   0.115  -0.075  1.00  0.00    -0.269 OA
ATOM      4  C   UNL     1       2.287   0.180  -0.121  1.00  0.00     0.251 C 
ATOM      5  H   UNL     1       2.517  -1.654  -0.895  1.00  0.00     0.163 HD
BRANCH   4   6
ATOM      6  C   UNL     1       2.970   1.424   0.280  1.00  0.00     0.039 A 
ATOM      7  C   UNL     1       3.869   2.047  -0.587  1.00  0.00     0.014 A 
ATOM      8  C   UNL     1       2.707   1.972   1.534  1.00  0.00     0.014 A 
ATOM      9  C   UNL     1       4.584   3.165  -0.157  1.00  0.00     0.009 A 
ATOM     10  C   UNL     1       3.418   3.100   1.955  1.00  0.00     0.009 A 
ATOM     11  C   UNL     1       4.390   3.689   1.129  1.00  0.00    -0.025 A 
BRANCH  11  12
ATOM     12  C   UNL     1       5.134   4.856   1.633  1.00  0.00     0.012 C 
ATOM     13  C   UNL     1       6.274   5.326   1.101  1.00  0.00     0.053 C 
BRANCH  13  14
ATOM     14  C   UNL     1       6.958   6.529   1.599  1.00  0.00     0.134 A 
ATOM     15  C   UNL     1       7.191   7.571   0.699  1.00  0.00     0.100 A 
ATOM     16  N   UNL     1       7.388   6.628   2.932  1.00  0.00    -0.228 N 
ATOM     17  C   UNL     1       7.815   8.700   1.167  1.00  0.00     0.259 A 
ATOM     18  C   UNL     1       8.044   7.802   3.313  1.00  0.00     0.333 A 
ATOM     19  O   UNL     1       7.189   5.677   3.764  1.00  0.00    -0.710 OA
ATOM     20  N   UNL     1       8.232   8.841   2.436  1.00  0.00    -0.049 NA
BRANCH  18  21
ATOM     21  C   UNL     1       8.609   7.962   4.654  1.00  0.00     0.076 A 
ATOM     22  C   UNL     1       8.249   9.058   5.459  1.00  0.00     0.017 A 
ATOM     23  C   UNL     1       9.566   7.059   5.149  1.00  0.00     0.102 A 
ATOM     24  C   UNL     1       8.810   9.244   6.726  1.00  0.00     0.008 A 
ATOM     25  C   UNL     1      10.143   7.260   6.410  1.00  0.00     0.270 A 
ATOM     26  C   UNL     1       9.762   8.347   7.205  1.00  0.00     0.085 A 
BRANCH  25  27
ATOM     27  N   UNL     1      11.187   6.343   6.886  1.00  0.00     0.062 N 
ATOM     28  O   UNL     1      11.606   6.501   8.041  1.00  0.00    -0.258 OA
ATOM     29  O   UNL     1      11.610   5.491   6.093  1.00  0.00    -0.258 OA
ENDBRANCH  25  27
ENDBRANCH  18  21
ENDBRANCH  13  14
ENDBRANCH  11  12
ENDBRANCH   4   6
ENDBRANCH   1   2
BRANCH   1  30
ATOM     30  C   UNL     1       4.923  -2.135   0.496  1.00  0.00     0.042 C 
BRANCH  30  31
ATOM     31  C   UNL     1       4.425  -3.544   0.203  1.00  0.00     0.118 C 
BRANCH  31  32
ATOM     32  N   UNL     1       4.838  -4.033  -1.103  1.00  0.00    -0.352 N 
ATOM     33  C   UNL     1       5.551  -5.149  -1.463  1.00  0.00     0.251 C 
ATOM     34  H   UNL     1       4.558  -3.467  -1.859  1.00  0.00     0.163 HD
ATOM     35  O   UNL     1       5.918  -5.262  -2.631  1.00  0.00    -0.269 OA
BRANCH  33  36
ATOM     36  C   UNL     1       5.898  -6.198  -0.476  1.00  0.00     0.039 A 
ATOM     37  C   UNL     1       7.131  -6.846  -0.600  1.00  0.00     0.014 A 
ATOM     38  C   UNL     1       5.015  -6.586   0.535  1.00  0.00     0.014 A 
ATOM     39  C   UNL     1       7.495  -7.837   0.315  1.00  0.00     0.010 A 
ATOM     40  C   UNL     1       5.416  -7.510   1.500  1.00  0.00     0.010 A 
ATOM     41  C   UNL     1       6.654  -8.156   1.394  1.00  0.00    -0.014 A 
BRANCH  41  42
ATOM     42  C   UNL     1       7.062  -9.168   2.403  1.00  0.00     0.031 A 
ATOM     43  C   UNL     1       6.272 -10.440   2.578  1.00  0.00     0.074 A 
ATOM     44  C   UNL     1       8.126  -8.923   3.193  1.00  0.00     0.049 A 
ATOM     45  N   UNL     1       6.482 -11.434   3.403  1.00  0.00    -0.248 NA
ATOM     46  C   UNL     1       5.075 -10.604   1.738  1.00  0.00     0.031 C 
ATOM     47  C   UNL     1       8.929  -7.697   3.176  1.00  0.00     0.029 A 
ATOM     48  N   UNL     1       8.718  -9.690   4.165  1.00  0.00    -0.354 N 
ATOM     49  C   UNL     1       5.439 -12.330   3.194  1.00  0.00     0.074 A 
ATOM     50  C   UNL     1       4.569 -11.737   2.202  1.00  0.00     0.031 C 
ATOM     51  C   UNL     1       9.926  -7.810   4.068  1.00  0.00     0.029 A 
ATOM     52  C   UNL     1       9.820  -9.102   4.738  1.00  0.00     0.049 A 
ATOM     53  H   UNL     1       8.384 -10.578   4.427  1.00  0.00     0.167 HD
ATOM     54  C   UNL     1       5.238 -13.546   3.755  1.00  0.00     0.037 A 
ATOM     55  C   UNL     1      10.659  -9.556   5.688  1.00  0.00     0.037 A 
ATOM     56  C   UNL     1       6.126 -14.149   4.715  1.00  0.00     0.049 A 
ATOM     57  C   UNL     1      10.449 -10.933   6.254  1.00  0.00     0.074 A 
ATOM     58  C   UNL     1       6.048 -15.405   5.293  1.00  0.00     0.029 A 
ATOM     59  N   UNL     1       7.258 -13.541   5.238  1.00  0.00    -0.354 N 
ATOM     60  N   UNL     1       9.498 -11.797   5.988  1.00  0.00    -0.248 NA
ATOM     61  C   UNL     1      11.436 -11.404   7.234  1.00  0.00     0.031 C 
ATOM     62  C   UNL     1       7.116 -15.544   6.187  1.00  0.00     0.029 A 
ATOM     63  C   UNL     1       7.882 -14.391   6.137  1.00  0.00     0.049 A 
ATOM     64  H   UNL     1       7.572 -12.638   5.004  1.00  0.00     0.167 HD
ATOM     65  C   UNL     1       9.785 -12.923   6.752  1.00  0.00     0.074 A 
ATOM     66  C   UNL     1      11.008 -12.636   7.474  1.00  0.00     0.031 C 
ATOM     67  C   UNL     1       9.097 -14.088   6.850  1.00  0.00     0.037 A 
BRANCH  54  68
ATOM     68  C   UNL     1       4.014 -14.314   3.334  1.00  0.00     0.058 A 
ATOM     69  C   UNL     1       3.904 -14.877   2.052  1.00  0.00     0.135 A 
ATOM     70  C   UNL     1       2.953 -14.518   4.230  1.00  0.00     0.135 A 
ATOM     71  F   UNL     1       4.882 -14.700   1.149  1.00  0.00    -0.206 F 
ATOM     72  C   UNL     1       2.774 -15.589   1.664  1.00  0.00     0.059 A 
ATOM     73  C   UNL     1       1.823 -15.250   3.872  1.00  0.00     0.059 A 
ATOM     74  F   UNL     1       3.004 -14.002   5.468  1.00  0.00    -0.206 F 
ATOM     75  C   UNL     1       1.737 -15.769   2.581  1.00  0.00     0.060 A 
BRANCH  75  76
ATOM     76  S   UNL     1       0.280 -16.702   2.065  1.00  0.00     0.124 S 
ATOM     77  O   UNL     1      -0.394 -15.735   1.204  1.00  0.00    -0.237 OA
ATOM     78  O   UNL     1       0.868 -17.852   1.386  1.00  0.00    -0.237 OA
ATOM     79  O   UNL     1      -0.396 -17.000   3.324  1.00  0.00    -0.744 OA
ENDBRANCH  75  76
ENDBRANCH  54  68
BRANCH  55  80
ATOM     80  C   UNL     1      11.804  -8.716   6.130  1.00  0.00     0.058 A 
ATOM     81  C   UNL     1      13.119  -9.042   5.766  1.00  0.00     0.135 A 
ATOM     82  C   UNL     1      11.605  -7.567   6.910  1.00  0.00     0.135 A 
ATOM     83  F   UNL     1      13.358 -10.134   5.024  1.00  0.00    -0.206 F 
ATOM     84  C   UNL     1      14.200  -8.271   6.177  1.00  0.00     0.059 A 
ATOM     85  C   UNL     1      12.669  -6.765   7.312  1.00  0.00     0.059 A 
ATOM     86  F   UNL     1      10.364  -7.202   7.266  1.00  0.00    -0.206 F 
ATOM     87  C   UNL     1      13.965  -7.132   6.950  1.00  0.00     0.060 A 
BRANCH  87  88
ATOM     88  S   UNL     1      15.371  -6.109   7.437  1.00  0.00     0.124 S 
ATOM     89  O   UNL     1      15.960  -6.911   8.503  1.00  0.00    -0.237 OA
ATOM     90  O   UNL     1      16.139  -6.031   6.198  1.00  0.00    -0.237 OA
ATOM     91  O   UNL     1      14.745  -4.859   7.856  1.00  0.00    -0.744 OA
ENDBRANCH  87  88
ENDBRANCH  55  80
BRANCH  67  92
ATOM     92  C   UNL     1       9.674 -15.145   7.750  1.00  0.00     0.058 A 
ATOM     93  C   UNL     1       9.645 -15.018   9.148  1.00  0.00     0.135 A 
ATOM     94  C   UNL     1      10.262 -16.298   7.207  1.00  0.00     0.135 A 
ATOM     95  F   UNL     1       9.097 -13.933   9.717  1.00  0.00    -0.206 F 
ATOM     96  C   UNL     1      10.222 -15.976   9.975  1.00  0.00     0.059 A 
ATOM     97  C   UNL     1      10.820 -17.282   8.017  1.00  0.00     0.059 A 
ATOM     98  F   UNL     1      10.302 -16.476   5.877  1.00  0.00    -0.206 F 
ATOM     99  C   UNL     1      10.815 -17.101   9.399  1.00  0.00     0.060 A 
BRANCH  99 100
ATOM    100  S   UNL     1      11.574 -18.333  10.478  1.00  0.00     0.124 S 
ATOM    101  O   UNL     1      12.839 -17.688  10.814  1.00  0.00    -0.237 OA
ATOM    102  O   UNL     1      10.607 -18.439  11.567  1.00  0.00    -0.237 OA
ATOM    103  O   UNL     1      11.676 -19.513   9.624  1.00  0.00    -0.744 OA
ENDBRANCH  99 100
ENDBRANCH  67  92
ENDBRANCH  41  42
ENDBRANCH  33  36
ENDBRANCH  31  32
ENDBRANCH  30  31
ENDBRANCH   1  30
TORSDOF 17
