REMARK SMILES O=C(NCCCNC(=O)c1cn(-c2ccccc2)c2c1N=C(O)C[C@@H]2c1cccs1)c1ccc(-c2c3nc(c(-c4c(F)cc(S(=O)(=O)[O-])cc4F)c4ccc([nH]4)c(-c4c(F)cc(S(=O)(=O)[O-])cc4F)c4nc(c(-c5c(F)cc(S(=O)(=O)[O-])cc5F)c5ccc2[nH]5)C=C4)C=C3)cc1
REMARK SMILES IDX 4 1 3 2 1 3 2 4 31 6 32 7 96 8 33 9 95 10 34 11 35 12 36 13
REMARK SMILES IDX 89 14 37 15 94 16 88 17 90 18 38 19 93 20 87 21 86 22 39 24
REMARK SMILES IDX 73 25 52 26 72 27 53 28 56 29 71 30 91 31 54 32 55 33 70 35
REMARK SMILES IDX 92 36 57 37 40 38 41 39 50 40 42 41 43 42 49 43 51 44 44 45
REMARK SMILES IDX 45 46 46 47 47 48 48 49 74 50 75 51 84 52 76 53 77 54 83 55
REMARK SMILES IDX 85 56 78 57 79 58 80 59 81 60 82 61 58 62 59 63 68 64 60 65
REMARK SMILES IDX 61 66 67 67 69 68 62 69 63 70 64 71 65 72 66 73 5 74 6 75
REMARK SMILES IDX 7 76 8 77 9 79 10 80 11 81 20 82 12 83 19 84 21 85 25 86
REMARK SMILES IDX 22 87 24 88 13 89 14 90 18 91 15 92 17 93 16 94 26 95 27 96
REMARK SMILES IDX 30 97 28 98 29 99 23 100
REMARK H PARENT 3 5 90 23 56 34 7 78 23 101
REMARK Flexibility Score: inf
ROOT
ATOM      1  C   UNL     1       4.728  -1.093  -0.386  1.00  0.00     0.118 C 
ENDROOT
BRANCH   1   2
ATOM      2  N   UNL     1       3.311  -0.952  -0.646  1.00  0.00    -0.352 N 
ATOM      3  O   UNL     1       1.274  -0.106  -0.737  1.00  0.00    -0.269 OA
ATOM      4  C   UNL     1       2.303  -0.232  -0.067  1.00  0.00     0.251 C 
ATOM      5  H   UNL     1       3.006  -1.495  -1.409  1.00  0.00     0.163 HD
BRANCH   4   6
ATOM      6  C   UNL     1       2.328   0.314   1.318  1.00  0.00     0.039 A 
ATOM      7  C   UNL     1       3.458   0.468   2.122  1.00  0.00     0.014 A 
ATOM      8  C   UNL     1       1.070   0.654   1.854  1.00  0.00     0.014 A 
ATOM      9  C   UNL     1       3.328   0.860   3.454  1.00  0.00     0.010 A 
ATOM     10  C   UNL     1       0.934   1.053   3.177  1.00  0.00     0.010 A 
ATOM     11  C   UNL     1       2.063   1.126   3.987  1.00  0.00    -0.014 A 
BRANCH  11  12
ATOM     12  C   UNL     1       1.972   1.704   5.328  1.00  0.00     0.031 A 
ATOM     13  C   UNL     1       2.504   3.094   5.405  1.00  0.00     0.074 A 
ATOM     14  C   UNL     1       1.298   1.131   6.348  1.00  0.00     0.049 A 
ATOM     15  N   UNL     1       3.504   3.534   6.098  1.00  0.00    -0.248 NA
ATOM     16  C   UNL     1       1.948   4.090   4.471  1.00  0.00     0.031 C 
ATOM     17  C   UNL     1       0.490  -0.090   6.288  1.00  0.00     0.029 A 
ATOM     18  N   UNL     1       1.083   1.574   7.623  1.00  0.00    -0.354 N 
ATOM     19  C   UNL     1       3.530   4.912   5.881  1.00  0.00     0.074 A 
ATOM     20  C   UNL     1       2.717   5.150   4.721  1.00  0.00     0.031 C 
ATOM     21  C   UNL     1      -0.300  -0.157   7.383  1.00  0.00     0.029 A 
ATOM     22  C   UNL     1       0.015   0.951   8.271  1.00  0.00     0.049 A 
ATOM     23  H   UNL     1       1.633   2.271   8.048  1.00  0.00     0.167 HD
ATOM     24  C   UNL     1       3.956   5.767   6.853  1.00  0.00     0.037 A 
ATOM     25  C   UNL     1      -0.614   1.354   9.409  1.00  0.00     0.037 A 
ATOM     26  C   UNL     1       4.764   5.073   7.828  1.00  0.00     0.049 A 
ATOM     27  C   UNL     1       0.303   2.282  10.116  1.00  0.00     0.074 A 
ATOM     28  C   UNL     1       5.911   4.304   7.792  1.00  0.00     0.029 A 
ATOM     29  N   UNL     1       4.201   4.840   9.058  1.00  0.00    -0.354 N 
ATOM     30  N   UNL     1       1.431   1.922  10.661  1.00  0.00    -0.248 NA
ATOM     31  C   UNL     1       0.166   3.706   9.855  1.00  0.00     0.031 C 
ATOM     32  C   UNL     1       5.728   3.311   8.800  1.00  0.00     0.029 A 
ATOM     33  C   UNL     1       4.513   3.564   9.434  1.00  0.00     0.049 A 
ATOM     34  H   UNL     1       3.665   5.482   9.579  1.00  0.00     0.167 HD
ATOM     35  C   UNL     1       2.300   2.967  10.391  1.00  0.00     0.074 A 
ATOM     36  C   UNL     1       1.440   4.080   9.996  1.00  0.00     0.031 C 
ATOM     37  C   UNL     1       3.638   2.740  10.237  1.00  0.00     0.037 A 
BRANCH  24  38
ATOM     38  C   UNL     1       3.260   7.082   7.186  1.00  0.00     0.058 A 
ATOM     39  C   UNL     1       3.779   7.867   8.241  1.00  0.00     0.135 A 
ATOM     40  C   UNL     1       1.953   7.428   6.772  1.00  0.00     0.135 A 
ATOM     41  F   UNL     1       5.023   7.659   8.700  1.00  0.00    -0.206 F 
ATOM     42  C   UNL     1       3.008   8.806   8.927  1.00  0.00     0.059 A 
ATOM     43  C   UNL     1       1.187   8.397   7.409  1.00  0.00     0.059 A 
ATOM     44  F   UNL     1       1.307   6.794   5.789  1.00  0.00    -0.206 F 
ATOM     45  C   UNL     1       1.701   9.040   8.520  1.00  0.00     0.060 A 
BRANCH  45  46
ATOM     46  S   UNL     1       0.656  10.148   9.479  1.00  0.00     0.124 S 
ATOM     47  O   UNL     1       0.462   9.371  10.697  1.00  0.00    -0.237 OA
ATOM     48  O   UNL     1       1.504  11.329   9.598  1.00  0.00    -0.237 OA
ATOM     49  O   UNL     1      -0.522  10.310   8.633  1.00  0.00    -0.744 OA
ENDBRANCH  45  46
ENDBRANCH  24  38
BRANCH  25  50
ATOM     50  C   UNL     1      -2.059   1.247   9.771  1.00  0.00     0.058 A 
ATOM     51  C   UNL     1      -2.517   1.555  11.068  1.00  0.00     0.135 A 
ATOM     52  C   UNL     1      -3.058   1.117   8.786  1.00  0.00     0.135 A 
ATOM     53  F   UNL     1      -1.643   1.717  12.073  1.00  0.00    -0.206 F 
ATOM     54  C   UNL     1      -3.872   1.775  11.356  1.00  0.00     0.059 A 
ATOM     55  C   UNL     1      -4.413   1.315   9.052  1.00  0.00     0.059 A 
ATOM     56  F   UNL     1      -2.744   0.882   7.504  1.00  0.00    -0.206 F 
ATOM     57  C   UNL     1      -4.813   1.672  10.333  1.00  0.00     0.060 A 
BRANCH  57  58
ATOM     58  S   UNL     1      -6.537   2.121  10.646  1.00  0.00     0.124 S 
ATOM     59  O   UNL     1      -6.983   1.030  11.507  1.00  0.00    -0.237 OA
ATOM     60  O   UNL     1      -6.408   3.426  11.286  1.00  0.00    -0.237 OA
ATOM     61  O   UNL     1      -7.130   2.142   9.311  1.00  0.00    -0.744 OA
ENDBRANCH  57  58
ENDBRANCH  25  50
BRANCH  37  62
ATOM     62  C   UNL     1       4.206   1.449  10.758  1.00  0.00     0.058 A 
ATOM     63  C   UNL     1       3.849   0.167  10.305  1.00  0.00     0.135 A 
ATOM     64  C   UNL     1       5.253   1.533  11.690  1.00  0.00     0.135 A 
ATOM     65  F   UNL     1       2.936   0.003   9.337  1.00  0.00    -0.206 F 
ATOM     66  C   UNL     1       4.469  -0.982  10.801  1.00  0.00     0.059 A 
ATOM     67  C   UNL     1       5.908   0.405  12.170  1.00  0.00     0.059 A 
ATOM     68  F   UNL     1       5.681   2.733  12.115  1.00  0.00    -0.206 F 
ATOM     69  C   UNL     1       5.497  -0.853  11.735  1.00  0.00     0.060 A 
BRANCH  69  70
ATOM     70  S   UNL     1       6.335  -2.335  12.333  1.00  0.00     0.124 S 
ATOM     71  O   UNL     1       5.311  -2.951  13.169  1.00  0.00    -0.237 OA
ATOM     72  O   UNL     1       6.653  -3.042  11.096  1.00  0.00    -0.237 OA
ATOM     73  O   UNL     1       7.492  -1.807  13.052  1.00  0.00    -0.744 OA
ENDBRANCH  69  70
ENDBRANCH  37  62
ENDBRANCH  11  12
ENDBRANCH   4   6
ENDBRANCH   1   2
BRANCH   1  74
ATOM     74  C   UNL     1       5.108  -2.164   0.629  1.00  0.00     0.042 C 
BRANCH  74  75
ATOM     75  C   UNL     1       4.700  -3.586   0.256  1.00  0.00     0.118 C 
BRANCH  75  76
ATOM     76  N   UNL     1       5.333  -4.065  -0.963  1.00  0.00    -0.352 N 
ATOM     77  C   UNL     1       6.022  -5.237  -1.191  1.00  0.00     0.255 C 
ATOM     78  H   UNL     1       5.257  -3.465  -1.740  1.00  0.00     0.163 HD
ATOM     79  O   UNL     1       6.576  -5.387  -2.272  1.00  0.00    -0.269 OA
BRANCH  77  80
ATOM     80  C   UNL     1       6.123  -6.226  -0.129  1.00  0.00     0.084 A 
ATOM     81  C   UNL     1       7.300  -6.860   0.239  1.00  0.00     0.107 A 
ATOM     82  C   UNL     1       5.136  -6.766   0.720  1.00  0.00     0.101 A 
ATOM     83  N   UNL     1       7.051  -7.732   1.285  1.00  0.00    -0.317 N 
ATOM     84  C   UNL     1       5.726  -7.572   1.659  1.00  0.00     0.058 A 
ATOM     85  N   UNL     1       3.793  -6.411   0.711  1.00  0.00    -0.215 NA
ATOM     86  C   UNL     1       5.066  -8.024   2.921  1.00  0.00     0.088 C 
ATOM     87  C   UNL     1       3.125  -6.793   1.744  1.00  0.00     0.187 C 
ATOM     88  C   UNL     1       3.566  -7.656   2.897  1.00  0.00     0.112 C 
BRANCH  83  89
ATOM     89  C   UNL     1       8.027  -8.572   1.879  1.00  0.00     0.045 A 
ATOM     90  C   UNL     1       7.710  -9.890   2.219  1.00  0.00     0.026 A 
ATOM     91  C   UNL     1       9.310  -8.069   2.130  1.00  0.00     0.026 A 
ATOM     92  C   UNL     1       8.672 -10.698   2.827  1.00  0.00     0.002 A 
ATOM     93  C   UNL     1      10.255  -8.872   2.771  1.00  0.00     0.002 A 
ATOM     94  C   UNL     1       9.937 -10.185   3.117  1.00  0.00     0.000 A 
ENDBRANCH  83  89
BRANCH  86  95
ATOM     95  C   UNL     1       5.680  -7.506   4.222  1.00  0.00     0.014 A 
ATOM     96  C   UNL     1       5.395  -7.967   5.500  1.00  0.00     0.016 A 
ATOM     97  S   UNL     1       6.785  -6.191   4.295  1.00  0.00    -0.148 S 
ATOM     98  C   UNL     1       6.113  -7.273   6.514  1.00  0.00     0.012 A 
ATOM     99  C   UNL     1       6.944  -6.312   5.989  1.00  0.00     0.065 A 
ENDBRANCH  86  95
BRANCH  87 100
ATOM    100  O   UNL     1       1.834  -6.405   1.826  1.00  0.00    -0.496 OA
ATOM    101  H   UNL     1       1.464  -5.864   1.156  1.00  0.00     0.294 HD
ENDBRANCH  87 100
ENDBRANCH  77  80
ENDBRANCH  75  76
ENDBRANCH  74  75
ENDBRANCH   1  74
TORSDOF 16
