REMARK SMILES COc1cccc([C@H]2CC(c3ccc(S(C)(=O)=O)cc3)=NN2c2ccc(C(=O)NCCCNC(=O)c3ccc(-c4c5nc(c(-c6c(F)cc(S(=O)(=O)[O-])cc6F)c6ccc([nH]6)c(-c6c(F)cc(S(=O)(=O)[O-])cc6F)c6nc(c(-c7c(F)cc(S(=O)(=O)[O-])cc7F)c7ccc4[nH]7)C=C6)C=C5)cc3)cc2)c1
REMARK SMILES IDX 31 1 30 2 29 3 27 4 28 5 26 7 23 8 24 9 103 10 25 11 102 12
REMARK SMILES IDX 22 13 8 14 9 15 10 16 21 17 7 18 3 19 4 20 104 21 5 22 6 23
REMARK SMILES IDX 2 24 1 25 11 26 12 27 20 28 13 29 19 30 14 31 15 32 16 33
REMARK SMILES IDX 17 34 18 35 32 36 33 37 34 38 35 40 36 41 37 42 101 43 38 44
REMARK SMILES IDX 100 45 39 46 40 47 41 48 94 49 42 50 99 51 93 52 95 53 43 54
REMARK SMILES IDX 98 55 92 56 91 57 44 59 78 60 57 61 77 62 58 63 61 64 76 65
REMARK SMILES IDX 96 66 59 67 60 68 75 70 97 71 62 72 45 73 46 74 55 75 47 76
REMARK SMILES IDX 48 77 54 78 56 79 49 80 50 81 51 82 52 83 53 84 79 85 80 86
REMARK SMILES IDX 89 87 81 88 82 89 88 90 90 91 83 92 84 93 85 94 86 95 87 96
REMARK SMILES IDX 63 97 64 98 73 99 65 100 66 101 72 102 74 103 67 104 68 105
REMARK SMILES IDX 69 106 70 107 71 108
REMARK H PARENT 29 6 33 39 95 58 61 69
REMARK Flexibility Score: inf
ROOT
ATOM      1  C   UNL     1       5.129   8.556  -5.453  1.00  0.00     0.042 C 
ENDROOT
BRANCH   1   2
ATOM      2  C   UNL     1       3.893   7.662  -5.372  1.00  0.00     0.118 C 
BRANCH   2   3
ATOM      3  N   UNL     1       4.093   6.431  -6.113  1.00  0.00    -0.352 N 
ATOM      4  C   UNL     1       4.423   5.159  -5.722  1.00  0.00     0.251 C 
ATOM      5  O   UNL     1       4.478   4.296  -6.599  1.00  0.00    -0.269 OA
ATOM      6  H   UNL     1       3.969   6.527  -7.085  1.00  0.00     0.163 HD
BRANCH   4   7
ATOM      7  C   UNL     1       4.649   4.768  -4.303  1.00  0.00     0.039 A 
ATOM      8  C   UNL     1       4.923   3.857  -1.640  1.00  0.00     0.060 A 
ATOM      9  C   UNL     1       4.549   2.979  -2.661  1.00  0.00     0.029 A 
ATOM     10  C   UNL     1       5.222   5.178  -1.978  1.00  0.00     0.029 A 
ATOM     11  C   UNL     1       4.392   3.430  -3.973  1.00  0.00     0.016 A 
ATOM     12  C   UNL     1       5.124   5.619  -3.303  1.00  0.00     0.016 A 
BRANCH   8  13
ATOM     13  N   UNL     1       4.988   3.408  -0.334  1.00  0.00    -0.257 N 
ATOM     14  C   UNL     1       4.188   3.939   0.767  1.00  0.00     0.144 C 
ATOM     15  C   UNL     1       4.718   3.150   1.973  1.00  0.00     0.091 C 
ATOM     16  C   UNL     1       5.839   2.393   1.315  1.00  0.00     0.071 C 
ATOM     17  N   UNL     1       5.958   2.541   0.034  1.00  0.00    -0.176 NA
BRANCH  14  18
ATOM     18  C   UNL     1       2.703   3.732   0.508  1.00  0.00    -0.019 A 
ATOM     19  C   UNL     1       0.830   2.273  -0.064  1.00  0.00     0.119 A 
ATOM     20  C   UNL     1      -0.002   3.389  -0.147  1.00  0.00     0.046 A 
ATOM     21  C   UNL     1       2.177   2.448   0.256  1.00  0.00     0.052 A 
ATOM     22  C   UNL     1       0.497   4.666   0.108  1.00  0.00     0.004 A 
ATOM     23  C   UNL     1       1.842   4.838   0.436  1.00  0.00     0.006 A 
BRANCH  19  24
ATOM     24  O   UNL     1       0.224   1.080  -0.350  1.00  0.00    -0.497 OA
ATOM     25  C   UNL     1       0.926  -0.095   0.034  1.00  0.00     0.278 C 
ENDBRANCH  19  24
ENDBRANCH  14  18
BRANCH  16  26
ATOM     26  C   UNL     1       6.762   1.558   2.086  1.00  0.00    -0.002 A 
ATOM     27  C   UNL     1       8.133   1.819   1.983  1.00  0.00     0.011 A 
ATOM     28  C   UNL     1       6.286   0.488   2.844  1.00  0.00     0.011 A 
ATOM     29  C   UNL     1       9.043   1.003   2.651  1.00  0.00     0.021 A 
ATOM     30  C   UNL     1       7.198  -0.348   3.492  1.00  0.00     0.021 A 
ATOM     31  C   UNL     1       8.570  -0.090   3.384  1.00  0.00     0.067 A 
BRANCH  31  32
ATOM     32  S   UNL     1       9.741  -1.170   4.174  1.00  0.00     0.175 S 
ATOM     33  C   UNL     1      10.739  -1.782   2.840  1.00  0.00     0.163 C 
ATOM     34  O   UNL     1      10.565  -0.342   5.030  1.00  0.00    -0.224 OA
ATOM     35  O   UNL     1       9.001  -2.297   4.713  1.00  0.00    -0.224 OA
ENDBRANCH  31  32
ENDBRANCH  16  26
ENDBRANCH   8  13
ENDBRANCH   4   7
ENDBRANCH   2   3
ENDBRANCH   1   2
BRANCH   1  36
ATOM     36  C   UNL     1       5.300   9.222  -6.816  1.00  0.00     0.118 C 
BRANCH  36  37
ATOM     37  N   UNL     1       4.278  10.232  -7.054  1.00  0.00    -0.352 N 
ATOM     38  C   UNL     1       4.412  11.566  -7.346  1.00  0.00     0.251 C 
ATOM     39  H   UNL     1       3.350   9.908  -6.999  1.00  0.00     0.163 HD
ATOM     40  O   UNL     1       3.428  12.297  -7.274  1.00  0.00    -0.269 OA
BRANCH  38  41
ATOM     41  C   UNL     1       5.726  12.126  -7.734  1.00  0.00     0.039 A 
ATOM     42  C   UNL     1       6.093  13.383  -7.245  1.00  0.00     0.014 A 
ATOM     43  C   UNL     1       6.571  11.445  -8.615  1.00  0.00     0.014 A 
ATOM     44  C   UNL     1       7.325  13.935  -7.601  1.00  0.00     0.010 A 
ATOM     45  C   UNL     1       7.827  11.967  -8.917  1.00  0.00     0.010 A 
ATOM     46  C   UNL     1       8.213  13.221  -8.420  1.00  0.00    -0.014 A 
BRANCH  46  47
ATOM     47  C   UNL     1       9.547  13.770  -8.774  1.00  0.00     0.031 A 
ATOM     48  C   UNL     1       9.870  14.106 -10.205  1.00  0.00     0.074 A 
ATOM     49  C   UNL     1      10.486  13.904  -7.817  1.00  0.00     0.049 A 
ATOM     50  N   UNL     1      11.001  14.511 -10.723  1.00  0.00    -0.248 NA
ATOM     51  C   UNL     1       8.787  13.939 -11.187  1.00  0.00     0.031 C 
ATOM     52  C   UNL     1      10.304  13.572  -6.402  1.00  0.00     0.029 A 
ATOM     53  N   UNL     1      11.785  14.340  -7.890  1.00  0.00    -0.354 N 
ATOM     54  C   UNL     1      10.772  14.631 -12.089  1.00  0.00     0.074 A 
ATOM     55  C   UNL     1       9.407  14.213 -12.325  1.00  0.00     0.031 C 
ATOM     56  C   UNL     1      11.443  13.829  -5.739  1.00  0.00     0.029 A 
ATOM     57  C   UNL     1      12.447  14.309  -6.685  1.00  0.00     0.049 A 
ATOM     58  H   UNL     1      12.204  14.647  -8.727  1.00  0.00     0.167 HD
ATOM     59  C   UNL     1      11.616  15.068 -13.054  1.00  0.00     0.037 A 
ATOM     60  C   UNL     1      13.721  14.620  -6.379  1.00  0.00     0.037 A 
ATOM     61  C   UNL     1      12.964  15.509 -12.806  1.00  0.00     0.049 A 
ATOM     62  C   UNL     1      14.637  15.110  -7.466  1.00  0.00     0.074 A 
ATOM     63  C   UNL     1      13.882  16.022 -13.706  1.00  0.00     0.029 A 
ATOM     64  N   UNL     1      13.588  15.490 -11.567  1.00  0.00    -0.354 N 
ATOM     65  N   UNL     1      14.387  15.268  -8.744  1.00  0.00    -0.248 NA
ATOM     66  C   UNL     1      16.006  15.469  -7.072  1.00  0.00     0.031 C 
ATOM     67  C   UNL     1      15.073  16.279 -13.018  1.00  0.00     0.029 A 
ATOM     68  C   UNL     1      14.883  15.968 -11.681  1.00  0.00     0.049 A 
ATOM     69  H   UNL     1      13.172  15.182 -10.729  1.00  0.00     0.167 HD
ATOM     70  C   UNL     1      15.558  15.771  -9.301  1.00  0.00     0.074 A 
ATOM     71  C   UNL     1      16.513  15.899  -8.219  1.00  0.00     0.031 C 
ATOM     72  C   UNL     1      15.818  16.098 -10.591  1.00  0.00     0.037 A 
BRANCH  59  73
ATOM     73  C   UNL     1      11.105  15.096 -14.469  1.00  0.00     0.058 A 
ATOM     74  C   UNL     1      10.139  16.027 -14.884  1.00  0.00     0.135 A 
ATOM     75  C   UNL     1      11.610  14.206 -15.430  1.00  0.00     0.135 A 
ATOM     76  F   UNL     1       9.611  16.892 -14.004  1.00  0.00    -0.206 F 
ATOM     77  C   UNL     1       9.671  16.055 -16.194  1.00  0.00     0.059 A 
ATOM     78  C   UNL     1      11.176  14.234 -16.753  1.00  0.00     0.059 A 
ATOM     79  F   UNL     1      12.535  13.295 -15.088  1.00  0.00    -0.206 F 
ATOM     80  C   UNL     1      10.195  15.153 -17.121  1.00  0.00     0.060 A 
BRANCH  80  81
ATOM     81  S   UNL     1       9.580  15.205 -18.818  1.00  0.00     0.124 S 
ATOM     82  O   UNL     1       8.258  14.604 -18.666  1.00  0.00    -0.237 OA
ATOM     83  O   UNL     1       9.594  16.634 -19.112  1.00  0.00    -0.237 OA
ATOM     84  O   UNL     1      10.552  14.406 -19.557  1.00  0.00    -0.744 OA
ENDBRANCH  80  81
ENDBRANCH  59  73
BRANCH  60  85
ATOM     85  C   UNL     1      14.197  14.497  -4.975  1.00  0.00     0.058 A 
ATOM     86  C   UNL     1      14.461  15.637  -4.202  1.00  0.00     0.135 A 
ATOM     87  C   UNL     1      14.379  13.242  -4.374  1.00  0.00     0.135 A 
ATOM     88  F   UNL     1      14.306  16.859  -4.735  1.00  0.00    -0.206 F 
ATOM     89  C   UNL     1      14.903  15.540  -2.887  1.00  0.00     0.059 A 
ATOM     90  C   UNL     1      14.797  13.119  -3.053  1.00  0.00     0.059 A 
ATOM     91  F   UNL     1      14.122  12.121  -5.066  1.00  0.00    -0.206 F 
ATOM     92  C   UNL     1      15.066  14.274  -2.320  1.00  0.00     0.060 A 
BRANCH  92  93
ATOM     93  S   UNL     1      15.590  14.158  -0.596  1.00  0.00     0.124 S 
ATOM     94  O   UNL     1      17.004  14.502  -0.695  1.00  0.00    -0.237 OA
ATOM     95  O   UNL     1      14.736  15.148   0.053  1.00  0.00    -0.237 OA
ATOM     96  O   UNL     1      15.299  12.770  -0.251  1.00  0.00    -0.744 OA
ENDBRANCH  92  93
ENDBRANCH  60  85
BRANCH  72  97
ATOM     97  C   UNL     1      17.176  16.661 -10.901  1.00  0.00     0.058 A 
ATOM     98  C   UNL     1      18.321  15.851 -10.929  1.00  0.00     0.135 A 
ATOM     99  C   UNL     1      17.323  18.019 -11.228  1.00  0.00     0.135 A 
ATOM    100  F   UNL     1      18.235  14.548 -10.617  1.00  0.00    -0.206 F 
ATOM    101  C   UNL     1      19.570  16.371 -11.252  1.00  0.00     0.059 A 
ATOM    102  C   UNL     1      18.558  18.555 -11.579  1.00  0.00     0.059 A 
ATOM    103  F   UNL     1      16.257  18.834 -11.226  1.00  0.00    -0.206 F 
ATOM    104  C   UNL     1      19.678  17.725 -11.578  1.00  0.00     0.060 A 
BRANCH 104 105
ATOM    105  S   UNL     1      21.297  18.380 -12.033  1.00  0.00     0.124 S 
ATOM    106  O   UNL     1      21.958  18.458 -10.735  1.00  0.00    -0.237 OA
ATOM    107  O   UNL     1      21.805  17.358 -12.943  1.00  0.00    -0.237 OA
ATOM    108  O   UNL     1      20.982  19.663 -12.655  1.00  0.00    -0.744 OA
ENDBRANCH 104 105
ENDBRANCH  72  97
ENDBRANCH  46  47
ENDBRANCH  38  41
ENDBRANCH  36  37
ENDBRANCH   1  36
TORSDOF 18
