REMARK SMILES CC(C)(C)c1cc(Nc2ccccc2C(=O)NCCCNC(=O)c2ccc(-c3c4nc(c(-c5c(F)cc(S(=O)(=O)[O-])cc5F)c5ccc([nH]5)c(-c5c(F)cc(S(=O)(=O)[O-])cc5F)c5nc(c(-c6c(F)cc(S(=O)(=O)[O-])cc6F)c6ccc3[nH]6)C=C5)C=C4)cc2)cc2c1OCC2(C)C
REMARK SMILES IDX 19 1 18 2 17 3 15 4 16 5 14 7 9 8 10 9 11 10 13 11 12 12
REMARK SMILES IDX 8 13 7 15 5 16 6 17 92 18 91 19 93 20 90 21 95 22 94 23
REMARK SMILES IDX 96 24 97 25 2 26 1 27 3 28 4 29 20 30 21 31 22 32 23 34
REMARK SMILES IDX 24 35 25 36 89 37 26 38 88 39 27 40 28 41 29 42 82 43 30 44
REMARK SMILES IDX 87 45 81 46 83 47 31 48 86 49 80 50 79 51 32 53 66 54 45 55
REMARK SMILES IDX 65 56 46 57 49 58 64 59 84 60 47 61 48 62 63 64 85 65 50 66
REMARK SMILES IDX 33 67 34 68 43 69 35 70 36 71 42 72 44 73 37 74 38 75 39 76
REMARK SMILES IDX 40 77 41 78 67 79 68 80 77 81 69 82 70 83 76 84 78 85 71 86
REMARK SMILES IDX 72 87 73 88 74 89 75 90 51 91 52 92 61 93 53 94 54 95 60 96
REMARK SMILES IDX 62 97 55 98 56 99 57 100 58 101 59 102
REMARK H PARENT 17 6 8 14 21 33 83 52 49 63
REMARK Flexibility Score: inf
ROOT
ATOM      1  C   UNL     1      -2.424   4.503   1.841  1.00  0.00     0.042 C 
ENDROOT
BRANCH   1   2
ATOM      2  C   UNL     1      -1.282   5.491   1.639  1.00  0.00     0.118 C 
BRANCH   2   3
ATOM      3  N   UNL     1      -1.632   6.890   1.740  1.00  0.00    -0.352 N 
ATOM      4  C   UNL     1      -0.912   7.981   2.146  1.00  0.00     0.253 C 
ATOM      5  O   UNL     1      -1.484   9.074   2.063  1.00  0.00    -0.269 OA
ATOM      6  H   UNL     1      -2.556   7.095   1.469  1.00  0.00     0.163 HD
BRANCH   4   7
ATOM      7  C   UNL     1       0.460   7.958   2.730  1.00  0.00     0.063 A 
ATOM      8  C   UNL     1       1.601   7.278   2.255  1.00  0.00     0.051 A 
ATOM      9  C   UNL     1       2.841   7.540   2.881  1.00  0.00     0.027 A 
ATOM     10  C   UNL     1       2.960   8.400   3.972  1.00  0.00     0.002 A 
ATOM     11  C   UNL     1       0.602   8.830   3.837  1.00  0.00     0.016 A 
ATOM     12  C   UNL     1       1.832   9.037   4.462  1.00  0.00     0.001 A 
BRANCH   8  13
ATOM     13  N   UNL     1       1.586   6.271   1.263  1.00  0.00    -0.355 N 
ATOM     14  H   UNL     1       1.371   6.552   0.344  1.00  0.00     0.167 HD
BRANCH  13  15
ATOM     15  C   UNL     1       1.852   4.890   1.471  1.00  0.00     0.039 A 
ATOM     16  C   UNL     1       1.575   2.548   0.670  1.00  0.00     0.002 A 
ATOM     17  C   UNL     1       1.538   3.953   0.459  1.00  0.00     0.034 A 
ATOM     18  C   UNL     1       1.990   2.141   1.937  1.00  0.00     0.127 A 
ATOM     19  C   UNL     1       2.377   3.040   2.918  1.00  0.00     0.006 A 
ATOM     20  O   UNL     1       1.994   0.849   2.392  1.00  0.00    -0.492 OA
ATOM     21  C   UNL     1       2.311   4.405   2.700  1.00  0.00     0.034 A 
ATOM     22  C   UNL     1       2.746   2.324   4.175  1.00  0.00     0.028 C 
ATOM     23  C   UNL     1       2.691   0.876   3.657  1.00  0.00     0.240 C 
ATOM     24  C   UNL     1       4.150   2.696   4.658  1.00  0.00     0.020 C 
ATOM     25  C   UNL     1       1.716   2.572   5.283  1.00  0.00     0.020 C 
BRANCH  16  26
ATOM     26  C   UNL     1       1.069   1.576  -0.408  1.00  0.00    -0.009 C 
ATOM     27  C   UNL     1       1.540   0.111  -0.247  1.00  0.00     0.016 C 
ATOM     28  C   UNL     1       1.504   2.013  -1.827  1.00  0.00     0.016 C 
ATOM     29  C   UNL     1      -0.467   1.575  -0.349  1.00  0.00     0.016 C 
ENDBRANCH  16  26
ENDBRANCH  13  15
ENDBRANCH   8  13
ENDBRANCH   4   7
ENDBRANCH   2   3
ENDBRANCH   1   2
BRANCH   1  30
ATOM     30  C   UNL     1      -3.652   4.737   0.971  1.00  0.00     0.118 C 
BRANCH  30  31
ATOM     31  N   UNL     1      -3.491   4.431  -0.445  1.00  0.00    -0.352 N 
ATOM     32  C   UNL     1      -3.695   3.306  -1.219  1.00  0.00     0.251 C 
ATOM     33  H   UNL     1      -3.163   5.199  -0.967  1.00  0.00     0.163 HD
ATOM     34  O   UNL     1      -3.475   3.395  -2.422  1.00  0.00    -0.269 OA
BRANCH  32  35
ATOM     35  C   UNL     1      -4.073   1.984  -0.647  1.00  0.00     0.039 A 
ATOM     36  C   UNL     1      -4.830   1.844   0.505  1.00  0.00     0.014 A 
ATOM     37  C   UNL     1      -3.625   0.819  -1.293  1.00  0.00     0.014 A 
ATOM     38  C   UNL     1      -4.904   0.615   1.149  1.00  0.00     0.010 A 
ATOM     39  C   UNL     1      -3.802  -0.444  -0.705  1.00  0.00     0.010 A 
ATOM     40  C   UNL     1      -4.384  -0.548   0.561  1.00  0.00    -0.014 A 
BRANCH  40  41
ATOM     41  C   UNL     1      -4.500  -1.829   1.311  1.00  0.00     0.031 A 
ATOM     42  C   UNL     1      -3.278  -2.571   1.788  1.00  0.00     0.074 A 
ATOM     43  C   UNL     1      -5.728  -2.245   1.684  1.00  0.00     0.049 A 
ATOM     44  N   UNL     1      -3.209  -3.605   2.590  1.00  0.00    -0.248 NA
ATOM     45  C   UNL     1      -1.968  -2.104   1.309  1.00  0.00     0.031 C 
ATOM     46  C   UNL     1      -6.985  -1.611   1.277  1.00  0.00     0.029 A 
ATOM     47  N   UNL     1      -6.125  -3.243   2.538  1.00  0.00    -0.354 N 
ATOM     48  C   UNL     1      -1.860  -3.920   2.698  1.00  0.00     0.074 A 
ATOM     49  C   UNL     1      -1.142  -2.985   1.860  1.00  0.00     0.031 C 
ATOM     50  C   UNL     1      -7.997  -2.156   1.966  1.00  0.00     0.029 A 
ATOM     51  C   UNL     1      -7.475  -3.229   2.804  1.00  0.00     0.049 A 
ATOM     52  H   UNL     1      -5.504  -3.904   2.923  1.00  0.00     0.167 HD
ATOM     53  C   UNL     1      -1.274  -4.892   3.438  1.00  0.00     0.037 A 
ATOM     54  C   UNL     1      -8.216  -3.988   3.634  1.00  0.00     0.037 A 
ATOM     55  C   UNL     1      -1.991  -5.801   4.297  1.00  0.00     0.049 A 
ATOM     56  C   UNL     1      -7.545  -5.066   4.432  1.00  0.00     0.074 A 
ATOM     57  C   UNL     1      -1.481  -6.803   5.105  1.00  0.00     0.029 A 
ATOM     58  N   UNL     1      -3.368  -5.817   4.464  1.00  0.00    -0.354 N 
ATOM     59  N   UNL     1      -6.267  -5.345   4.519  1.00  0.00    -0.248 NA
ATOM     60  C   UNL     1      -8.414  -5.947   5.222  1.00  0.00     0.031 C 
ATOM     61  C   UNL     1      -2.552  -7.449   5.731  1.00  0.00     0.029 A 
ATOM     62  C   UNL     1      -3.727  -6.826   5.343  1.00  0.00     0.049 A 
ATOM     63  H   UNL     1      -3.997  -5.202   4.023  1.00  0.00     0.167 HD
ATOM     64  C   UNL     1      -6.178  -6.445   5.362  1.00  0.00     0.074 A 
ATOM     65  C   UNL     1      -7.528  -6.760   5.784  1.00  0.00     0.031 C 
ATOM     66  C   UNL     1      -5.077  -7.138   5.739  1.00  0.00     0.037 A 
BRANCH  53  67
ATOM     67  C   UNL     1       0.221  -5.038   3.356  1.00  0.00     0.058 A 
ATOM     68  C   UNL     1       1.085  -4.137   3.997  1.00  0.00     0.135 A 
ATOM     69  C   UNL     1       0.794  -6.134   2.690  1.00  0.00     0.135 A 
ATOM     70  F   UNL     1       0.593  -3.066   4.638  1.00  0.00    -0.206 F 
ATOM     71  C   UNL     1       2.466  -4.313   3.972  1.00  0.00     0.059 A 
ATOM     72  C   UNL     1       2.171  -6.341   2.669  1.00  0.00     0.059 A 
ATOM     73  F   UNL     1       0.012  -7.026   2.061  1.00  0.00    -0.206 F 
ATOM     74  C   UNL     1       2.999  -5.419   3.308  1.00  0.00     0.060 A 
BRANCH  74  75
ATOM     75  S   UNL     1       4.791  -5.646   3.314  1.00  0.00     0.124 S 
ATOM     76  O   UNL     1       5.222  -4.591   2.401  1.00  0.00    -0.237 OA
ATOM     77  O   UNL     1       5.127  -5.440   4.720  1.00  0.00    -0.237 OA
ATOM     78  O   UNL     1       4.965  -7.010   2.824  1.00  0.00    -0.744 OA
ENDBRANCH  74  75
ENDBRANCH  53  67
BRANCH  54  79
ATOM     79  C   UNL     1      -9.678  -3.744   3.738  1.00  0.00     0.058 A 
ATOM     80  C   UNL     1     -10.236  -3.172   4.890  1.00  0.00     0.135 A 
ATOM     81  C   UNL     1     -10.536  -4.018   2.661  1.00  0.00     0.135 A 
ATOM     82  F   UNL     1      -9.457  -2.899   5.948  1.00  0.00    -0.206 F 
ATOM     83  C   UNL     1     -11.591  -2.869   4.968  1.00  0.00     0.059 A 
ATOM     84  C   UNL     1     -11.889  -3.702   2.706  1.00  0.00     0.059 A 
ATOM     85  F   UNL     1     -10.047  -4.553   1.532  1.00  0.00    -0.206 F 
ATOM     86  C   UNL     1     -12.408  -3.130   3.866  1.00  0.00     0.060 A 
BRANCH  86  87
ATOM     87  S   UNL     1     -14.148  -2.650   3.939  1.00  0.00     0.124 S 
ATOM     88  O   UNL     1     -14.702  -3.691   4.797  1.00  0.00    -0.237 OA
ATOM     89  O   UNL     1     -14.075  -1.313   4.521  1.00  0.00    -0.237 OA
ATOM     90  O   UNL     1     -14.566  -2.693   2.541  1.00  0.00    -0.744 OA
ENDBRANCH  86  87
ENDBRANCH  54  79
BRANCH  66  91
ATOM     91  C   UNL     1      -5.283  -8.322   6.637  1.00  0.00     0.058 A 
ATOM     92  C   UNL     1      -5.764  -9.539   6.130  1.00  0.00     0.135 A 
ATOM     93  C   UNL     1      -4.927  -8.267   7.994  1.00  0.00     0.135 A 
ATOM     94  F   UNL     1      -6.127  -9.637   4.842  1.00  0.00    -0.206 F 
ATOM     95  C   UNL     1      -5.889 -10.662   6.940  1.00  0.00     0.059 A 
ATOM     96  C   UNL     1      -5.026  -9.384   8.817  1.00  0.00     0.059 A 
ATOM     97  F   UNL     1      -4.457  -7.126   8.523  1.00  0.00    -0.206 F 
ATOM     98  C   UNL     1      -5.511 -10.577   8.281  1.00  0.00     0.060 A 
BRANCH  98  99
ATOM     99  S   UNL     1      -5.623 -12.060   9.305  1.00  0.00     0.124 S 
ATOM    100  O   UNL     1      -7.066 -12.179   9.493  1.00  0.00    -0.237 OA
ATOM    101  O   UNL     1      -5.010 -13.074   8.453  1.00  0.00    -0.237 OA
ATOM    102  O   UNL     1      -4.861 -11.707  10.498  1.00  0.00    -0.744 OA
ENDBRANCH  98  99
ENDBRANCH  66  91
ENDBRANCH  40  41
ENDBRANCH  32  35
ENDBRANCH  30  31
ENDBRANCH   1  30
TORSDOF 16
