REMARK SMILES O=C(NCCCNC(=O)[C@@H](Cc1ccccc1Br)CC(F)(F)F)c1ccc(-c2c3nc(c(-c4c(F)cc(S(=O)(=O)[O-])cc4F)c4ccc([nH]4)c(-c4c(F)cc(S(=O)(=O)[O-])cc4F)c4nc(c(-c5c(F)cc(S(=O)(=O)[O-])cc5F)c5ccc2[nH]5)C=C4)C=C3)cc1
REMARK SMILES IDX 4 1 3 2 1 3 2 4 24 6 25 7 89 8 26 9 88 10 27 11 28 12 29 13
REMARK SMILES IDX 82 14 30 15 87 16 81 17 83 18 31 19 86 20 80 21 79 22 32 24
REMARK SMILES IDX 66 25 45 26 65 27 46 28 49 29 64 30 84 31 47 32 48 33 63 35
REMARK SMILES IDX 85 36 50 37 33 38 34 39 43 40 35 41 36 42 42 43 44 44 37 45
REMARK SMILES IDX 38 46 39 47 40 48 41 49 67 50 68 51 77 52 69 53 70 54 76 55
REMARK SMILES IDX 78 56 71 57 72 58 73 59 74 60 75 61 51 62 52 63 61 64 53 65
REMARK SMILES IDX 54 66 60 67 62 68 55 69 56 70 57 71 58 72 59 73 5 74 6 75
REMARK SMILES IDX 7 76 8 77 9 79 10 80 11 81 12 82 13 83 17 84 14 85 16 86
REMARK SMILES IDX 18 87 15 88 19 89 20 90 21 91 22 92 23 93
REMARK H PARENT 3 5 83 23 49 34 7 78
REMARK Flexibility Score: inf
ROOT
ATOM      1  C   UNL     1       4.200  -1.656   0.378  1.00  0.00     0.118 C 
ENDROOT
BRANCH   1   2
ATOM      2  N   UNL     1       2.795  -1.298   0.235  1.00  0.00    -0.352 N 
ATOM      3  O   UNL     1       0.988  -0.024  -0.061  1.00  0.00    -0.269 OA
ATOM      4  C   UNL     1       2.181  -0.196  -0.311  1.00  0.00     0.251 C 
ATOM      5  H   UNL     1       2.171  -1.968   0.596  1.00  0.00     0.163 HD
BRANCH   4   6
ATOM      6  C   UNL     1       2.893   0.778  -1.179  1.00  0.00     0.039 A 
ATOM      7  C   UNL     1       3.946   0.409  -2.017  1.00  0.00     0.014 A 
ATOM      8  C   UNL     1       2.414   2.095  -1.237  1.00  0.00     0.014 A 
ATOM      9  C   UNL     1       4.594   1.361  -2.805  1.00  0.00     0.010 A 
ATOM     10  C   UNL     1       2.995   3.026  -2.106  1.00  0.00     0.010 A 
ATOM     11  C   UNL     1       4.103   2.672  -2.889  1.00  0.00    -0.014 A 
BRANCH  11  12
ATOM     12  C   UNL     1       4.689   3.629  -3.866  1.00  0.00     0.031 A 
ATOM     13  C   UNL     1       5.322   4.912  -3.408  1.00  0.00     0.074 A 
ATOM     14  C   UNL     1       4.614   3.346  -5.182  1.00  0.00     0.049 A 
ATOM     15  N   UNL     1       5.802   5.897  -4.125  1.00  0.00    -0.248 NA
ATOM     16  C   UNL     1       5.416   5.125  -1.956  1.00  0.00     0.031 C 
ATOM     17  C   UNL     1       4.008   2.139  -5.751  1.00  0.00     0.029 A 
ATOM     18  N   UNL     1       5.037   4.051  -6.282  1.00  0.00    -0.354 N 
ATOM     19  C   UNL     1       6.226   6.859  -3.216  1.00  0.00     0.074 A 
ATOM     20  C   UNL     1       5.928   6.346  -1.895  1.00  0.00     0.031 C 
ATOM     21  C   UNL     1       4.114   2.178  -7.086  1.00  0.00     0.029 A 
ATOM     22  C   UNL     1       4.730   3.441  -7.476  1.00  0.00     0.049 A 
ATOM     23  H   UNL     1       5.515   4.909  -6.222  1.00  0.00     0.167 HD
ATOM     24  C   UNL     1       6.810   8.057  -3.463  1.00  0.00     0.037 A 
ATOM     25  C   UNL     1       4.885   3.861  -8.746  1.00  0.00     0.037 A 
ATOM     26  C   UNL     1       7.109   8.550  -4.784  1.00  0.00     0.049 A 
ATOM     27  C   UNL     1       5.519   5.196  -9.001  1.00  0.00     0.074 A 
ATOM     28  C   UNL     1       7.735   9.732  -5.140  1.00  0.00     0.029 A 
ATOM     29  N   UNL     1       6.792   7.894  -5.966  1.00  0.00    -0.354 N 
ATOM     30  N   UNL     1       5.947   6.077  -8.129  1.00  0.00    -0.248 NA
ATOM     31  C   UNL     1       5.694   5.597 -10.402  1.00  0.00     0.031 C 
ATOM     32  C   UNL     1       7.753   9.813  -6.537  1.00  0.00     0.029 A 
ATOM     33  C   UNL     1       7.189   8.656  -7.053  1.00  0.00     0.049 A 
ATOM     34  H   UNL     1       6.351   7.016  -6.024  1.00  0.00     0.167 HD
ATOM     35  C   UNL     1       6.460   7.131  -8.874  1.00  0.00     0.074 A 
ATOM     36  C   UNL     1       6.291   6.775 -10.270  1.00  0.00     0.031 C 
ATOM     37  C   UNL     1       7.023   8.284  -8.438  1.00  0.00     0.037 A 
BRANCH  24  38
ATOM     38  C   UNL     1       7.125   8.932  -2.279  1.00  0.00     0.058 A 
ATOM     39  C   UNL     1       8.137   8.609  -1.361  1.00  0.00     0.135 A 
ATOM     40  C   UNL     1       6.395  10.112  -2.054  1.00  0.00     0.135 A 
ATOM     41  F   UNL     1       8.862   7.490  -1.520  1.00  0.00    -0.206 F 
ATOM     42  C   UNL     1       8.376   9.391  -0.234  1.00  0.00     0.059 A 
ATOM     43  C   UNL     1       6.636  10.924  -0.950  1.00  0.00     0.059 A 
ATOM     44  F   UNL     1       5.421  10.477  -2.903  1.00  0.00    -0.206 F 
ATOM     45  C   UNL     1       7.610  10.540  -0.031  1.00  0.00     0.060 A 
BRANCH  45  46
ATOM     46  S   UNL     1       7.886  11.510   1.466  1.00  0.00     0.124 S 
ATOM     47  O   UNL     1       7.253  10.668   2.476  1.00  0.00    -0.237 OA
ATOM     48  O   UNL     1       9.343  11.585   1.529  1.00  0.00    -0.237 OA
ATOM     49  O   UNL     1       7.208  12.771   1.185  1.00  0.00    -0.744 OA
ENDBRANCH  45  46
ENDBRANCH  24  38
BRANCH  25  50
ATOM     50  C   UNL     1       4.409   2.991  -9.854  1.00  0.00     0.058 A 
ATOM     51  C   UNL     1       5.310   2.280 -10.656  1.00  0.00     0.135 A 
ATOM     52  C   UNL     1       3.036   2.777 -10.061  1.00  0.00     0.135 A 
ATOM     53  F   UNL     1       6.631   2.455 -10.500  1.00  0.00    -0.206 F 
ATOM     54  C   UNL     1       4.869   1.372 -11.615  1.00  0.00     0.059 A 
ATOM     55  C   UNL     1       2.571   1.857 -10.995  1.00  0.00     0.059 A 
ATOM     56  F   UNL     1       2.134   3.421  -9.303  1.00  0.00    -0.206 F 
ATOM     57  C   UNL     1       3.497   1.157 -11.766  1.00  0.00     0.060 A 
BRANCH  57  58
ATOM     58  S   UNL     1       2.941  -0.106 -12.932  1.00  0.00     0.124 S 
ATOM     59  O   UNL     1       3.185   0.547 -14.212  1.00  0.00    -0.237 OA
ATOM     60  O   UNL     1       3.818  -1.227 -12.609  1.00  0.00    -0.237 OA
ATOM     61  O   UNL     1       1.538  -0.296 -12.576  1.00  0.00    -0.744 OA
ENDBRANCH  57  58
ENDBRANCH  25  50
BRANCH  37  62
ATOM     62  C   UNL     1       7.542   9.242  -9.473  1.00  0.00     0.058 A 
ATOM     63  C   UNL     1       6.681  10.063 -10.216  1.00  0.00     0.135 A 
ATOM     64  C   UNL     1       8.925   9.411  -9.645  1.00  0.00     0.135 A 
ATOM     65  F   UNL     1       5.350   9.932 -10.096  1.00  0.00    -0.206 F 
ATOM     66  C   UNL     1       7.175  11.025 -11.091  1.00  0.00     0.059 A 
ATOM     67  C   UNL     1       9.441  10.381 -10.498  1.00  0.00     0.059 A 
ATOM     68  F   UNL     1       9.790   8.651  -8.954  1.00  0.00    -0.206 F 
ATOM     69  C   UNL     1       8.557  11.184 -11.216  1.00  0.00     0.060 A 
BRANCH  69  70
ATOM     70  S   UNL     1       9.185  12.495 -12.288  1.00  0.00     0.124 S 
ATOM     71  O   UNL     1       8.930  11.939 -13.613  1.00  0.00    -0.237 OA
ATOM     72  O   UNL     1       8.354  13.634 -11.908  1.00  0.00    -0.237 OA
ATOM     73  O   UNL     1      10.591  12.599 -11.910  1.00  0.00    -0.744 OA
ENDBRANCH  69  70
ENDBRANCH  37  62
ENDBRANCH  11  12
ENDBRANCH   4   6
ENDBRANCH   1   2
BRANCH   1  74
ATOM     74  C   UNL     1       4.682  -1.486   1.813  1.00  0.00     0.042 C 
BRANCH  74  75
ATOM     75  C   UNL     1       4.136  -2.540   2.773  1.00  0.00     0.117 C 
BRANCH  75  76
ATOM     76  N   UNL     1       5.191  -3.416   3.238  1.00  0.00    -0.356 N 
ATOM     77  C   UNL     1       6.009  -3.396   4.310  1.00  0.00     0.223 C 
ATOM     78  H   UNL     1       5.342  -4.190   2.648  1.00  0.00     0.163 HD
ATOM     79  O   UNL     1       6.873  -4.280   4.342  1.00  0.00    -0.275 OA
BRANCH  77  80
ATOM     80  C   UNL     1       5.934  -2.393   5.466  1.00  0.00     0.092 C 
BRANCH  80  81
ATOM     81  C   UNL     1       6.657  -1.045   5.215  1.00  0.00     0.050 C 
BRANCH  81  82
ATOM     82  C   UNL     1       6.040   0.272   4.774  1.00  0.00    -0.033 A 
ATOM     83  C   UNL     1       4.678   0.453   4.520  1.00  0.00     0.005 A 
ATOM     84  C   UNL     1       6.865   1.409   4.595  1.00  0.00     0.021 A 
ATOM     85  C   UNL     1       4.164   1.659   4.023  1.00  0.00     0.000 A 
ATOM     86  C   UNL     1       6.352   2.625   4.119  1.00  0.00     0.016 A 
ATOM     87  Br  UNL     1       8.729   1.392   4.999  1.00  0.00    -0.051 Br
ATOM     88  C   UNL     1       5.002   2.742   3.811  1.00  0.00     0.001 A 
ENDBRANCH  81  82
ENDBRANCH  80  81
BRANCH  80  89
ATOM     89  C   UNL     1       4.662  -2.381   6.313  1.00  0.00     0.129 C 
BRANCH  89  90
ATOM     90  C   UNL     1       4.168  -3.767   6.677  1.00  0.00     0.389 C 
ATOM     91  F   UNL     1       5.131  -4.516   7.246  1.00  0.00    -0.171 F 
ATOM     92  F   UNL     1       3.150  -3.670   7.564  1.00  0.00    -0.171 F 
ATOM     93  F   UNL     1       3.692  -4.423   5.599  1.00  0.00    -0.171 F 
ENDBRANCH  89  90
ENDBRANCH  80  89
ENDBRANCH  77  80
ENDBRANCH  75  76
ENDBRANCH  74  75
ENDBRANCH   1  74
TORSDOF 17
