REMARK SMILES Cc1nc(C)c(C(=O)N2CCC([C@H](C)C(=O)NCCCNC(=O)c3ccc(-c4c5nc(c(-c6c(F)cc(S(=O)(=O)[O-])cc6F)c6ccc([nH]6)c(-c6c(F)cc(S(=O)(=O)[O-])cc6F)c6nc(c(-c7c(F)cc(S(=O)(=O)[O-])cc7F)c7ccc4[nH]7)C=C6)C=C5)cc3)CC2)s1
REMARK SMILES IDX 19 1 18 2 17 3 15 4 16 5 13 7 14 8 12 9 7 10 8 11 9 12 10 13
REMARK SMILES IDX 91 14 11 15 90 16 6 17 1 18 2 19 3 20 92 21 4 22 5 23 20 24
REMARK SMILES IDX 21 25 22 26 23 28 24 29 25 30 89 31 26 32 88 33 27 34 28 35
REMARK SMILES IDX 29 36 82 37 30 38 87 39 81 40 83 41 31 42 86 43 80 44 79 45
REMARK SMILES IDX 32 47 66 48 45 49 65 50 46 51 49 52 64 53 84 54 47 55 48 56
REMARK SMILES IDX 63 58 85 59 50 60 33 61 34 62 43 63 35 64 36 65 42 66 44 67
REMARK SMILES IDX 37 68 38 69 39 70 40 71 41 72 67 73 68 74 77 75 69 76 70 77
REMARK SMILES IDX 76 78 78 79 71 80 72 81 73 82 74 83 75 84 51 85 52 86 61 87
REMARK SMILES IDX 53 88 54 89 60 90 62 91 55 92 56 93 57 94 58 95 59 96
REMARK H PARENT 17 6 21 27 83 46 49 57
REMARK Flexibility Score: inf
ROOT
ATOM      1  C   UNL     1       3.646  -6.694   1.586  1.00  0.00     0.042 C 
ENDROOT
BRANCH   1   2
ATOM      2  C   UNL     1       2.641  -7.822   1.530  1.00  0.00     0.117 C 
BRANCH   2   3
ATOM      3  N   UNL     1       1.740  -7.857   2.662  1.00  0.00    -0.356 N 
ATOM      4  C   UNL     1       0.384  -7.950   2.683  1.00  0.00     0.223 C 
ATOM      5  O   UNL     1      -0.156  -8.147   3.776  1.00  0.00    -0.275 OA
ATOM      6  H   UNL     1       2.172  -7.806   3.545  1.00  0.00     0.163 HD
BRANCH   4   7
ATOM      7  C   UNL     1      -0.470  -7.799   1.418  1.00  0.00     0.078 C 
ATOM      8  C   UNL     1      -0.396  -6.357   0.906  1.00  0.00     0.018 C 
BRANCH   7   9
ATOM      9  C   UNL     1      -0.371  -8.929   0.336  1.00  0.00     0.005 C 
ATOM     10  C   UNL     1       2.290 -11.178  -1.982  1.00  0.00     0.265 C 
ATOM     11  O   UNL     1       3.065 -10.360  -2.478  1.00  0.00    -0.268 OA
ATOM     12  N   UNL     1       1.096 -10.734  -1.403  1.00  0.00    -0.338 N 
ATOM     13  C   UNL     1       0.394  -9.621  -2.011  1.00  0.00     0.120 C 
ATOM     14  C   UNL     1       0.477 -11.301  -0.213  1.00  0.00     0.120 C 
ATOM     15  C   UNL     1       0.173  -8.476  -1.038  1.00  0.00     0.026 C 
ATOM     16  C   UNL     1       0.289 -10.227   0.857  1.00  0.00     0.026 C 
BRANCH  10  17
ATOM     17  C   UNL     1       2.528 -12.612  -2.077  1.00  0.00     0.115 A 
ATOM     18  C   UNL     1       1.816 -16.379  -2.734  1.00  0.00     0.079 C 
ATOM     19  C   UNL     1       2.318 -15.003  -2.481  1.00  0.00     0.091 A 
ATOM     20  N   UNL     1       3.588 -14.671  -2.445  1.00  0.00    -0.246 NA
ATOM     21  S   UNL     1       1.220 -13.717  -2.260  1.00  0.00    -0.113 S 
ATOM     22  C   UNL     1       3.724 -13.298  -2.253  1.00  0.00     0.061 A 
ATOM     23  C   UNL     1       5.108 -12.746  -2.302  1.00  0.00     0.068 C 
ENDBRANCH  10  17
ENDBRANCH   7   9
ENDBRANCH   4   7
ENDBRANCH   2   3
ENDBRANCH   1   2
BRANCH   1  24
ATOM     24  C   UNL     1       4.676  -6.876   2.684  1.00  0.00     0.118 C 
BRANCH  24  25
ATOM     25  N   UNL     1       5.493  -8.073   2.504  1.00  0.00    -0.352 N 
ATOM     26  C   UNL     1       6.844  -8.193   2.284  1.00  0.00     0.251 C 
ATOM     27  H   UNL     1       5.000  -8.924   2.546  1.00  0.00     0.163 HD
ATOM     28  O   UNL     1       7.321  -9.283   1.980  1.00  0.00    -0.269 OA
BRANCH  26  29
ATOM     29  C   UNL     1       7.709  -7.002   2.395  1.00  0.00     0.039 A 
ATOM     30  C   UNL     1       8.695  -6.778   1.432  1.00  0.00     0.014 A 
ATOM     31  C   UNL     1       7.522  -6.093   3.437  1.00  0.00     0.014 A 
ATOM     32  C   UNL     1       9.437  -5.596   1.473  1.00  0.00     0.010 A 
ATOM     33  C   UNL     1       8.177  -4.871   3.409  1.00  0.00     0.010 A 
ATOM     34  C   UNL     1       9.152  -4.614   2.436  1.00  0.00    -0.014 A 
BRANCH  34  35
ATOM     35  C   UNL     1       9.870  -3.316   2.468  1.00  0.00     0.031 A 
ATOM     36  C   UNL     1      10.662  -2.934   3.689  1.00  0.00     0.074 A 
ATOM     37  C   UNL     1       9.736  -2.451   1.444  1.00  0.00     0.049 A 
ATOM     38  N   UNL     1      11.269  -1.809   3.963  1.00  0.00    -0.248 NA
ATOM     39  C   UNL     1      10.747  -3.937   4.764  1.00  0.00     0.031 C 
ATOM     40  C   UNL     1       8.943  -2.684   0.234  1.00  0.00     0.029 A 
ATOM     41  N   UNL     1      10.254  -1.194   1.262  1.00  0.00    -0.354 N 
ATOM     42  C   UNL     1      11.780  -1.959   5.246  1.00  0.00     0.074 A 
ATOM     43  C   UNL     1      11.359  -3.258   5.722  1.00  0.00     0.031 C 
ATOM     44  C   UNL     1       9.055  -1.619  -0.578  1.00  0.00     0.029 A 
ATOM     45  C   UNL     1       9.891  -0.614   0.069  1.00  0.00     0.049 A 
ATOM     46  H   UNL     1      10.832  -0.749   1.923  1.00  0.00     0.167 HD
ATOM     47  C   UNL     1      12.557  -1.105   5.954  1.00  0.00     0.037 A 
ATOM     48  C   UNL     1      10.198   0.593  -0.442  1.00  0.00     0.037 A 
ATOM     49  C   UNL     1      13.006   0.167   5.455  1.00  0.00     0.049 A 
ATOM     50  C   UNL     1      11.083   1.517   0.349  1.00  0.00     0.074 A 
ATOM     51  C   UNL     1      13.854   1.079   6.058  1.00  0.00     0.029 A 
ATOM     52  N   UNL     1      12.647   0.704   4.227  1.00  0.00    -0.354 N 
ATOM     53  N   UNL     1      11.611   1.334   1.536  1.00  0.00    -0.248 NA
ATOM     54  C   UNL     1      11.418   2.806  -0.269  1.00  0.00     0.031 C 
ATOM     55  C   UNL     1      13.978   2.184   5.209  1.00  0.00     0.029 A 
ATOM     56  C   UNL     1      13.242   1.943   4.059  1.00  0.00     0.049 A 
ATOM     57  H   UNL     1      12.055   0.269   3.571  1.00  0.00     0.167 HD
ATOM     58  C   UNL     1      12.361   2.475   1.798  1.00  0.00     0.074 A 
ATOM     59  C   UNL     1      12.225   3.337   0.640  1.00  0.00     0.031 C 
ATOM     60  C   UNL     1      13.095   2.782   2.896  1.00  0.00     0.037 A 
BRANCH  47  61
ATOM     61  C   UNL     1      12.970  -1.531   7.336  1.00  0.00     0.058 A 
ATOM     62  C   UNL     1      13.869  -2.591   7.544  1.00  0.00     0.135 A 
ATOM     63  C   UNL     1      12.458  -0.878   8.469  1.00  0.00     0.135 A 
ATOM     64  F   UNL     1      14.376  -3.262   6.497  1.00  0.00    -0.206 F 
ATOM     65  C   UNL     1      14.210  -3.017   8.823  1.00  0.00     0.059 A 
ATOM     66  C   UNL     1      12.809  -1.268   9.758  1.00  0.00     0.059 A 
ATOM     67  F   UNL     1      11.595   0.141   8.330  1.00  0.00    -0.206 F 
ATOM     68  C   UNL     1      13.669  -2.353   9.925  1.00  0.00     0.060 A 
BRANCH  68  69
ATOM     69  S   UNL     1      14.104  -2.930  11.579  1.00  0.00     0.124 S 
ATOM     70  O   UNL     1      13.300  -4.144  11.682  1.00  0.00    -0.237 OA
ATOM     71  O   UNL     1      15.546  -3.133  11.472  1.00  0.00    -0.237 OA
ATOM     72  O   UNL     1      13.692  -1.828  12.442  1.00  0.00    -0.744 OA
ENDBRANCH  68  69
ENDBRANCH  47  61
BRANCH  48  73
ATOM     73  C   UNL     1       9.697   0.973  -1.789  1.00  0.00     0.058 A 
ATOM     74  C   UNL     1      10.565   1.019  -2.890  1.00  0.00     0.135 A 
ATOM     75  C   UNL     1       8.341   1.259  -2.014  1.00  0.00     0.135 A 
ATOM     76  F   UNL     1      11.871   0.759  -2.724  1.00  0.00    -0.206 F 
ATOM     77  C   UNL     1      10.111   1.342  -4.164  1.00  0.00     0.059 A 
ATOM     78  C   UNL     1       7.859   1.563  -3.283  1.00  0.00     0.059 A 
ATOM     79  F   UNL     1       7.467   1.211  -0.997  1.00  0.00    -0.206 F 
ATOM     80  C   UNL     1       8.754   1.607  -4.352  1.00  0.00     0.060 A 
BRANCH  80  81
ATOM     81  S   UNL     1       8.164   1.960  -6.022  1.00  0.00     0.124 S 
ATOM     82  O   UNL     1       8.667   3.312  -6.233  1.00  0.00    -0.237 OA
ATOM     83  O   UNL     1       8.809   0.909  -6.804  1.00  0.00    -0.237 OA
ATOM     84  O   UNL     1       6.715   1.836  -5.899  1.00  0.00    -0.744 OA
ENDBRANCH  80  81
ENDBRANCH  48  73
BRANCH  60  85
ATOM     85  C   UNL     1      13.832   4.092   2.888  1.00  0.00     0.058 A 
ATOM     86  C   UNL     1      13.162   5.313   3.054  1.00  0.00     0.135 A 
ATOM     87  C   UNL     1      15.230   4.118   2.768  1.00  0.00     0.135 A 
ATOM     88  F   UNL     1      11.825   5.341   3.166  1.00  0.00    -0.206 F 
ATOM     89  C   UNL     1      13.852   6.520   3.082  1.00  0.00     0.059 A 
ATOM     90  C   UNL     1      15.944   5.311   2.819  1.00  0.00     0.059 A 
ATOM     91  F   UNL     1      15.919   2.975   2.617  1.00  0.00    -0.206 F 
ATOM     92  C   UNL     1      15.244   6.508   2.965  1.00  0.00     0.060 A 
BRANCH  92  93
ATOM     93  S   UNL     1      16.132   8.078   3.041  1.00  0.00     0.124 S 
ATOM     94  O   UNL     1      15.849   8.639   1.724  1.00  0.00    -0.237 OA
ATOM     95  O   UNL     1      15.489   8.748   4.167  1.00  0.00    -0.237 OA
ATOM     96  O   UNL     1      17.516   7.674   3.268  1.00  0.00    -0.744 OA
ENDBRANCH  92  93
ENDBRANCH  60  85
ENDBRANCH  34  35
ENDBRANCH  26  29
ENDBRANCH  24  25
ENDBRANCH   1  24
TORSDOF 15
