REMARK SMILES C[NH+]1CCC2(CC1)OC[C@H](C(=O)NCCCNC(=O)c1ccc(-c3c4nc(c(-c5c(F)cc(S(=O)(=O)[O-])cc5F)c5ccc([nH]5)c(-c5c(F)cc(S(=O)(=O)[O-])cc5F)c5nc(c(-c6c(F)cc(S(=O)(=O)[O-])cc6F)c6ccc3[nH]6)C=C5)C=C4)cc1)N2C(=O)c1cc(C(F)(F)F)cc(C(F)(F)F)c1
REMARK SMILES IDX 15 1 14 2 13 3 11 4 12 5 10 7 1 8 2 9 3 10 7 11 4 13 6 14
REMARK SMILES IDX 5 15 8 16 86 17 9 18 87 19 88 20 89 21 90 22 102 23 91 24
REMARK SMILES IDX 97 25 96 26 92 27 93 28 94 29 95 30 98 31 99 32 100 33
REMARK SMILES IDX 101 34 16 35 17 36 18 37 19 39 20 40 21 41 85 42 22 43 84 44
REMARK SMILES IDX 23 45 24 46 25 47 78 48 26 49 83 50 77 51 79 52 27 53 82 54
REMARK SMILES IDX 76 55 75 56 28 58 62 59 41 60 61 61 42 62 45 63 60 64 80 65
REMARK SMILES IDX 43 66 44 67 59 69 81 70 46 71 29 72 30 73 39 74 31 75 32 76
REMARK SMILES IDX 38 77 40 78 33 79 34 80 35 81 36 82 37 83 63 84 64 85 73 86
REMARK SMILES IDX 65 87 66 88 72 89 74 90 67 91 68 92 69 93 70 94 71 95 47 96
REMARK SMILES IDX 48 97 57 98 49 99 50 100 56 101 58 102 51 103 52 104 53 105
REMARK SMILES IDX 54 106 55 107
REMARK H PARENT 13 6 2 12 17 38 79 57 45 68
REMARK Flexibility Score: inf
ROOT
ATOM      1  C   UNL     1      -2.655   7.750  -2.757  1.00  0.00     0.042 C 
ENDROOT
BRANCH   1   2
ATOM      2  C   UNL     1      -2.234   6.845  -3.910  1.00  0.00     0.117 C 
BRANCH   2   3
ATOM      3  N   UNL     1      -0.895   6.325  -3.711  1.00  0.00    -0.354 N 
ATOM      4  C   UNL     1      -0.493   5.148  -3.153  1.00  0.00     0.245 C 
ATOM      5  O   UNL     1       0.699   5.071  -2.846  1.00  0.00    -0.273 OA
ATOM      6  H   UNL     1      -0.168   6.909  -4.026  1.00  0.00     0.163 HD
BRANCH   4   7
ATOM      7  C   UNL     1      -1.472   3.963  -3.037  1.00  0.00     0.203 C 
ATOM      8  C   UNL     1       1.803  -0.621   0.024  1.00  0.00     0.332 C 
ATOM      9  N   UNL     1       0.860   0.487   0.062  1.00  0.00    -0.337 N 
ATOM     10  C   UNL     1       1.448   1.732  -0.421  1.00  0.00     0.267 C 
ATOM     11  C   UNL     1      -0.461   0.123  -0.452  1.00  0.00     0.267 C 
ATOM     12  H   UNL     1       0.654   0.702   1.038  1.00  0.00     0.347 HD
ATOM     13  C   UNL     1       1.117   2.114  -1.840  1.00  0.00     0.120 C 
ATOM     14  C   UNL     1      -0.853   0.605  -1.842  1.00  0.00     0.120 C 
ATOM     15  C   UNL     1      -0.370   2.011  -2.193  1.00  0.00     0.155 C 
ATOM     16  O   UNL     1      -0.343   2.008  -3.665  1.00  0.00    -0.352 OA
ATOM     17  N   UNL     1      -1.260   3.151  -1.849  1.00  0.00    -0.295 N 
ATOM     18  C   UNL     1      -1.236   3.002  -4.168  1.00  0.00     0.198 C 
BRANCH  17  19
ATOM     19  C   UNL     1      -1.974   3.584  -0.733  1.00  0.00     0.256 C 
ATOM     20  O   UNL     1      -2.708   4.575  -0.774  1.00  0.00    -0.269 OA
BRANCH  19  21
ATOM     21  C   UNL     1      -1.972   2.889   0.560  1.00  0.00     0.041 A 
ATOM     22  C   UNL     1      -3.100   2.169   0.981  1.00  0.00     0.027 A 
ATOM     23  C   UNL     1      -0.898   3.058   1.428  1.00  0.00     0.027 A 
ATOM     24  C   UNL     1      -3.086   1.489   2.214  1.00  0.00     0.057 A 
ATOM     25  C   UNL     1      -0.804   2.285   2.594  1.00  0.00     0.057 A 
ATOM     26  C   UNL     1      -1.912   1.517   2.988  1.00  0.00     0.026 A 
BRANCH  24  27
ATOM     27  C   UNL     1      -4.298   0.718   2.684  1.00  0.00     0.416 C 
ATOM     28  F   UNL     1      -5.376   1.516   2.905  1.00  0.00    -0.166 F 
ATOM     29  F   UNL     1      -4.698  -0.217   1.778  1.00  0.00    -0.166 F 
ATOM     30  F   UNL     1      -4.089   0.039   3.847  1.00  0.00    -0.166 F 
ENDBRANCH  24  27
BRANCH  25  31
ATOM     31  C   UNL     1       0.493   2.204   3.365  1.00  0.00     0.416 C 
ATOM     32  F   UNL     1       0.376   2.663   4.639  1.00  0.00    -0.166 F 
ATOM     33  F   UNL     1       0.946   0.922   3.475  1.00  0.00    -0.166 F 
ATOM     34  F   UNL     1       1.512   2.909   2.800  1.00  0.00    -0.166 F 
ENDBRANCH  25  31
ENDBRANCH  19  21
ENDBRANCH  17  19
ENDBRANCH   4   7
ENDBRANCH   2   3
ENDBRANCH   1   2
BRANCH   1  35
ATOM     35  C   UNL     1      -1.762   8.976  -2.569  1.00  0.00     0.118 C 
BRANCH  35  36
ATOM     36  N   UNL     1      -1.730   9.835  -3.746  1.00  0.00    -0.352 N 
ATOM     37  C   UNL     1      -2.103  11.148  -3.899  1.00  0.00     0.251 C 
ATOM     38  H   UNL     1      -1.385   9.406  -4.562  1.00  0.00     0.163 HD
ATOM     39  O   UNL     1      -2.180  11.623  -5.027  1.00  0.00    -0.269 OA
BRANCH  37  40
ATOM     40  C   UNL     1      -2.428  11.979  -2.719  1.00  0.00     0.039 A 
ATOM     41  C   UNL     1      -3.523  12.845  -2.785  1.00  0.00     0.014 A 
ATOM     42  C   UNL     1      -1.647  11.931  -1.562  1.00  0.00     0.014 A 
ATOM     43  C   UNL     1      -3.872  13.609  -1.669  1.00  0.00     0.010 A 
ATOM     44  C   UNL     1      -2.044  12.631  -0.425  1.00  0.00     0.010 A 
ATOM     45  C   UNL     1      -3.159  13.480  -0.466  1.00  0.00    -0.014 A 
BRANCH  45  46
ATOM     46  C   UNL     1      -3.570  14.220   0.757  1.00  0.00     0.031 A 
ATOM     47  C   UNL     1      -2.644  15.229   1.383  1.00  0.00     0.074 A 
ATOM     48  C   UNL     1      -4.756  13.941   1.336  1.00  0.00     0.049 A 
ATOM     49  N   UNL     1      -2.803  15.927   2.478  1.00  0.00    -0.248 NA
ATOM     50  C   UNL     1      -1.362  15.468   0.702  1.00  0.00     0.031 C 
ATOM     51  C   UNL     1      -5.722  12.952   0.851  1.00  0.00     0.029 A 
ATOM     52  N   UNL     1      -5.349  14.456   2.461  1.00  0.00    -0.354 N 
ATOM     53  C   UNL     1      -1.642  16.679   2.622  1.00  0.00     0.074 A 
ATOM     54  C   UNL     1      -0.763  16.307   1.534  1.00  0.00     0.031 C 
ATOM     55  C   UNL     1      -6.795  12.952   1.657  1.00  0.00     0.029 A 
ATOM     56  C   UNL     1      -6.579  13.906   2.740  1.00  0.00     0.049 A 
ATOM     57  H   UNL     1      -4.933  15.154   3.017  1.00  0.00     0.167 HD
ATOM     58  C   UNL     1      -1.345  17.612   3.558  1.00  0.00     0.037 A 
ATOM     59  C   UNL     1      -7.432  14.137   3.757  1.00  0.00     0.037 A 
ATOM     60  C   UNL     1      -2.231  17.987   4.630  1.00  0.00     0.049 A 
ATOM     61  C   UNL     1      -7.070  15.163   4.797  1.00  0.00     0.074 A 
ATOM     62  C   UNL     1      -2.043  18.952   5.604  1.00  0.00     0.029 A 
ATOM     63  N   UNL     1      -3.471  17.413   4.873  1.00  0.00    -0.354 N 
ATOM     64  N   UNL     1      -5.993  15.908   4.883  1.00  0.00    -0.248 NA
ATOM     65  C   UNL     1      -8.043  15.386   5.876  1.00  0.00     0.031 C 
ATOM     66  C   UNL     1      -3.144  18.927   6.465  1.00  0.00     0.029 A 
ATOM     67  C   UNL     1      -4.049  17.989   5.994  1.00  0.00     0.049 A 
ATOM     68  H   UNL     1      -3.881  16.702   4.330  1.00  0.00     0.167 HD
ATOM     69  C   UNL     1      -6.174  16.710   6.004  1.00  0.00     0.074 A 
ATOM     70  C   UNL     1      -7.468  16.368   6.557  1.00  0.00     0.031 C 
ATOM     71  C   UNL     1      -5.344  17.646   6.528  1.00  0.00     0.037 A 
BRANCH  58  72
ATOM     72  C   UNL     1      -0.008  18.298   3.463  1.00  0.00     0.058 A 
ATOM     73  C   UNL     1       0.288  19.194   2.423  1.00  0.00     0.135 A 
ATOM     74  C   UNL     1       0.975  18.090   4.444  1.00  0.00     0.135 A 
ATOM     75  F   UNL     1      -0.608  19.421   1.449  1.00  0.00    -0.206 F 
ATOM     76  C   UNL     1       1.520  19.835   2.341  1.00  0.00     0.059 A 
ATOM     77  C   UNL     1       2.204  18.745   4.400  1.00  0.00     0.059 A 
ATOM     78  F   UNL     1       0.748  17.245   5.462  1.00  0.00    -0.206 F 
ATOM     79  C   UNL     1       2.472  19.605   3.336  1.00  0.00     0.060 A 
BRANCH  79  80
ATOM     80  S   UNL     1       4.062  20.451   3.217  1.00  0.00     0.124 S 
ATOM     81  O   UNL     1       4.680  19.754   2.093  1.00  0.00    -0.237 OA
ATOM     82  O   UNL     1       3.661  21.831   2.964  1.00  0.00    -0.237 OA
ATOM     83  O   UNL     1       4.676  20.208   4.519  1.00  0.00    -0.744 OA
ENDBRANCH  79  80
ENDBRANCH  58  72
BRANCH  59  84
ATOM     84  C   UNL     1      -8.723  13.398   3.831  1.00  0.00     0.058 A 
ATOM     85  C   UNL     1      -9.945  14.059   3.636  1.00  0.00     0.135 A 
ATOM     86  C   UNL     1      -8.762  12.021   4.097  1.00  0.00     0.135 A 
ATOM     87  F   UNL     1      -9.962  15.377   3.385  1.00  0.00    -0.206 F 
ATOM     88  C   UNL     1     -11.160  13.388   3.724  1.00  0.00     0.059 A 
ATOM     89  C   UNL     1      -9.963  11.321   4.161  1.00  0.00     0.059 A 
ATOM     90  F   UNL     1      -7.621  11.337   4.275  1.00  0.00    -0.206 F 
ATOM     91  C   UNL     1     -11.158  12.017   3.986  1.00  0.00     0.060 A 
BRANCH  91  92
ATOM     92  S   UNL     1     -12.740  11.149   4.061  1.00  0.00     0.124 S 
ATOM     93  O   UNL     1     -13.285  11.639   5.322  1.00  0.00    -0.237 OA
ATOM     94  O   UNL     1     -13.405  11.621   2.850  1.00  0.00    -0.237 OA
ATOM     95  O   UNL     1     -12.352   9.742   4.045  1.00  0.00    -0.744 OA
ENDBRANCH  91  92
ENDBRANCH  59  84
BRANCH  71  96
ATOM     96  C   UNL     1      -5.827  18.404   7.736  1.00  0.00     0.058 A 
ATOM     97  C   UNL     1      -5.935  17.799   8.998  1.00  0.00     0.135 A 
ATOM     98  C   UNL     1      -6.143  19.769   7.636  1.00  0.00     0.135 A 
ATOM     99  F   UNL     1      -5.651  16.495   9.149  1.00  0.00    -0.206 F 
ATOM    100  C   UNL     1      -6.367  18.512  10.112  1.00  0.00     0.059 A 
ATOM    101  C   UNL     1      -6.546  20.509   8.743  1.00  0.00     0.059 A 
ATOM    102  F   UNL     1      -6.047  20.401   6.456  1.00  0.00    -0.206 F 
ATOM    103  C   UNL     1      -6.668  19.868   9.974  1.00  0.00     0.060 A 
BRANCH 103 104
ATOM    104  S   UNL     1      -7.201  20.789  11.433  1.00  0.00     0.124 S 
ATOM    105  O   UNL     1      -8.550  20.270  11.632  1.00  0.00    -0.237 OA
ATOM    106  O   UNL     1      -6.214  20.388  12.431  1.00  0.00    -0.237 OA
ATOM    107  O   UNL     1      -7.120  22.182  11.005  1.00  0.00    -0.744 OA
ENDBRANCH 103 104
ENDBRANCH  71  96
ENDBRANCH  45  46
ENDBRANCH  37  40
ENDBRANCH  35  36
ENDBRANCH   1  35
TORSDOF 17
