REMARK SMILES CCn1ccc2cc(S(=O)(=O)N3CCC[C@@H](C(=O)NCCCNC(=O)c4ccc(-c5c6nc(c(-c7c(F)cc(S(=O)(=O)[O-])cc7F)c7ccc([nH]7)c(-c7c(F)cc(S(=O)(=O)[O-])cc7F)c7nc(c(-c8c(F)cc(S(=O)(=O)[O-])cc8F)c8ccc5[nH]8)C=C7)C=C6)cc4)C3)ccc21
REMARK SMILES IDX 21 1 20 2 19 3 17 4 18 5 16 7 12 8 13 9 92 10 14 11 15 12
REMARK SMILES IDX 9 13 10 14 11 15 8 16 3 17 4 18 95 19 5 20 6 21 94 22 7 23
REMARK SMILES IDX 93 24 2 25 1 26 22 27 23 28 24 29 25 31 26 32 27 33 91 34
REMARK SMILES IDX 28 35 90 36 29 37 30 38 31 39 84 40 32 41 89 42 83 43 85 44
REMARK SMILES IDX 33 45 88 46 82 47 81 48 34 50 68 51 47 52 67 53 48 54 51 55
REMARK SMILES IDX 66 56 86 57 49 58 50 59 65 61 87 62 52 63 35 64 36 65 45 66
REMARK SMILES IDX 37 67 38 68 44 69 46 70 39 71 40 72 41 73 42 74 43 75 69 76
REMARK SMILES IDX 70 77 79 78 71 79 72 80 78 81 80 82 73 83 74 84 75 85 76 86
REMARK SMILES IDX 77 87 53 88 54 89 63 90 55 91 56 92 62 93 64 94 57 95 58 96
REMARK SMILES IDX 59 97 60 98 61 99
REMARK H PARENT 19 6 23 30 85 49 51 60
REMARK Flexibility Score: inf
ROOT
ATOM      1  C   UNL     1      11.692   2.499   2.986  1.00  0.00     0.042 C 
ENDROOT
BRANCH   1   2
ATOM      2  C   UNL     1      10.172   2.403   3.061  1.00  0.00     0.117 C 
BRANCH   2   3
ATOM      3  N   UNL     1       9.701   1.033   3.182  1.00  0.00    -0.356 N 
ATOM      4  C   UNL     1       8.837   0.475   4.071  1.00  0.00     0.224 C 
ATOM      5  O   UNL     1       8.572  -0.722   3.937  1.00  0.00    -0.275 OA
ATOM      6  H   UNL     1      10.067   0.409   2.514  1.00  0.00     0.163 HD
BRANCH   4   7
ATOM      7  C   UNL     1       8.197   1.330   5.155  1.00  0.00     0.093 C 
ATOM      8  N   UNL     1       6.275   2.916   5.489  1.00  0.00    -0.197 NA
ATOM      9  C   UNL     1       5.773   2.150   6.650  1.00  0.00     0.102 C 
ATOM     10  C   UNL     1       7.143   2.223   4.504  1.00  0.00     0.116 C 
ATOM     11  C   UNL     1       6.866   1.294   7.271  1.00  0.00     0.018 C 
ATOM     12  C   UNL     1       7.554   0.437   6.222  1.00  0.00     0.016 C 
BRANCH   8  13
ATOM     13  S   UNL     1       5.221   4.104   4.855  1.00  0.00     0.243 S 
ATOM     14  O   UNL     1       5.984   4.881   3.891  1.00  0.00    -0.207 OA
ATOM     15  O   UNL     1       4.535   4.724   5.959  1.00  0.00    -0.207 OA
BRANCH  13  16
ATOM     16  C   UNL     1       3.966   3.260   3.904  1.00  0.00     0.083 A 
ATOM     17  N   UNL     1       0.887   1.782   1.573  1.00  0.00    -0.348 N 
ATOM     18  C   UNL     1       0.262   2.930   1.162  1.00  0.00     0.087 A 
ATOM     19  C   UNL     1       1.964   2.089   2.378  1.00  0.00     0.048 A 
ATOM     20  C   UNL     1       0.949   3.998   1.691  1.00  0.00     0.028 A 
ATOM     21  C   UNL     1       2.024   3.482   2.465  1.00  0.00     0.001 A 
ATOM     22  C   UNL     1       2.888   1.264   3.032  1.00  0.00     0.028 A 
ATOM     23  C   UNL     1       3.044   4.078   3.231  1.00  0.00     0.032 A 
ATOM     24  C   UNL     1       3.880   1.872   3.805  1.00  0.00     0.024 A 
BRANCH  17  25
ATOM     25  C   UNL     1       0.450   0.441   1.221  1.00  0.00     0.119 C 
ATOM     26  C   UNL     1       1.049  -0.031  -0.092  1.00  0.00     0.027 C 
ENDBRANCH  17  25
ENDBRANCH  13  16
ENDBRANCH   8  13
ENDBRANCH   4   7
ENDBRANCH   2   3
ENDBRANCH   1   2
BRANCH   1  27
ATOM     27  C   UNL     1      12.339   1.689   1.860  1.00  0.00     0.118 C 
BRANCH  27  28
ATOM     28  N   UNL     1      11.830   1.981   0.536  1.00  0.00    -0.352 N 
ATOM     29  C   UNL     1      12.189   2.850  -0.459  1.00  0.00     0.251 C 
ATOM     30  H   UNL     1      11.050   1.431   0.297  1.00  0.00     0.163 HD
ATOM     31  O   UNL     1      11.645   2.666  -1.551  1.00  0.00    -0.269 OA
BRANCH  29  32
ATOM     32  C   UNL     1      13.122   4.002  -0.303  1.00  0.00     0.039 A 
ATOM     33  C   UNL     1      13.777   4.360   0.875  1.00  0.00     0.014 A 
ATOM     34  C   UNL     1      13.275   4.834  -1.430  1.00  0.00     0.014 A 
ATOM     35  C   UNL     1      14.476   5.561   0.959  1.00  0.00     0.010 A 
ATOM     36  C   UNL     1      13.994   6.025  -1.357  1.00  0.00     0.010 A 
ATOM     37  C   UNL     1      14.550   6.414  -0.143  1.00  0.00    -0.014 A 
BRANCH  37  38
ATOM     38  C   UNL     1      15.249   7.685   0.036  1.00  0.00     0.031 A 
ATOM     39  C   UNL     1      16.690   7.598   0.416  1.00  0.00     0.074 A 
ATOM     40  C   UNL     1      14.686   8.887  -0.195  1.00  0.00     0.049 A 
ATOM     41  N   UNL     1      17.269   8.014   1.497  1.00  0.00    -0.248 NA
ATOM     42  C   UNL     1      17.586   6.884  -0.505  1.00  0.00     0.031 C 
ATOM     43  C   UNL     1      13.404   9.183  -0.839  1.00  0.00     0.029 A 
ATOM     44  N   UNL     1      15.213  10.125   0.028  1.00  0.00    -0.354 N 
ATOM     45  C   UNL     1      18.633   7.784   1.319  1.00  0.00     0.074 A 
ATOM     46  C   UNL     1      18.756   6.983   0.127  1.00  0.00     0.031 C 
ATOM     47  C   UNL     1      13.355  10.498  -1.147  1.00  0.00     0.029 A 
ATOM     48  C   UNL     1      14.529  11.156  -0.599  1.00  0.00     0.049 A 
ATOM     49  H   UNL     1      16.010  10.274   0.586  1.00  0.00     0.167 HD
ATOM     50  C   UNL     1      19.590   8.406   2.064  1.00  0.00     0.037 A 
ATOM     51  C   UNL     1      14.942  12.442  -0.719  1.00  0.00     0.037 A 
ATOM     52  C   UNL     1      19.055   8.967   3.275  1.00  0.00     0.049 A 
ATOM     53  C   UNL     1      15.940  12.693   0.352  1.00  0.00     0.074 A 
ATOM     54  C   UNL     1      18.423   8.456   4.393  1.00  0.00     0.029 A 
ATOM     55  N   UNL     1      18.853  10.324   3.333  1.00  0.00    -0.354 N 
ATOM     56  N   UNL     1      15.664  12.724   1.626  1.00  0.00    -0.248 NA
ATOM     57  C   UNL     1      17.349  12.538   0.025  1.00  0.00     0.031 C 
ATOM     58  C   UNL     1      17.475   9.451   4.774  1.00  0.00     0.029 A 
ATOM     59  C   UNL     1      17.610  10.516   3.883  1.00  0.00     0.049 A 
ATOM     60  H   UNL     1      19.479  11.024   3.037  1.00  0.00     0.167 HD
ATOM     61  C   UNL     1      16.779  12.183   2.247  1.00  0.00     0.074 A 
ATOM     62  C   UNL     1      17.821  12.192   1.224  1.00  0.00     0.031 C 
ATOM     63  C   UNL     1      16.683  11.537   3.446  1.00  0.00     0.037 A 
BRANCH  50  64
ATOM     64  C   UNL     1      20.968   8.753   1.553  1.00  0.00     0.058 A 
ATOM     65  C   UNL     1      21.982   9.145   2.451  1.00  0.00     0.135 A 
ATOM     66  C   UNL     1      21.250   8.968   0.185  1.00  0.00     0.135 A 
ATOM     67  F   UNL     1      21.813   9.005   3.775  1.00  0.00    -0.206 F 
ATOM     68  C   UNL     1      23.165   9.754   2.024  1.00  0.00     0.059 A 
ATOM     69  C   UNL     1      22.443   9.524  -0.266  1.00  0.00     0.059 A 
ATOM     70  F   UNL     1      20.338   8.735  -0.769  1.00  0.00    -0.206 F 
ATOM     71  C   UNL     1      23.378   9.952   0.662  1.00  0.00     0.060 A 
BRANCH  71  72
ATOM     72  S   UNL     1      24.848  10.841   0.116  1.00  0.00     0.124 S 
ATOM     73  O   UNL     1      24.562  12.191   0.587  1.00  0.00    -0.237 OA
ATOM     74  O   UNL     1      25.912  10.131   0.819  1.00  0.00    -0.237 OA
ATOM     75  O   UNL     1      24.832  10.659  -1.332  1.00  0.00    -0.744 OA
ENDBRANCH  71  72
ENDBRANCH  50  64
BRANCH  51  76
ATOM     76  C   UNL     1      14.825  13.321  -1.913  1.00  0.00     0.058 A 
ATOM     77  C   UNL     1      15.154  14.686  -1.832  1.00  0.00     0.135 A 
ATOM     78  C   UNL     1      14.694  12.788  -3.211  1.00  0.00     0.135 A 
ATOM     79  F   UNL     1      15.312  15.274  -0.636  1.00  0.00    -0.206 F 
ATOM     80  C   UNL     1      15.414  15.457  -2.969  1.00  0.00     0.059 A 
ATOM     81  C   UNL     1      14.933  13.541  -4.358  1.00  0.00     0.059 A 
ATOM     82  F   UNL     1      14.430  11.488  -3.406  1.00  0.00    -0.206 F 
ATOM     83  C   UNL     1      15.328  14.866  -4.228  1.00  0.00     0.060 A 
BRANCH  83  84
ATOM     84  S   UNL     1      15.869  15.793  -5.682  1.00  0.00     0.124 S 
ATOM     85  O   UNL     1      14.842  16.824  -5.782  1.00  0.00    -0.237 OA
ATOM     86  O   UNL     1      17.195  16.249  -5.277  1.00  0.00    -0.237 OA
ATOM     87  O   UNL     1      15.856  14.793  -6.746  1.00  0.00    -0.744 OA
ENDBRANCH  83  84
ENDBRANCH  51  76
BRANCH  63  88
ATOM     88  C   UNL     1      15.410  11.700   4.238  1.00  0.00     0.058 A 
ATOM     89  C   UNL     1      14.140  11.290   3.791  1.00  0.00     0.135 A 
ATOM     90  C   UNL     1      15.496  12.189   5.551  1.00  0.00     0.135 A 
ATOM     91  F   UNL     1      13.986  10.704   2.595  1.00  0.00    -0.206 F 
ATOM     92  C   UNL     1      13.002  11.419   4.589  1.00  0.00     0.059 A 
ATOM     93  C   UNL     1      14.379  12.294   6.377  1.00  0.00     0.059 A 
ATOM     94  F   UNL     1      16.689  12.534   6.064  1.00  0.00    -0.206 F 
ATOM     95  C   UNL     1      13.130  11.925   5.882  1.00  0.00     0.060 A 
BRANCH  95  96
ATOM     96  S   UNL     1      11.664  12.037   6.930  1.00  0.00     0.124 S 
ATOM     97  O   UNL     1      10.911  13.112   6.293  1.00  0.00    -0.237 OA
ATOM     98  O   UNL     1      11.089  10.700   6.811  1.00  0.00    -0.237 OA
ATOM     99  O   UNL     1      12.209  12.354   8.248  1.00  0.00    -0.744 OA
ENDBRANCH  95  96
ENDBRANCH  63  88
ENDBRANCH  37  38
ENDBRANCH  29  32
ENDBRANCH  27  28
ENDBRANCH   1  27
TORSDOF 16
