REMARK SMILES CC(C)(CC(=O)NCCCNC(=O)c1ccc(-c2c3nc(c(-c4c(F)cc(S(=O)(=O)[O-])cc4F)c4ccc([nH]4)c(-c4c(F)cc(S(=O)(=O)[O-])cc4F)c4nc(c(-c5c(F)cc(S(=O)(=O)[O-])cc5F)c5ccc2[nH]5)C=C4)C=C3)cc1)NC(=O)c1nc(C(C)(C)C)n[nH]1
REMARK SMILES IDX 8 1 7 2 5 3 6 4 4 6 2 7 1 8 3 9 80 10 81 11 82 13 83 14
REMARK SMILES IDX 84 15 91 16 85 17 90 18 86 20 87 21 88 22 89 23 9 24 10 25
REMARK SMILES IDX 11 26 12 27 13 29 14 30 15 31 79 32 16 33 78 34 17 35 18 36
REMARK SMILES IDX 19 37 72 38 20 39 77 40 71 41 73 42 21 43 76 44 70 45 69 46
REMARK SMILES IDX 22 48 56 49 35 50 55 51 36 52 39 53 54 54 74 55 37 56 38 57
REMARK SMILES IDX 53 59 75 60 40 61 23 62 24 63 33 64 25 65 26 66 32 67 34 68
REMARK SMILES IDX 27 69 28 70 29 71 30 72 31 73 57 74 58 75 67 76 59 77 60 78
REMARK SMILES IDX 66 79 68 80 61 81 62 82 63 83 64 84 65 85 41 86 42 87 51 88
REMARK SMILES IDX 43 89 44 90 50 91 52 92 45 93 46 94 47 95 48 96 49 97
REMARK H PARENT 7 5 80 12 91 19 11 28 73 47 39 58
REMARK Flexibility Score: inf
ROOT
ATOM      1  C   UNL     1      -1.306  -0.469   1.854  1.00  0.00     0.117 C 
ENDROOT
BRANCH   1   2
ATOM      2  N   UNL     1      -1.335   0.873   1.290  1.00  0.00    -0.356 N 
ATOM      3  C   UNL     1      -1.288   1.312   0.002  1.00  0.00     0.222 C 
ATOM      4  O   UNL     1      -1.506   2.508  -0.208  1.00  0.00    -0.275 OA
ATOM      5  H   UNL     1      -1.402   1.591   1.960  1.00  0.00     0.163 HD
BRANCH   3   6
ATOM      6  C   UNL     1      -1.026   0.374  -1.159  1.00  0.00     0.127 C 
BRANCH   6   7
ATOM      7  C   UNL     1       0.439   0.343  -1.660  1.00  0.00     0.044 C 
ATOM      8  C   UNL     1       1.315  -0.472  -0.700  1.00  0.00     0.035 C 
ATOM      9  C   UNL     1       0.459  -0.420  -3.010  1.00  0.00     0.035 C 
BRANCH   7  10
ATOM     10  N   UNL     1       0.931   1.700  -1.988  1.00  0.00    -0.344 N 
ATOM     11  C   UNL     1       1.804   2.583  -1.414  1.00  0.00     0.289 C 
ATOM     12  H   UNL     1       0.536   2.051  -2.818  1.00  0.00     0.164 HD
ATOM     13  O   UNL     1       1.992   3.652  -2.024  1.00  0.00    -0.266 OA
BRANCH  11  14
ATOM     14  C   UNL     1       2.533   2.240  -0.237  1.00  0.00     0.214 A 
ATOM     15  N   UNL     1       2.124   2.406   1.006  1.00  0.00    -0.207 NA
ATOM     16  N   UNL     1       3.813   1.776  -0.219  1.00  0.00    -0.255 N 
ATOM     17  C   UNL     1       3.230   2.071   1.751  1.00  0.00     0.156 A 
ATOM     18  N   UNL     1       4.255   1.595   1.033  1.00  0.00    -0.158 NA
ATOM     19  H   UNL     1       4.347   1.595  -1.026  1.00  0.00     0.192 HD
BRANCH  17  20
ATOM     20  C   UNL     1       3.252   2.172   3.252  1.00  0.00     0.024 C 
ATOM     21  C   UNL     1       4.487   2.942   3.755  1.00  0.00     0.019 C 
ATOM     22  C   UNL     1       2.004   2.945   3.729  1.00  0.00     0.019 C 
ATOM     23  C   UNL     1       3.304   0.756   3.849  1.00  0.00     0.019 C 
ENDBRANCH  17  20
ENDBRANCH  11  14
ENDBRANCH   7  10
ENDBRANCH   6   7
ENDBRANCH   3   6
ENDBRANCH   1   2
BRANCH   1  24
ATOM     24  C   UNL     1      -0.245  -0.642   2.948  1.00  0.00     0.042 C 
BRANCH  24  25
ATOM     25  C   UNL     1      -0.491   0.155   4.242  1.00  0.00     0.118 C 
BRANCH  25  26
ATOM     26  N   UNL     1      -0.717  -0.702   5.399  1.00  0.00    -0.352 N 
ATOM     27  C   UNL     1      -0.002  -0.913   6.558  1.00  0.00     0.251 C 
ATOM     28  H   UNL     1      -1.543  -1.235   5.342  1.00  0.00     0.163 HD
ATOM     29  O   UNL     1      -0.380  -1.819   7.303  1.00  0.00    -0.269 OA
BRANCH  27  30
ATOM     30  C   UNL     1       1.209  -0.133   6.945  1.00  0.00     0.039 A 
ATOM     31  C   UNL     1       2.285  -0.821   7.522  1.00  0.00     0.014 A 
ATOM     32  C   UNL     1       1.288   1.256   6.862  1.00  0.00     0.014 A 
ATOM     33  C   UNL     1       3.450  -0.142   7.931  1.00  0.00     0.010 A 
ATOM     34  C   UNL     1       2.479   1.926   7.224  1.00  0.00     0.010 A 
ATOM     35  C   UNL     1       3.595   1.243   7.742  1.00  0.00    -0.014 A 
BRANCH  35  36
ATOM     36  C   UNL     1       4.899   1.942   8.045  1.00  0.00     0.031 A 
ATOM     37  C   UNL     1       4.970   3.151   8.958  1.00  0.00     0.074 A 
ATOM     38  C   UNL     1       6.057   1.541   7.467  1.00  0.00     0.049 A 
ATOM     39  N   UNL     1       6.017   3.861   9.315  1.00  0.00    -0.248 NA
ATOM     40  C   UNL     1       3.704   3.646   9.513  1.00  0.00     0.031 C 
ATOM     41  C   UNL     1       6.196   0.457   6.494  1.00  0.00     0.029 A 
ATOM     42  N   UNL     1       7.349   2.004   7.619  1.00  0.00    -0.354 N 
ATOM     43  C   UNL     1       5.532   4.897  10.107  1.00  0.00     0.074 A 
ATOM     44  C   UNL     1       4.090   4.756  10.125  1.00  0.00     0.031 C 
ATOM     45  C   UNL     1       7.492   0.306   6.176  1.00  0.00     0.029 A 
ATOM     46  C   UNL     1       8.286   1.296   6.900  1.00  0.00     0.049 A 
ATOM     47  H   UNL     1       7.579   2.772   8.189  1.00  0.00     0.167 HD
ATOM     48  C   UNL     1       6.205   5.858  10.792  1.00  0.00     0.037 A 
ATOM     49  C   UNL     1       9.631   1.401   6.833  1.00  0.00     0.037 A 
ATOM     50  C   UNL     1       7.637   5.999  10.849  1.00  0.00     0.049 A 
ATOM     51  C   UNL     1      10.367   2.438   7.639  1.00  0.00     0.074 A 
ATOM     52  C   UNL     1       8.385   6.897  11.595  1.00  0.00     0.029 A 
ATOM     53  N   UNL     1       8.542   5.225  10.142  1.00  0.00    -0.354 N 
ATOM     54  N   UNL     1       9.889   3.343   8.455  1.00  0.00    -0.248 NA
ATOM     55  C   UNL     1      11.836   2.457   7.521  1.00  0.00     0.031 C 
ATOM     56  C   UNL     1       9.741   6.678  11.326  1.00  0.00     0.029 A 
ATOM     57  C   UNL     1       9.839   5.626  10.433  1.00  0.00     0.049 A 
ATOM     58  H   UNL     1       8.301   4.498   9.524  1.00  0.00     0.167 HD
ATOM     59  C   UNL     1      10.995   4.009   8.976  1.00  0.00     0.074 A 
ATOM     60  C   UNL     1      12.169   3.409   8.383  1.00  0.00     0.031 C 
ATOM     61  C   UNL     1      11.023   5.022   9.875  1.00  0.00     0.037 A 
BRANCH  48  62
ATOM     62  C   UNL     1       5.373   6.837  11.576  1.00  0.00     0.058 A 
ATOM     63  C   UNL     1       4.691   6.446  12.740  1.00  0.00     0.135 A 
ATOM     64  C   UNL     1       5.245   8.171  11.158  1.00  0.00     0.135 A 
ATOM     65  F   UNL     1       4.779   5.181  13.181  1.00  0.00    -0.206 F 
ATOM     66  C   UNL     1       3.854   7.322  13.421  1.00  0.00     0.059 A 
ATOM     67  C   UNL     1       4.436   9.074  11.843  1.00  0.00     0.059 A 
ATOM     68  F   UNL     1       5.893   8.604  10.065  1.00  0.00    -0.206 F 
ATOM     69  C   UNL     1       3.719   8.629  12.954  1.00  0.00     0.060 A 
BRANCH  69  70
ATOM     70  S   UNL     1       2.577   9.740  13.801  1.00  0.00     0.124 S 
ATOM     71  O   UNL     1       1.300   9.334  13.223  1.00  0.00    -0.237 OA
ATOM     72  O   UNL     1       2.774   9.392  15.205  1.00  0.00    -0.237 OA
ATOM     73  O   UNL     1       3.050  11.066  13.417  1.00  0.00    -0.744 OA
ENDBRANCH  69  70
ENDBRANCH  48  62
BRANCH  49  74
ATOM     74  C   UNL     1      10.406   0.433   6.012  1.00  0.00     0.058 A 
ATOM     75  C   UNL     1      11.123  -0.604   6.629  1.00  0.00     0.135 A 
ATOM     76  C   UNL     1      10.462   0.530   4.615  1.00  0.00     0.135 A 
ATOM     77  F   UNL     1      11.111  -0.725   7.965  1.00  0.00    -0.206 F 
ATOM     78  C   UNL     1      11.880  -1.505   5.889  1.00  0.00     0.059 A 
ATOM     79  C   UNL     1      11.198  -0.371   3.852  1.00  0.00     0.059 A 
ATOM     80  F   UNL     1       9.788   1.503   3.982  1.00  0.00    -0.206 F 
ATOM     81  C   UNL     1      11.911  -1.381   4.500  1.00  0.00     0.060 A 
BRANCH  81  82
ATOM     82  S   UNL     1      12.859  -2.586   3.544  1.00  0.00     0.124 S 
ATOM     83  O   UNL     1      14.228  -2.147   3.795  1.00  0.00    -0.237 OA
ATOM     84  O   UNL     1      12.470  -3.848   4.169  1.00  0.00    -0.237 OA
ATOM     85  O   UNL     1      12.372  -2.394   2.184  1.00  0.00    -0.744 OA
ENDBRANCH  81  82
ENDBRANCH  49  74
BRANCH  61  86
ATOM     86  C   UNL     1      12.364   5.526  10.335  1.00  0.00     0.058 A 
ATOM     87  C   UNL     1      13.172   6.338   9.524  1.00  0.00     0.135 A 
ATOM     88  C   UNL     1      12.824   5.237  11.631  1.00  0.00     0.135 A 
ATOM     89  F   UNL     1      12.787   6.640   8.274  1.00  0.00    -0.206 F 
ATOM     90  C   UNL     1      14.392   6.837   9.977  1.00  0.00     0.059 A 
ATOM     91  C   UNL     1      14.031   5.739  12.111  1.00  0.00     0.059 A 
ATOM     92  F   UNL     1      12.090   4.468  12.452  1.00  0.00    -0.206 F 
ATOM     93  C   UNL     1      14.813   6.533  11.273  1.00  0.00     0.060 A 
BRANCH  93  94
ATOM     94  S   UNL     1      16.372   7.225  11.870  1.00  0.00     0.124 S 
ATOM     95  O   UNL     1      17.349   6.359  11.218  1.00  0.00    -0.237 OA
ATOM     96  O   UNL     1      16.317   8.599  11.380  1.00  0.00    -0.237 OA
ATOM     97  O   UNL     1      16.274   7.081  13.320  1.00  0.00    -0.744 OA
ENDBRANCH  93  94
ENDBRANCH  61  86
ENDBRANCH  35  36
ENDBRANCH  27  30
ENDBRANCH  25  26
ENDBRANCH  24  25
ENDBRANCH   1  24
TORSDOF 17
