REMARK SMILES CCOc1cc2c(cc1/C=C1/C(=O)N(c3cccc(C(=O)NCCCNC(=O)c4ccc(-c5c6nc(c(-c7c(F)cc(S(=O)(=O)[O-])cc7F)c7ccc([nH]7)c(-c7c(F)cc(S(=O)(=O)[O-])cc7F)c7nc(c(-c8c(F)cc(S(=O)(=O)[O-])cc8F)c8ccc5[nH]8)C=C7)C=C6)cc4)c3)C(=S)N=C1O)OCO2
REMARK SMILES IDX 23 1 22 2 20 3 21 4 19 6 15 7 16 8 95 9 17 10 18 11 14 12
REMARK SMILES IDX 10 13 11 14 12 15 99 16 13 17 98 18 96 19 97 20 9 21 4 22
REMARK SMILES IDX 5 23 6 24 8 25 7 26 103 27 101 28 102 29 3 30 2 31 1 32
REMARK SMILES IDX 100 33 24 35 25 36 26 37 27 38 28 40 29 41 30 42 94 43 31 44
REMARK SMILES IDX 93 45 32 46 33 47 34 48 87 49 35 50 92 51 86 52 88 53 36 54
REMARK SMILES IDX 91 55 85 56 84 57 37 59 71 60 50 61 70 62 51 63 54 64 69 65
REMARK SMILES IDX 89 66 52 67 53 68 68 70 90 71 55 72 38 73 39 74 48 75 40 76
REMARK SMILES IDX 41 77 47 78 49 79 42 80 43 81 44 82 45 83 46 84 72 85 73 86
REMARK SMILES IDX 82 87 74 88 75 89 81 90 83 91 76 92 77 93 78 94 79 95 80 96
REMARK SMILES IDX 56 97 57 98 66 99 58 100 59 101 65 102 67 103 60 104 61 105
REMARK SMILES IDX 62 106 63 107 64 108
REMARK H PARENT 22 5 100 34 26 39 88 58 54 69
REMARK Flexibility Score: inf
ROOT
ATOM      1  C   UNL     1      -0.332  -8.400  -3.702  1.00  0.00     0.118 C 
ENDROOT
BRANCH   1   2
ATOM      2  N   UNL     1      -1.207  -9.562  -3.604  1.00  0.00    -0.352 N 
ATOM      3  C   UNL     1      -1.449 -10.493  -2.620  1.00  0.00     0.251 C 
ATOM      4  O   UNL     1      -2.287 -11.366  -2.855  1.00  0.00    -0.269 OA
ATOM      5  H   UNL     1      -1.740  -9.713  -4.418  1.00  0.00     0.163 HD
BRANCH   3   6
ATOM      6  C   UNL     1      -0.704 -10.546  -1.330  1.00  0.00     0.041 A 
ATOM      7  C   UNL     1       0.930  -9.606   0.198  1.00  0.00     0.052 A 
ATOM      8  C   UNL     1       1.001 -10.841   0.860  1.00  0.00     0.027 A 
ATOM      9  C   UNL     1      -0.064  -9.442  -0.770  1.00  0.00     0.040 A 
ATOM     10  C   UNL     1       0.216 -11.918   0.443  1.00  0.00     0.003 A 
ATOM     11  C   UNL     1      -0.588 -11.786  -0.687  1.00  0.00     0.014 A 
BRANCH   7  12
ATOM     12  N   UNL     1       1.950  -8.586   0.369  1.00  0.00    -0.251 N 
ATOM     13  C   UNL     1       2.366  -4.929   0.218  1.00  0.00     0.031 C 
ATOM     14  C   UNL     1       2.671  -6.227   0.475  1.00  0.00     0.103 C 
ATOM     15  C   UNL     1       1.554  -7.235   0.398  1.00  0.00     0.270 C 
ATOM     16  C   UNL     1       3.941  -6.825   0.873  1.00  0.00     0.226 C 
ATOM     17  O   UNL     1       0.384  -6.849   0.376  1.00  0.00    -0.268 OA
ATOM     18  N   UNL     1       4.242  -8.064   0.837  1.00  0.00    -0.184 NA
ATOM     19  C   UNL     1       3.321  -8.951   0.343  1.00  0.00     0.210 C 
ATOM     20  S   UNL     1       3.947 -10.393  -0.313  1.00  0.00    -0.038 S 
BRANCH  13  21
ATOM     21  C   UNL     1       3.173  -3.678   0.296  1.00  0.00     0.021 A 
ATOM     22  C   UNL     1       2.567  -2.443   0.671  1.00  0.00     0.130 A 
ATOM     23  C   UNL     1       3.335  -1.326   1.031  1.00  0.00     0.097 A 
ATOM     24  C   UNL     1       4.695  -1.411   0.885  1.00  0.00     0.169 A 
ATOM     25  C   UNL     1       4.550  -3.657   0.026  1.00  0.00     0.062 A 
ATOM     26  C   UNL     1       5.283  -2.535   0.367  1.00  0.00     0.166 A 
ATOM     27  O   UNL     1       5.593  -0.443   1.200  1.00  0.00    -0.453 OA
ATOM     28  O   UNL     1       6.635  -2.415   0.288  1.00  0.00    -0.454 OA
ATOM     29  C   UNL     1       6.829  -1.107   0.863  1.00  0.00     0.468 C 
BRANCH  22  30
ATOM     30  O   UNL     1       1.199  -2.312   0.749  1.00  0.00    -0.493 OA
BRANCH  30  31
ATOM     31  C   UNL     1       0.673  -1.586  -0.382  1.00  0.00     0.226 C 
ATOM     32  C   UNL     1       0.655  -0.075  -0.168  1.00  0.00     0.049 C 
ENDBRANCH  30  31
ENDBRANCH  22  30
ENDBRANCH  13  21
BRANCH  16  33
ATOM     33  O   UNL     1       4.879  -6.028   1.376  1.00  0.00    -0.493 OA
ATOM     34  H   UNL     1       4.728  -5.105   1.434  1.00  0.00     0.295 HD
ENDBRANCH  16  33
ENDBRANCH   7  12
ENDBRANCH   3   6
ENDBRANCH   1   2
BRANCH   1  35
ATOM     35  C   UNL     1       0.618  -8.425  -4.886  1.00  0.00     0.042 C 
BRANCH  35  36
ATOM     36  C   UNL     1      -0.054  -8.283  -6.237  1.00  0.00     0.118 C 
BRANCH  36  37
ATOM     37  N   UNL     1      -0.761  -7.016  -6.385  1.00  0.00    -0.352 N 
ATOM     38  C   UNL     1      -0.463  -5.898  -7.128  1.00  0.00     0.251 C 
ATOM     39  H   UNL     1      -1.593  -6.950  -5.863  1.00  0.00     0.163 HD
ATOM     40  O   UNL     1      -1.092  -4.863  -6.929  1.00  0.00    -0.269 OA
BRANCH  38  41
ATOM     41  C   UNL     1       0.615  -5.926  -8.143  1.00  0.00     0.039 A 
ATOM     42  C   UNL     1       1.418  -4.794  -8.316  1.00  0.00     0.014 A 
ATOM     43  C   UNL     1       0.824  -7.049  -8.944  1.00  0.00     0.014 A 
ATOM     44  C   UNL     1       2.473  -4.823  -9.232  1.00  0.00     0.010 A 
ATOM     45  C   UNL     1       1.940  -7.118  -9.769  1.00  0.00     0.010 A 
ATOM     46  C   UNL     1       2.772  -6.003  -9.933  1.00  0.00    -0.014 A 
BRANCH  46  47
ATOM     47  C   UNL     1       3.935  -6.094 -10.854  1.00  0.00     0.031 A 
ATOM     48  C   UNL     1       3.719  -6.418 -12.310  1.00  0.00     0.074 A 
ATOM     49  C   UNL     1       5.185  -5.965 -10.365  1.00  0.00     0.049 A 
ATOM     50  N   UNL     1       4.604  -6.638 -13.247  1.00  0.00    -0.248 NA
ATOM     51  C   UNL     1       2.324  -6.546 -12.764  1.00  0.00     0.031 C 
ATOM     52  C   UNL     1       5.524  -5.707  -8.963  1.00  0.00     0.029 A 
ATOM     53  N   UNL     1       6.405  -6.048 -10.989  1.00  0.00    -0.354 N 
ATOM     54  C   UNL     1       3.876  -6.949 -14.391  1.00  0.00     0.074 A 
ATOM     55  C   UNL     1       2.480  -6.948 -14.017  1.00  0.00     0.031 C 
ATOM     56  C   UNL     1       6.859  -5.628  -8.839  1.00  0.00     0.029 A 
ATOM     57  C   UNL     1       7.473  -5.875 -10.139  1.00  0.00     0.049 A 
ATOM     58  H   UNL     1       6.506  -6.216 -11.953  1.00  0.00     0.167 HD
ATOM     59  C   UNL     1       4.329  -7.186 -15.645  1.00  0.00     0.037 A 
ATOM     60  C   UNL     1       8.798  -5.923 -10.378  1.00  0.00     0.037 A 
ATOM     61  C   UNL     1       5.720  -7.152 -16.014  1.00  0.00     0.049 A 
ATOM     62  C   UNL     1       9.277  -6.185 -11.781  1.00  0.00     0.074 A 
ATOM     63  C   UNL     1       6.280  -7.314 -17.269  1.00  0.00     0.029 A 
ATOM     64  N   UNL     1       6.769  -6.944 -15.131  1.00  0.00    -0.354 N 
ATOM     65  N   UNL     1       8.571  -6.408 -12.864  1.00  0.00    -0.248 NA
ATOM     66  C   UNL     1      10.730  -6.196 -11.997  1.00  0.00     0.031 C 
ATOM     67  C   UNL     1       7.670  -7.253 -17.137  1.00  0.00     0.029 A 
ATOM     68  C   UNL     1       7.975  -6.995 -15.809  1.00  0.00     0.049 A 
ATOM     69  H   UNL     1       6.671  -6.783 -14.165  1.00  0.00     0.167 HD
ATOM     70  C   UNL     1       9.493  -6.556 -13.895  1.00  0.00     0.074 A 
ATOM     71  C   UNL     1      10.805  -6.383 -13.307  1.00  0.00     0.031 C 
ATOM     72  C   UNL     1       9.273  -6.810 -15.209  1.00  0.00     0.037 A 
BRANCH  59  73
ATOM     73  C   UNL     1       3.312  -7.493 -16.712  1.00  0.00     0.058 A 
ATOM     74  C   UNL     1       2.420  -6.517 -17.185  1.00  0.00     0.135 A 
ATOM     75  C   UNL     1       3.258  -8.767 -17.302  1.00  0.00     0.135 A 
ATOM     76  F   UNL     1       2.415  -5.287 -16.647  1.00  0.00    -0.206 F 
ATOM     77  C   UNL     1       1.493  -6.799 -18.183  1.00  0.00     0.059 A 
ATOM     78  C   UNL     1       2.360  -9.062 -18.323  1.00  0.00     0.059 A 
ATOM     79  F   UNL     1       4.086  -9.739 -16.888  1.00  0.00    -0.206 F 
ATOM     80  C   UNL     1       1.472  -8.075 -18.748  1.00  0.00     0.060 A 
BRANCH  80  81
ATOM     81  S   UNL     1       0.274  -8.418 -20.054  1.00  0.00     0.124 S 
ATOM     82  O   UNL     1      -0.976  -8.449 -19.301  1.00  0.00    -0.237 OA
ATOM     83  O   UNL     1       0.449  -7.274 -20.944  1.00  0.00    -0.237 OA
ATOM     84  O   UNL     1       0.714  -9.701 -20.593  1.00  0.00    -0.744 OA
ENDBRANCH  80  81
ENDBRANCH  59  73
BRANCH  60  85
ATOM     85  C   UNL     1       9.765  -5.699  -9.269  1.00  0.00     0.058 A 
ATOM     86  C   UNL     1      10.558  -4.542  -9.224  1.00  0.00     0.135 A 
ATOM     87  C   UNL     1       9.912  -6.630  -8.229  1.00  0.00     0.135 A 
ATOM     88  F   UNL     1      10.458  -3.623 -10.197  1.00  0.00    -0.206 F 
ATOM     89  C   UNL     1      11.476  -4.324  -8.201  1.00  0.00     0.059 A 
ATOM     90  C   UNL     1      10.802  -6.421  -7.179  1.00  0.00     0.059 A 
ATOM     91  F   UNL     1       9.165  -7.745  -8.213  1.00  0.00    -0.206 F 
ATOM     92  C   UNL     1      11.589  -5.270  -7.181  1.00  0.00     0.060 A 
BRANCH  92  93
ATOM     93  S   UNL     1      12.753  -4.957  -5.836  1.00  0.00     0.124 S 
ATOM     94  O   UNL     1      14.033  -5.171  -6.499  1.00  0.00    -0.237 OA
ATOM     95  O   UNL     1      12.441  -3.577  -5.477  1.00  0.00    -0.237 OA
ATOM     96  O   UNL     1      12.385  -5.954  -4.835  1.00  0.00    -0.744 OA
ENDBRANCH  92  93
ENDBRANCH  60  85
BRANCH  72  97
ATOM     97  C   UNL     1      10.474  -6.878 -16.112  1.00  0.00     0.058 A 
ATOM     98  C   UNL     1      11.371  -7.956 -16.072  1.00  0.00     0.135 A 
ATOM     99  C   UNL     1      10.695  -5.875 -17.071  1.00  0.00     0.135 A 
ATOM    100  F   UNL     1      11.209  -8.937 -15.170  1.00  0.00    -0.206 F 
ATOM    101  C   UNL     1      12.460  -8.026 -16.934  1.00  0.00     0.059 A 
ATOM    102  C   UNL     1      11.760  -5.941 -17.964  1.00  0.00     0.059 A 
ATOM    103  F   UNL     1       9.860  -4.828 -17.160  1.00  0.00    -0.206 F 
ATOM    104  C   UNL     1      12.644  -7.015 -17.879  1.00  0.00     0.060 A 
BRANCH 104 105
ATOM    105  S   UNL     1      14.041  -7.137 -19.015  1.00  0.00     0.124 S 
ATOM    106  O   UNL     1      15.164  -6.832 -18.135  1.00  0.00    -0.237 OA
ATOM    107  O   UNL     1      13.951  -8.521 -19.472  1.00  0.00    -0.237 OA
ATOM    108  O   UNL     1      13.746  -6.128 -20.028  1.00  0.00    -0.744 OA
ENDBRANCH 104 105
ENDBRANCH  72  97
ENDBRANCH  46  47
ENDBRANCH  38  41
ENDBRANCH  36  37
ENDBRANCH  35  36
ENDBRANCH   1  35
TORSDOF 18
