REMARK SMILES Cc1[nH]c(=O)n(C)c(=O)c1CC(=O)NCCCNC(=O)c1ccc(-c2c3nc(c(-c4c(F)cc(S(=O)(=O)[O-])cc4F)c4ccc([nH]4)c(-c4c(F)cc(S(=O)(=O)[O-])cc4F)c4nc(c(-c5c(F)cc(S(=O)(=O)[O-])cc5F)c5ccc2[nH]5)C=C4)C=C3)cc1
REMARK SMILES IDX 17 1 16 2 15 3 14 4 12 5 13 6 11 8 10 9 1 10 2 11 3 12 4 13
REMARK SMILES IDX 8 15 5 16 6 17 9 18 7 19 18 20 19 21 20 23 21 24 22 25 86 26
REMARK SMILES IDX 23 27 85 28 24 29 25 30 26 31 79 32 27 33 84 34 78 35 80 36
REMARK SMILES IDX 28 37 83 38 77 39 76 40 29 42 63 43 42 44 62 45 43 46 46 47
REMARK SMILES IDX 61 48 81 49 44 50 45 51 60 53 82 54 47 55 30 56 31 57 40 58
REMARK SMILES IDX 32 59 33 60 39 61 41 62 34 63 35 64 36 65 37 66 38 67 64 68
REMARK SMILES IDX 65 69 74 70 66 71 67 72 73 73 75 74 68 75 69 76 70 77 71 78
REMARK SMILES IDX 72 79 48 80 49 81 58 82 50 83 51 84 57 85 59 86 52 87 53 88
REMARK SMILES IDX 54 89 55 90 56 91
REMARK H PARENT 14 7 3 14 18 22 80 41 46 52
REMARK Flexibility Score: inf
ROOT
ATOM      1  C   UNL     1       2.448  -1.259  -4.982  1.00  0.00     0.118 C 
ENDROOT
BRANCH   1   2
ATOM      2  C   UNL     1       2.025  -1.003  -3.539  1.00  0.00     0.042 C 
BRANCH   2   3
ATOM      3  C   UNL     1       1.095   0.194  -3.383  1.00  0.00     0.117 C 
BRANCH   3   4
ATOM      4  N   UNL     1      -0.217  -0.052  -3.945  1.00  0.00    -0.356 N 
ATOM      5  C   UNL     1      -1.404  -0.297  -3.320  1.00  0.00     0.224 C 
ATOM      6  O   UNL     1      -2.417  -0.355  -4.020  1.00  0.00    -0.275 OA
ATOM      7  H   UNL     1      -0.258  -0.041  -4.929  1.00  0.00     0.163 HD
BRANCH   5   8
ATOM      8  C   UNL     1      -1.481  -0.372  -1.796  1.00  0.00     0.143 C 
BRANCH   8   9
ATOM      9  C   UNL     1      -0.682  -1.492  -1.179  1.00  0.00     0.046 A 
ATOM     10  C   UNL     1       0.813  -0.085   0.329  1.00  0.00     0.065 C 
ATOM     11  C   UNL     1       0.307  -1.368  -0.273  1.00  0.00     0.026 A 
ATOM     12  N   UNL     1       0.963  -2.485   0.172  1.00  0.00    -0.311 N 
ATOM     13  C   UNL     1       0.706  -3.765  -0.222  1.00  0.00     0.328 A 
ATOM     14  H   UNL     1       1.681  -2.353   0.832  1.00  0.00     0.171 HD
ATOM     15  C   UNL     1      -1.079  -2.874  -1.606  1.00  0.00     0.259 A 
ATOM     16  O   UNL     1       1.369  -4.687   0.247  1.00  0.00    -0.248 OA
ATOM     17  N   UNL     1      -0.317  -3.923  -1.131  1.00  0.00    -0.263 N 
ATOM     18  O   UNL     1      -2.059  -3.024  -2.332  1.00  0.00    -0.269 OA
ATOM     19  C   UNL     1      -0.625  -5.278  -1.546  1.00  0.00     0.158 C 
ENDBRANCH   8   9
ENDBRANCH   5   8
ENDBRANCH   3   4
ENDBRANCH   2   3
ENDBRANCH   1   2
BRANCH   1  20
ATOM     20  N   UNL     1       3.229  -0.158  -5.534  1.00  0.00    -0.352 N 
ATOM     21  C   UNL     1       4.516  -0.139  -6.010  1.00  0.00     0.251 C 
ATOM     22  H   UNL     1       2.760   0.706  -5.571  1.00  0.00     0.163 HD
ATOM     23  O   UNL     1       5.060   0.941  -6.230  1.00  0.00    -0.269 OA
BRANCH  21  24
ATOM     24  C   UNL     1       5.247  -1.401  -6.243  1.00  0.00     0.039 A 
ATOM     25  C   UNL     1       6.593  -1.482  -5.875  1.00  0.00     0.014 A 
ATOM     26  C   UNL     1       4.619  -2.495  -6.845  1.00  0.00     0.014 A 
ATOM     27  C   UNL     1       7.289  -2.679  -6.054  1.00  0.00     0.010 A 
ATOM     28  C   UNL     1       5.290  -3.710  -6.950  1.00  0.00     0.010 A 
ATOM     29  C   UNL     1       6.633  -3.813  -6.561  1.00  0.00    -0.014 A 
BRANCH  29  30
ATOM     30  C   UNL     1       7.338  -5.112  -6.697  1.00  0.00     0.031 A 
ATOM     31  C   UNL     1       7.559  -5.711  -8.058  1.00  0.00     0.074 A 
ATOM     32  C   UNL     1       7.739  -5.769  -5.591  1.00  0.00     0.049 A 
ATOM     33  N   UNL     1       8.111  -6.853  -8.376  1.00  0.00    -0.248 NA
ATOM     34  C   UNL     1       7.078  -4.936  -9.214  1.00  0.00     0.031 C 
ATOM     35  C   UNL     1       7.549  -5.302  -4.216  1.00  0.00     0.029 A 
ATOM     36  N   UNL     1       8.387  -6.970  -5.446  1.00  0.00    -0.354 N 
ATOM     37  C   UNL     1       8.044  -6.934  -9.762  1.00  0.00     0.074 A 
ATOM     38  C   UNL     1       7.341  -5.756 -10.220  1.00  0.00     0.031 C 
ATOM     39  C   UNL     1       8.098  -6.188  -3.370  1.00  0.00     0.029 A 
ATOM     40  C   UNL     1       8.642  -7.305  -4.136  1.00  0.00     0.049 A 
ATOM     41  H   UNL     1       8.645  -7.538  -6.207  1.00  0.00     0.167 HD
ATOM     42  C   UNL     1       8.550  -7.887 -10.579  1.00  0.00     0.037 A 
ATOM     43  C   UNL     1       9.244  -8.392  -3.613  1.00  0.00     0.037 A 
ATOM     44  C   UNL     1       9.260  -9.050 -10.114  1.00  0.00     0.049 A 
ATOM     45  C   UNL     1       9.765  -9.456  -4.539  1.00  0.00     0.074 A 
ATOM     46  C   UNL     1       9.841 -10.058 -10.863  1.00  0.00     0.029 A 
ATOM     47  N   UNL     1       9.485  -9.362  -8.781  1.00  0.00    -0.354 N 
ATOM     48  N   UNL     1       9.733  -9.494  -5.850  1.00  0.00    -0.248 NA
ATOM     49  C   UNL     1      10.403 -10.625  -3.919  1.00  0.00     0.031 C 
ATOM     50  C   UNL     1      10.375 -11.004  -9.982  1.00  0.00     0.029 A 
ATOM     51  C   UNL     1      10.176 -10.558  -8.685  1.00  0.00     0.049 A 
ATOM     52  H   UNL     1       9.196  -8.813  -8.016  1.00  0.00     0.167 HD
ATOM     53  C   UNL     1      10.368 -10.677  -6.213  1.00  0.00     0.074 A 
ATOM     54  C   UNL     1      10.785 -11.319  -4.983  1.00  0.00     0.031 C 
ATOM     55  C   UNL     1      10.586 -11.184  -7.451  1.00  0.00     0.037 A 
BRANCH  42  56
ATOM     56  C   UNL     1       8.365  -7.707 -12.062  1.00  0.00     0.058 A 
ATOM     57  C   UNL     1       9.047  -6.704 -12.769  1.00  0.00     0.135 A 
ATOM     58  C   UNL     1       7.535  -8.572 -12.793  1.00  0.00     0.135 A 
ATOM     59  F   UNL     1       9.841  -5.838 -12.119  1.00  0.00    -0.206 F 
ATOM     60  C   UNL     1       8.894  -6.549 -14.143  1.00  0.00     0.059 A 
ATOM     61  C   UNL     1       7.390  -8.454 -14.173  1.00  0.00     0.059 A 
ATOM     62  F   UNL     1       6.857  -9.548 -12.168  1.00  0.00    -0.206 F 
ATOM     63  C   UNL     1       8.066  -7.431 -14.837  1.00  0.00     0.060 A 
BRANCH  63  64
ATOM     64  S   UNL     1       7.891  -7.220 -16.621  1.00  0.00     0.124 S 
ATOM     65  O   UNL     1       7.140  -5.970 -16.694  1.00  0.00    -0.237 OA
ATOM     66  O   UNL     1       9.280  -7.150 -17.062  1.00  0.00    -0.237 OA
ATOM     67  O   UNL     1       7.162  -8.413 -17.037  1.00  0.00    -0.744 OA
ENDBRANCH  63  64
ENDBRANCH  42  56
BRANCH  43  68
ATOM     68  C   UNL     1       9.416  -8.502  -2.139  1.00  0.00     0.058 A 
ATOM     69  C   UNL     1      10.685  -8.383  -1.554  1.00  0.00     0.135 A 
ATOM     70  C   UNL     1       8.318  -8.691  -1.284  1.00  0.00     0.135 A 
ATOM     71  F   UNL     1      11.767  -8.210  -2.329  1.00  0.00    -0.206 F 
ATOM     72  C   UNL     1      10.863  -8.450  -0.176  1.00  0.00     0.059 A 
ATOM     73  C   UNL     1       8.467  -8.735   0.099  1.00  0.00     0.059 A 
ATOM     74  F   UNL     1       7.081  -8.797  -1.792  1.00  0.00    -0.206 F 
ATOM     75  C   UNL     1       9.745  -8.617   0.644  1.00  0.00     0.060 A 
BRANCH  75  76
ATOM     76  S   UNL     1       9.985  -8.634   2.434  1.00  0.00     0.124 S 
ATOM     77  O   UNL     1      10.693  -9.894   2.625  1.00  0.00    -0.237 OA
ATOM     78  O   UNL     1      10.769  -7.421   2.645  1.00  0.00    -0.237 OA
ATOM     79  O   UNL     1       8.623  -8.590   2.957  1.00  0.00    -0.744 OA
ENDBRANCH  75  76
ENDBRANCH  43  68
BRANCH  55  80
ATOM     80  C   UNL     1      11.325 -12.490  -7.551  1.00  0.00     0.058 A 
ATOM     81  C   UNL     1      10.720 -13.706  -7.196  1.00  0.00     0.135 A 
ATOM     82  C   UNL     1      12.624 -12.535  -8.084  1.00  0.00     0.135 A 
ATOM     83  F   UNL     1       9.483 -13.719  -6.675  1.00  0.00    -0.206 F 
ATOM     84  C   UNL     1      11.383 -14.919  -7.353  1.00  0.00     0.059 A 
ATOM     85  C   UNL     1      13.293 -13.739  -8.278  1.00  0.00     0.059 A 
ATOM     86  F   UNL     1      13.244 -11.401  -8.450  1.00  0.00    -0.206 F 
ATOM     87  C   UNL     1      12.666 -14.925  -7.902  1.00  0.00     0.060 A 
BRANCH  87  88
ATOM     88  S   UNL     1      13.491 -16.513  -8.145  1.00  0.00     0.124 S 
ATOM     89  O   UNL     1      13.769 -16.914  -6.770  1.00  0.00    -0.237 OA
ATOM     90  O   UNL     1      12.468 -17.290  -8.838  1.00  0.00    -0.237 OA
ATOM     91  O   UNL     1      14.662 -16.171  -8.947  1.00  0.00    -0.744 OA
ENDBRANCH  87  88
ENDBRANCH  55  80
ENDBRANCH  29  30
ENDBRANCH  21  24
ENDBRANCH   1  20
TORSDOF 14
