REMARK SMILES COc1ccc([C@@H]2[NH2+][C@H](C(=O)NCCCNC(=O)c3ccc(-c4c5nc(c(-c6c(F)cc(S(=O)(=O)[O-])cc6F)c6ccc([nH]6)c(-c6c(F)cc(S(=O)(=O)[O-])cc6F)c6nc(c(-c7c(F)cc(S(=O)(=O)[O-])cc7F)c7ccc4[nH]7)C=C6)C=C5)cc3)CS2)cc1Cn1nc(C)c(Br)c1C
REMARK SMILES IDX 14 1 13 2 12 3 10 4 11 5 9 7 7 8 8 9 86 10 85 13 6 14 3 15
REMARK SMILES IDX 4 16 88 17 5 18 87 19 2 20 1 21 89 22 90 23 91 24 96 25
REMARK SMILES IDX 92 26 94 27 97 28 93 29 95 30 15 31 16 32 17 33 18 35 19 36
REMARK SMILES IDX 20 37 84 38 21 39 83 40 22 41 23 42 24 43 77 44 25 45 82 46
REMARK SMILES IDX 76 47 78 48 26 49 81 50 75 51 74 52 27 54 61 55 40 56 60 57
REMARK SMILES IDX 41 58 44 59 59 60 79 61 42 62 43 63 58 65 80 66 45 67 28 68
REMARK SMILES IDX 29 69 38 70 30 71 31 72 37 73 39 74 32 75 33 76 34 77 35 78
REMARK SMILES IDX 36 79 62 80 63 81 72 82 64 83 65 84 71 85 73 86 66 87 67 88
REMARK SMILES IDX 68 89 69 90 70 91 46 92 47 93 56 94 48 95 49 96 55 97 57 98
REMARK SMILES IDX 50 99 51 100 52 101 53 102 54 103
REMARK H PARENT 12 6 8 11 8 12 16 34 78 53 44 64
REMARK Flexibility Score: inf
ROOT
ATOM      1  C   UNL     1       2.182   4.890   0.319  1.00  0.00     0.042 C 
ENDROOT
BRANCH   1   2
ATOM      2  C   UNL     1       3.158   4.469   1.399  1.00  0.00     0.118 C 
BRANCH   2   3
ATOM      3  N   UNL     1       4.187   5.407   1.788  1.00  0.00    -0.351 N 
ATOM      4  C   UNL     1       4.665   5.665   3.043  1.00  0.00     0.279 C 
ATOM      5  O   UNL     1       5.833   6.078   3.108  1.00  0.00    -0.268 OA
ATOM      6  H   UNL     1       4.596   5.925   1.057  1.00  0.00     0.163 HD
BRANCH   4   7
ATOM      7  C   UNL     1       3.875   5.482   4.370  1.00  0.00     0.283 C 
ATOM      8  C   UNL     1       1.947   4.128   5.003  1.00  0.00     0.274 C 
ATOM      9  N   UNL     1       2.411   5.298   4.238  1.00  0.00    -0.321 N 
ATOM     10  S   UNL     1       3.183   3.754   6.255  1.00  0.00    -0.088 SA
ATOM     11  H   UNL     1       1.938   6.132   4.587  1.00  0.00     0.348 HD
ATOM     12  H   UNL     1       2.193   5.145   3.253  1.00  0.00     0.348 HD
ATOM     13  C   UNL     1       4.519   4.409   5.240  1.00  0.00     0.151 C 
BRANCH   8  14
ATOM     14  C   UNL     1       1.595   2.982   4.049  1.00  0.00     0.021 A 
ATOM     15  C   UNL     1       1.025   1.303   1.863  1.00  0.00     0.123 A 
ATOM     16  C   UNL     1       0.041   2.156   2.381  1.00  0.00     0.047 A 
ATOM     17  C   UNL     1       2.322   1.268   2.400  1.00  0.00     0.016 A 
ATOM     18  C   UNL     1       0.324   2.995   3.456  1.00  0.00     0.015 A 
ATOM     19  C   UNL     1       2.553   2.068   3.541  1.00  0.00     0.020 A 
BRANCH  15  20
ATOM     20  O   UNL     1       0.664   0.635   0.731  1.00  0.00    -0.496 OA
ATOM     21  C   UNL     1       0.423  -0.752   0.929  1.00  0.00     0.278 C 
ENDBRANCH  15  20
BRANCH  17  22
ATOM     22  C   UNL     1       3.453   0.438   1.801  1.00  0.00     0.184 C 
BRANCH  22  23
ATOM     23  N   UNL     1       4.568   1.185   1.178  1.00  0.00    -0.264 N 
ATOM     24  N   UNL     1       4.573   1.322  -0.173  1.00  0.00    -0.177 NA
ATOM     25  C   UNL     1       5.741   1.660   1.733  1.00  0.00     0.050 A 
ATOM     26  C   UNL     1       5.713   1.955  -0.476  1.00  0.00     0.074 A 
ATOM     27  C   UNL     1       6.439   2.230   0.689  1.00  0.00     0.061 A 
ATOM     28  C   UNL     1       6.145   1.554   3.150  1.00  0.00     0.067 C 
ATOM     29  C   UNL     1       6.042   2.253  -1.895  1.00  0.00     0.070 C 
ATOM     30  Br  UNL     1       8.074   3.141   0.770  1.00  0.00    -0.047 Br
ENDBRANCH  22  23
ENDBRANCH  17  22
ENDBRANCH   8  14
ENDBRANCH   4   7
ENDBRANCH   2   3
ENDBRANCH   1   2
BRANCH   1  31
ATOM     31  C   UNL     1       2.472   4.304  -1.061  1.00  0.00     0.118 C 
BRANCH  31  32
ATOM     32  N   UNL     1       2.460   2.840  -1.161  1.00  0.00    -0.352 N 
ATOM     33  C   UNL     1       1.635   1.939  -1.789  1.00  0.00     0.251 C 
ATOM     34  H   UNL     1       3.202   2.413  -0.675  1.00  0.00     0.163 HD
ATOM     35  O   UNL     1       1.899   0.733  -1.816  1.00  0.00    -0.269 OA
BRANCH  33  36
ATOM     36  C   UNL     1       0.403   2.390  -2.435  1.00  0.00     0.039 A 
ATOM     37  C   UNL     1      -0.796   1.703  -2.207  1.00  0.00     0.014 A 
ATOM     38  C   UNL     1       0.441   3.488  -3.283  1.00  0.00     0.014 A 
ATOM     39  C   UNL     1      -1.981   2.184  -2.760  1.00  0.00     0.010 A 
ATOM     40  C   UNL     1      -0.744   4.037  -3.726  1.00  0.00     0.010 A 
ATOM     41  C   UNL     1      -1.963   3.383  -3.483  1.00  0.00    -0.014 A 
BRANCH  41  42
ATOM     42  C   UNL     1      -3.172   3.988  -4.077  1.00  0.00     0.031 A 
ATOM     43  C   UNL     1      -3.191   4.208  -5.564  1.00  0.00     0.074 A 
ATOM     44  C   UNL     1      -4.136   4.482  -3.279  1.00  0.00     0.049 A 
ATOM     45  N   UNL     1      -3.953   4.991  -6.275  1.00  0.00    -0.248 NA
ATOM     46  C   UNL     1      -2.157   3.499  -6.343  1.00  0.00     0.031 C 
ATOM     47  C   UNL     1      -4.186   4.349  -1.820  1.00  0.00     0.029 A 
ATOM     48  N   UNL     1      -5.238   5.237  -3.581  1.00  0.00    -0.354 N 
ATOM     49  C   UNL     1      -3.459   4.911  -7.572  1.00  0.00     0.074 A 
ATOM     50  C   UNL     1      -2.301   4.047  -7.539  1.00  0.00     0.031 C 
ATOM     51  C   UNL     1      -5.264   5.001  -1.356  1.00  0.00     0.029 A 
ATOM     52  C   UNL     1      -5.945   5.644  -2.474  1.00  0.00     0.049 A 
ATOM     53  H   UNL     1      -5.499   5.466  -4.503  1.00  0.00     0.167 HD
ATOM     54  C   UNL     1      -3.946   5.495  -8.690  1.00  0.00     0.037 A 
ATOM     55  C   UNL     1      -7.003   6.471  -2.380  1.00  0.00     0.037 A 
ATOM     56  C   UNL     1      -5.133   6.306  -8.697  1.00  0.00     0.049 A 
ATOM     57  C   UNL     1      -7.544   7.088  -3.642  1.00  0.00     0.074 A 
ATOM     58  C   UNL     1      -5.774   6.888  -9.775  1.00  0.00     0.029 A 
ATOM     59  N   UNL     1      -5.867   6.637  -7.565  1.00  0.00    -0.354 N 
ATOM     60  N   UNL     1      -7.098   6.974  -4.872  1.00  0.00    -0.248 NA
ATOM     61  C   UNL     1      -8.729   7.945  -3.507  1.00  0.00     0.031 C 
ATOM     62  C   UNL     1      -6.874   7.601  -9.290  1.00  0.00     0.029 A 
ATOM     63  C   UNL     1      -6.946   7.426  -7.916  1.00  0.00     0.049 A 
ATOM     64  H   UNL     1      -5.650   6.351  -6.648  1.00  0.00     0.167 HD
ATOM     65  C   UNL     1      -7.961   7.726  -5.660  1.00  0.00     0.074 A 
ATOM     66  C   UNL     1      -8.963   8.276  -4.769  1.00  0.00     0.031 C 
ATOM     67  C   UNL     1      -7.930   7.947  -6.998  1.00  0.00     0.037 A 
BRANCH  54  68
ATOM     68  C   UNL     1      -3.208   5.266  -9.980  1.00  0.00     0.058 A 
ATOM     69  C   UNL     1      -3.167   4.003 -10.594  1.00  0.00     0.135 A 
ATOM     70  C   UNL     1      -2.548   6.325 -10.624  1.00  0.00     0.135 A 
ATOM     71  F   UNL     1      -3.761   2.949 -10.013  1.00  0.00    -0.206 F 
ATOM     72  C   UNL     1      -2.475   3.791 -11.781  1.00  0.00     0.059 A 
ATOM     73  C   UNL     1      -1.877   6.143 -11.831  1.00  0.00     0.059 A 
ATOM     74  F   UNL     1      -2.547   7.552 -10.081  1.00  0.00    -0.206 F 
ATOM     75  C   UNL     1      -1.835   4.869 -12.394  1.00  0.00     0.060 A 
BRANCH  75  76
ATOM     76  S   UNL     1      -0.961   4.580 -13.947  1.00  0.00     0.124 S 
ATOM     77  O   UNL     1       0.210   3.837 -13.489  1.00  0.00    -0.237 OA
ATOM     78  O   UNL     1      -1.937   3.812 -14.714  1.00  0.00    -0.237 OA
ATOM     79  O   UNL     1      -0.695   5.925 -14.444  1.00  0.00    -0.744 OA
ENDBRANCH  75  76
ENDBRANCH  54  68
BRANCH  55  80
ATOM     80  C   UNL     1      -7.621   6.748  -1.055  1.00  0.00     0.058 A 
ATOM     81  C   UNL     1      -8.888   6.237  -0.737  1.00  0.00     0.135 A 
ATOM     82  C   UNL     1      -6.958   7.503  -0.074  1.00  0.00     0.135 A 
ATOM     83  F   UNL     1      -9.563   5.511  -1.642  1.00  0.00    -0.206 F 
ATOM     84  C   UNL     1      -9.485   6.478   0.495  1.00  0.00     0.059 A 
ATOM     85  C   UNL     1      -7.524   7.737   1.176  1.00  0.00     0.059 A 
ATOM     86  F   UNL     1      -5.735   7.999  -0.318  1.00  0.00    -0.206 F 
ATOM     87  C   UNL     1      -8.793   7.228   1.448  1.00  0.00     0.060 A 
BRANCH  87  88
ATOM     88  S   UNL     1      -9.559   7.493   3.062  1.00  0.00     0.124 S 
ATOM     89  O   UNL     1     -10.611   8.449   2.735  1.00  0.00    -0.237 OA
ATOM     90  O   UNL     1     -10.006   6.148   3.413  1.00  0.00    -0.237 OA
ATOM     91  O   UNL     1      -8.462   8.012   3.873  1.00  0.00    -0.744 OA
ENDBRANCH  87  88
ENDBRANCH  55  80
BRANCH  67  92
ATOM     92  C   UNL     1      -9.026   8.794  -7.578  1.00  0.00     0.058 A 
ATOM     93  C   UNL     1      -9.057  10.184  -7.391  1.00  0.00     0.135 A 
ATOM     94  C   UNL     1     -10.017   8.213  -8.386  1.00  0.00     0.135 A 
ATOM     95  F   UNL     1      -8.135  10.783  -6.621  1.00  0.00    -0.206 F 
ATOM     96  C   UNL     1     -10.047  10.969  -7.970  1.00  0.00     0.059 A 
ATOM     97  C   UNL     1     -10.999   8.983  -8.998  1.00  0.00     0.059 A 
ATOM     98  F   UNL     1     -10.022   6.888  -8.604  1.00  0.00    -0.206 F 
ATOM     99  C   UNL     1     -11.011  10.359  -8.776  1.00  0.00     0.060 A 
BRANCH  99 100
ATOM    100  S   UNL     1     -12.264  11.397  -9.557  1.00  0.00     0.124 S 
ATOM    101  O   UNL     1     -13.115  11.734  -8.421  1.00  0.00    -0.237 OA
ATOM    102  O   UNL     1     -11.466  12.492 -10.100  1.00  0.00    -0.237 OA
ATOM    103  O   UNL     1     -12.865  10.514 -10.552  1.00  0.00    -0.744 OA
ENDBRANCH  99 100
ENDBRANCH  67  92
ENDBRANCH  41  42
ENDBRANCH  33  36
ENDBRANCH  31  32
ENDBRANCH   1  31
TORSDOF 17
