REMARK SMILES CC1=C[C@H](C)[C@H](CN2C[C@]34C=C[C@@H](O3)[C@H](C(=O)NCCCNC(=O)c3ccc(-c5c6nc(c(-c7c(F)cc(S(=O)(=O)[O-])cc7F)c7ccc([nH]7)c(-c7c(F)cc(S(=O)(=O)[O-])cc7F)c7nc(c(-c8c(F)cc(S(=O)(=O)[O-])cc8F)c8ccc5[nH]8)C=C7)C=C6)cc3)[C@@H]4C2=O)[C@H](C)C1
REMARK SMILES IDX 20 1 19 2 18 3 16 4 17 5 15 7 8 8 9 9 92 10 10 11 91 12
REMARK SMILES IDX 93 13 11 14 14 15 12 16 13 17 7 18 6 19 1 20 2 21 3 22 96 23
REMARK SMILES IDX 4 24 94 25 5 26 95 27 21 28 22 29 23 30 24 32 25 33 26 34
REMARK SMILES IDX 90 35 27 36 89 37 28 38 29 39 30 40 83 41 31 42 88 43 82 44
REMARK SMILES IDX 84 45 32 46 87 47 81 48 80 49 33 51 67 52 46 53 66 54 47 55
REMARK SMILES IDX 50 56 65 57 85 58 48 59 49 60 64 62 86 63 51 64 34 65 35 66
REMARK SMILES IDX 44 67 36 68 37 69 43 70 45 71 38 72 39 73 40 74 41 75 42 76
REMARK SMILES IDX 68 77 69 78 78 79 70 80 71 81 77 82 79 83 72 84 73 85 74 86
REMARK SMILES IDX 75 87 76 88 52 89 53 90 62 91 54 92 55 93 61 94 63 95 56 96
REMARK SMILES IDX 57 97 58 98 59 99 60 100
REMARK H PARENT 18 6 22 31 84 50 50 61
REMARK Flexibility Score: inf
ROOT
ATOM      1  C   UNL     1       1.898   1.657  -4.385  1.00  0.00     0.042 C 
ENDROOT
BRANCH   1   2
ATOM      2  C   UNL     1       0.591   0.876  -4.324  1.00  0.00     0.117 C 
BRANCH   2   3
ATOM      3  N   UNL     1      -0.365   0.971  -5.432  1.00  0.00    -0.356 N 
ATOM      4  C   UNL     1      -1.300  -0.055  -5.592  1.00  0.00     0.227 C 
ATOM      5  O   UNL     1      -2.304  -0.078  -4.881  1.00  0.00    -0.275 OA
ATOM      6  H   UNL     1      -0.347   1.739  -6.049  1.00  0.00     0.163 HD
BRANCH   4   7
ATOM      7  C   UNL     1      -1.129  -1.029  -6.768  1.00  0.00     0.127 C 
ATOM      8  N   UNL     1      -0.641  -3.680  -4.607  1.00  0.00    -0.339 N 
ATOM      9  C   UNL     1       0.357  -2.823  -5.109  1.00  0.00     0.160 C 
ATOM     10  C   UNL     1      -1.631  -3.644  -5.567  1.00  0.00     0.230 C 
ATOM     11  C   UNL     1       0.408  -2.962  -6.710  1.00  0.00     0.117 C 
ATOM     12  C   UNL     1      -1.173  -2.621  -6.649  1.00  0.00     0.132 C 
ATOM     13  O   UNL     1      -2.555  -4.420  -5.676  1.00  0.00    -0.274 OA
ATOM     14  C   UNL     1       1.708  -2.130  -6.565  1.00  0.00     0.009 C 
ATOM     15  O   UNL     1       0.288  -2.230  -7.999  1.00  0.00    -0.360 OA
ATOM     16  C   UNL     1       1.500  -0.859  -6.918  1.00  0.00     0.004 C 
ATOM     17  C   UNL     1       0.171  -0.852  -7.564  1.00  0.00     0.155 C 
BRANCH   8  18
ATOM     18  C   UNL     1      -0.341  -4.559  -3.443  1.00  0.00     0.124 C 
BRANCH  18  19
ATOM     19  C   UNL     1      -0.489  -3.935  -1.998  1.00  0.00     0.018 C 
ATOM     20  C   UNL     1       0.270  -0.928   1.146  1.00  0.00     0.039 C 
ATOM     21  C   UNL     1      -0.117  -2.165   0.369  1.00  0.00    -0.077 C 
ATOM     22  C   UNL     1       0.678  -3.255   0.264  1.00  0.00    -0.025 C 
ATOM     23  C   UNL     1      -1.233  -1.969  -0.623  1.00  0.00     0.034 C 
ATOM     24  C   UNL     1       0.578  -4.303  -0.874  1.00  0.00     0.014 C 
ATOM     25  C   UNL     1      -0.714  -2.414  -1.995  1.00  0.00    -0.005 C 
ATOM     26  C   UNL     1       1.992  -4.571  -1.421  1.00  0.00     0.012 C 
ATOM     27  C   UNL     1       0.562  -1.618  -2.262  1.00  0.00     0.008 C 
ENDBRANCH  18  19
ENDBRANCH   8  18
ENDBRANCH   4   7
ENDBRANCH   2   3
ENDBRANCH   1   2
BRANCH   1  28
ATOM     28  C   UNL     1       2.469   2.063  -3.008  1.00  0.00     0.118 C 
BRANCH  28  29
ATOM     29  N   UNL     1       2.651   1.008  -2.009  1.00  0.00    -0.352 N 
ATOM     30  C   UNL     1       3.633   0.808  -1.054  1.00  0.00     0.251 C 
ATOM     31  H   UNL     1       1.950   0.317  -2.019  1.00  0.00     0.163 HD
ATOM     32  O   UNL     1       3.554  -0.151  -0.291  1.00  0.00    -0.269 OA
BRANCH  30  33
ATOM     33  C   UNL     1       4.799   1.713  -0.972  1.00  0.00     0.039 A 
ATOM     34  C   UNL     1       6.080   1.178  -0.789  1.00  0.00     0.014 A 
ATOM     35  C   UNL     1       4.637   3.085  -1.141  1.00  0.00     0.014 A 
ATOM     36  C   UNL     1       7.201   1.999  -0.946  1.00  0.00     0.010 A 
ATOM     37  C   UNL     1       5.746   3.872  -1.412  1.00  0.00     0.010 A 
ATOM     38  C   UNL     1       7.040   3.334  -1.348  1.00  0.00    -0.014 A 
BRANCH  38  39
ATOM     39  C   UNL     1       8.185   4.191  -1.753  1.00  0.00     0.031 A 
ATOM     40  C   UNL     1       8.408   5.507  -1.059  1.00  0.00     0.074 A 
ATOM     41  C   UNL     1       8.921   3.853  -2.833  1.00  0.00     0.049 A 
ATOM     42  N   UNL     1       9.206   6.489  -1.386  1.00  0.00    -0.248 NA
ATOM     43  C   UNL     1       7.585   5.776   0.133  1.00  0.00     0.031 C 
ATOM     44  C   UNL     1       8.752   2.633  -3.630  1.00  0.00     0.029 A 
ATOM     45  N   UNL     1       9.941   4.517  -3.471  1.00  0.00    -0.354 N 
ATOM     46  C   UNL     1       8.955   7.501  -0.467  1.00  0.00     0.074 A 
ATOM     47  C   UNL     1       7.893   7.037   0.397  1.00  0.00     0.031 C 
ATOM     48  C   UNL     1       9.645   2.629  -4.633  1.00  0.00     0.029 A 
ATOM     49  C   UNL     1      10.414   3.867  -4.589  1.00  0.00     0.049 A 
ATOM     50  H   UNL     1      10.300   5.379  -3.158  1.00  0.00     0.167 HD
ATOM     51  C   UNL     1       9.572   8.699  -0.343  1.00  0.00     0.037 A 
ATOM     52  C   UNL     1      11.348   4.236  -5.489  1.00  0.00     0.037 A 
ATOM     53  C   UNL     1      10.663   9.122  -1.178  1.00  0.00     0.049 A 
ATOM     54  C   UNL     1      12.044   5.559  -5.308  1.00  0.00     0.074 A 
ATOM     55  C   UNL     1      11.416  10.278  -1.086  1.00  0.00     0.029 A 
ATOM     56  N   UNL     1      11.161   8.402  -2.255  1.00  0.00    -0.354 N 
ATOM     57  N   UNL     1      11.841   6.474  -4.390  1.00  0.00    -0.248 NA
ATOM     58  C   UNL     1      13.095   5.901  -6.276  1.00  0.00     0.031 C 
ATOM     59  C   UNL     1      12.339  10.280  -2.136  1.00  0.00     0.029 A 
ATOM     60  C   UNL     1      12.200   9.097  -2.846  1.00  0.00     0.049 A 
ATOM     61  H   UNL     1      10.825   7.526  -2.553  1.00  0.00     0.167 HD
ATOM     62  C   UNL     1      12.764   7.481  -4.646  1.00  0.00     0.074 A 
ATOM     63  C   UNL     1      13.527   7.064  -5.804  1.00  0.00     0.031 C 
ATOM     64  C   UNL     1      12.965   8.645  -3.982  1.00  0.00     0.037 A 
BRANCH  51  65
ATOM     65  C   UNL     1       9.095   9.631   0.737  1.00  0.00     0.058 A 
ATOM     66  C   UNL     1       9.299   9.353   2.098  1.00  0.00     0.135 A 
ATOM     67  C   UNL     1       8.468  10.844   0.405  1.00  0.00     0.135 A 
ATOM     68  F   UNL     1       9.876   8.200   2.474  1.00  0.00    -0.206 F 
ATOM     69  C   UNL     1       8.878  10.230   3.091  1.00  0.00     0.059 A 
ATOM     70  C   UNL     1       8.068  11.751   1.381  1.00  0.00     0.059 A 
ATOM     71  F   UNL     1       8.244  11.159  -0.880  1.00  0.00    -0.206 F 
ATOM     72  C   UNL     1       8.267  11.430   2.723  1.00  0.00     0.060 A 
BRANCH  72  73
ATOM     73  S   UNL     1       7.750  12.567   4.025  1.00  0.00     0.124 S 
ATOM     74  O   UNL     1       6.605  11.860   4.590  1.00  0.00    -0.237 OA
ATOM     75  O   UNL     1       8.937  12.628   4.873  1.00  0.00    -0.237 OA
ATOM     76  O   UNL     1       7.436  13.794   3.301  1.00  0.00    -0.744 OA
ENDBRANCH  72  73
ENDBRANCH  51  65
BRANCH  52  77
ATOM     77  C   UNL     1      11.686   3.341  -6.632  1.00  0.00     0.058 A 
ATOM     78  C   UNL     1      12.933   2.700  -6.704  1.00  0.00     0.135 A 
ATOM     79  C   UNL     1      10.773   3.104  -7.672  1.00  0.00     0.135 A 
ATOM     80  F   UNL     1      13.843   2.895  -5.738  1.00  0.00    -0.206 F 
ATOM     81  C   UNL     1      13.273   1.879  -7.776  1.00  0.00     0.059 A 
ATOM     82  C   UNL     1      11.079   2.264  -8.739  1.00  0.00     0.059 A 
ATOM     83  F   UNL     1       9.559   3.674  -7.644  1.00  0.00    -0.206 F 
ATOM     84  C   UNL     1      12.337   1.667  -8.790  1.00  0.00     0.060 A 
BRANCH  84  85
ATOM     85  S   UNL     1      12.777   0.576 -10.160  1.00  0.00     0.124 S 
ATOM     86  O   UNL     1      13.739   1.394 -10.890  1.00  0.00    -0.237 OA
ATOM     87  O   UNL     1      13.324  -0.585  -9.464  1.00  0.00    -0.237 OA
ATOM     88  O   UNL     1      11.501   0.350 -10.832  1.00  0.00    -0.744 OA
ENDBRANCH  84  85
ENDBRANCH  52  77
BRANCH  64  89
ATOM     89  C   UNL     1      14.087   9.531  -4.442  1.00  0.00     0.058 A 
ATOM     90  C   UNL     1      13.991  10.301  -5.610  1.00  0.00     0.135 A 
ATOM     91  C   UNL     1      15.229   9.689  -3.639  1.00  0.00     0.135 A 
ATOM     92  F   UNL     1      12.923  10.180  -6.414  1.00  0.00    -0.206 F 
ATOM     93  C   UNL     1      14.991  11.198  -5.968  1.00  0.00     0.059 A 
ATOM     94  C   UNL     1      16.227  10.600  -3.964  1.00  0.00     0.059 A 
ATOM     95  F   UNL     1      15.363   8.980  -2.507  1.00  0.00    -0.206 F 
ATOM     96  C   UNL     1      16.100  11.349  -5.132  1.00  0.00     0.060 A 
BRANCH  96  97
ATOM     97  S   UNL     1      17.350  12.575  -5.569  1.00  0.00     0.124 S 
ATOM     98  O   UNL     1      18.005  11.936  -6.705  1.00  0.00    -0.237 OA
ATOM     99  O   UNL     1      16.539  13.748  -5.882  1.00  0.00    -0.237 OA
ATOM    100  O   UNL     1      18.158  12.684  -4.358  1.00  0.00    -0.744 OA
ENDBRANCH  96  97
ENDBRANCH  64  89
ENDBRANCH  38  39
ENDBRANCH  30  33
ENDBRANCH  28  29
ENDBRANCH   1  28
TORSDOF 15
