REMARK SMILES Cc1ccc(C(=O)N[C@@H](C(=O)NCCCNC(=O)c2ccc(-c3c4nc(c(-c5c(F)cc(S(=O)(=O)[O-])cc5F)c5ccc([nH]5)c(-c5c(F)cc(S(=O)(=O)[O-])cc5F)c5nc(c(-c6c(F)cc(S(=O)(=O)[O-])cc6F)c6ccc3[nH]6)C=C5)C=C4)cc2)[C@@H](C)O)c(F)c1
REMARK SMILES IDX 14 1 13 2 12 3 10 4 11 5 9 7 8 8 6 9 7 10 5 12 1 13 2 14
REMARK SMILES IDX 3 15 90 16 4 17 88 18 89 19 85 20 86 21 87 22 15 24 16 25
REMARK SMILES IDX 17 26 18 28 19 29 20 30 84 31 21 32 83 33 22 34 23 35 24 36
REMARK SMILES IDX 77 37 25 38 82 39 76 40 78 41 26 42 81 43 75 44 74 45 27 47
REMARK SMILES IDX 61 48 40 49 60 50 41 51 44 52 59 53 79 54 42 55 43 56 58 58
REMARK SMILES IDX 80 59 45 60 28 61 29 62 38 63 30 64 31 65 37 66 39 67 32 68
REMARK SMILES IDX 33 69 34 70 35 71 36 72 62 73 63 74 72 75 64 76 65 77 71 78
REMARK SMILES IDX 73 79 66 80 67 81 68 82 69 83 70 84 46 85 47 86 56 87 48 88
REMARK SMILES IDX 49 89 55 90 57 91 50 92 51 93 52 94 53 95 54 96
REMARK H PARENT 12 6 8 11 87 23 16 27 78 46 44 57
REMARK Flexibility Score: inf
ROOT
ATOM      1  C   UNL     1      -1.890  -2.584   3.618  1.00  0.00     0.042 C 
ENDROOT
BRANCH   1   2
ATOM      2  C   UNL     1      -0.660  -3.168   2.936  1.00  0.00     0.117 C 
BRANCH   2   3
ATOM      3  N   UNL     1      -0.842  -4.578   2.650  1.00  0.00    -0.354 N 
ATOM      4  C   UNL     1      -1.073  -5.188   1.446  1.00  0.00     0.245 C 
ATOM      5  O   UNL     1      -1.337  -6.390   1.456  1.00  0.00    -0.273 OA
ATOM      6  H   UNL     1      -0.792  -5.179   3.428  1.00  0.00     0.163 HD
BRANCH   4   7
ATOM      7  C   UNL     1      -0.925  -4.353   0.154  1.00  0.00     0.200 C 
BRANCH   7   8
ATOM      8  N   UNL     1      -1.999  -3.356   0.056  1.00  0.00    -0.338 N 
ATOM      9  C   UNL     1      -2.045  -2.011  -0.224  1.00  0.00     0.254 C 
ATOM     10  O   UNL     1      -3.166  -1.535  -0.392  1.00  0.00    -0.269 OA
ATOM     11  H   UNL     1      -2.889  -3.738   0.231  1.00  0.00     0.164 HD
BRANCH   9  12
ATOM     12  C   UNL     1      -0.848  -1.122  -0.277  1.00  0.00     0.075 A 
ATOM     13  C   UNL     1       2.539   1.568   0.030  1.00  0.00     0.044 C 
ATOM     14  C   UNL     1       1.367   0.643  -0.104  1.00  0.00    -0.048 A 
ATOM     15  C   UNL     1       1.540  -0.682  -0.507  1.00  0.00     0.004 A 
ATOM     16  C   UNL     1       0.071   1.103   0.135  1.00  0.00     0.043 A 
ATOM     17  C   UNL     1       0.440  -1.542  -0.624  1.00  0.00     0.017 A 
ATOM     18  C   UNL     1      -1.016   0.228   0.062  1.00  0.00     0.136 A 
ATOM     19  F   UNL     1      -2.223   0.731   0.357  1.00  0.00    -0.206 F 
ENDBRANCH   9  12
ENDBRANCH   7   8
BRANCH   7  20
ATOM     20  C   UNL     1      -0.897  -5.274  -1.097  1.00  0.00     0.143 C 
ATOM     21  C   UNL     1      -1.177  -4.547  -2.414  1.00  0.00     0.041 C 
BRANCH  20  22
ATOM     22  O   UNL     1       0.391  -5.893  -1.227  1.00  0.00    -0.391 OA
ATOM     23  H   UNL     1       1.065  -5.210  -1.374  1.00  0.00     0.211 HD
ENDBRANCH  20  22
ENDBRANCH   7  20
ENDBRANCH   4   7
ENDBRANCH   2   3
ENDBRANCH   1   2
BRANCH   1  24
ATOM     24  C   UNL     1      -2.032  -3.049   5.062  1.00  0.00     0.118 C 
BRANCH  24  25
ATOM     25  N   UNL     1      -0.943  -2.567   5.903  1.00  0.00    -0.352 N 
ATOM     26  C   UNL     1      -0.992  -1.894   7.099  1.00  0.00     0.251 C 
ATOM     27  H   UNL     1      -0.038  -2.752   5.563  1.00  0.00     0.163 HD
ATOM     28  O   UNL     1       0.029  -1.396   7.556  1.00  0.00    -0.269 OA
BRANCH  26  29
ATOM     29  C   UNL     1      -2.278  -1.763   7.814  1.00  0.00     0.039 A 
ATOM     30  C   UNL     1      -2.604  -0.538   8.399  1.00  0.00     0.014 A 
ATOM     31  C   UNL     1      -3.157  -2.845   7.908  1.00  0.00     0.014 A 
ATOM     32  C   UNL     1      -3.841  -0.382   9.026  1.00  0.00     0.010 A 
ATOM     33  C   UNL     1      -4.422  -2.663   8.453  1.00  0.00     0.010 A 
ATOM     34  C   UNL     1      -4.774  -1.432   9.026  1.00  0.00    -0.014 A 
BRANCH  34  35
ATOM     35  C   UNL     1      -6.125  -1.264   9.618  1.00  0.00     0.031 A 
ATOM     36  C   UNL     1      -6.546  -2.106  10.791  1.00  0.00     0.074 A 
ATOM     37  C   UNL     1      -6.992  -0.401   9.055  1.00  0.00     0.049 A 
ATOM     38  N   UNL     1      -7.694  -2.135  11.417  1.00  0.00    -0.248 NA
ATOM     39  C   UNL     1      -5.556  -3.062  11.310  1.00  0.00     0.031 C 
ATOM     40  C   UNL     1      -6.713   0.438   7.888  1.00  0.00     0.029 A 
ATOM     41  N   UNL     1      -8.286  -0.088   9.387  1.00  0.00    -0.354 N 
ATOM     42  C   UNL     1      -7.571  -3.122  12.389  1.00  0.00     0.074 A 
ATOM     43  C   UNL     1      -6.258  -3.708  12.228  1.00  0.00     0.031 C 
ATOM     44  C   UNL     1      -7.786   1.201   7.628  1.00  0.00     0.029 A 
ATOM     45  C   UNL     1      -8.845   0.873   8.578  1.00  0.00     0.049 A 
ATOM     46  H   UNL     1      -8.768  -0.510  10.134  1.00  0.00     0.167 HD
ATOM     47  C   UNL     1      -8.461  -3.490  13.342  1.00  0.00     0.037 A 
ATOM     48  C   UNL     1     -10.072   1.428   8.600  1.00  0.00     0.037 A 
ATOM     49  C   UNL     1      -9.761  -2.891  13.497  1.00  0.00     0.049 A 
ATOM     50  C   UNL     1     -11.054   0.987   9.650  1.00  0.00     0.074 A 
ATOM     51  C   UNL     1     -10.716  -3.143  14.466  1.00  0.00     0.029 A 
ATOM     52  N   UNL     1     -10.298  -1.930  12.650  1.00  0.00    -0.354 N 
ATOM     53  N   UNL     1     -10.897   0.107  10.610  1.00  0.00    -0.248 NA
ATOM     54  C   UNL     1     -12.380   1.617   9.620  1.00  0.00     0.031 C 
ATOM     55  C   UNL     1     -11.851  -2.381  14.170  1.00  0.00     0.029 A 
ATOM     56  C   UNL     1     -11.583  -1.604  13.054  1.00  0.00     0.049 A 
ATOM     57  H   UNL     1      -9.833  -1.537  11.876  1.00  0.00     0.167 HD
ATOM     58  C   UNL     1     -12.093   0.100  11.320  1.00  0.00     0.074 A 
ATOM     59  C   UNL     1     -12.960   1.069  10.680  1.00  0.00     0.031 C 
ATOM     60  C   UNL     1     -12.438  -0.637  12.405  1.00  0.00     0.037 A 
BRANCH  47  61
ATOM     61  C   UNL     1      -8.057  -4.606  14.270  1.00  0.00     0.058 A 
ATOM     62  C   UNL     1      -7.008  -4.463  15.194  1.00  0.00     0.135 A 
ATOM     63  C   UNL     1      -8.720  -5.844  14.226  1.00  0.00     0.135 A 
ATOM     64  F   UNL     1      -6.332  -3.306  15.276  1.00  0.00    -0.206 F 
ATOM     65  C   UNL     1      -6.592  -5.522  15.995  1.00  0.00     0.059 A 
ATOM     66  C   UNL     1      -8.344  -6.906  15.044  1.00  0.00     0.059 A 
ATOM     67  F   UNL     1      -9.734  -6.039  13.369  1.00  0.00    -0.206 F 
ATOM     68  C   UNL     1      -7.260  -6.743  15.905  1.00  0.00     0.060 A 
BRANCH  68  69
ATOM     69  S   UNL     1      -6.678  -8.121  16.916  1.00  0.00     0.124 S 
ATOM     70  O   UNL     1      -5.437  -8.476  16.235  1.00  0.00    -0.237 OA
ATOM     71  O   UNL     1      -6.525  -7.503  18.229  1.00  0.00    -0.237 OA
ATOM     72  O   UNL     1      -7.754  -9.101  16.808  1.00  0.00    -0.744 OA
ENDBRANCH  68  69
ENDBRANCH  47  61
BRANCH  48  73
ATOM     73  C   UNL     1     -10.412   2.501   7.628  1.00  0.00     0.058 A 
ATOM     74  C   UNL     1     -10.549   3.830   8.054  1.00  0.00     0.135 A 
ATOM     75  C   UNL     1     -10.562   2.234   6.259  1.00  0.00     0.135 A 
ATOM     76  F   UNL     1     -10.422   4.134   9.355  1.00  0.00    -0.206 F 
ATOM     77  C   UNL     1     -10.822   4.858   7.159  1.00  0.00     0.059 A 
ATOM     78  C   UNL     1     -10.811   3.250   5.340  1.00  0.00     0.059 A 
ATOM     79  F   UNL     1     -10.427   0.981   5.799  1.00  0.00    -0.206 F 
ATOM     80  C   UNL     1     -10.942   4.559   5.801  1.00  0.00     0.060 A 
BRANCH  80  81
ATOM     81  S   UNL     1     -11.222   5.916   4.643  1.00  0.00     0.124 S 
ATOM     82  O   UNL     1     -12.590   6.304   4.968  1.00  0.00    -0.237 OA
ATOM     83  O   UNL     1     -10.181   6.864   5.028  1.00  0.00    -0.237 OA
ATOM     84  O   UNL     1     -11.038   5.289   3.338  1.00  0.00    -0.744 OA
ENDBRANCH  80  81
ENDBRANCH  48  73
BRANCH  60  85
ATOM     85  C   UNL     1     -13.802  -0.403  12.997  1.00  0.00     0.058 A 
ATOM     86  C   UNL     1     -14.975  -0.818  12.348  1.00  0.00     0.135 A 
ATOM     87  C   UNL     1     -13.932   0.203  14.258  1.00  0.00     0.135 A 
ATOM     88  F   UNL     1     -14.909  -1.395  11.137  1.00  0.00    -0.206 F 
ATOM     89  C   UNL     1     -16.230  -0.620  12.915  1.00  0.00     0.059 A 
ATOM     90  C   UNL     1     -15.174   0.382  14.859  1.00  0.00     0.059 A 
ATOM     91  F   UNL     1     -12.843   0.611  14.929  1.00  0.00    -0.206 F 
ATOM     92  C   UNL     1     -16.319  -0.022  14.174  1.00  0.00     0.060 A 
BRANCH  92  93
ATOM     93  S   UNL     1     -17.950   0.196  14.915  1.00  0.00     0.124 S 
ATOM     94  O   UNL     1     -18.502   1.273  14.101  1.00  0.00    -0.237 OA
ATOM     95  O   UNL     1     -18.557  -1.118  14.724  1.00  0.00    -0.237 OA
ATOM     96  O   UNL     1     -17.651   0.546  16.301  1.00  0.00    -0.744 OA
ENDBRANCH  92  93
ENDBRANCH  60  85
ENDBRANCH  34  35
ENDBRANCH  26  29
ENDBRANCH  24  25
ENDBRANCH   1  24
TORSDOF 17
