REMARK SMILES CCCn1c(N2CCC[C@@H](C)C2)c(/C=C2/SC(=S)N(CC(=O)NCCCNC(=O)c3ccc(-c4c5nc(c(-c6c(F)cc(S(=O)(=O)[O-])cc6F)c6ccc([nH]6)c(-c6c(F)cc(S(=O)(=O)[O-])cc6F)c6nc(c(-c7c(F)cc(S(=O)(=O)[O-])cc7F)c7ccc4[nH]7)C=C6)C=C5)cc3)C2=O)c(C)c(C#N)c1=O
REMARK SMILES IDX 24 1 23 2 21 3 22 4 20 6 19 7 14 8 15 9 16 10 96 11 17 12
REMARK SMILES IDX 97 13 18 14 13 15 4 16 5 17 103 18 100 19 104 20 98 21 99 22
REMARK SMILES IDX 3 23 2 24 1 25 6 26 7 27 12 28 8 29 10 30 9 31 11 32 101 33
REMARK SMILES IDX 102 34 25 35 26 36 27 37 28 38 29 40 30 41 31 42 95 43 32 44
REMARK SMILES IDX 94 45 33 46 34 47 35 48 88 49 36 50 93 51 87 52 89 53 37 54
REMARK SMILES IDX 92 55 86 56 85 57 38 59 72 60 51 61 71 62 52 63 55 64 70 65
REMARK SMILES IDX 90 66 53 67 54 68 69 70 91 71 56 72 39 73 40 74 49 75 41 76
REMARK SMILES IDX 42 77 48 78 50 79 43 80 44 81 45 82 46 83 47 84 73 85 74 86
REMARK SMILES IDX 83 87 75 88 76 89 82 90 84 91 77 92 78 93 79 94 80 95 81 96
REMARK SMILES IDX 57 97 58 98 67 99 59 100 60 101 66 102 68 103 61 104 62 105
REMARK SMILES IDX 63 106 64 107 65 108
REMARK H PARENT 23 5 27 39 89 58 55 69
REMARK Flexibility Score: inf
ROOT
ATOM      1  C   UNL     1      -4.770   0.106   8.558  1.00  0.00     0.117 C 
ENDROOT
BRANCH   1   2
ATOM      2  N   UNL     1      -4.806   0.685   7.230  1.00  0.00    -0.354 N 
ATOM      3  C   UNL     1      -5.235   0.152   6.051  1.00  0.00     0.240 C 
ATOM      4  O   UNL     1      -5.435   0.935   5.119  1.00  0.00    -0.273 OA
ATOM      5  H   UNL     1      -4.469   1.608   7.170  1.00  0.00     0.163 HD
BRANCH   3   6
ATOM      6  C   UNL     1      -5.578  -1.337   5.919  1.00  0.00     0.227 C 
BRANCH   6   7
ATOM      7  N   UNL     1      -4.449  -2.229   6.189  1.00  0.00    -0.283 N 
ATOM      8  C   UNL     1      -1.028  -3.125   5.315  1.00  0.00     0.033 C 
ATOM      9  C   UNL     1      -2.292  -3.092   5.767  1.00  0.00     0.081 C 
ATOM     10  S   UNL     1      -2.889  -4.107   7.021  1.00  0.00    -0.054 SA
ATOM     11  C   UNL     1      -3.371  -2.168   5.326  1.00  0.00     0.266 C 
ATOM     12  C   UNL     1      -4.439  -3.273   7.088  1.00  0.00     0.148 C 
ATOM     13  O   UNL     1      -3.318  -1.475   4.316  1.00  0.00    -0.268 OA
ATOM     14  S   UNL     1      -5.665  -3.782   8.098  1.00  0.00    -0.052 S 
BRANCH   8  15
ATOM     15  C   UNL     1      -0.444  -2.198   4.334  1.00  0.00     0.021 A 
ATOM     16  N   UNL     1       0.548  -1.721   2.202  1.00  0.00    -0.293 N 
ATOM     17  C   UNL     1      -0.042  -2.647   3.096  1.00  0.00     0.119 A 
ATOM     18  C   UNL     1       0.835  -0.406   2.558  1.00  0.00     0.270 A 
ATOM     19  C   UNL     1       0.224   0.086   3.797  1.00  0.00     0.121 A 
ATOM     20  O   UNL     1       1.573   0.340   1.918  1.00  0.00    -0.268 OA
ATOM     21  C   UNL     1      -0.280  -0.776   4.693  1.00  0.00    -0.017 A 
ATOM     22  C   UNL     1      -0.638  -0.332   6.097  1.00  0.00     0.047 C 
BRANCH  16  23
ATOM     23  C   UNL     1       0.961  -2.102   0.847  1.00  0.00     0.127 C 
BRANCH  23  24
ATOM     24  C   UNL     1       0.125  -1.480  -0.287  1.00  0.00     0.019 C 
ATOM     25  C   UNL     1       0.510  -0.059  -0.678  1.00  0.00     0.006 C 
ENDBRANCH  23  24
ENDBRANCH  16  23
BRANCH  17  26
ATOM     26  N   UNL     1      -0.154  -4.008   2.724  1.00  0.00    -0.357 N 
ATOM     27  C   UNL     1       1.050  -4.861   2.658  1.00  0.00     0.118 C 
ATOM     28  C   UNL     1      -1.403  -4.770   2.869  1.00  0.00     0.121 C 
ATOM     29  C   UNL     1       0.934  -5.856   1.501  1.00  0.00     0.022 C 
ATOM     30  C   UNL     1      -1.580  -5.753   1.708  1.00  0.00     0.005 C 
ATOM     31  C   UNL     1      -0.355  -6.669   1.581  1.00  0.00     0.007 C 
ATOM     32  C   UNL     1      -2.848  -6.582   1.911  1.00  0.00     0.009 C 
ENDBRANCH  17  26
BRANCH  19  33
ATOM     33  C   UNL     1       0.363   1.561   4.134  1.00  0.00     0.105 C 
ATOM     34  N   UNL     1       0.480   2.785   4.414  1.00  0.00    -0.192 NA
ENDBRANCH  19  33
ENDBRANCH   8  15
ENDBRANCH   6   7
ENDBRANCH   3   6
ENDBRANCH   1   2
BRANCH   1  35
ATOM     35  C   UNL     1      -3.350  -0.071   9.081  1.00  0.00     0.042 C 
BRANCH  35  36
ATOM     36  C   UNL     1      -2.617   1.248   9.327  1.00  0.00     0.118 C 
BRANCH  36  37
ATOM     37  N   UNL     1      -3.190   1.995  10.437  1.00  0.00    -0.352 N 
ATOM     38  C   UNL     1      -2.641   2.306  11.657  1.00  0.00     0.251 C 
ATOM     39  H   UNL     1      -4.106   2.325  10.293  1.00  0.00     0.163 HD
ATOM     40  O   UNL     1      -3.355   2.751  12.551  1.00  0.00    -0.269 OA
BRANCH  38  41
ATOM     41  C   UNL     1      -1.198   2.095  11.895  1.00  0.00     0.039 A 
ATOM     42  C   UNL     1      -0.790   1.451  13.066  1.00  0.00     0.014 A 
ATOM     43  C   UNL     1      -0.249   2.563  10.980  1.00  0.00     0.014 A 
ATOM     44  C   UNL     1       0.570   1.227  13.295  1.00  0.00     0.010 A 
ATOM     45  C   UNL     1       1.103   2.297  11.187  1.00  0.00     0.010 A 
ATOM     46  C   UNL     1       1.524   1.631  12.347  1.00  0.00    -0.014 A 
BRANCH  46  47
ATOM     47  C   UNL     1       2.971   1.395  12.571  1.00  0.00     0.031 A 
ATOM     48  C   UNL     1       3.879   2.556  12.864  1.00  0.00     0.074 A 
ATOM     49  C   UNL     1       3.469   0.147  12.479  1.00  0.00     0.049 A 
ATOM     50  N   UNL     1       5.175   2.565  13.041  1.00  0.00    -0.248 NA
ATOM     51  C   UNL     1       3.249   3.884  12.958  1.00  0.00     0.031 C 
ATOM     52  C   UNL     1       2.687  -1.056  12.189  1.00  0.00     0.029 A 
ATOM     53  N   UNL     1       4.753  -0.317  12.616  1.00  0.00    -0.354 N 
ATOM     54  C   UNL     1       5.514   3.891  13.278  1.00  0.00     0.074 A 
ATOM     55  C   UNL     1       4.298   4.667  13.166  1.00  0.00     0.031 C 
ATOM     56  C   UNL     1       3.505  -2.122  12.188  1.00  0.00     0.029 A 
ATOM     57  C   UNL     1       4.872  -1.676  12.447  1.00  0.00     0.049 A 
ATOM     58  H   UNL     1       5.518   0.270  12.816  1.00  0.00     0.167 HD
ATOM     59  C   UNL     1       6.725   4.412  13.589  1.00  0.00     0.037 A 
ATOM     60  C   UNL     1       5.960  -2.469  12.494  1.00  0.00     0.037 A 
ATOM     61  C   UNL     1       7.932   3.637  13.704  1.00  0.00     0.049 A 
ATOM     62  C   UNL     1       7.304  -1.858  12.785  1.00  0.00     0.074 A 
ATOM     63  C   UNL     1       9.205   4.070  14.030  1.00  0.00     0.029 A 
ATOM     64  N   UNL     1       8.015   2.267  13.502  1.00  0.00    -0.354 N 
ATOM     65  N   UNL     1       7.603  -0.605  13.032  1.00  0.00    -0.248 NA
ATOM     66  C   UNL     1       8.460  -2.767  12.801  1.00  0.00     0.031 C 
ATOM     67  C   UNL     1      10.065   2.968  13.992  1.00  0.00     0.029 A 
ATOM     68  C   UNL     1       9.320   1.841  13.681  1.00  0.00     0.049 A 
ATOM     69  H   UNL     1       7.258   1.684  13.265  1.00  0.00     0.167 HD
ATOM     70  C   UNL     1       8.974  -0.579  13.260  1.00  0.00     0.074 A 
ATOM     71  C   UNL     1       9.446  -1.942  13.128  1.00  0.00     0.031 C 
ATOM     72  C   UNL     1       9.771   0.478  13.553  1.00  0.00     0.037 A 
BRANCH  59  73
ATOM     73  C   UNL     1       6.800   5.889  13.849  1.00  0.00     0.058 A 
ATOM     74  C   UNL     1       6.281   6.446  15.028  1.00  0.00     0.135 A 
ATOM     75  C   UNL     1       7.438   6.750  12.942  1.00  0.00     0.135 A 
ATOM     76  F   UNL     1       5.646   5.669  15.920  1.00  0.00    -0.206 F 
ATOM     77  C   UNL     1       6.378   7.807  15.294  1.00  0.00     0.059 A 
ATOM     78  C   UNL     1       7.567   8.113  13.197  1.00  0.00     0.059 A 
ATOM     79  F   UNL     1       7.948   6.269  11.797  1.00  0.00    -0.206 F 
ATOM     80  C   UNL     1       7.026   8.633  14.373  1.00  0.00     0.060 A 
BRANCH  80  81
ATOM     81  S   UNL     1       7.162  10.393  14.748  1.00  0.00     0.124 S 
ATOM     82  O   UNL     1       5.782  10.836  14.573  1.00  0.00    -0.237 OA
ATOM     83  O   UNL     1       7.654  10.381  16.122  1.00  0.00    -0.237 OA
ATOM     84  O   UNL     1       8.109  10.882  13.751  1.00  0.00    -0.744 OA
ENDBRANCH  80  81
ENDBRANCH  59  73
BRANCH  60  85
ATOM     85  C   UNL     1       5.822  -3.935  12.288  1.00  0.00     0.058 A 
ATOM     86  C   UNL     1       5.979  -4.827  13.359  1.00  0.00     0.135 A 
ATOM     87  C   UNL     1       5.528  -4.473  11.026  1.00  0.00     0.135 A 
ATOM     88  F   UNL     1       6.269  -4.360  14.583  1.00  0.00    -0.206 F 
ATOM     89  C   UNL     1       5.861  -6.202  13.186  1.00  0.00     0.059 A 
ATOM     90  C   UNL     1       5.385  -5.843  10.832  1.00  0.00     0.059 A 
ATOM     91  F   UNL     1       5.353  -3.661   9.972  1.00  0.00    -0.206 F 
ATOM     92  C   UNL     1       5.561  -6.701  11.917  1.00  0.00     0.060 A 
BRANCH  92  93
ATOM     93  S   UNL     1       5.362  -8.484  11.713  1.00  0.00     0.124 S 
ATOM     94  O   UNL     1       6.739  -8.949  11.823  1.00  0.00    -0.237 OA
ATOM     95  O   UNL     1       4.481  -8.823  12.826  1.00  0.00    -0.237 OA
ATOM     96  O   UNL     1       4.758  -8.603  10.388  1.00  0.00    -0.744 OA
ENDBRANCH  92  93
ENDBRANCH  60  85
BRANCH  72  97
ATOM     97  C   UNL     1      11.232   0.208  13.774  1.00  0.00     0.058 A 
ATOM     98  C   UNL     1      12.099  -0.053  12.704  1.00  0.00     0.135 A 
ATOM     99  C   UNL     1      11.783   0.289  15.064  1.00  0.00     0.135 A 
ATOM    100  F   UNL     1      11.619  -0.148  11.453  1.00  0.00    -0.206 F 
ATOM    101  C   UNL     1      13.463  -0.236  12.904  1.00  0.00     0.059 A 
ATOM    102  C   UNL     1      13.148   0.133  15.284  1.00  0.00     0.059 A 
ATOM    103  F   UNL     1      10.996   0.545  16.121  1.00  0.00    -0.206 F 
ATOM    104  C   UNL     1      13.979  -0.135  14.197  1.00  0.00     0.060 A 
BRANCH 104 105
ATOM    105  S   UNL     1      15.759  -0.324  14.434  1.00  0.00     0.124 S 
ATOM    106  O   UNL     1      15.931  -1.759  14.240  1.00  0.00    -0.237 OA
ATOM    107  O   UNL     1      16.305   0.528  13.382  1.00  0.00    -0.237 OA
ATOM    108  O   UNL     1      15.974   0.156  15.796  1.00  0.00    -0.744 OA
ENDBRANCH 104 105
ENDBRANCH  72  97
ENDBRANCH  46  47
ENDBRANCH  38  41
ENDBRANCH  36  37
ENDBRANCH  35  36
ENDBRANCH   1  35
TORSDOF 19
