REMARK SMILES CC(C)Cc1ccc(S(=O)(=O)Nc2cnc(N3CCCC3)c(C(=O)NCCCNC(=O)c3ccc(-c4c5nc(c(-c6c(F)cc(S(=O)(=O)[O-])cc6F)c6ccc([nH]6)c(-c6c(F)cc(S(=O)(=O)[O-])cc6F)c6nc(c(-c7c(F)cc(S(=O)(=O)[O-])cc7F)c7ccc4[nH]7)C=C6)C=C5)cc3)c2)cc1
REMARK SMILES IDX 26 1 25 2 23 3 24 4 22 6 13 7 14 8 98 9 15 10 16 11 12 12
REMARK SMILES IDX 9 14 10 15 11 16 8 17 5 18 6 19 100 20 7 21 99 22 4 23 2 24
REMARK SMILES IDX 1 25 3 26 17 27 18 28 21 29 19 30 20 31 27 32 28 33 29 34
REMARK SMILES IDX 30 35 31 37 32 38 33 39 97 40 34 41 96 42 35 43 36 44 37 45
REMARK SMILES IDX 90 46 38 47 95 48 89 49 91 50 39 51 94 52 88 53 87 54 40 56
REMARK SMILES IDX 74 57 53 58 73 59 54 60 57 61 72 62 92 63 55 64 56 65 71 67
REMARK SMILES IDX 93 68 58 69 41 70 42 71 51 72 43 73 44 74 50 75 52 76 45 77
REMARK SMILES IDX 46 78 47 79 48 80 49 81 75 82 76 83 85 84 77 85 78 86 84 87
REMARK SMILES IDX 86 88 79 89 80 90 81 91 82 92 83 93 59 94 60 95 69 96 61 97
REMARK SMILES IDX 62 98 68 99 70 100 63 101 64 102 65 103 66 104 67 105
REMARK H PARENT 25 5 12 13 29 36 91 55 57 66
REMARK Flexibility Score: inf
ROOT
ATOM      1  C   UNL     1       0.664   0.100   3.271  1.00  0.00     0.118 C 
ENDROOT
BRANCH   1   2
ATOM      2  N   UNL     1       0.516  -1.313   2.974  1.00  0.00    -0.352 N 
ATOM      3  C   UNL     1      -0.359  -2.320   3.288  1.00  0.00     0.255 C 
ATOM      4  O   UNL     1      -0.010  -3.409   2.833  1.00  0.00    -0.269 OA
ATOM      5  H   UNL     1       1.241  -1.636   2.391  1.00  0.00     0.163 HD
BRANCH   3   6
ATOM      6  C   UNL     1      -1.655  -2.125   4.025  1.00  0.00     0.084 A 
ATOM      7  C   UNL     1      -3.162  -0.544   5.045  1.00  0.00     0.068 A 
ATOM      8  C   UNL     1      -4.185  -1.446   4.824  1.00  0.00     0.140 A 
ATOM      9  C   UNL     1      -1.868  -0.972   4.794  1.00  0.00     0.046 A 
ATOM     10  N   UNL     1      -4.007  -2.639   4.230  1.00  0.00    -0.236 NA
ATOM     11  C   UNL     1      -2.763  -2.975   3.792  1.00  0.00     0.141 A 
BRANCH   7  12
ATOM     12  N   UNL     1      -3.503   0.804   5.348  1.00  0.00    -0.278 N 
ATOM     13  H   UNL     1      -4.232   0.964   5.990  1.00  0.00     0.180 HD
BRANCH  12  14
ATOM     14  S   UNL     1      -2.733   2.142   4.672  1.00  0.00     0.261 S 
ATOM     15  O   UNL     1      -1.408   2.216   5.263  1.00  0.00    -0.201 OA
ATOM     16  O   UNL     1      -3.675   3.226   4.805  1.00  0.00    -0.201 OA
BRANCH  14  17
ATOM     17  C   UNL     1      -2.482   1.904   2.914  1.00  0.00     0.087 A 
ATOM     18  C   UNL     1      -1.611   1.428   0.269  1.00  0.00    -0.048 A 
ATOM     19  C   UNL     1      -1.170   2.557   0.970  1.00  0.00     0.005 A 
ATOM     20  C   UNL     1      -2.552   0.588   0.883  1.00  0.00     0.005 A 
ATOM     21  C   UNL     1      -1.587   2.784   2.287  1.00  0.00     0.022 A 
ATOM     22  C   UNL     1      -3.007   0.838   2.187  1.00  0.00     0.022 A 
BRANCH  18  23
ATOM     23  C   UNL     1      -1.119   1.135  -1.136  1.00  0.00     0.038 C 
BRANCH  23  24
ATOM     24  C   UNL     1       0.412   0.982  -1.287  1.00  0.00    -0.013 C 
ATOM     25  C   UNL     1       0.937  -0.279  -0.601  1.00  0.00     0.008 C 
ATOM     26  C   UNL     1       0.800   0.928  -2.768  1.00  0.00     0.008 C 
ENDBRANCH  23  24
ENDBRANCH  18  23
ENDBRANCH  14  17
ENDBRANCH  12  14
ENDBRANCH   7  12
BRANCH  11  27
ATOM     27  N   UNL     1      -2.720  -4.127   3.062  1.00  0.00    -0.356 N 
ATOM     28  C   UNL     1      -1.982  -5.312   3.462  1.00  0.00     0.118 C 
ATOM     29  C   UNL     1      -3.773  -4.467   2.117  1.00  0.00     0.118 C 
ATOM     30  C   UNL     1      -1.998  -6.114   2.166  1.00  0.00     0.023 C 
ATOM     31  C   UNL     1      -3.418  -5.887   1.656  1.00  0.00     0.023 C 
ENDBRANCH  11  27
ENDBRANCH   3   6
ENDBRANCH   1   2
BRANCH   1  32
ATOM     32  C   UNL     1       1.809   0.331   4.242  1.00  0.00     0.042 C 
BRANCH  32  33
ATOM     33  C   UNL     1       3.160  -0.066   3.651  1.00  0.00     0.118 C 
BRANCH  33  34
ATOM     34  N   UNL     1       3.510   0.730   2.479  1.00  0.00    -0.352 N 
ATOM     35  C   UNL     1       4.611   1.521   2.265  1.00  0.00     0.251 C 
ATOM     36  H   UNL     1       2.865   0.693   1.735  1.00  0.00     0.163 HD
ATOM     37  O   UNL     1       4.648   2.280   1.302  1.00  0.00    -0.269 OA
BRANCH  35  38
ATOM     38  C   UNL     1       5.737   1.457   3.216  1.00  0.00     0.039 A 
ATOM     39  C   UNL     1       6.278   2.644   3.712  1.00  0.00     0.014 A 
ATOM     40  C   UNL     1       6.235   0.219   3.632  1.00  0.00     0.014 A 
ATOM     41  C   UNL     1       7.280   2.588   4.682  1.00  0.00     0.010 A 
ATOM     42  C   UNL     1       7.180   0.165   4.649  1.00  0.00     0.010 A 
ATOM     43  C   UNL     1       7.712   1.348   5.183  1.00  0.00    -0.014 A 
BRANCH  43  44
ATOM     44  C   UNL     1       8.728   1.260   6.259  1.00  0.00     0.031 A 
ATOM     45  C   UNL     1      10.057   0.615   5.978  1.00  0.00     0.074 A 
ATOM     46  C   UNL     1       8.425   1.690   7.499  1.00  0.00     0.049 A 
ATOM     47  N   UNL     1      11.031   0.336   6.804  1.00  0.00    -0.248 NA
ATOM     48  C   UNL     1      10.311   0.200   4.588  1.00  0.00     0.031 C 
ATOM     49  C   UNL     1       7.150   2.289   7.904  1.00  0.00     0.029 A 
ATOM     50  N   UNL     1       9.166   1.679   8.654  1.00  0.00    -0.354 N 
ATOM     51  C   UNL     1      12.000  -0.304   6.042  1.00  0.00     0.074 A 
ATOM     52  C   UNL     1      11.480  -0.413   4.697  1.00  0.00     0.031 C 
ATOM     53  C   UNL     1       7.207   2.606   9.208  1.00  0.00     0.029 A 
ATOM     54  C   UNL     1       8.505   2.205   9.739  1.00  0.00     0.049 A 
ATOM     55  H   UNL     1      10.084   1.328   8.701  1.00  0.00     0.167 HD
ATOM     56  C   UNL     1      13.223  -0.741   6.425  1.00  0.00     0.037 A 
ATOM     57  C   UNL     1       8.903   2.343  11.018  1.00  0.00     0.037 A 
ATOM     58  C   UNL     1      13.751  -0.593   7.755  1.00  0.00     0.049 A 
ATOM     59  C   UNL     1      10.279   1.879  11.409  1.00  0.00     0.074 A 
ATOM     60  C   UNL     1      14.994  -0.966   8.236  1.00  0.00     0.029 A 
ATOM     61  N   UNL     1      13.070  -0.011   8.813  1.00  0.00    -0.354 N 
ATOM     62  N   UNL     1      11.195   1.302  10.668  1.00  0.00    -0.248 NA
ATOM     63  C   UNL     1      10.678   2.086  12.808  1.00  0.00     0.031 C 
ATOM     64  C   UNL     1      15.059  -0.622   9.591  1.00  0.00     0.029 A 
ATOM     65  C   UNL     1      13.866  -0.011   9.945  1.00  0.00     0.049 A 
ATOM     66  H   UNL     1      12.155   0.350   8.766  1.00  0.00     0.167 HD
ATOM     67  C   UNL     1      12.287   1.102  11.504  1.00  0.00     0.074 A 
ATOM     68  C   UNL     1      11.921   1.626  12.804  1.00  0.00     0.031 C 
ATOM     69  C   UNL     1      13.485   0.533  11.223  1.00  0.00     0.037 A 
BRANCH  56  70
ATOM     70  C   UNL     1      14.079  -1.403   5.383  1.00  0.00     0.058 A 
ATOM     71  C   UNL     1      14.688  -0.660   4.359  1.00  0.00     0.135 A 
ATOM     72  C   UNL     1      14.315  -2.786   5.420  1.00  0.00     0.135 A 
ATOM     73  F   UNL     1      14.478   0.663   4.268  1.00  0.00    -0.206 F 
ATOM     74  C   UNL     1      15.482  -1.268   3.393  1.00  0.00     0.059 A 
ATOM     75  C   UNL     1      15.125  -3.413   4.476  1.00  0.00     0.059 A 
ATOM     76  F   UNL     1      13.754  -3.543   6.376  1.00  0.00    -0.206 F 
ATOM     77  C   UNL     1      15.692  -2.646   3.458  1.00  0.00     0.060 A 
BRANCH  77  78
ATOM     78  S   UNL     1      16.731  -3.423   2.202  1.00  0.00     0.124 S 
ATOM     79  O   UNL     1      15.822  -3.466   1.061  1.00  0.00    -0.237 OA
ATOM     80  O   UNL     1      17.843  -2.485   2.089  1.00  0.00    -0.237 OA
ATOM     81  O   UNL     1      17.064  -4.716   2.791  1.00  0.00    -0.744 OA
ENDBRANCH  77  78
ENDBRANCH  56  70
BRANCH  57  82
ATOM     82  C   UNL     1       8.002   2.971  12.018  1.00  0.00     0.058 A 
ATOM     83  C   UNL     1       8.259   4.263  12.500  1.00  0.00     0.135 A 
ATOM     84  C   UNL     1       6.876   2.298  12.514  1.00  0.00     0.135 A 
ATOM     85  F   UNL     1       9.327   4.944  12.056  1.00  0.00    -0.206 F 
ATOM     86  C   UNL     1       7.446   4.858  13.459  1.00  0.00     0.059 A 
ATOM     87  C   UNL     1       6.036   2.880  13.459  1.00  0.00     0.059 A 
ATOM     88  F   UNL     1       6.578   1.067  12.070  1.00  0.00    -0.206 F 
ATOM     89  C   UNL     1       6.338   4.156  13.936  1.00  0.00     0.060 A 
BRANCH  89  90
ATOM     90  S   UNL     1       5.270   4.943  15.162  1.00  0.00     0.124 S 
ATOM     91  O   UNL     1       6.043   4.758  16.384  1.00  0.00    -0.237 OA
ATOM     92  O   UNL     1       5.181   6.312  14.664  1.00  0.00    -0.237 OA
ATOM     93  O   UNL     1       4.035   4.170  15.070  1.00  0.00    -0.744 OA
ENDBRANCH  89  90
ENDBRANCH  57  82
BRANCH  69  94
ATOM     94  C   UNL     1      14.497   0.485  12.329  1.00  0.00     0.058 A 
ATOM     95  C   UNL     1      14.402  -0.451  13.369  1.00  0.00     0.135 A 
ATOM     96  C   UNL     1      15.599   1.354  12.320  1.00  0.00     0.135 A 
ATOM     97  F   UNL     1      13.363  -1.299  13.423  1.00  0.00    -0.206 F 
ATOM     98  C   UNL     1      15.359  -0.513  14.376  1.00  0.00     0.059 A 
ATOM     99  C   UNL     1      16.578   1.297  13.307  1.00  0.00     0.059 A 
ATOM    100  F   UNL     1      15.737   2.262  11.341  1.00  0.00    -0.206 F 
ATOM    101  C   UNL     1      16.443   0.366  14.337  1.00  0.00     0.060 A 
BRANCH 101 102
ATOM    102  S   UNL     1      17.700   0.255  15.628  1.00  0.00     0.124 S 
ATOM    103  O   UNL     1      17.047   0.949  16.733  1.00  0.00    -0.237 OA
ATOM    104  O   UNL     1      17.860  -1.187  15.790  1.00  0.00    -0.237 OA
ATOM    105  O   UNL     1      18.847   0.943  15.042  1.00  0.00    -0.744 OA
ENDBRANCH 101 102
ENDBRANCH  69  94
ENDBRANCH  43  44
ENDBRANCH  35  38
ENDBRANCH  33  34
ENDBRANCH  32  33
ENDBRANCH   1  32
TORSDOF 19
