REMARK SMILES Cc1nc2cc(C(=O)NCCCNC(=O)c3ccc(-c4c5nc(c(-c6c(F)cc(S(=O)(=O)[O-])cc6F)c6ccc([nH]6)c(-c6c(F)cc(S(=O)(=O)[O-])cc6F)c6nc(c(-c7c(F)cc(S(=O)(=O)[O-])cc7F)c7ccc4[nH]7)C=C6)C=C5)cc3)ccc2n1CCC[NH+]1CCOCC1
REMARK SMILES IDX 10 1 9 2 7 3 8 4 6 6 1 7 2 8 3 9 85 10 4 11 84 12 5 13 83 14
REMARK SMILES IDX 82 15 86 16 87 17 88 18 89 19 90 20 94 21 91 23 93 24 92 25
REMARK SMILES IDX 11 26 12 27 13 28 14 29 15 31 16 32 17 33 81 34 18 35 80 36
REMARK SMILES IDX 19 37 20 38 21 39 74 40 22 41 79 42 73 43 75 44 23 45 78 46
REMARK SMILES IDX 72 47 71 48 24 50 58 51 37 52 57 53 38 54 41 55 56 56 76 57
REMARK SMILES IDX 39 58 40 59 55 61 77 62 42 63 25 64 26 65 35 66 27 67 28 68
REMARK SMILES IDX 34 69 36 70 29 71 30 72 31 73 32 74 33 75 59 76 60 77 69 78
REMARK SMILES IDX 61 79 62 80 68 81 70 82 63 83 64 84 65 85 66 86 67 87 43 88
REMARK SMILES IDX 44 89 53 90 45 91 46 92 52 93 54 94 47 95 48 96 49 97 50 98
REMARK SMILES IDX 51 99
REMARK H PARENT 9 5 89 22 13 30 75 49 41 60
REMARK Flexibility Score: inf
ROOT
ATOM      1  C   UNL     1      -1.351   8.869  -1.040  1.00  0.00     0.118 C 
ENDROOT
BRANCH   1   2
ATOM      2  N   UNL     1      -2.293   8.059  -1.782  1.00  0.00    -0.352 N 
ATOM      3  C   UNL     1      -2.343   6.724  -2.062  1.00  0.00     0.251 C 
ATOM      4  O   UNL     1      -3.271   6.345  -2.780  1.00  0.00    -0.269 OA
ATOM      5  H   UNL     1      -3.045   8.571  -2.158  1.00  0.00     0.163 HD
BRANCH   3   6
ATOM      6  C   UNL     1      -1.394   5.718  -1.506  1.00  0.00     0.042 A 
ATOM      7  C   UNL     1      -0.187   0.026  -0.418  1.00  0.00     0.088 C 
ATOM      8  C   UNL     1      -0.310   1.488  -0.430  1.00  0.00     0.106 A 
ATOM      9  N   UNL     1      -1.414   2.076  -0.825  1.00  0.00    -0.233 NA
ATOM     10  N   UNL     1       0.684   2.401  -0.128  1.00  0.00    -0.328 N 
ATOM     11  C   UNL     1      -1.104   3.392  -0.928  1.00  0.00     0.090 A 
ATOM     12  C   UNL     1       0.196   3.645  -0.506  1.00  0.00     0.068 A 
ATOM     13  C   UNL     1      -1.908   4.420  -1.421  1.00  0.00     0.044 A 
ATOM     14  C   UNL     1       0.744   4.931  -0.574  1.00  0.00     0.029 A 
ATOM     15  C   UNL     1      -0.070   5.950  -1.110  1.00  0.00     0.016 A 
BRANCH  10  16
ATOM     16  C   UNL     1       2.060   2.126   0.279  1.00  0.00     0.130 C 
BRANCH  16  17
ATOM     17  C   UNL     1       2.277   1.581   1.697  1.00  0.00     0.083 C 
BRANCH  17  18
ATOM     18  C   UNL     1       2.259   0.056   1.943  1.00  0.00     0.264 C 
BRANCH  18  19
ATOM     19  N   UNL     1       3.381  -0.714   1.370  1.00  0.00    -0.331 N 
ATOM     20  C   UNL     1       3.154  -1.279   0.018  1.00  0.00     0.291 C 
ATOM     21  C   UNL     1       3.740  -1.868   2.238  1.00  0.00     0.291 C 
ATOM     22  H   UNL     1       4.120  -0.014   1.304  1.00  0.00     0.348 HD
ATOM     23  C   UNL     1       2.182  -2.481  -0.030  1.00  0.00     0.221 C 
ATOM     24  C   UNL     1       2.714  -3.015   2.190  1.00  0.00     0.221 C 
ATOM     25  O   UNL     1       2.587  -3.527   0.857  1.00  0.00    -0.370 OA
ENDBRANCH  18  19
ENDBRANCH  17  18
ENDBRANCH  16  17
ENDBRANCH  10  16
ENDBRANCH   3   6
ENDBRANCH   1   2
BRANCH   1  26
ATOM     26  C   UNL     1      -0.317   9.488  -1.982  1.00  0.00     0.042 C 
BRANCH  26  27
ATOM     27  C   UNL     1      -0.906  10.582  -2.873  1.00  0.00     0.118 C 
BRANCH  27  28
ATOM     28  N   UNL     1      -1.514  11.665  -2.125  1.00  0.00    -0.352 N 
ATOM     29  C   UNL     1      -1.053  12.752  -1.438  1.00  0.00     0.251 C 
ATOM     30  H   UNL     1      -2.497  11.602  -2.109  1.00  0.00     0.163 HD
ATOM     31  O   UNL     1      -1.923  13.452  -0.912  1.00  0.00    -0.269 OA
BRANCH  29  32
ATOM     32  C   UNL     1       0.378  13.124  -1.250  1.00  0.00     0.039 A 
ATOM     33  C   UNL     1       1.472  12.490  -1.835  1.00  0.00     0.014 A 
ATOM     34  C   UNL     1       0.623  14.221  -0.397  1.00  0.00     0.014 A 
ATOM     35  C   UNL     1       2.769  12.901  -1.527  1.00  0.00     0.010 A 
ATOM     36  C   UNL     1       1.917  14.652  -0.106  1.00  0.00     0.010 A 
ATOM     37  C   UNL     1       2.998  13.976  -0.654  1.00  0.00    -0.014 A 
BRANCH  37  38
ATOM     38  C   UNL     1       4.374  14.471  -0.528  1.00  0.00     0.031 A 
ATOM     39  C   UNL     1       4.965  14.856  -1.839  1.00  0.00     0.074 A 
ATOM     40  C   UNL     1       5.063  14.668   0.617  1.00  0.00     0.049 A 
ATOM     41  N   UNL     1       5.848  14.200  -2.517  1.00  0.00    -0.248 NA
ATOM     42  C   UNL     1       4.387  15.998  -2.565  1.00  0.00     0.031 C 
ATOM     43  C   UNL     1       4.548  14.622   1.987  1.00  0.00     0.029 A 
ATOM     44  N   UNL     1       6.375  15.027   0.799  1.00  0.00    -0.354 N 
ATOM     45  C   UNL     1       6.133  14.991  -3.626  1.00  0.00     0.074 A 
ATOM     46  C   UNL     1       5.077  15.963  -3.708  1.00  0.00     0.031 C 
ATOM     47  C   UNL     1       5.465  15.146   2.834  1.00  0.00     0.029 A 
ATOM     48  C   UNL     1       6.692  15.416   2.101  1.00  0.00     0.049 A 
ATOM     49  H   UNL     1       7.038  15.012   0.072  1.00  0.00     0.167 HD
ATOM     50  C   UNL     1       7.373  14.958  -4.189  1.00  0.00     0.037 A 
ATOM     51  C   UNL     1       7.873  15.919   2.549  1.00  0.00     0.037 A 
ATOM     52  C   UNL     1       8.117  13.821  -3.714  1.00  0.00     0.049 A 
ATOM     53  C   UNL     1       8.933  15.443   1.631  1.00  0.00     0.074 A 
ATOM     54  C   UNL     1       8.145  12.462  -3.934  1.00  0.00     0.029 A 
ATOM     55  N   UNL     1       8.788  14.063  -2.547  1.00  0.00    -0.354 N 
ATOM     56  N   UNL     1       9.286  14.192   1.522  1.00  0.00    -0.248 NA
ATOM     57  C   UNL     1       9.432  16.332   0.587  1.00  0.00     0.031 C 
ATOM     58  C   UNL     1       8.736  11.882  -2.772  1.00  0.00     0.029 A 
ATOM     59  C   UNL     1       9.087  12.902  -1.891  1.00  0.00     0.049 A 
ATOM     60  H   UNL     1       9.025  14.961  -2.220  1.00  0.00     0.167 HD
ATOM     61  C   UNL     1       9.675  14.067   0.206  1.00  0.00     0.074 A 
ATOM     62  C   UNL     1       9.915  15.424  -0.264  1.00  0.00     0.031 C 
ATOM     63  C   UNL     1       9.432  12.921  -0.487  1.00  0.00     0.037 A 
BRANCH  50  64
ATOM     64  C   UNL     1       8.110  16.171  -4.729  1.00  0.00     0.058 A 
ATOM     65  C   UNL     1       9.372  15.987  -5.340  1.00  0.00     0.135 A 
ATOM     66  C   UNL     1       7.796  17.504  -4.385  1.00  0.00     0.135 A 
ATOM     67  F   UNL     1       9.785  14.761  -5.701  1.00  0.00    -0.206 F 
ATOM     68  C   UNL     1      10.275  17.035  -5.530  1.00  0.00     0.059 A 
ATOM     69  C   UNL     1       8.662  18.569  -4.610  1.00  0.00     0.059 A 
ATOM     70  F   UNL     1       6.681  17.830  -3.725  1.00  0.00    -0.206 F 
ATOM     71  C   UNL     1       9.913  18.323  -5.150  1.00  0.00     0.060 A 
BRANCH  71  72
ATOM     72  S   UNL     1      11.100  19.666  -5.327  1.00  0.00     0.124 S 
ATOM     73  O   UNL     1      12.112  19.295  -4.345  1.00  0.00    -0.237 OA
ATOM     74  O   UNL     1      11.488  19.541  -6.728  1.00  0.00    -0.237 OA
ATOM     75  O   UNL     1      10.311  20.853  -5.006  1.00  0.00    -0.744 OA
ENDBRANCH  71  72
ENDBRANCH  50  64
BRANCH  51  76
ATOM     76  C   UNL     1       8.161  16.951   3.586  1.00  0.00     0.058 A 
ATOM     77  C   UNL     1       9.481  17.189   4.024  1.00  0.00     0.135 A 
ATOM     78  C   UNL     1       7.215  17.939   3.915  1.00  0.00     0.135 A 
ATOM     79  F   UNL     1      10.452  16.300   3.765  1.00  0.00    -0.206 F 
ATOM     80  C   UNL     1       9.859  18.378   4.657  1.00  0.00     0.059 A 
ATOM     81  C   UNL     1       7.567  19.130   4.556  1.00  0.00     0.059 A 
ATOM     82  F   UNL     1       5.935  17.819   3.533  1.00  0.00    -0.206 F 
ATOM     83  C   UNL     1       8.898  19.360   4.888  1.00  0.00     0.060 A 
BRANCH  83  84
ATOM     84  S   UNL     1       9.423  20.982   5.496  1.00  0.00     0.124 S 
ATOM     85  O   UNL     1       9.859  20.671   6.853  1.00  0.00    -0.237 OA
ATOM     86  O   UNL     1      10.478  21.337   4.554  1.00  0.00    -0.237 OA
ATOM     87  O   UNL     1       8.208  21.788   5.401  1.00  0.00    -0.744 OA
ENDBRANCH  83  84
ENDBRANCH  51  76
BRANCH  63  88
ATOM     88  C   UNL     1       9.374  11.631   0.266  1.00  0.00     0.058 A 
ATOM     89  C   UNL     1       8.348  11.246   1.142  1.00  0.00     0.135 A 
ATOM     90  C   UNL     1      10.366  10.684  -0.033  1.00  0.00     0.135 A 
ATOM     91  F   UNL     1       7.335  12.078   1.429  1.00  0.00    -0.206 F 
ATOM     92  C   UNL     1       8.311   9.962   1.691  1.00  0.00     0.059 A 
ATOM     93  C   UNL     1      10.332   9.394   0.478  1.00  0.00     0.059 A 
ATOM     94  F   UNL     1      11.355  10.993  -0.889  1.00  0.00    -0.206 F 
ATOM     95  C   UNL     1       9.297   9.038   1.338  1.00  0.00     0.060 A 
BRANCH  95  96
ATOM     96  S   UNL     1       9.174   7.337   1.931  1.00  0.00     0.124 S 
ATOM     97  O   UNL     1       9.444   7.490   3.361  1.00  0.00    -0.237 OA
ATOM     98  O   UNL     1       7.797   6.985   1.585  1.00  0.00    -0.237 OA
ATOM     99  O   UNL     1      10.196   6.632   1.175  1.00  0.00    -0.744 OA
ENDBRANCH  95  96
ENDBRANCH  63  88
ENDBRANCH  37  38
ENDBRANCH  29  32
ENDBRANCH  27  28
ENDBRANCH  26  27
ENDBRANCH   1  26
TORSDOF 17
