REMARK SMILES CCc1cc2ccccc2c(=O)n1CC(=O)NCCCNC(=O)c1ccc(-c2c3nc(c(-c4c(F)cc(S(=O)(=O)[O-])cc4F)c4ccc([nH]4)c(-c4c(F)cc(S(=O)(=O)[O-])cc4F)c4nc(c(-c5c(F)cc(S(=O)(=O)[O-])cc5F)c5ccc2[nH]5)C=C4)C=C3)cc1
REMARK SMILES IDX 19 1 18 2 17 3 15 4 16 5 14 7 13 8 3 9 4 10 5 11 11 12 6 13
REMARK SMILES IDX 10 14 12 15 7 16 9 17 8 18 2 19 1 20 20 21 21 22 22 23 23 25
REMARK SMILES IDX 24 26 25 27 89 28 26 29 88 30 27 31 28 32 29 33 82 34 30 35
REMARK SMILES IDX 87 36 81 37 83 38 31 39 86 40 80 41 79 42 32 44 66 45 45 46
REMARK SMILES IDX 65 47 46 48 49 49 64 50 84 51 47 52 48 53 63 55 85 56 50 57
REMARK SMILES IDX 33 58 34 59 43 60 35 61 36 62 42 63 44 64 37 65 38 66 39 67
REMARK SMILES IDX 40 68 41 69 67 70 68 71 77 72 69 73 70 74 76 75 78 76 71 77
REMARK SMILES IDX 72 78 73 79 74 80 75 81 51 82 52 83 61 84 53 85 54 86 60 87
REMARK SMILES IDX 62 88 55 89 56 90 57 91 58 92 59 93
REMARK H PARENT 17 6 21 24 83 43 49 54
REMARK Flexibility Score: inf
ROOT
ATOM      1  C   UNL     1      -2.175   1.130  -2.692  1.00  0.00     0.042 C 
ENDROOT
BRANCH   1   2
ATOM      2  C   UNL     1      -1.611  -0.141  -2.077  1.00  0.00     0.117 C 
BRANCH   2   3
ATOM      3  N   UNL     1      -0.877  -0.955  -3.019  1.00  0.00    -0.354 N 
ATOM      4  C   UNL     1       0.470  -1.131  -3.148  1.00  0.00     0.240 C 
ATOM      5  O   UNL     1       0.835  -2.128  -3.781  1.00  0.00    -0.273 OA
ATOM      6  H   UNL     1      -1.429  -1.456  -3.662  1.00  0.00     0.163 HD
BRANCH   4   7
ATOM      7  C   UNL     1       1.485  -0.282  -2.358  1.00  0.00     0.225 C 
BRANCH   7   8
ATOM      8  N   UNL     1       1.328   1.170  -2.409  1.00  0.00    -0.303 N 
ATOM      9  C   UNL     1       1.067   2.017  -1.316  1.00  0.00     0.022 A 
ATOM     10  C   UNL     1       1.003   3.351  -1.517  1.00  0.00     0.030 A 
ATOM     11  C   UNL     1       1.194   3.960  -2.826  1.00  0.00    -0.011 A 
ATOM     12  C   UNL     1       1.611   1.688  -3.702  1.00  0.00     0.259 A 
ATOM     13  C   UNL     1       1.058   5.340  -3.016  1.00  0.00     0.009 A 
ATOM     14  C   UNL     1       1.509   3.149  -3.910  1.00  0.00     0.047 A 
ATOM     15  O   UNL     1       1.918   0.981  -4.660  1.00  0.00    -0.269 OA
ATOM     16  C   UNL     1       1.239   5.897  -4.285  1.00  0.00     0.001 A 
ATOM     17  C   UNL     1       1.702   3.705  -5.182  1.00  0.00     0.014 A 
ATOM     18  C   UNL     1       1.565   5.081  -5.367  1.00  0.00     0.001 A 
BRANCH   9  19
ATOM     19  C   UNL     1       0.774   1.595   0.124  1.00  0.00     0.051 C 
ATOM     20  C   UNL     1       1.221   0.284   0.753  1.00  0.00     0.010 C 
ENDBRANCH   9  19
ENDBRANCH   7   8
ENDBRANCH   4   7
ENDBRANCH   2   3
ENDBRANCH   1   2
BRANCH   1  21
ATOM     21  C   UNL     1      -3.285   0.877  -3.706  1.00  0.00     0.118 C 
BRANCH  21  22
ATOM     22  N   UNL     1      -4.497   0.331  -3.103  1.00  0.00    -0.352 N 
ATOM     23  C   UNL     1      -5.783   0.826  -3.095  1.00  0.00     0.251 C 
ATOM     24  H   UNL     1      -4.378  -0.523  -2.629  1.00  0.00     0.163 HD
ATOM     25  O   UNL     1      -6.639   0.287  -2.405  1.00  0.00    -0.269 OA
BRANCH  23  26
ATOM     26  C   UNL     1      -6.114   2.030  -3.888  1.00  0.00     0.039 A 
ATOM     27  C   UNL     1      -5.667   2.160  -5.204  1.00  0.00     0.014 A 
ATOM     28  C   UNL     1      -6.850   3.057  -3.292  1.00  0.00     0.014 A 
ATOM     29  C   UNL     1      -5.784   3.386  -5.851  1.00  0.00     0.010 A 
ATOM     30  C   UNL     1      -7.039   4.262  -3.977  1.00  0.00     0.010 A 
ATOM     31  C   UNL     1      -6.452   4.457  -5.236  1.00  0.00    -0.014 A 
BRANCH  31  32
ATOM     32  C   UNL     1      -6.470   5.786  -5.903  1.00  0.00     0.031 A 
ATOM     33  C   UNL     1      -5.743   6.955  -5.287  1.00  0.00     0.074 A 
ATOM     34  C   UNL     1      -7.066   5.920  -7.104  1.00  0.00     0.049 A 
ATOM     35  N   UNL     1      -5.646   8.187  -5.719  1.00  0.00    -0.248 NA
ATOM     36  C   UNL     1      -5.032   6.712  -4.020  1.00  0.00     0.031 C 
ATOM     37  C   UNL     1      -7.771   4.854  -7.820  1.00  0.00     0.029 A 
ATOM     38  N   UNL     1      -7.148   6.997  -7.949  1.00  0.00    -0.354 N 
ATOM     39  C   UNL     1      -4.881   8.865  -4.777  1.00  0.00     0.074 A 
ATOM     40  C   UNL     1      -4.561   7.918  -3.732  1.00  0.00     0.031 C 
ATOM     41  C   UNL     1      -8.162   5.314  -9.019  1.00  0.00     0.029 A 
ATOM     42  C   UNL     1      -7.790   6.720  -9.133  1.00  0.00     0.049 A 
ATOM     43  H   UNL     1      -6.781   7.884  -7.730  1.00  0.00     0.167 HD
ATOM     44  C   UNL     1      -4.468  10.155  -4.790  1.00  0.00     0.037 A 
ATOM     45  C   UNL     1      -8.059   7.512 -10.188  1.00  0.00     0.037 A 
ATOM     46  C   UNL     1      -4.762  11.090  -5.845  1.00  0.00     0.049 A 
ATOM     47  C   UNL     1      -7.633   8.952 -10.152  1.00  0.00     0.074 A 
ATOM     48  C   UNL     1      -4.401  12.423  -5.939  1.00  0.00     0.029 A 
ATOM     49  N   UNL     1      -5.473  10.786  -6.996  1.00  0.00    -0.354 N 
ATOM     50  N   UNL     1      -6.950   9.586  -9.229  1.00  0.00    -0.248 NA
ATOM     51  C   UNL     1      -8.028   9.790 -11.293  1.00  0.00     0.031 C 
ATOM     52  C   UNL     1      -4.914  12.932  -7.137  1.00  0.00     0.029 A 
ATOM     53  C   UNL     1      -5.566  11.908  -7.803  1.00  0.00     0.049 A 
ATOM     54  H   UNL     1      -5.856   9.904  -7.208  1.00  0.00     0.167 HD
ATOM     55  C   UNL     1      -6.828  10.894  -9.682  1.00  0.00     0.074 A 
ATOM     56  C   UNL     1      -7.489  10.957 -10.969  1.00  0.00     0.031 C 
ATOM     57  C   UNL     1      -6.228  11.951  -9.081  1.00  0.00     0.037 A 
BRANCH  44  58
ATOM     58  C   UNL     1      -3.647  10.642  -3.630  1.00  0.00     0.058 A 
ATOM     59  C   UNL     1      -2.292  10.300  -3.497  1.00  0.00     0.135 A 
ATOM     60  C   UNL     1      -4.200  11.516  -2.679  1.00  0.00     0.135 A 
ATOM     61  F   UNL     1      -1.720   9.451  -4.366  1.00  0.00    -0.206 F 
ATOM     62  C   UNL     1      -1.516  10.802  -2.459  1.00  0.00     0.059 A 
ATOM     63  C   UNL     1      -3.436  12.045  -1.643  1.00  0.00     0.059 A 
ATOM     64  F   UNL     1      -5.492  11.870  -2.759  1.00  0.00    -0.206 F 
ATOM     65  C   UNL     1      -2.096  11.677  -1.538  1.00  0.00     0.060 A 
BRANCH  65  66
ATOM     66  S   UNL     1      -1.063  12.333  -0.210  1.00  0.00     0.124 S 
ATOM     67  O   UNL     1      -0.884  11.150   0.628  1.00  0.00    -0.237 OA
ATOM     68  O   UNL     1       0.123  12.781  -0.932  1.00  0.00    -0.237 OA
ATOM     69  O   UNL     1      -1.883  13.393   0.367  1.00  0.00    -0.744 OA
ENDBRANCH  65  66
ENDBRANCH  44  58
BRANCH  45  70
ATOM     70  C   UNL     1      -8.779   6.962 -11.365  1.00  0.00     0.058 A 
ATOM     71  C   UNL     1      -8.120   6.774 -12.589  1.00  0.00     0.135 A 
ATOM     72  C   UNL     1     -10.135   6.610 -11.289  1.00  0.00     0.135 A 
ATOM     73  F   UNL     1      -6.825   7.104 -12.711  1.00  0.00    -0.206 F 
ATOM     74  C   UNL     1      -8.783   6.266 -13.701  1.00  0.00     0.059 A 
ATOM     75  C   UNL     1     -10.814   6.079 -12.380  1.00  0.00     0.059 A 
ATOM     76  F   UNL     1     -10.806   6.760 -10.136  1.00  0.00    -0.206 F 
ATOM     77  C   UNL     1     -10.131   5.921 -13.586  1.00  0.00     0.060 A 
BRANCH  77  78
ATOM     78  S   UNL     1     -10.976   5.224 -15.021  1.00  0.00     0.124 S 
ATOM     79  O   UNL     1     -11.191   6.412 -15.839  1.00  0.00    -0.237 OA
ATOM     80  O   UNL     1      -9.992   4.271 -15.526  1.00  0.00    -0.237 OA
ATOM     81  O   UNL     1     -12.176   4.626 -14.444  1.00  0.00    -0.744 OA
ENDBRANCH  77  78
ENDBRANCH  45  70
BRANCH  57  82
ATOM     82  C   UNL     1      -6.249  13.261  -9.813  1.00  0.00     0.058 A 
ATOM     83  C   UNL     1      -7.407  14.051  -9.859  1.00  0.00     0.135 A 
ATOM     84  C   UNL     1      -5.088  13.753 -10.429  1.00  0.00     0.135 A 
ATOM     85  F   UNL     1      -8.543  13.619  -9.290  1.00  0.00    -0.206 F 
ATOM     86  C   UNL     1      -7.418  15.282 -10.505  1.00  0.00     0.059 A 
ATOM     87  C   UNL     1      -5.071  14.991 -11.064  1.00  0.00     0.059 A 
ATOM     88  F   UNL     1      -3.954  13.036 -10.404  1.00  0.00    -0.206 F 
ATOM     89  C   UNL     1      -6.245  15.744 -11.104  1.00  0.00     0.060 A 
BRANCH  89  90
ATOM     90  S   UNL     1      -6.262  17.360 -11.907  1.00  0.00     0.124 S 
ATOM     91  O   UNL     1      -6.987  17.068 -13.140  1.00  0.00    -0.237 OA
ATOM     92  O   UNL     1      -6.972  18.186 -10.935  1.00  0.00    -0.237 OA
ATOM     93  O   UNL     1      -4.846  17.674 -12.070  1.00  0.00    -0.744 OA
ENDBRANCH  89  90
ENDBRANCH  57  82
ENDBRANCH  31  32
ENDBRANCH  23  26
ENDBRANCH  21  22
ENDBRANCH   1  21
TORSDOF 15
