REMARK SMILES CN(c1ccc2ccccc2c1)S(=O)(=O)c1ccc(C(=O)CCC(=O)NCCCNC(=O)c2ccc(-c3c4nc(c(-c5c(F)cc(S(=O)(=O)[O-])cc5F)c5ccc([nH]5)c(-c5c(F)cc(S(=O)(=O)[O-])cc5F)c5nc(c(-c6c(F)cc(S(=O)(=O)[O-])cc6F)c6ccc3[nH]6)C=C5)C=C4)cc2)cc1
REMARK SMILES IDX 24 1 25 2 26 3 23 5 22 6 20 7 21 8 19 9 16 10 17 11 100 12
REMARK SMILES IDX 18 13 99 14 13 15 14 16 15 17 2 18 1 19 3 20 4 21 12 22 5 23
REMARK SMILES IDX 11 24 6 25 10 26 7 27 9 28 8 29 27 30 28 31 29 32 30 33
REMARK SMILES IDX 31 34 32 36 33 37 34 38 98 39 35 40 97 41 36 42 37 43 38 44
REMARK SMILES IDX 91 45 39 46 96 47 90 48 92 49 40 50 95 51 89 52 88 53 41 55
REMARK SMILES IDX 75 56 54 57 74 58 55 59 58 60 73 61 93 62 56 63 57 64 72 66
REMARK SMILES IDX 94 67 59 68 42 69 43 70 52 71 44 72 45 73 51 74 53 75 46 76
REMARK SMILES IDX 47 77 48 78 49 79 50 80 76 81 77 82 86 83 78 84 79 85 85 86
REMARK SMILES IDX 87 87 80 88 81 89 82 90 83 91 84 92 60 93 61 94 70 95 62 96
REMARK SMILES IDX 63 97 69 98 71 99 64 100 65 101 66 102 67 103 68 104
REMARK H PARENT 26 4 30 35 92 54 58 65
REMARK Flexibility Score: inf
ROOT
ATOM      1  C   UNL     1      -3.096   2.752   7.440  1.00  0.00     0.220 C 
ATOM      2  O   UNL     1      -3.450   2.071   8.405  1.00  0.00    -0.275 OA
ATOM      3  N   UNL     1      -3.204   2.189   6.194  1.00  0.00    -0.356 N 
ATOM      4  H   UNL     1      -3.663   1.318   6.170  1.00  0.00     0.163 HD
ENDROOT
BRANCH   1   5
ATOM      5  C   UNL     1      -2.530   4.174   7.651  1.00  0.00     0.108 C 
BRANCH   5   6
ATOM      6  C   UNL     1      -1.078   4.220   8.212  1.00  0.00     0.091 C 
BRANCH   6   7
ATOM      7  C   UNL     1       0.030   4.729   7.244  1.00  0.00     0.163 C 
ATOM      8  O   UNL     1       0.416   5.893   7.245  1.00  0.00    -0.294 OA
BRANCH   7   9
ATOM      9  C   UNL     1       0.493   3.814   6.125  1.00  0.00     0.018 A 
ATOM     10  C   UNL     1      -0.873   1.885   3.356  1.00  0.00     0.088 A 
ATOM     11  C   UNL     1      -0.341   3.603   3.101  1.00  0.00     0.023 A 
ATOM     12  C   UNL     1      -0.646   1.134   4.991  1.00  0.00     0.023 A 
ATOM     13  C   UNL     1       0.351   4.569   4.485  1.00  0.00     0.013 A 
ATOM     14  C   UNL     1       0.020   2.090   6.361  1.00  0.00     0.013 A 
BRANCH  10  15
ATOM     15  S   UNL     1      -1.371   0.682   2.108  1.00  0.00     0.264 S 
ATOM     16  O   UNL     1      -2.818   0.646   2.136  1.00  0.00    -0.201 OA
ATOM     17  O   UNL     1      -0.613  -0.500   2.484  1.00  0.00    -0.201 OA
BRANCH  15  18
ATOM     18  N   UNL     1      -0.832   1.169   0.582  1.00  0.00    -0.269 N 
ATOM     19  C   UNL     1      -0.206   0.122  -0.250  1.00  0.00     0.164 C 
BRANCH  18  20
ATOM     20  C   UNL     1      -1.563   2.194  -0.085  1.00  0.00     0.052 A 
ATOM     21  C   UNL     1      -2.814   1.957  -0.641  1.00  0.00     0.027 A 
ATOM     22  C   UNL     1      -1.054   3.484  -0.041  1.00  0.00     0.035 A 
ATOM     23  C   UNL     1      -3.615   3.039  -1.007  1.00  0.00     0.011 A 
ATOM     24  C   UNL     1      -1.899   4.577  -0.237  1.00  0.00    -0.016 A 
ATOM     25  C   UNL     1      -3.201   4.354  -0.731  1.00  0.00    -0.018 A 
ATOM     26  C   UNL     1      -1.503   5.870   0.142  1.00  0.00     0.009 A 
ATOM     27  C   UNL     1      -4.063   5.450  -0.877  1.00  0.00     0.009 A 
ATOM     28  C   UNL     1      -2.400   6.932   0.066  1.00  0.00     0.001 A 
ATOM     29  C   UNL     1      -3.673   6.726  -0.459  1.00  0.00     0.001 A 
ENDBRANCH  18  20
ENDBRANCH  15  18
ENDBRANCH  10  15
ENDBRANCH   7   9
ENDBRANCH   6   7
ENDBRANCH   5   6
ENDBRANCH   1   5
BRANCH   3  30
ATOM     30  C   UNL     1      -2.744   2.681   4.898  1.00  0.00     0.117 C 
BRANCH  30  31
ATOM     31  C   UNL     1      -1.167   3.175   4.933  1.00  0.00     0.042 C 
BRANCH  31  32
ATOM     32  C   UNL     1       0.848   2.499   4.425  1.00  0.00     0.118 C 
BRANCH  32  33
ATOM     33  N   UNL     1       1.385   1.784   3.095  1.00  0.00    -0.352 N 
ATOM     34  C   UNL     1       1.988   2.284   1.977  1.00  0.00     0.251 C 
ATOM     35  H   UNL     1       1.257   0.808   3.081  1.00  0.00     0.163 HD
ATOM     36  O   UNL     1       1.792   1.802   0.866  1.00  0.00    -0.269 OA
BRANCH  34  37
ATOM     37  C   UNL     1       3.102   3.209   2.079  1.00  0.00     0.039 A 
ATOM     38  C   UNL     1       3.402   3.948   0.920  1.00  0.00     0.014 A 
ATOM     39  C   UNL     1       4.078   2.806   2.989  1.00  0.00     0.014 A 
ATOM     40  C   UNL     1       4.726   4.122   0.569  1.00  0.00     0.010 A 
ATOM     41  C   UNL     1       5.391   2.990   2.642  1.00  0.00     0.010 A 
ATOM     42  C   UNL     1       5.703   3.589   1.411  1.00  0.00    -0.014 A 
BRANCH  42  43
ATOM     43  C   UNL     1       7.129   3.688   1.117  1.00  0.00     0.031 A 
ATOM     44  C   UNL     1       7.867   2.440   0.755  1.00  0.00     0.074 A 
ATOM     45  C   UNL     1       7.678   4.833   1.546  1.00  0.00     0.049 A 
ATOM     46  N   UNL     1       9.137   2.180   0.866  1.00  0.00    -0.248 NA
ATOM     47  C   UNL     1       7.058   1.307   0.266  1.00  0.00     0.031 C 
ATOM     48  C   UNL     1       6.913   6.004   2.004  1.00  0.00     0.029 A 
ATOM     49  N   UNL     1       8.973   5.155   1.801  1.00  0.00    -0.354 N 
ATOM     50  C   UNL     1       9.288   0.855   0.470  1.00  0.00     0.074 A 
ATOM     51  C   UNL     1       7.971   0.349   0.157  1.00  0.00     0.031 C 
ATOM     52  C   UNL     1       7.749   6.878   2.573  1.00  0.00     0.029 A 
ATOM     53  C   UNL     1       9.089   6.321   2.519  1.00  0.00     0.049 A 
ATOM     54  H   UNL     1       9.740   4.615   1.504  1.00  0.00     0.167 HD
ATOM     55  C   UNL     1      10.445   0.154   0.386  1.00  0.00     0.037 A 
ATOM     56  C   UNL     1      10.173   6.849   3.105  1.00  0.00     0.037 A 
ATOM     57  C   UNL     1      11.708   0.747   0.757  1.00  0.00     0.049 A 
ATOM     58  C   UNL     1      11.452   6.098   2.914  1.00  0.00     0.074 A 
ATOM     59  C   UNL     1      12.982   0.222   0.674  1.00  0.00     0.029 A 
ATOM     60  N   UNL     1      11.837   2.030   1.291  1.00  0.00    -0.354 N 
ATOM     61  N   UNL     1      11.618   4.876   2.455  1.00  0.00    -0.248 NA
ATOM     62  C   UNL     1      12.685   6.800   3.255  1.00  0.00     0.031 C 
ATOM     63  C   UNL     1      13.876   1.180   1.173  1.00  0.00     0.029 A 
ATOM     64  C   UNL     1      13.165   2.320   1.531  1.00  0.00     0.049 A 
ATOM     65  H   UNL     1      11.086   2.641   1.471  1.00  0.00     0.167 HD
ATOM     66  C   UNL     1      12.985   4.668   2.419  1.00  0.00     0.074 A 
ATOM     67  C   UNL     1      13.593   5.902   2.897  1.00  0.00     0.031 C 
ATOM     68  C   UNL     1      13.685   3.573   2.027  1.00  0.00     0.037 A 
BRANCH  55  69
ATOM     69  C   UNL     1      10.393  -1.264  -0.131  1.00  0.00     0.058 A 
ATOM     70  C   UNL     1      10.002  -1.549  -1.452  1.00  0.00     0.135 A 
ATOM     71  C   UNL     1      10.762  -2.356   0.674  1.00  0.00     0.135 A 
ATOM     72  F   UNL     1       9.630  -0.555  -2.275  1.00  0.00    -0.206 F 
ATOM     73  C   UNL     1       9.946  -2.852  -1.942  1.00  0.00     0.059 A 
ATOM     74  C   UNL     1      10.740  -3.668   0.197  1.00  0.00     0.059 A 
ATOM     75  F   UNL     1      11.145  -2.159   1.946  1.00  0.00    -0.206 F 
ATOM     76  C   UNL     1      10.317  -3.908  -1.110  1.00  0.00     0.060 A 
BRANCH  76  77
ATOM     77  S   UNL     1      10.252  -5.589  -1.770  1.00  0.00     0.124 S 
ATOM     78  O   UNL     1       8.813  -5.826  -1.829  1.00  0.00    -0.237 OA
ATOM     79  O   UNL     1      10.922  -5.446  -3.059  1.00  0.00    -0.237 OA
ATOM     80  O   UNL     1      10.976  -6.375  -0.776  1.00  0.00    -0.744 OA
ENDBRANCH  76  77
ENDBRANCH  55  69
BRANCH  56  81
ATOM     81  C   UNL     1      10.064   8.163   3.779  1.00  0.00     0.058 A 
ATOM     82  C   UNL     1      10.482   9.325   3.115  1.00  0.00     0.135 A 
ATOM     83  C   UNL     1       9.408   8.313   5.012  1.00  0.00     0.135 A 
ATOM     84  F   UNL     1      11.076   9.232   1.916  1.00  0.00    -0.206 F 
ATOM     85  C   UNL     1      10.277  10.588   3.657  1.00  0.00     0.059 A 
ATOM     86  C   UNL     1       9.174   9.569   5.566  1.00  0.00     0.059 A 
ATOM     87  F   UNL     1       8.933   7.236   5.657  1.00  0.00    -0.206 F 
ATOM     88  C   UNL     1       9.621  10.701   4.884  1.00  0.00     0.060 A 
BRANCH  88  89
ATOM     89  S   UNL     1       9.319  12.354   5.545  1.00  0.00     0.124 S 
ATOM     90  O   UNL     1      10.661  12.756   5.949  1.00  0.00    -0.237 OA
ATOM     91  O   UNL     1       8.766  13.051   4.387  1.00  0.00    -0.237 OA
ATOM     92  O   UNL     1       8.376  12.116   6.633  1.00  0.00    -0.744 OA
ENDBRANCH  88  89
ENDBRANCH  56  81
BRANCH  68  93
ATOM     93  C   UNL     1      15.173   3.701   2.104  1.00  0.00     0.058 A 
ATOM     94  C   UNL     1      15.841   3.657   3.336  1.00  0.00     0.135 A 
ATOM     95  C   UNL     1      15.930   3.847   0.933  1.00  0.00     0.135 A 
ATOM     96  F   UNL     1      15.148   3.533   4.479  1.00  0.00    -0.206 F 
ATOM     97  C   UNL     1      17.220   3.784   3.406  1.00  0.00     0.059 A 
ATOM     98  C   UNL     1      17.312   3.946   0.979  1.00  0.00     0.059 A 
ATOM     99  F   UNL     1      15.325   3.888  -0.265  1.00  0.00    -0.206 F 
ATOM    100  C   UNL     1      17.946   3.927   2.222  1.00  0.00     0.060 A 
BRANCH 100 101
ATOM    101  S   UNL     1      19.740   4.062   2.326  1.00  0.00     0.124 S 
ATOM    102  O   UNL     1      19.901   5.434   2.795  1.00  0.00    -0.237 OA
ATOM    103  O   UNL     1      20.075   3.018   3.291  1.00  0.00    -0.237 OA
ATOM    104  O   UNL     1      20.178   3.807   0.958  1.00  0.00    -0.744 OA
ENDBRANCH 100 101
ENDBRANCH  68  93
ENDBRANCH  42  43
ENDBRANCH  34  37
ENDBRANCH  32  33
ENDBRANCH  31  32
ENDBRANCH  30  31
ENDBRANCH   3  30
TORSDOF 19
