REMARK SMILES O=C(CCCc1nc(-c2ccc(Cl)c(Cl)c2)c(-c2ccccc2)o1)NCCCNC(=O)c1ccc(-c2c3nc(c(-c4c(F)cc(S(=O)(=O)[O-])cc4F)c4ccc([nH]4)c(-c4c(F)cc(S(=O)(=O)[O-])cc4F)c4nc(c(-c5c(F)cc(S(=O)(=O)[O-])cc5F)c5ccc2[nH]5)C=C4)C=C3)cc1
REMARK SMILES IDX 26 1 25 2 1 3 2 4 3 6 4 7 5 8 6 9 7 10 24 11 8 12 17 13 9 14
REMARK SMILES IDX 10 15 16 16 11 17 14 18 12 19 15 20 13 21 18 22 19 23 23 24
REMARK SMILES IDX 20 25 22 26 21 27 27 28 28 29 29 30 30 31 31 33 32 34 33 35
REMARK SMILES IDX 97 36 34 37 96 38 35 39 36 40 37 41 90 42 38 43 95 44 89 45
REMARK SMILES IDX 91 46 39 47 94 48 88 49 87 50 40 52 74 53 53 54 73 55 54 56
REMARK SMILES IDX 57 57 72 58 92 59 55 60 56 61 71 63 93 64 58 65 41 66 42 67
REMARK SMILES IDX 51 68 43 69 44 70 50 71 52 72 45 73 46 74 47 75 48 76 49 77
REMARK SMILES IDX 75 78 76 79 85 80 77 81 78 82 84 83 86 84 79 85 80 86 81 87
REMARK SMILES IDX 82 88 83 89 59 90 60 91 69 92 61 93 62 94 68 95 70 96 63 97
REMARK SMILES IDX 64 98 65 99 66 100 67 101
REMARK H PARENT 25 5 29 32 91 51 57 62
REMARK Flexibility Score: inf
ROOT
ATOM      1  C   UNL     1       2.095  -2.134   1.319  1.00  0.00     0.117 C 
ENDROOT
BRANCH   1   2
ATOM      2  N   UNL     1       2.688  -1.144   0.443  1.00  0.00    -0.356 N 
ATOM      3  O   UNL     1       1.056   0.441   0.775  1.00  0.00    -0.275 OA
ATOM      4  C   UNL     1       2.114   0.093   0.262  1.00  0.00     0.220 C 
ATOM      5  H   UNL     1       3.521  -1.362  -0.035  1.00  0.00     0.163 HD
BRANCH   4   6
ATOM      6  C   UNL     1       2.930   1.036  -0.593  1.00  0.00     0.100 C 
BRANCH   6   7
ATOM      7  C   UNL     1       3.922   1.849   0.243  1.00  0.00     0.020 C 
BRANCH   7   8
ATOM      8  C   UNL     1       5.064   1.045   0.871  1.00  0.00     0.098 C 
BRANCH   8   9
ATOM      9  C   UNL     1       5.804   0.241  -0.134  1.00  0.00     0.195 A 
ATOM     10  N   UNL     1       5.680  -1.048  -0.395  1.00  0.00    -0.213 NA
ATOM     11  O   UNL     1       6.651   0.921  -0.964  1.00  0.00    -0.440 OA
ATOM     12  C   UNL     1       6.563  -1.244  -1.431  1.00  0.00     0.117 A 
ATOM     13  C   UNL     1       7.115  -0.040  -1.821  1.00  0.00     0.162 A 
BRANCH  12  14
ATOM     14  C   UNL     1       6.868  -2.533  -2.009  1.00  0.00     0.006 A 
ATOM     15  C   UNL     1       5.858  -3.313  -2.579  1.00  0.00     0.012 A 
ATOM     16  C   UNL     1       8.189  -3.002  -2.013  1.00  0.00     0.032 A 
ATOM     17  C   UNL     1       6.173  -4.541  -3.170  1.00  0.00     0.023 A 
ATOM     18  C   UNL     1       8.503  -4.232  -2.597  1.00  0.00     0.060 A 
ATOM     19  C   UNL     1       7.494  -5.002  -3.183  1.00  0.00     0.059 A 
ATOM     20  Cl  UNL     1      10.154  -4.735  -2.559  1.00  0.00    -0.083 Cl
ATOM     21  Cl  UNL     1       7.808  -6.525  -3.929  1.00  0.00    -0.083 Cl
ENDBRANCH  12  14
BRANCH  13  22
ATOM     22  C   UNL     1       7.983   0.403  -2.895  1.00  0.00     0.020 A 
ATOM     23  C   UNL     1       9.146   1.132  -2.625  1.00  0.00     0.012 A 
ATOM     24  C   UNL     1       7.675   0.076  -4.223  1.00  0.00     0.012 A 
ATOM     25  C   UNL     1       9.997   1.510  -3.667  1.00  0.00     0.001 A 
ATOM     26  C   UNL     1       8.520   0.463  -5.264  1.00  0.00     0.001 A 
ATOM     27  C   UNL     1       9.684   1.175  -4.984  1.00  0.00     0.000 A 
ENDBRANCH  13  22
ENDBRANCH   8   9
ENDBRANCH   7   8
ENDBRANCH   6   7
ENDBRANCH   4   6
ENDBRANCH   1   2
BRANCH   1  28
ATOM     28  C   UNL     1       2.336  -3.564   0.856  1.00  0.00     0.042 C 
BRANCH  28  29
ATOM     29  C   UNL     1       3.795  -4.007   0.854  1.00  0.00     0.118 C 
BRANCH  29  30
ATOM     30  N   UNL     1       4.399  -4.035   2.178  1.00  0.00    -0.352 N 
ATOM     31  C   UNL     1       5.132  -5.032   2.780  1.00  0.00     0.251 C 
ATOM     32  H   UNL     1       4.265  -3.225   2.720  1.00  0.00     0.163 HD
ATOM     33  O   UNL     1       5.485  -4.912   3.950  1.00  0.00    -0.269 OA
BRANCH  31  34
ATOM     34  C   UNL     1       5.457  -6.265   2.030  1.00  0.00     0.039 A 
ATOM     35  C   UNL     1       5.196  -7.501   2.627  1.00  0.00     0.014 A 
ATOM     36  C   UNL     1       5.988  -6.207   0.739  1.00  0.00     0.014 A 
ATOM     37  C   UNL     1       5.380  -8.677   1.896  1.00  0.00     0.010 A 
ATOM     38  C   UNL     1       6.114  -7.376  -0.010  1.00  0.00     0.010 A 
ATOM     39  C   UNL     1       5.794  -8.621   0.555  1.00  0.00    -0.014 A 
BRANCH  39  40
ATOM     40  C   UNL     1       5.850  -9.845  -0.286  1.00  0.00     0.031 A 
ATOM     41  C   UNL     1       7.160 -10.337  -0.834  1.00  0.00     0.074 A 
ATOM     42  C   UNL     1       4.703 -10.470  -0.621  1.00  0.00     0.049 A 
ATOM     43  N   UNL     1       7.390 -11.333  -1.650  1.00  0.00    -0.248 NA
ATOM     44  C   UNL     1       8.367  -9.601  -0.427  1.00  0.00     0.031 C 
ATOM     45  C   UNL     1       3.362 -10.067  -0.190  1.00  0.00     0.029 A 
ATOM     46  N   UNL     1       4.477 -11.568  -1.414  1.00  0.00    -0.354 N 
ATOM     47  C   UNL     1       8.763 -11.339  -1.865  1.00  0.00     0.074 A 
ATOM     48  C   UNL     1       9.309 -10.221  -1.124  1.00  0.00     0.031 C 
ATOM     49  C   UNL     1       2.458 -10.910  -0.714  1.00  0.00     0.029 A 
ATOM     50  C   UNL     1       3.147 -11.890  -1.547  1.00  0.00     0.049 A 
ATOM     51  H   UNL     1       5.200 -12.077  -1.847  1.00  0.00     0.167 HD
ATOM     52  C   UNL     1       9.502 -12.207  -2.596  1.00  0.00     0.037 A 
ATOM     53  C   UNL     1       2.545 -12.855  -2.271  1.00  0.00     0.037 A 
ATOM     54  C   UNL     1       8.959 -13.328  -3.319  1.00  0.00     0.049 A 
ATOM     55  C   UNL     1       3.386 -13.794  -3.090  1.00  0.00     0.074 A 
ATOM     56  C   UNL     1       9.636 -14.298  -4.037  1.00  0.00     0.029 A 
ATOM     57  N   UNL     1       7.608 -13.624  -3.425  1.00  0.00    -0.354 N 
ATOM     58  N   UNL     1       4.690 -13.824  -3.229  1.00  0.00    -0.248 NA
ATOM     59  C   UNL     1       2.675 -14.830  -3.853  1.00  0.00     0.031 C 
ATOM     60  C   UNL     1       8.692 -15.159  -4.610  1.00  0.00     0.029 A 
ATOM     61  C   UNL     1       7.429 -14.747  -4.216  1.00  0.00     0.049 A 
ATOM     62  H   UNL     1       6.883 -13.111  -3.000  1.00  0.00     0.167 HD
ATOM     63  C   UNL     1       4.957 -14.890  -4.080  1.00  0.00     0.074 A 
ATOM     64  C   UNL     1       3.681 -15.489  -4.413  1.00  0.00     0.031 C 
ATOM     65  C   UNL     1       6.152 -15.332  -4.543  1.00  0.00     0.037 A 
BRANCH  52  66
ATOM     66  C   UNL     1      10.988 -11.981  -2.646  1.00  0.00     0.058 A 
ATOM     67  C   UNL     1      11.807 -12.242  -1.536  1.00  0.00     0.135 A 
ATOM     68  C   UNL     1      11.604 -11.532  -3.825  1.00  0.00     0.135 A 
ATOM     69  F   UNL     1      11.267 -12.661  -0.381  1.00  0.00    -0.206 F 
ATOM     70  C   UNL     1      13.182 -12.040  -1.585  1.00  0.00     0.059 A 
ATOM     71  C   UNL     1      12.982 -11.345  -3.903  1.00  0.00     0.059 A 
ATOM     72  F   UNL     1      10.867 -11.270  -4.916  1.00  0.00    -0.206 F 
ATOM     73  C   UNL     1      13.761 -11.589  -2.772  1.00  0.00     0.060 A 
BRANCH  73  74
ATOM     74  S   UNL     1      15.548 -11.338  -2.821  1.00  0.00     0.124 S 
ATOM     75  O   UNL     1      15.690 -10.104  -2.055  1.00  0.00    -0.237 OA
ATOM     76  O   UNL     1      16.052 -12.546  -2.174  1.00  0.00    -0.237 OA
ATOM     77  O   UNL     1      15.838 -11.229  -4.247  1.00  0.00    -0.744 OA
ENDBRANCH  73  74
ENDBRANCH  52  66
BRANCH  53  78
ATOM     78  C   UNL     1       1.065 -12.984  -2.248  1.00  0.00     0.058 A 
ATOM     79  C   UNL     1       0.445 -14.051  -1.582  1.00  0.00     0.135 A 
ATOM     80  C   UNL     1       0.241 -12.038  -2.877  1.00  0.00     0.135 A 
ATOM     81  F   UNL     1       1.192 -14.985  -0.973  1.00  0.00    -0.206 F 
ATOM     82  C   UNL     1      -0.939 -14.185  -1.550  1.00  0.00     0.059 A 
ATOM     83  C   UNL     1      -1.146 -12.137  -2.841  1.00  0.00     0.059 A 
ATOM     84  F   UNL     1       0.786 -10.990  -3.515  1.00  0.00    -0.206 F 
ATOM     85  C   UNL     1      -1.727 -13.220  -2.181  1.00  0.00     0.060 A 
BRANCH  85  86
ATOM     86  S   UNL     1      -3.524 -13.372  -2.090  1.00  0.00     0.124 S 
ATOM     87  O   UNL     1      -3.778 -14.442  -3.047  1.00  0.00    -0.237 OA
ATOM     88  O   UNL     1      -3.734 -13.708  -0.685  1.00  0.00    -0.237 OA
ATOM     89  O   UNL     1      -3.991 -12.046  -2.484  1.00  0.00    -0.744 OA
ENDBRANCH  85  86
ENDBRANCH  53  78
BRANCH  65  90
ATOM     90  C   UNL     1       6.140 -16.530  -5.450  1.00  0.00     0.058 A 
ATOM     91  C   UNL     1       5.718 -16.435  -6.786  1.00  0.00     0.135 A 
ATOM     92  C   UNL     1       6.597 -17.776  -4.993  1.00  0.00     0.135 A 
ATOM     93  F   UNL     1       5.263 -15.268  -7.269  1.00  0.00    -0.206 F 
ATOM     94  C   UNL     1       5.734 -17.538  -7.633  1.00  0.00     0.059 A 
ATOM     95  C   UNL     1       6.644 -18.887  -5.829  1.00  0.00     0.059 A 
ATOM     96  F   UNL     1       7.018 -17.919  -3.727  1.00  0.00    -0.206 F 
ATOM     97  C   UNL     1       6.200 -18.761  -7.145  1.00  0.00     0.060 A 
BRANCH  97  98
ATOM     98  S   UNL     1       6.250 -20.178  -8.263  1.00  0.00     0.124 S 
ATOM     99  O   UNL     1       4.842 -20.556  -8.321  1.00  0.00    -0.237 OA
ATOM    100  O   UNL     1       6.801 -19.597  -9.484  1.00  0.00    -0.237 OA
ATOM    101  O   UNL     1       7.126 -21.122  -7.576  1.00  0.00    -0.744 OA
ENDBRANCH  97  98
ENDBRANCH  65  90
ENDBRANCH  39  40
ENDBRANCH  31  34
ENDBRANCH  29  30
ENDBRANCH  28  29
ENDBRANCH   1  28
TORSDOF 18
