REMARK SMILES C[NH2+][C@]1(C(=O)NCCCNC(=O)c2ccc(-c3c4nc(c(-c5c(F)cc(S(=O)(=O)[O-])cc5F)c5ccc([nH]5)c(-c5c(F)cc(S(=O)(=O)[O-])cc5F)c5nc(c(-c6c(F)cc(S(=O)(=O)[O-])cc6F)c6ccc3[nH]6)C=C5)C=C4)cc2)CCC[C@H]1CCOC1C[C@@H](C)C[C@H](C)C1
REMARK SMILES IDX 7 1 6 2 4 3 5 4 3 6 79 7 82 8 80 9 81 10 2 11 1 12 83 15
REMARK SMILES IDX 84 16 85 17 86 18 87 19 93 20 88 21 91 22 89 23 90 24 92 25
REMARK SMILES IDX 8 26 9 27 10 28 11 29 12 31 13 32 14 33 78 34 15 35 77 36
REMARK SMILES IDX 16 37 17 38 18 39 71 40 19 41 76 42 70 43 72 44 20 45 75 46
REMARK SMILES IDX 69 47 68 48 21 50 55 51 34 52 54 53 35 54 38 55 53 56 73 57
REMARK SMILES IDX 36 58 37 59 52 61 74 62 39 63 22 64 23 65 32 66 24 67 25 68
REMARK SMILES IDX 31 69 33 70 26 71 27 72 28 73 29 74 30 75 56 76 57 77 66 78
REMARK SMILES IDX 58 79 59 80 65 81 67 82 60 83 61 84 62 85 63 86 64 87 40 88
REMARK SMILES IDX 41 89 50 90 42 91 43 92 49 93 51 94 44 95 45 96 46 97 47 98
REMARK SMILES IDX 48 99
REMARK H PARENT 6 5 2 13 2 14 10 30 72 49 38 60
REMARK Flexibility Score: inf
ROOT
ATOM      1  C   UNL     1       0.617   0.565  -1.942  1.00  0.00     0.118 C 
ENDROOT
BRANCH   1   2
ATOM      2  N   UNL     1       0.751   0.385  -0.505  1.00  0.00    -0.351 N 
ATOM      3  C   UNL     1       0.207  -0.470   0.410  1.00  0.00     0.281 C 
ATOM      4  O   UNL     1       0.904  -0.563   1.433  1.00  0.00    -0.268 OA
ATOM      5  H   UNL     1       1.377   1.028  -0.100  1.00  0.00     0.163 HD
BRANCH   3   6
ATOM      6  C   UNL     1      -1.188  -1.284   0.258  1.00  0.00     0.178 C 
ATOM      7  C   UNL     1      -2.163  -0.203  -0.310  1.00  0.00     0.079 C 
ATOM      8  C   UNL     1      -1.658  -2.841  -0.616  1.00  0.00     0.063 C 
ATOM      9  C   UNL     1      -3.486  -0.833  -0.595  1.00  0.00     0.008 C 
ATOM     10  C   UNL     1      -3.277  -2.333  -0.685  1.00  0.00     0.011 C 
BRANCH   6  11
ATOM     11  N   UNL     1      -1.757  -1.322   1.686  1.00  0.00    -0.336 N 
ATOM     12  C   UNL     1      -1.166  -2.175   2.695  1.00  0.00     0.331 C 
ATOM     13  H   UNL     1      -1.707  -0.368   2.045  1.00  0.00     0.346 HD
ATOM     14  H   UNL     1      -2.681  -1.734   1.552  1.00  0.00     0.346 HD
ENDBRANCH   6  11
BRANCH   8  15
ATOM     15  C   UNL     1      -0.683  -4.373  -1.710  1.00  0.00     0.039 C 
BRANCH  15  16
ATOM     16  C   UNL     1       0.562  -5.412  -1.252  1.00  0.00     0.161 C 
BRANCH  16  17
ATOM     17  O   UNL     1       0.895  -5.147   0.068  1.00  0.00    -0.378 OA
BRANCH  17  18
ATOM     18  C   UNL     1      -0.049  -4.120   0.232  1.00  0.00     0.118 C 
ATOM     19  C   UNL     1       0.508  -2.823  -1.119  1.00  0.00     0.035 C 
ATOM     20  C   UNL     1      -1.742  -5.089   0.021  1.00  0.00     0.035 C 
ATOM     21  C   UNL     1      -0.733  -2.340  -2.531  1.00  0.00    -0.011 C 
ATOM     22  C   UNL     1      -2.863  -4.734  -1.482  1.00  0.00    -0.011 C 
ATOM     23  C   UNL     1       0.023  -2.176  -3.868  1.00  0.00     0.008 C 
ATOM     24  C   UNL     1      -2.294  -3.433  -2.799  1.00  0.00     0.006 C 
ATOM     25  C   UNL     1      -4.370  -4.932  -1.217  1.00  0.00     0.008 C 
ENDBRANCH  17  18
ENDBRANCH  16  17
ENDBRANCH  15  16
ENDBRANCH   8  15
ENDBRANCH   3   6
ENDBRANCH   1   2
BRANCH   1  26
ATOM     26  C   UNL     1       1.116   1.913  -2.422  1.00  0.00     0.042 C 
BRANCH  26  27
ATOM     27  C   UNL     1       2.623   1.917  -2.609  1.00  0.00     0.118 C 
BRANCH  27  28
ATOM     28  N   UNL     1       3.038   1.205  -3.819  1.00  0.00    -0.352 N 
ATOM     29  C   UNL     1       3.618   1.696  -4.968  1.00  0.00     0.251 C 
ATOM     30  H   UNL     1       2.879   0.234  -3.811  1.00  0.00     0.163 HD
ATOM     31  O   UNL     1       3.739   0.979  -5.956  1.00  0.00    -0.269 OA
BRANCH  29  32
ATOM     32  C   UNL     1       4.057   3.106  -5.005  1.00  0.00     0.039 A 
ATOM     33  C   UNL     1       3.717   3.909  -6.095  1.00  0.00     0.014 A 
ATOM     34  C   UNL     1       4.739   3.649  -3.915  1.00  0.00     0.014 A 
ATOM     35  C   UNL     1       3.967   5.282  -6.038  1.00  0.00     0.010 A 
ATOM     36  C   UNL     1       4.866   5.025  -3.806  1.00  0.00     0.010 A 
ATOM     37  C   UNL     1       4.489   5.859  -4.868  1.00  0.00    -0.014 A 
BRANCH  37  38
ATOM     38  C   UNL     1       4.664   7.327  -4.721  1.00  0.00     0.031 A 
ATOM     39  C   UNL     1       6.030   7.885  -4.417  1.00  0.00     0.074 A 
ATOM     40  C   UNL     1       3.590   8.142  -4.759  1.00  0.00     0.049 A 
ATOM     41  N   UNL     1       6.376   9.111  -4.123  1.00  0.00    -0.248 NA
ATOM     42  C   UNL     1       7.148   6.927  -4.393  1.00  0.00     0.031 C 
ATOM     43  C   UNL     1       2.204   7.715  -4.971  1.00  0.00     0.029 A 
ATOM     44  N   UNL     1       3.493   9.502  -4.605  1.00  0.00    -0.354 N 
ATOM     45  C   UNL     1       7.737   9.062  -3.846  1.00  0.00     0.074 A 
ATOM     46  C   UNL     1       8.141   7.678  -3.942  1.00  0.00     0.031 C 
ATOM     47  C   UNL     1       1.403   8.793  -4.968  1.00  0.00     0.029 A 
ATOM     48  C   UNL     1       2.208   9.982  -4.712  1.00  0.00     0.049 A 
ATOM     49  H   UNL     1       4.271  10.081  -4.434  1.00  0.00     0.167 HD
ATOM     50  C   UNL     1       8.584  10.082  -3.570  1.00  0.00     0.037 A 
ATOM     51  C   UNL     1       1.733  11.239  -4.612  1.00  0.00     0.037 A 
ATOM     52  C   UNL     1       8.186  11.463  -3.535  1.00  0.00     0.049 A 
ATOM     53  C   UNL     1       2.699  12.363  -4.349  1.00  0.00     0.074 A 
ATOM     54  C   UNL     1       8.976  12.582  -3.347  1.00  0.00     0.029 A 
ATOM     55  N   UNL     1       6.884  11.913  -3.701  1.00  0.00    -0.354 N 
ATOM     56  N   UNL     1       3.996  12.306  -4.157  1.00  0.00    -0.248 NA
ATOM     57  C   UNL     1       2.140  13.721  -4.295  1.00  0.00     0.031 C 
ATOM     58  C   UNL     1       8.146  13.708  -3.367  1.00  0.00     0.029 A 
ATOM     59  C   UNL     1       6.846  13.293  -3.608  1.00  0.00     0.049 A 
ATOM     60  H   UNL     1       6.103  11.335  -3.861  1.00  0.00     0.167 HD
ATOM     61  C   UNL     1       4.412  13.621  -3.983  1.00  0.00     0.074 A 
ATOM     62  C   UNL     1       3.231  14.452  -4.105  1.00  0.00     0.031 C 
ATOM     63  C   UNL     1       5.658  14.099  -3.743  1.00  0.00     0.037 A 
BRANCH  50  64
ATOM     64  C   UNL     1      10.024   9.736  -3.308  1.00  0.00     0.058 A 
ATOM     65  C   UNL     1      10.865   9.260  -4.329  1.00  0.00     0.135 A 
ATOM     66  C   UNL     1      10.576   9.890  -2.026  1.00  0.00     0.135 A 
ATOM     67  F   UNL     1      10.386   9.076  -5.569  1.00  0.00    -0.206 F 
ATOM     68  C   UNL     1      12.188   8.912  -4.079  1.00  0.00     0.059 A 
ATOM     69  C   UNL     1      11.906   9.577  -1.761  1.00  0.00     0.059 A 
ATOM     70  F   UNL     1       9.818  10.340  -1.014  1.00  0.00    -0.206 F 
ATOM     71  C   UNL     1      12.699   9.072  -2.790  1.00  0.00     0.060 A 
BRANCH  71  72
ATOM     72  S   UNL     1      14.417   8.612  -2.482  1.00  0.00     0.124 S 
ATOM     73  O   UNL     1      14.331   7.155  -2.480  1.00  0.00    -0.237 OA
ATOM     74  O   UNL     1      15.109   9.204  -3.623  1.00  0.00    -0.237 OA
ATOM     75  O   UNL     1      14.706   9.226  -1.190  1.00  0.00    -0.744 OA
ENDBRANCH  71  72
ENDBRANCH  50  64
BRANCH  51  76
ATOM     76  C   UNL     1       0.282  11.505  -4.801  1.00  0.00     0.058 A 
ATOM     77  C   UNL     1      -0.186  12.146  -5.958  1.00  0.00     0.135 A 
ATOM     78  C   UNL     1      -0.667  11.108  -3.846  1.00  0.00     0.135 A 
ATOM     79  F   UNL     1       0.683  12.548  -6.898  1.00  0.00    -0.206 F 
ATOM     80  C   UNL     1      -1.540  12.397  -6.157  1.00  0.00     0.059 A 
ATOM     81  C   UNL     1      -2.029  11.328  -4.033  1.00  0.00     0.059 A 
ATOM     82  F   UNL     1      -0.274  10.475  -2.730  1.00  0.00    -0.206 F 
ATOM     83  C   UNL     1      -2.455  11.981  -5.189  1.00  0.00     0.060 A 
BRANCH  83  84
ATOM     84  S   UNL     1      -4.215  12.262  -5.484  1.00  0.00     0.124 S 
ATOM     85  O   UNL     1      -4.326  13.698  -5.254  1.00  0.00    -0.237 OA
ATOM     86  O   UNL     1      -4.368  11.822  -6.867  1.00  0.00    -0.237 OA
ATOM     87  O   UNL     1      -4.860  11.410  -4.489  1.00  0.00    -0.744 OA
ENDBRANCH  83  84
ENDBRANCH  51  76
BRANCH  63  88
ATOM     88  C   UNL     1       5.815  15.588  -3.628  1.00  0.00     0.058 A 
ATOM     89  C   UNL     1       5.383  16.287  -2.491  1.00  0.00     0.135 A 
ATOM     90  C   UNL     1       6.460  16.314  -4.642  1.00  0.00     0.135 A 
ATOM     91  F   UNL     1       4.756  15.639  -1.496  1.00  0.00    -0.206 F 
ATOM     92  C   UNL     1       5.567  17.660  -2.372  1.00  0.00     0.059 A 
ATOM     93  C   UNL     1       6.678  17.683  -4.532  1.00  0.00     0.059 A 
ATOM     94  F   UNL     1       6.902  15.689  -5.745  1.00  0.00    -0.206 F 
ATOM     95  C   UNL     1       6.218  18.349  -3.397  1.00  0.00     0.060 A 
BRANCH  95  96
ATOM     96  S   UNL     1       6.484  20.125  -3.214  1.00  0.00     0.124 S 
ATOM     97  O   UNL     1       5.147  20.651  -3.469  1.00  0.00    -0.237 OA
ATOM     98  O   UNL     1       6.955  20.231  -1.836  1.00  0.00    -0.237 OA
ATOM     99  O   UNL     1       7.484  20.425  -4.235  1.00  0.00    -0.744 OA
ENDBRANCH  95  96
ENDBRANCH  63  88
ENDBRANCH  37  38
ENDBRANCH  29  32
ENDBRANCH  27  28
ENDBRANCH  26  27
ENDBRANCH   1  26
TORSDOF 18
