REMARK SMILES C[C@H]1[C@@H](C(=O)NCCCNC(=O)c2ccc(-c3c4nc(c(-c5c(F)cc(S(=O)(=O)[O-])cc5F)c5ccc([nH]5)c(-c5c(F)cc(S(=O)(=O)[O-])cc5F)c5nc(c(-c6c(F)cc(S(=O)(=O)[O-])cc6F)c6ccc3[nH]6)C=C5)C=C4)cc2)CCN1S(=O)(=O)Cc1cccc(C#N)c1
REMARK SMILES IDX 7 1 6 2 4 3 5 4 3 6 1 7 2 8 81 9 79 10 80 11 82 12 83 13
REMARK SMILES IDX 84 14 85 15 86 16 87 17 93 18 88 19 90 20 89 21 91 22 92 23
REMARK SMILES IDX 8 24 9 25 10 26 11 27 12 29 13 30 14 31 78 32 15 33 77 34
REMARK SMILES IDX 16 35 17 36 18 37 71 38 19 39 76 40 70 41 72 42 20 43 75 44
REMARK SMILES IDX 69 45 68 46 21 48 55 49 34 50 54 51 35 52 38 53 53 54 73 55
REMARK SMILES IDX 36 56 37 57 52 59 74 60 39 61 22 62 23 63 32 64 24 65 25 66
REMARK SMILES IDX 31 67 33 68 26 69 27 70 28 71 29 72 30 73 56 74 57 75 66 76
REMARK SMILES IDX 58 77 59 78 65 79 67 80 60 81 61 82 62 83 63 84 64 85 40 86
REMARK SMILES IDX 41 87 50 88 42 89 43 90 49 91 51 92 44 93 45 94 46 95 47 96
REMARK SMILES IDX 48 97
REMARK H PARENT 6 5 10 28 72 47 38 58
REMARK Flexibility Score: inf
ROOT
ATOM      1  C   UNL     1       2.907   1.809  -1.009  1.00  0.00     0.117 C 
ENDROOT
BRANCH   1   2
ATOM      2  N   UNL     1       1.614   2.010  -1.648  1.00  0.00    -0.356 N 
ATOM      3  C   UNL     1       0.336   1.669  -1.321  1.00  0.00     0.224 C 
ATOM      4  O   UNL     1      -0.517   1.977  -2.160  1.00  0.00    -0.275 OA
ATOM      5  H   UNL     1       1.677   2.497  -2.501  1.00  0.00     0.163 HD
BRANCH   3   6
ATOM      6  C   UNL     1      -0.070   1.072   0.038  1.00  0.00     0.098 C 
ATOM      7  C   UNL     1       1.493  -0.953  -0.403  1.00  0.00     0.026 C 
ATOM      8  C   UNL     1       0.575  -0.231   0.551  1.00  0.00     0.082 C 
ATOM      9  N   UNL     1      -0.495  -1.225   0.769  1.00  0.00    -0.198 NA
ATOM     10  C   UNL     1      -1.582   0.764   0.107  1.00  0.00     0.032 C 
ATOM     11  C   UNL     1      -1.681  -0.751   0.036  1.00  0.00     0.103 C 
BRANCH   9  12
ATOM     12  S   UNL     1      -0.688  -1.979   2.251  1.00  0.00     0.218 S 
ATOM     13  O   UNL     1      -1.135  -0.940   3.161  1.00  0.00    -0.212 OA
ATOM     14  O   UNL     1      -1.523  -3.143   2.036  1.00  0.00    -0.212 OA
BRANCH  12  15
ATOM     15  C   UNL     1       0.960  -2.501   2.826  1.00  0.00     0.189 C 
BRANCH  15  16
ATOM     16  C   UNL     1       1.668  -3.522   1.965  1.00  0.00    -0.030 A 
ATOM     17  C   UNL     1       1.196  -4.833   1.835  1.00  0.00     0.005 A 
ATOM     18  C   UNL     1       2.891  -3.203   1.342  1.00  0.00     0.024 A 
ATOM     19  C   UNL     1       1.888  -5.772   1.059  1.00  0.00     0.002 A 
ATOM     20  C   UNL     1       3.548  -4.117   0.502  1.00  0.00     0.052 A 
ATOM     21  C   UNL     1       3.049  -5.411   0.373  1.00  0.00     0.019 A 
BRANCH  20  22
ATOM     22  C   UNL     1       4.684  -3.689  -0.262  1.00  0.00     0.099 C 
ATOM     23  N   UNL     1       5.566  -3.271  -0.893  1.00  0.00    -0.192 NA
ENDBRANCH  20  22
ENDBRANCH  15  16
ENDBRANCH  12  15
ENDBRANCH   9  12
ENDBRANCH   3   6
ENDBRANCH   1   2
BRANCH   1  24
ATOM     24  C   UNL     1       3.738   0.729  -1.717  1.00  0.00     0.042 C 
BRANCH  24  25
ATOM     25  C   UNL     1       4.302   1.112  -3.070  1.00  0.00     0.118 C 
BRANCH  25  26
ATOM     26  N   UNL     1       5.560   1.812  -2.936  1.00  0.00    -0.352 N 
ATOM     27  C   UNL     1       6.839   1.349  -3.137  1.00  0.00     0.251 C 
ATOM     28  H   UNL     1       5.490   2.755  -2.662  1.00  0.00     0.163 HD
ATOM     29  O   UNL     1       7.770   1.985  -2.648  1.00  0.00    -0.269 OA
BRANCH  27  30
ATOM     30  C   UNL     1       7.109   0.114  -3.920  1.00  0.00     0.039 A 
ATOM     31  C   UNL     1       8.232  -0.652  -3.591  1.00  0.00     0.014 A 
ATOM     32  C   UNL     1       6.327  -0.263  -5.016  1.00  0.00     0.014 A 
ATOM     33  C   UNL     1       8.549  -1.790  -4.339  1.00  0.00     0.010 A 
ATOM     34  C   UNL     1       6.577  -1.460  -5.688  1.00  0.00     0.010 A 
ATOM     35  C   UNL     1       7.711  -2.222  -5.380  1.00  0.00    -0.014 A 
BRANCH  35  36
ATOM     36  C   UNL     1       8.034  -3.443  -6.167  1.00  0.00     0.031 A 
ATOM     37  C   UNL     1       8.280  -3.355  -7.653  1.00  0.00     0.074 A 
ATOM     38  C   UNL     1       8.089  -4.638  -5.546  1.00  0.00     0.049 A 
ATOM     39  N   UNL     1       8.573  -4.309  -8.502  1.00  0.00    -0.248 NA
ATOM     40  C   UNL     1       8.156  -2.026  -8.275  1.00  0.00     0.031 C 
ATOM     41  C   UNL     1       7.816  -4.863  -4.124  1.00  0.00     0.029 A 
ATOM     42  N   UNL     1       8.396  -5.888  -6.025  1.00  0.00    -0.354 N 
ATOM     43  C   UNL     1       8.664  -3.698  -9.748  1.00  0.00     0.074 A 
ATOM     44  C   UNL     1       8.324  -2.305  -9.559  1.00  0.00     0.031 C 
ATOM     45  C   UNL     1       8.004  -6.161  -3.841  1.00  0.00     0.029 A 
ATOM     46  C   UNL     1       8.362  -6.871  -5.064  1.00  0.00     0.049 A 
ATOM     47  H   UNL     1       8.618  -6.063  -6.968  1.00  0.00     0.167 HD
ATOM     48  C   UNL     1       9.026  -4.238 -10.937  1.00  0.00     0.037 A 
ATOM     49  C   UNL     1       8.584  -8.196  -5.158  1.00  0.00     0.037 A 
ATOM     50  C   UNL     1       9.371  -5.626 -11.115  1.00  0.00     0.049 A 
ATOM     51  C   UNL     1       8.972  -8.778  -6.490  1.00  0.00     0.074 A 
ATOM     52  C   UNL     1       9.792  -6.267 -12.267  1.00  0.00     0.029 A 
ATOM     53  N   UNL     1       9.328  -6.589 -10.117  1.00  0.00    -0.354 N 
ATOM     54  N   UNL     1       9.117  -8.172  -7.645  1.00  0.00    -0.248 NA
ATOM     55  C   UNL     1       9.236 -10.222  -6.531  1.00  0.00     0.031 C 
ATOM     56  C   UNL     1       9.944  -7.628 -11.980  1.00  0.00     0.029 A 
ATOM     57  C   UNL     1       9.687  -7.825 -10.632  1.00  0.00     0.049 A 
ATOM     58  H   UNL     1       9.079  -6.420  -9.179  1.00  0.00     0.167 HD
ATOM     59  C   UNL     1       9.511  -9.157  -8.546  1.00  0.00     0.074 A 
ATOM     60  C   UNL     1       9.604 -10.392  -7.793  1.00  0.00     0.031 C 
ATOM     61  C   UNL     1       9.770  -9.049  -9.873  1.00  0.00     0.037 A 
BRANCH  48  62
ATOM     62  C   UNL     1       9.068  -3.327 -12.138  1.00  0.00     0.058 A 
ATOM     63  C   UNL     1      10.014  -2.294 -12.251  1.00  0.00     0.135 A 
ATOM     64  C   UNL     1       8.175  -3.508 -13.207  1.00  0.00     0.135 A 
ATOM     65  F   UNL     1      10.886  -2.062 -11.256  1.00  0.00    -0.206 F 
ATOM     66  C   UNL     1      10.050  -1.453 -13.359  1.00  0.00     0.059 A 
ATOM     67  C   UNL     1       8.215  -2.701 -14.342  1.00  0.00     0.059 A 
ATOM     68  F   UNL     1       7.249  -4.479 -13.158  1.00  0.00    -0.206 F 
ATOM     69  C   UNL     1       9.146  -1.666 -14.401  1.00  0.00     0.060 A 
BRANCH  69  70
ATOM     70  S   UNL     1       9.210  -0.568 -15.833  1.00  0.00     0.124 S 
ATOM     71  O   UNL     1       8.713   0.682 -15.265  1.00  0.00    -0.237 OA
ATOM     72  O   UNL     1      10.629  -0.587 -16.175  1.00  0.00    -0.237 OA
ATOM     73  O   UNL     1       8.326  -1.212 -16.798  1.00  0.00    -0.744 OA
ENDBRANCH  69  70
ENDBRANCH  48  62
BRANCH  49  74
ATOM     74  C   UNL     1       8.451  -9.056  -3.950  1.00  0.00     0.058 A 
ATOM     75  C   UNL     1       9.566  -9.673  -3.364  1.00  0.00     0.135 A 
ATOM     76  C   UNL     1       7.201  -9.259  -3.343  1.00  0.00     0.135 A 
ATOM     77  F   UNL     1      10.782  -9.518  -3.909  1.00  0.00    -0.206 F 
ATOM     78  C   UNL     1       9.447 -10.472  -2.231  1.00  0.00     0.059 A 
ATOM     79  C   UNL     1       7.061 -10.027  -2.192  1.00  0.00     0.059 A 
ATOM     80  F   UNL     1       6.102  -8.680  -3.852  1.00  0.00    -0.206 F 
ATOM     81  C   UNL     1       8.189 -10.637  -1.647  1.00  0.00     0.060 A 
BRANCH  81  82
ATOM     82  S   UNL     1       8.052 -11.626  -0.143  1.00  0.00     0.124 S 
ATOM     83  O   UNL     1       8.282 -12.972  -0.653  1.00  0.00    -0.237 OA
ATOM     84  O   UNL     1       9.112 -11.066   0.689  1.00  0.00    -0.237 OA
ATOM     85  O   UNL     1       6.694 -11.349   0.317  1.00  0.00    -0.744 OA
ENDBRANCH  81  82
ENDBRANCH  49  74
BRANCH  61  86
ATOM     86  C   UNL     1      10.209 -10.297 -10.594  1.00  0.00     0.058 A 
ATOM     87  C   UNL     1       9.335 -11.374 -10.815  1.00  0.00     0.135 A 
ATOM     88  C   UNL     1      11.517 -10.405 -11.095  1.00  0.00     0.135 A 
ATOM     89  F   UNL     1       8.074 -11.327 -10.355  1.00  0.00    -0.206 F 
ATOM     90  C   UNL     1       9.753 -12.528 -11.469  1.00  0.00     0.059 A 
ATOM     91  C   UNL     1      11.946 -11.535 -11.784  1.00  0.00     0.059 A 
ATOM     92  F   UNL     1      12.393  -9.402 -10.925  1.00  0.00    -0.206 F 
ATOM     93  C   UNL     1      11.062 -12.599 -11.950  1.00  0.00     0.060 A 
BRANCH  93  94
ATOM     94  S   UNL     1      11.588 -14.100 -12.804  1.00  0.00     0.124 S 
ATOM     95  O   UNL     1      11.662 -15.054 -11.703  1.00  0.00    -0.237 OA
ATOM     96  O   UNL     1      10.501 -14.313 -13.755  1.00  0.00    -0.237 OA
ATOM     97  O   UNL     1      12.868 -13.724 -13.396  1.00  0.00    -0.744 OA
ENDBRANCH  93  94
ENDBRANCH  61  86
ENDBRANCH  35  36
ENDBRANCH  27  30
ENDBRANCH  25  26
ENDBRANCH  24  25
ENDBRANCH   1  24
TORSDOF 17
