REMARK SMILES C[NH2+]C[C@H](C)C(=O)N1CCc2cc(C(=O)NCCCNC(=O)c3ccc(-c4c5nc(c(-c6c(F)cc(S(=O)(=O)[O-])cc6F)c6ccc([nH]6)c(-c6c(F)cc(S(=O)(=O)[O-])cc6F)c6nc(c(-c7c(F)cc(S(=O)(=O)[O-])cc7F)c7ccc4[nH]7)C=C6)C=C5)cc3)ccc21
REMARK SMILES IDX 17 1 16 2 14 3 15 4 13 6 8 7 9 8 91 9 10 10 11 11 90 12
REMARK SMILES IDX 12 13 89 14 6 15 7 16 4 17 5 18 3 19 2 20 1 21 18 24 19 25
REMARK SMILES IDX 20 26 21 27 22 29 23 30 24 31 88 32 25 33 87 34 26 35 27 36
REMARK SMILES IDX 28 37 81 38 29 39 86 40 80 41 82 42 30 43 85 44 79 45 78 46
REMARK SMILES IDX 31 48 65 49 44 50 64 51 45 52 48 53 63 54 83 55 46 56 47 57
REMARK SMILES IDX 62 59 84 60 49 61 32 62 33 63 42 64 34 65 35 66 41 67 43 68
REMARK SMILES IDX 36 69 37 70 38 71 39 72 40 73 66 74 67 75 76 76 68 77 69 78
REMARK SMILES IDX 75 79 77 80 70 81 71 82 72 83 73 84 74 85 50 86 51 87 60 88
REMARK SMILES IDX 52 89 53 90 59 91 61 92 54 93 55 94 56 95 57 96 58 97
REMARK H PARENT 16 5 2 22 2 23 20 28 82 47 48 58
REMARK Flexibility Score: inf
ROOT
ATOM      1  C   UNL     1      -0.664   6.201  -3.054  1.00  0.00     0.118 C 
ENDROOT
BRANCH   1   2
ATOM      2  N   UNL     1      -1.936   6.898  -2.951  1.00  0.00    -0.352 N 
ATOM      3  C   UNL     1      -3.106   6.576  -2.306  1.00  0.00     0.251 C 
ATOM      4  O   UNL     1      -4.003   7.418  -2.280  1.00  0.00    -0.269 OA
ATOM      5  H   UNL     1      -1.964   7.757  -3.431  1.00  0.00     0.163 HD
BRANCH   3   6
ATOM      6  C   UNL     1      -3.300   5.283  -1.593  1.00  0.00     0.040 A 
ATOM      7  N   UNL     1      -3.831   1.939   0.829  1.00  0.00    -0.311 N 
ATOM      8  C   UNL     1      -5.065   2.280   1.550  1.00  0.00     0.130 C 
ATOM      9  C   UNL     1      -3.566   2.957  -0.085  1.00  0.00     0.047 A 
ATOM     10  C   UNL     1      -5.406   3.739   1.208  1.00  0.00     0.059 C 
ATOM     11  C   UNL     1      -4.373   4.062   0.175  1.00  0.00    -0.022 A 
ATOM     12  C   UNL     1      -2.774   2.931  -1.206  1.00  0.00     0.027 A 
ATOM     13  C   UNL     1      -4.224   5.245  -0.538  1.00  0.00     0.019 A 
ATOM     14  C   UNL     1      -2.662   4.093  -1.970  1.00  0.00     0.016 A 
BRANCH   7  15
ATOM     15  C   UNL     1      -3.222   0.719   0.991  1.00  0.00     0.235 C 
ATOM     16  O   UNL     1      -3.908  -0.296   1.165  1.00  0.00    -0.274 OA
BRANCH  15  17
ATOM     17  C   UNL     1      -1.700   0.634   1.232  1.00  0.00     0.131 C 
ATOM     18  C   UNL     1      -0.799   0.695   0.004  1.00  0.00     0.024 C 
BRANCH  17  19
ATOM     19  C   UNL     1      -1.163   1.579   2.331  1.00  0.00     0.273 C 
BRANCH  19  20
ATOM     20  N   UNL     1      -1.992   1.838   3.511  1.00  0.00    -0.348 N 
ATOM     21  C   UNL     1      -2.409   0.637   4.219  1.00  0.00     0.330 C 
ATOM     22  H   UNL     1      -1.458   2.421   4.156  1.00  0.00     0.346 HD
ATOM     23  H   UNL     1      -2.842   2.295   3.180  1.00  0.00     0.346 HD
ENDBRANCH  19  20
ENDBRANCH  17  19
ENDBRANCH  15  17
ENDBRANCH   7  15
ENDBRANCH   3   6
ENDBRANCH   1   2
BRANCH   1  24
ATOM     24  C   UNL     1      -0.528   5.473  -4.391  1.00  0.00     0.042 C 
BRANCH  24  25
ATOM     25  C   UNL     1      -0.213   6.403  -5.554  1.00  0.00     0.118 C 
BRANCH  25  26
ATOM     26  N   UNL     1       1.131   6.954  -5.462  1.00  0.00    -0.352 N 
ATOM     27  C   UNL     1       2.180   6.853  -6.344  1.00  0.00     0.251 C 
ATOM     28  H   UNL     1       1.316   7.475  -4.648  1.00  0.00     0.163 HD
ATOM     29  O   UNL     1       3.304   7.190  -5.990  1.00  0.00    -0.269 OA
BRANCH  27  30
ATOM     30  C   UNL     1       1.951   6.325  -7.707  1.00  0.00     0.039 A 
ATOM     31  C   UNL     1       2.877   5.433  -8.256  1.00  0.00     0.014 A 
ATOM     32  C   UNL     1       0.833   6.719  -8.445  1.00  0.00     0.014 A 
ATOM     33  C   UNL     1       2.644   4.883  -9.519  1.00  0.00     0.010 A 
ATOM     34  C   UNL     1       0.562   6.112  -9.666  1.00  0.00     0.010 A 
ATOM     35  C   UNL     1       1.465   5.190 -10.218  1.00  0.00    -0.014 A 
BRANCH  35  36
ATOM     36  C   UNL     1       1.142   4.571 -11.528  1.00  0.00     0.031 A 
ATOM     37  C   UNL     1       0.993   5.442 -12.746  1.00  0.00     0.074 A 
ATOM     38  C   UNL     1       0.881   3.250 -11.598  1.00  0.00     0.049 A 
ATOM     39  N   UNL     1       0.563   5.127 -13.939  1.00  0.00    -0.248 NA
ATOM     40  C   UNL     1       1.347   6.863 -12.592  1.00  0.00     0.031 C 
ATOM     41  C   UNL     1       0.968   2.308 -10.479  1.00  0.00     0.029 A 
ATOM     42  N   UNL     1       0.467   2.472 -12.651  1.00  0.00    -0.354 N 
ATOM     43  C   UNL     1       0.564   6.312 -14.667  1.00  0.00     0.074 A 
ATOM     44  C   UNL     1       1.002   7.359 -13.771  1.00  0.00     0.031 C 
ATOM     45  C   UNL     1       0.630   1.081 -10.908  1.00  0.00     0.029 A 
ATOM     46  C   UNL     1       0.251   1.156 -12.316  1.00  0.00     0.049 A 
ATOM     47  H   UNL     1       0.337   2.824 -13.562  1.00  0.00     0.167 HD
ATOM     48  C   UNL     1       0.240   6.503 -15.968  1.00  0.00     0.037 A 
ATOM     49  C   UNL     1      -0.221   0.130 -13.052  1.00  0.00     0.037 A 
ATOM     50  C   UNL     1      -0.161   5.444 -16.857  1.00  0.00     0.049 A 
ATOM     51  C   UNL     1      -0.595   0.375 -14.491  1.00  0.00     0.074 A 
ATOM     52  C   UNL     1      -0.439   5.521 -18.210  1.00  0.00     0.029 A 
ATOM     53  N   UNL     1      -0.348   4.122 -16.483  1.00  0.00    -0.354 N 
ATOM     54  N   UNL     1      -0.528   1.489 -15.181  1.00  0.00    -0.248 NA
ATOM     55  C   UNL     1      -1.111  -0.772 -15.252  1.00  0.00     0.031 C 
ATOM     56  C   UNL     1      -0.852   4.258 -18.641  1.00  0.00     0.029 A 
ATOM     57  C   UNL     1      -0.767   3.379 -17.573  1.00  0.00     0.049 A 
ATOM     58  H   UNL     1      -0.203   3.764 -15.577  1.00  0.00     0.167 HD
ATOM     59  C   UNL     1      -0.951   1.166 -16.466  1.00  0.00     0.074 A 
ATOM     60  C   UNL     1      -1.274  -0.245 -16.458  1.00  0.00     0.031 C 
ATOM     61  C   UNL     1      -1.056   1.966 -17.555  1.00  0.00     0.037 A 
BRANCH  48  62
ATOM     62  C   UNL     1       0.296   7.904 -16.513  1.00  0.00     0.058 A 
ATOM     63  C   UNL     1       1.512   8.577 -16.709  1.00  0.00     0.135 A 
ATOM     64  C   UNL     1      -0.884   8.559 -16.903  1.00  0.00     0.135 A 
ATOM     65  F   UNL     1       2.670   8.005 -16.341  1.00  0.00    -0.206 F 
ATOM     66  C   UNL     1       1.556   9.857 -17.251  1.00  0.00     0.059 A 
ATOM     67  C   UNL     1      -0.862   9.827 -17.476  1.00  0.00     0.059 A 
ATOM     68  F   UNL     1      -2.075   7.963 -16.737  1.00  0.00    -0.206 F 
ATOM     69  C   UNL     1       0.363  10.473 -17.635  1.00  0.00     0.060 A 
BRANCH  69  70
ATOM     70  S   UNL     1       0.441  12.125 -18.357  1.00  0.00     0.124 S 
ATOM     71  O   UNL     1       0.797  12.934 -17.195  1.00  0.00    -0.237 OA
ATOM     72  O   UNL     1       1.483  11.974 -19.367  1.00  0.00    -0.237 OA
ATOM     73  O   UNL     1      -0.907  12.335 -18.877  1.00  0.00    -0.744 OA
ENDBRANCH  69  70
ENDBRANCH  48  62
BRANCH  49  74
ATOM     74  C   UNL     1      -0.359  -1.224 -12.451  1.00  0.00     0.058 A 
ATOM     75  C   UNL     1       0.459  -2.283 -12.872  1.00  0.00     0.135 A 
ATOM     76  C   UNL     1      -1.309  -1.493 -11.453  1.00  0.00     0.135 A 
ATOM     77  F   UNL     1       1.379  -2.080 -13.828  1.00  0.00    -0.206 F 
ATOM     78  C   UNL     1       0.326  -3.564 -12.345  1.00  0.00     0.059 A 
ATOM     79  C   UNL     1      -1.441  -2.758 -10.889  1.00  0.00     0.059 A 
ATOM     80  F   UNL     1      -2.106  -0.512 -11.000  1.00  0.00    -0.206 F 
ATOM     81  C   UNL     1      -0.628  -3.791 -11.352  1.00  0.00     0.060 A 
BRANCH  81  82
ATOM     82  S   UNL     1      -0.770  -5.451 -10.656  1.00  0.00     0.124 S 
ATOM     83  O   UNL     1      -1.375  -6.183 -11.762  1.00  0.00    -0.237 OA
ATOM     84  O   UNL     1       0.621  -5.777 -10.357  1.00  0.00    -0.237 OA
ATOM     85  O   UNL     1      -1.624  -5.252  -9.488  1.00  0.00    -0.744 OA
ENDBRANCH  81  82
ENDBRANCH  49  74
BRANCH  61  86
ATOM     86  C   UNL     1      -1.479   1.337 -18.853  1.00  0.00     0.058 A 
ATOM     87  C   UNL     1      -2.805   0.946 -19.091  1.00  0.00     0.135 A 
ATOM     88  C   UNL     1      -0.560   1.222 -19.910  1.00  0.00     0.135 A 
ATOM     89  F   UNL     1      -3.720   1.025 -18.113  1.00  0.00    -0.206 F 
ATOM     90  C   UNL     1      -3.205   0.461 -20.333  1.00  0.00     0.059 A 
ATOM     91  C   UNL     1      -0.945   0.769 -21.167  1.00  0.00     0.059 A 
ATOM     92  F   UNL     1       0.720   1.590 -19.735  1.00  0.00    -0.206 F 
ATOM     93  C   UNL     1      -2.270   0.388 -21.368  1.00  0.00     0.060 A 
BRANCH  93  94
ATOM     94  S   UNL     1      -2.823  -0.164 -22.995  1.00  0.00     0.124 S 
ATOM     95  O   UNL     1      -3.044  -1.588 -22.764  1.00  0.00    -0.237 OA
ATOM     96  O   UNL     1      -4.024   0.638 -23.204  1.00  0.00    -0.237 OA
ATOM     97  O   UNL     1      -1.699   0.163 -23.867  1.00  0.00    -0.744 OA
ENDBRANCH  93  94
ENDBRANCH  61  86
ENDBRANCH  35  36
ENDBRANCH  27  30
ENDBRANCH  25  26
ENDBRANCH  24  25
ENDBRANCH   1  24
TORSDOF 17
