REMARK SMILES Cc1ccc(Oc2ccc(NC(=O)CCCC(=O)NCCCNC(=O)c3ccc(-c4c5nc(c(-c6c(F)cc(S(=O)(=O)[O-])cc6F)c6ccc([nH]6)c(-c6c(F)cc(S(=O)(=O)[O-])cc6F)c6nc(c(-c7c(F)cc(S(=O)(=O)[O-])cc7F)c7ccc4[nH]7)C=C6)C=C5)cc3)cc2)cc1C
REMARK SMILES IDX 17 1 18 2 19 3 16 5 15 6 14 7 12 8 11 9 13 11 10 12 7 13
REMARK SMILES IDX 8 14 93 15 9 16 92 17 6 18 5 19 1 20 2 21 3 22 95 23 4 24
REMARK SMILES IDX 94 25 96 26 20 27 21 28 22 29 23 30 24 31 25 33 26 34 27 35
REMARK SMILES IDX 91 36 28 37 90 38 29 39 30 40 31 41 84 42 32 43 89 44 83 45
REMARK SMILES IDX 85 46 33 47 88 48 82 49 81 50 34 52 68 53 47 54 67 55 48 56
REMARK SMILES IDX 51 57 66 58 86 59 49 60 50 61 65 63 87 64 52 65 35 66 36 67
REMARK SMILES IDX 45 68 37 69 38 70 44 71 46 72 39 73 40 74 41 75 42 76 43 77
REMARK SMILES IDX 69 78 70 79 79 80 71 81 72 82 78 83 80 84 73 85 74 86 75 87
REMARK SMILES IDX 76 88 77 89 53 90 54 91 63 92 55 93 56 94 62 95 64 96 57 97
REMARK SMILES IDX 58 98 59 99 60 100 61 101
REMARK H PARENT 19 4 11 10 23 32 85 51 51 62
REMARK Flexibility Score: inf
ROOT
ATOM      1  C   UNL     1      -7.183  -2.127   2.599  1.00  0.00     0.220 C 
ATOM      2  O   UNL     1      -6.869  -3.135   3.250  1.00  0.00    -0.275 OA
ATOM      3  N   UNL     1      -6.796  -0.962   3.162  1.00  0.00    -0.356 N 
ATOM      4  H   UNL     1      -6.380  -1.117   4.041  1.00  0.00     0.163 HD
ENDROOT
BRANCH   1   5
ATOM      5  C   UNL     1      -7.835  -2.333   1.232  1.00  0.00     0.100 C 
BRANCH   5   6
ATOM      6  C   UNL     1      -9.161  -1.695   0.834  1.00  0.00     0.020 C 
BRANCH   6   7
ATOM      7  C   UNL     1      -9.319  -0.197   0.601  1.00  0.00     0.101 C 
BRANCH   7   8
ATOM      8  C   UNL     1      -9.146   0.446  -0.774  1.00  0.00     0.224 C 
ATOM      9  N   UNL     1      -8.015   0.668  -1.488  1.00  0.00    -0.326 N 
ATOM     10  H   UNL     1      -8.222   1.166  -2.311  1.00  0.00     0.169 HD
ATOM     11  O   UNL     1     -10.170   0.893  -1.321  1.00  0.00    -0.275 OA
BRANCH   9  12
ATOM     12  C   UNL     1      -6.639   0.406  -1.411  1.00  0.00     0.041 A 
ATOM     13  C   UNL     1      -3.905  -0.286  -1.478  1.00  0.00     0.127 A 
ATOM     14  C   UNL     1      -4.657  -0.546  -0.349  1.00  0.00     0.049 A 
ATOM     15  C   UNL     1      -4.488   0.361  -2.564  1.00  0.00     0.049 A 
ATOM     16  C   UNL     1      -6.006  -0.186  -0.340  1.00  0.00     0.030 A 
ATOM     17  C   UNL     1      -5.845   0.723  -2.520  1.00  0.00     0.030 A 
BRANCH  13  18
ATOM     18  O   UNL     1      -2.653  -0.825  -1.596  1.00  0.00    -0.457 OA
BRANCH  18  19
ATOM     19  C   UNL     1      -1.603  -0.211  -0.954  1.00  0.00     0.127 A 
ATOM     20  C   UNL     1       2.089   1.547   0.411  1.00  0.00     0.044 C 
ATOM     21  C   UNL     1       0.799   0.887   0.012  1.00  0.00    -0.048 A 
ATOM     22  C   UNL     1      -0.357   1.676  -0.123  1.00  0.00     0.007 A 
ATOM     23  C   UNL     1       0.729  -0.489  -0.277  1.00  0.00    -0.045 A 
ATOM     24  C   UNL     1      -1.552   1.133  -0.603  1.00  0.00     0.047 A 
ATOM     25  C   UNL     1      -0.480  -1.021  -0.755  1.00  0.00     0.050 A 
ATOM     26  C   UNL     1       1.882  -1.431  -0.067  1.00  0.00     0.045 C 
ENDBRANCH  18  19
ENDBRANCH  13  18
ENDBRANCH   9  12
ENDBRANCH   7   8
ENDBRANCH   6   7
ENDBRANCH   5   6
ENDBRANCH   1   5
BRANCH   3  27
ATOM     27  C   UNL     1      -6.816   0.458   2.841  1.00  0.00     0.117 C 
BRANCH  27  28
ATOM     28  C   UNL     1      -7.702   1.243   3.791  1.00  0.00     0.042 C 
BRANCH  28  29
ATOM     29  C   UNL     1      -6.876   2.141   4.685  1.00  0.00     0.118 C 
BRANCH  29  30
ATOM     30  N   UNL     1      -6.376   3.334   4.005  1.00  0.00    -0.352 N 
ATOM     31  C   UNL     1      -6.304   4.614   4.517  1.00  0.00     0.251 C 
ATOM     32  H   UNL     1      -6.057   3.212   3.082  1.00  0.00     0.163 HD
ATOM     33  O   UNL     1      -5.965   5.560   3.813  1.00  0.00    -0.269 OA
BRANCH  31  34
ATOM     34  C   UNL     1      -6.700   4.815   5.926  1.00  0.00     0.039 A 
ATOM     35  C   UNL     1      -7.692   5.745   6.237  1.00  0.00     0.014 A 
ATOM     36  C   UNL     1      -6.203   3.948   6.901  1.00  0.00     0.014 A 
ATOM     37  C   UNL     1      -8.256   5.737   7.515  1.00  0.00     0.010 A 
ATOM     38  C   UNL     1      -6.856   3.856   8.121  1.00  0.00     0.010 A 
ATOM     39  C   UNL     1      -7.883   4.755   8.448  1.00  0.00    -0.014 A 
BRANCH  39  40
ATOM     40  C   UNL     1      -8.525   4.649   9.785  1.00  0.00     0.031 A 
ATOM     41  C   UNL     1      -7.667   4.726  11.022  1.00  0.00     0.074 A 
ATOM     42  C   UNL     1      -9.844   4.390   9.890  1.00  0.00     0.049 A 
ATOM     43  N   UNL     1      -7.994   4.521  12.271  1.00  0.00    -0.248 NA
ATOM     44  C   UNL     1      -6.236   5.017  10.820  1.00  0.00     0.031 C 
ATOM     45  C   UNL     1     -10.771   4.213   8.768  1.00  0.00     0.029 A 
ATOM     46  N   UNL     1     -10.636   4.218  10.998  1.00  0.00    -0.354 N 
ATOM     47  C   UNL     1      -6.808   4.615  12.990  1.00  0.00     0.074 A 
ATOM     48  C   UNL     1      -5.745   4.824  12.034  1.00  0.00     0.031 C 
ATOM     49  C   UNL     1     -12.008   3.997   9.246  1.00  0.00     0.029 A 
ATOM     50  C   UNL     1     -11.959   3.982  10.704  1.00  0.00     0.049 A 
ATOM     51  H   UNL     1     -10.289   4.261  11.918  1.00  0.00     0.167 HD
ATOM     52  C   UNL     1      -6.622   4.574  14.330  1.00  0.00     0.037 A 
ATOM     53  C   UNL     1     -13.012   3.778  11.520  1.00  0.00     0.037 A 
ATOM     54  C   UNL     1      -7.694   4.444  15.279  1.00  0.00     0.049 A 
ATOM     55  C   UNL     1     -12.795   3.804  13.009  1.00  0.00     0.074 A 
ATOM     56  C   UNL     1      -7.629   4.478  16.660  1.00  0.00     0.029 A 
ATOM     57  N   UNL     1      -9.028   4.275  14.942  1.00  0.00    -0.354 N 
ATOM     58  N   UNL     1     -11.675   3.959  13.675  1.00  0.00    -0.248 NA
ATOM     59  C   UNL     1     -13.982   3.636  13.859  1.00  0.00     0.031 C 
ATOM     60  C   UNL     1      -8.925   4.305  17.160  1.00  0.00     0.029 A 
ATOM     61  C   UNL     1      -9.799   4.199  16.089  1.00  0.00     0.049 A 
ATOM     62  H   UNL     1      -9.376   4.218  14.023  1.00  0.00     0.167 HD
ATOM     63  C   UNL     1     -12.025   3.933  15.020  1.00  0.00     0.074 A 
ATOM     64  C   UNL     1     -13.463   3.759  15.073  1.00  0.00     0.031 C 
ATOM     65  C   UNL     1     -11.231   4.042  16.114  1.00  0.00     0.037 A 
BRANCH  52  66
ATOM     66  C   UNL     1      -5.213   4.700  14.839  1.00  0.00     0.058 A 
ATOM     67  C   UNL     1      -4.499   5.905  14.736  1.00  0.00     0.135 A 
ATOM     68  C   UNL     1      -4.568   3.607  15.439  1.00  0.00     0.135 A 
ATOM     69  F   UNL     1      -5.061   6.976  14.152  1.00  0.00    -0.206 F 
ATOM     70  C   UNL     1      -3.183   6.011  15.170  1.00  0.00     0.059 A 
ATOM     71  C   UNL     1      -3.261   3.700  15.910  1.00  0.00     0.059 A 
ATOM     72  F   UNL     1      -5.203   2.431  15.562  1.00  0.00    -0.206 F 
ATOM     73  C   UNL     1      -2.571   4.901  15.753  1.00  0.00     0.060 A 
BRANCH  73  74
ATOM     74  S   UNL     1      -0.860   5.053  16.308  1.00  0.00     0.124 S 
ATOM     75  O   UNL     1      -0.139   5.007  15.039  1.00  0.00    -0.237 OA
ATOM     76  O   UNL     1      -0.864   6.344  16.987  1.00  0.00    -0.237 OA
ATOM     77  O   UNL     1      -0.680   3.892  17.174  1.00  0.00    -0.744 OA
ENDBRANCH  73  74
ENDBRANCH  52  66
BRANCH  53  78
ATOM     78  C   UNL     1     -14.373   3.581  10.951  1.00  0.00     0.058 A 
ATOM     79  C   UNL     1     -15.346   4.586  11.054  1.00  0.00     0.135 A 
ATOM     80  C   UNL     1     -14.725   2.397  10.285  1.00  0.00     0.135 A 
ATOM     81  F   UNL     1     -15.058   5.734  11.686  1.00  0.00    -0.206 F 
ATOM     82  C   UNL     1     -16.625   4.421  10.533  1.00  0.00     0.059 A 
ATOM     83  C   UNL     1     -15.992   2.217   9.735  1.00  0.00     0.059 A 
ATOM     84  F   UNL     1     -13.825   1.412  10.143  1.00  0.00    -0.206 F 
ATOM     85  C   UNL     1     -16.939   3.232   9.874  1.00  0.00     0.060 A 
BRANCH  85  86
ATOM     86  S   UNL     1     -18.588   3.046   9.159  1.00  0.00     0.124 S 
ATOM     87  O   UNL     1     -19.399   2.816  10.348  1.00  0.00    -0.237 OA
ATOM     88  O   UNL     1     -18.780   4.331   8.492  1.00  0.00    -0.237 OA
ATOM     89  O   UNL     1     -18.437   1.902   8.264  1.00  0.00    -0.744 OA
ENDBRANCH  85  86
ENDBRANCH  53  78
BRANCH  65  90
ATOM     90  C   UNL     1     -11.898   4.012  17.458  1.00  0.00     0.058 A 
ATOM     91  C   UNL     1     -12.385   2.819  18.011  1.00  0.00     0.135 A 
ATOM     92  C   UNL     1     -11.992   5.183  18.229  1.00  0.00     0.135 A 
ATOM     93  F   UNL     1     -12.323   1.675  17.311  1.00  0.00    -0.206 F 
ATOM     94  C   UNL     1     -12.960   2.789  19.277  1.00  0.00     0.059 A 
ATOM     95  C   UNL     1     -12.540   5.171  19.506  1.00  0.00     0.059 A 
ATOM     96  F   UNL     1     -11.529   6.348  17.748  1.00  0.00    -0.206 F 
ATOM     97  C   UNL     1     -13.031   3.970  20.018  1.00  0.00     0.060 A 
BRANCH  97  98
ATOM     98  S   UNL     1     -13.741   3.912  21.676  1.00  0.00     0.124 S 
ATOM     99  O   UNL     1     -15.167   3.821  21.382  1.00  0.00    -0.237 OA
ATOM    100  O   UNL     1     -13.131   2.709  22.236  1.00  0.00    -0.237 OA
ATOM    101  O   UNL     1     -13.300   5.167  22.278  1.00  0.00    -0.744 OA
ENDBRANCH  97  98
ENDBRANCH  65  90
ENDBRANCH  39  40
ENDBRANCH  31  34
ENDBRANCH  29  30
ENDBRANCH  28  29
ENDBRANCH  27  28
ENDBRANCH   3  27
TORSDOF 19
