REMARK SMILES Cc1nc(Nc2ccc(F)cc2)nc(OCC(=O)NCCCNC(=O)c2ccc(-c3c4nc(c(-c5c(F)cc(S(=O)(=O)[O-])cc5F)c5ccc([nH]5)c(-c5c(F)cc(S(=O)(=O)[O-])cc5F)c5nc(c(-c6c(F)cc(S(=O)(=O)[O-])cc6F)c6ccc3[nH]6)C=C5)C=C4)cc2)c1CCO
REMARK SMILES IDX 20 1 19 2 17 3 18 4 16 6 15 7 14 8 1 9 2 10 3 11 92 12 4 13
REMARK SMILES IDX 13 14 93 15 94 16 95 17 5 19 6 21 7 22 12 23 8 24 11 25 9 26
REMARK SMILES IDX 10 27 21 28 22 29 23 30 24 31 25 33 26 34 27 35 91 36 28 37
REMARK SMILES IDX 90 38 29 39 30 40 31 41 84 42 32 43 89 44 83 45 85 46 33 47
REMARK SMILES IDX 88 48 82 49 81 50 34 52 68 53 47 54 67 55 48 56 51 57 66 58
REMARK SMILES IDX 86 59 49 60 50 61 65 63 87 64 52 65 35 66 36 67 45 68 37 69
REMARK SMILES IDX 38 70 44 71 46 72 39 73 40 74 41 75 42 76 43 77 69 78 70 79
REMARK SMILES IDX 79 80 71 81 72 82 78 83 80 84 73 85 74 86 75 87 76 88 77 89
REMARK SMILES IDX 53 90 54 91 63 92 55 93 56 94 62 95 64 96 57 97 58 98 59 99
REMARK SMILES IDX 60 100 61 101
REMARK H PARENT 19 5 95 18 5 20 23 32 85 51 51 62
REMARK Flexibility Score: inf
ROOT
ATOM      1  C   UNL     1       2.994  -3.424   2.863  1.00  0.00     0.117 C 
ENDROOT
BRANCH   1   2
ATOM      2  N   UNL     1       1.667  -3.978   2.700  1.00  0.00    -0.353 N 
ATOM      3  C   UNL     1       0.934  -4.110   1.565  1.00  0.00     0.258 C 
ATOM      4  O   UNL     1      -0.172  -4.646   1.659  1.00  0.00    -0.271 OA
ATOM      5  H   UNL     1       1.237  -4.303   3.524  1.00  0.00     0.163 HD
BRANCH   3   6
ATOM      6  C   UNL     1       1.524  -3.674   0.217  1.00  0.00     0.331 C 
BRANCH   6   7
ATOM      7  O   UNL     1       1.794  -2.322  -0.076  1.00  0.00    -0.467 OA
BRANCH   7   8
ATOM      8  C   UNL     1       0.869  -1.327  -0.028  1.00  0.00     0.222 A 
ATOM      9  C   UNL     1      -2.678  -0.048  -0.065  1.00  0.00     0.067 C 
ATOM     10  C   UNL     1      -1.188  -0.214  -0.004  1.00  0.00     0.050 A 
ATOM     11  N   UNL     1      -0.551   0.953   0.184  1.00  0.00    -0.218 NA
ATOM     12  C   UNL     1      -0.508  -1.414  -0.213  1.00  0.00     0.038 A 
ATOM     13  C   UNL     1       0.779   0.978   0.167  1.00  0.00     0.230 A 
ATOM     14  N   UNL     1       1.507  -0.139   0.105  1.00  0.00    -0.177 NA
BRANCH  12  15
ATOM     15  C   UNL     1      -1.246  -2.626  -0.715  1.00  0.00     0.071 C 
BRANCH  15  16
ATOM     16  C   UNL     1      -1.066  -2.917  -2.210  1.00  0.00     0.161 C 
BRANCH  16  17
ATOM     17  O   UNL     1       0.288  -3.087  -2.604  1.00  0.00    -0.396 OA
ATOM     18  H   UNL     1       0.778  -2.267  -2.439  1.00  0.00     0.210 HD
ENDBRANCH  16  17
ENDBRANCH  15  16
ENDBRANCH  12  15
BRANCH  13  19
ATOM     19  N   UNL     1       1.428   2.211   0.072  1.00  0.00    -0.324 N 
ATOM     20  H   UNL     1       2.410   2.185   0.008  1.00  0.00     0.170 HD
BRANCH  19  21
ATOM     21  C   UNL     1       0.835   3.482   0.057  1.00  0.00     0.041 A 
ATOM     22  C   UNL     1      -0.129   3.843   1.013  1.00  0.00     0.029 A 
ATOM     23  C   UNL     1       1.085   4.370  -1.001  1.00  0.00     0.029 A 
ATOM     24  C   UNL     1      -0.821   5.052   0.924  1.00  0.00     0.041 A 
ATOM     25  C   UNL     1       0.377   5.573  -1.106  1.00  0.00     0.041 A 
ATOM     26  C   UNL     1      -0.570   5.901  -0.143  1.00  0.00     0.123 A 
ATOM     27  F   UNL     1      -1.264   7.042  -0.259  1.00  0.00    -0.207 F 
ENDBRANCH  19  21
ENDBRANCH  13  19
ENDBRANCH   7   8
ENDBRANCH   6   7
ENDBRANCH   3   6
ENDBRANCH   1   2
BRANCH   1  28
ATOM     28  C   UNL     1       2.961  -2.066   3.546  1.00  0.00     0.042 C 
BRANCH  28  29
ATOM     29  C   UNL     1       2.190  -2.050   4.863  1.00  0.00     0.118 C 
BRANCH  29  30
ATOM     30  N   UNL     1       2.633  -3.081   5.795  1.00  0.00    -0.352 N 
ATOM     31  C   UNL     1       3.247  -2.972   7.015  1.00  0.00     0.251 C 
ATOM     32  H   UNL     1       2.464  -4.005   5.499  1.00  0.00     0.163 HD
ATOM     33  O   UNL     1       3.721  -3.978   7.545  1.00  0.00    -0.269 OA
BRANCH  31  34
ATOM     34  C   UNL     1       3.356  -1.661   7.681  1.00  0.00     0.039 A 
ATOM     35  C   UNL     1       4.553  -1.321   8.316  1.00  0.00     0.014 A 
ATOM     36  C   UNL     1       2.278  -0.772   7.693  1.00  0.00     0.014 A 
ATOM     37  C   UNL     1       4.687  -0.063   8.904  1.00  0.00     0.010 A 
ATOM     38  C   UNL     1       2.446   0.514   8.193  1.00  0.00     0.010 A 
ATOM     39  C   UNL     1       3.648   0.879   8.814  1.00  0.00    -0.014 A 
BRANCH  39  40
ATOM     40  C   UNL     1       3.803   2.246   9.372  1.00  0.00     0.031 A 
ATOM     41  C   UNL     1       2.904   2.715  10.484  1.00  0.00     0.074 A 
ATOM     42  C   UNL     1       4.725   3.076   8.846  1.00  0.00     0.049 A 
ATOM     43  N   UNL     1       2.869   3.879  11.079  1.00  0.00    -0.248 NA
ATOM     44  C   UNL     1       1.894   1.763  10.976  1.00  0.00     0.031 C 
ATOM     45  C   UNL     1       5.617   2.749   7.731  1.00  0.00     0.029 A 
ATOM     46  N   UNL     1       5.069   4.362   9.178  1.00  0.00    -0.354 N 
ATOM     47  C   UNL     1       1.837   3.801  12.007  1.00  0.00     0.074 A 
ATOM     48  C   UNL     1       1.226   2.500  11.851  1.00  0.00     0.031 C 
ATOM     49  C   UNL     1       6.434   3.790   7.501  1.00  0.00     0.029 A 
ATOM     50  C   UNL     1       6.098   4.872   8.421  1.00  0.00     0.049 A 
ATOM     51  H   UNL     1       4.621   4.872   9.892  1.00  0.00     0.167 HD
ATOM     52  C   UNL     1       1.455   4.717  12.926  1.00  0.00     0.037 A 
ATOM     53  C   UNL     1       6.705   6.074   8.465  1.00  0.00     0.037 A 
ATOM     54  C   UNL     1       2.085   6.002  13.089  1.00  0.00     0.049 A 
ATOM     55  C   UNL     1       6.261   7.077   9.494  1.00  0.00     0.074 A 
ATOM     56  C   UNL     1       1.801   6.986  14.018  1.00  0.00     0.029 A 
ATOM     57  N   UNL     1       3.127   6.479  12.306  1.00  0.00    -0.354 N 
ATOM     58  N   UNL     1       5.315   6.968  10.396  1.00  0.00    -0.248 NA
ATOM     59  C   UNL     1       6.971   8.363   9.518  1.00  0.00     0.031 C 
ATOM     60  C   UNL     1       2.638   8.077  13.768  1.00  0.00     0.029 A 
ATOM     61  C   UNL     1       3.486   7.751  12.721  1.00  0.00     0.049 A 
ATOM     62  H   UNL     1       3.549   5.987  11.565  1.00  0.00     0.167 HD
ATOM     63  C   UNL     1       5.334   8.158  11.114  1.00  0.00     0.074 A 
ATOM     64  C   UNL     1       6.393   8.968  10.547  1.00  0.00     0.031 C 
ATOM     65  C   UNL     1       4.547   8.544  12.149  1.00  0.00     0.037 A 
BRANCH  52  66
ATOM     66  C   UNL     1       0.314   4.361  13.841  1.00  0.00     0.058 A 
ATOM     67  C   UNL     1      -0.909   5.046  13.762  1.00  0.00     0.135 A 
ATOM     68  C   UNL     1       0.449   3.379  14.837  1.00  0.00     0.135 A 
ATOM     69  F   UNL     1      -1.098   5.989  12.825  1.00  0.00    -0.206 F 
ATOM     70  C   UNL     1      -1.951   4.780  14.645  1.00  0.00     0.059 A 
ATOM     71  C   UNL     1      -0.590   3.076  15.712  1.00  0.00     0.059 A 
ATOM     72  F   UNL     1       1.589   2.678  14.944  1.00  0.00    -0.206 F 
ATOM     73  C   UNL     1      -1.782   3.794  15.617  1.00  0.00     0.060 A 
BRANCH  73  74
ATOM     74  S   UNL     1      -3.155   3.441  16.735  1.00  0.00     0.124 S 
ATOM     75  O   UNL     1      -3.199   4.651  17.548  1.00  0.00    -0.237 OA
ATOM     76  O   UNL     1      -4.266   3.256  15.806  1.00  0.00    -0.237 OA
ATOM     77  O   UNL     1      -2.724   2.231  17.430  1.00  0.00    -0.744 OA
ENDBRANCH  73  74
ENDBRANCH  52  66
BRANCH  53  78
ATOM     78  C   UNL     1       7.828   6.365   7.534  1.00  0.00     0.058 A 
ATOM     79  C   UNL     1       7.615   6.512   6.155  1.00  0.00     0.135 A 
ATOM     80  C   UNL     1       9.148   6.450   8.003  1.00  0.00     0.135 A 
ATOM     81  F   UNL     1       6.373   6.426   5.652  1.00  0.00    -0.206 F 
ATOM     82  C   UNL     1       8.671   6.706   5.271  1.00  0.00     0.059 A 
ATOM     83  C   UNL     1      10.219   6.671   7.141  1.00  0.00     0.059 A 
ATOM     84  F   UNL     1       9.402   6.326   9.315  1.00  0.00    -0.206 F 
ATOM     85  C   UNL     1       9.971   6.778   5.774  1.00  0.00     0.060 A 
BRANCH  85  86
ATOM     86  S   UNL     1      11.329   7.004   4.605  1.00  0.00     0.124 S 
ATOM     87  O   UNL     1      11.315   5.731   3.892  1.00  0.00    -0.237 OA
ATOM     88  O   UNL     1      10.883   8.165   3.841  1.00  0.00    -0.237 OA
ATOM     89  O   UNL     1      12.484   7.228   5.468  1.00  0.00    -0.744 OA
ENDBRANCH  85  86
ENDBRANCH  53  78
BRANCH  65  90
ATOM     90  C   UNL     1       4.816   9.889  12.767  1.00  0.00     0.058 A 
ATOM     91  C   UNL     1       5.337   9.979  14.068  1.00  0.00     0.135 A 
ATOM     92  C   UNL     1       4.498  11.085  12.104  1.00  0.00     0.135 A 
ATOM     93  F   UNL     1       5.650   8.866  14.751  1.00  0.00    -0.206 F 
ATOM     94  C   UNL     1       5.520  11.206  14.696  1.00  0.00     0.059 A 
ATOM     95  C   UNL     1       4.703  12.325  12.701  1.00  0.00     0.059 A 
ATOM     96  F   UNL     1       4.006  11.054  10.856  1.00  0.00    -0.206 F 
ATOM     97  C   UNL     1       5.201  12.374  14.003  1.00  0.00     0.060 A 
BRANCH  97  98
ATOM     98  S   UNL     1       5.475  13.959  14.823  1.00  0.00     0.124 S 
ATOM     99  O   UNL     1       4.427  13.957  15.838  1.00  0.00    -0.237 OA
ATOM    100  O   UNL     1       6.840  13.817  15.320  1.00  0.00    -0.237 OA
ATOM    101  O   UNL     1       5.306  14.931  13.747  1.00  0.00    -0.744 OA
ENDBRANCH  97  98
ENDBRANCH  65  90
ENDBRANCH  39  40
ENDBRANCH  31  34
ENDBRANCH  29  30
ENDBRANCH  28  29
ENDBRANCH   1  28
TORSDOF 20
