REMARK SMILES Cc1cnn([C@H]2CC[C@@]([NH3+])(C(=O)NCCCNC(=O)c3ccc(-c4c5nc(c(-c6c(F)cc(S(=O)(=O)[O-])cc6F)c6ccc([nH]6)c(-c6c(F)cc(S(=O)(=O)[O-])cc6F)c6nc(c(-c7c(F)cc(S(=O)(=O)[O-])cc7F)c7ccc4[nH]7)C=C6)C=C5)cc3)C2)c1
REMARK SMILES IDX 16 1 15 2 14 3 13 4 11 5 12 6 9 8 6 9 7 10 86 11 8 12 5 13
REMARK SMILES IDX 1 14 2 15 3 16 87 17 4 18 10 19 17 23 18 24 19 26 20 27
REMARK SMILES IDX 21 28 85 29 22 30 84 31 23 32 24 33 25 34 78 35 26 36 83 37
REMARK SMILES IDX 77 38 79 39 27 40 82 41 76 42 75 43 28 45 62 46 41 47 61 48
REMARK SMILES IDX 42 49 45 50 60 51 80 52 43 53 44 54 59 56 81 57 46 58 29 59
REMARK SMILES IDX 30 60 39 61 31 62 32 63 38 64 40 65 33 66 34 67 35 68 36 69
REMARK SMILES IDX 37 70 63 71 64 72 73 73 65 74 66 75 72 76 74 77 67 78 68 79
REMARK SMILES IDX 69 80 70 81 71 82 47 83 48 84 57 85 49 86 50 87 56 88 58 89
REMARK SMILES IDX 51 90 52 91 53 92 54 93 55 94
REMARK H PARENT 13 7 10 20 10 21 10 22 17 25 79 44 45 55
REMARK Flexibility Score: inf
ROOT
ATOM      1  C   UNL     1       1.733  10.841  -2.757  1.00  0.00     0.118 C 
ENDROOT
BRANCH   1   2
ATOM      2  C   UNL     1       2.589   9.637  -2.667  1.00  0.00     0.042 C 
BRANCH   2   3
ATOM      3  C   UNL     1       2.938   9.420  -1.240  1.00  0.00     0.118 C 
BRANCH   3   4
ATOM      4  N   UNL     1       1.743   9.184  -0.498  1.00  0.00    -0.351 N 
ATOM      5  C   UNL     1       1.456   8.090   0.224  1.00  0.00     0.281 C 
ATOM      6  O   UNL     1       0.466   8.270   0.917  1.00  0.00    -0.268 OA
ATOM      7  H   UNL     1       1.062   9.895  -0.516  1.00  0.00     0.163 HD
BRANCH   5   8
ATOM      8  C   UNL     1       2.440   6.847   0.215  1.00  0.00     0.176 C 
ATOM      9  C   UNL     1       0.969   4.922   0.114  1.00  0.00     0.114 C 
ATOM     10  C   UNL     1       1.588   5.102  -1.292  1.00  0.00     0.034 C 
ATOM     11  C   UNL     1       2.054   5.576   0.996  1.00  0.00     0.106 C 
ATOM     12  C   UNL     1       2.553   6.292  -1.215  1.00  0.00     0.081 C 
BRANCH   9  13
ATOM     13  N   UNL     1      -0.327   5.511   0.453  1.00  0.00    -0.269 N 
ATOM     14  C   UNL     1      -2.349   7.722   2.459  1.00  0.00     0.048 C 
ATOM     15  C   UNL     1      -1.840   6.693   1.538  1.00  0.00    -0.013 A 
ATOM     16  C   UNL     1      -2.369   6.051   0.410  1.00  0.00     0.138 A 
ATOM     17  C   UNL     1      -0.587   6.168   1.623  1.00  0.00     0.112 A 
ATOM     18  N   UNL     1      -1.459   5.305  -0.251  1.00  0.00    -0.181 NA
ENDBRANCH   9  13
BRANCH   8  19
ATOM     19  N   UNL     1       3.715   7.368   0.752  1.00  0.00    -0.345 N 
ATOM     20  H   UNL     1       3.980   8.211   0.242  1.00  0.00     0.345 HD
ATOM     21  H   UNL     1       4.443   6.662   0.645  1.00  0.00     0.345 HD
ATOM     22  H   UNL     1       3.601   7.591   1.741  1.00  0.00     0.345 HD
ENDBRANCH   8  19
ENDBRANCH   5   8
ENDBRANCH   3   4
ENDBRANCH   2   3
ENDBRANCH   1   2
BRANCH   1  23
ATOM     23  N   UNL     1       2.415  12.056  -2.367  1.00  0.00    -0.352 N 
ATOM     24  C   UNL     1       2.594  13.138  -3.204  1.00  0.00     0.251 C 
ATOM     25  H   UNL     1       2.772  12.114  -1.451  1.00  0.00     0.163 HD
ATOM     26  O   UNL     1       3.301  14.071  -2.832  1.00  0.00    -0.269 OA
BRANCH  24  27
ATOM     27  C   UNL     1       1.716  13.116  -4.490  1.00  0.00     0.039 A 
ATOM     28  C   UNL     1       1.536  14.156  -5.300  1.00  0.00     0.014 A 
ATOM     29  C   UNL     1       0.437  12.473  -4.506  1.00  0.00     0.014 A 
ATOM     30  C   UNL     1      -0.148  14.525  -5.615  1.00  0.00     0.010 A 
ATOM     31  C   UNL     1      -0.992  12.627  -5.120  1.00  0.00     0.010 A 
ATOM     32  C   UNL     1      -1.692  13.840  -5.009  1.00  0.00    -0.014 A 
BRANCH  32  33
ATOM     33  C   UNL     1      -3.694  13.598  -4.794  1.00  0.00     0.031 A 
ATOM     34  C   UNL     1      -3.105  12.977  -6.639  1.00  0.00     0.074 A 
ATOM     35  C   UNL     1      -4.983  13.736  -3.431  1.00  0.00     0.049 A 
ATOM     36  N   UNL     1      -2.634  13.799  -7.648  1.00  0.00    -0.248 NA
ATOM     37  C   UNL     1      -2.130  11.670  -7.647  1.00  0.00     0.031 C 
ATOM     38  C   UNL     1      -6.360  13.864  -2.018  1.00  0.00     0.029 A 
ATOM     39  N   UNL     1      -6.798  13.841  -3.595  1.00  0.00    -0.354 N 
ATOM     40  C   UNL     1      -3.025  13.079  -8.856  1.00  0.00     0.074 A 
ATOM     41  C   UNL     1      -2.398  11.850  -8.978  1.00  0.00     0.031 C 
ATOM     42  C   UNL     1      -7.782  13.619  -1.473  1.00  0.00     0.029 A 
ATOM     43  C   UNL     1      -8.155  13.196  -2.726  1.00  0.00     0.049 A 
ATOM     44  H   UNL     1      -7.074  14.395  -4.360  1.00  0.00     0.167 HD
ATOM     45  C   UNL     1      -4.343  13.044  -9.092  1.00  0.00     0.037 A 
ATOM     46  C   UNL     1      -9.407  12.577  -3.041  1.00  0.00     0.037 A 
ATOM     47  C   UNL     1      -4.891  14.126  -8.381  1.00  0.00     0.049 A 
ATOM     48  C   UNL     1      -9.031  12.743  -4.416  1.00  0.00     0.074 A 
ATOM     49  C   UNL     1      -4.436  15.424  -8.262  1.00  0.00     0.029 A 
ATOM     50  N   UNL     1      -5.536  13.822  -7.235  1.00  0.00    -0.354 N 
ATOM     51  N   UNL     1      -8.968  13.935  -4.971  1.00  0.00    -0.248 NA
ATOM     52  C   UNL     1      -8.121  11.690  -4.830  1.00  0.00     0.031 C 
ATOM     53  C   UNL     1      -5.061  15.969  -7.154  1.00  0.00     0.029 A 
ATOM     54  C   UNL     1      -5.813  14.971  -6.582  1.00  0.00     0.049 A 
ATOM     55  H   UNL     1      -5.766  12.915  -6.927  1.00  0.00     0.167 HD
ATOM     56  C   UNL     1      -7.748  13.928  -5.639  1.00  0.00     0.074 A 
ATOM     57  C   UNL     1      -7.347  12.448  -5.604  1.00  0.00     0.031 C 
ATOM     58  C   UNL     1      -6.878  15.033  -5.669  1.00  0.00     0.037 A 
BRANCH  45  59
ATOM     59  C   UNL     1      -5.106  11.896  -9.611  1.00  0.00     0.058 A 
ATOM     60  C   UNL     1      -6.095  12.306 -10.482  1.00  0.00     0.135 A 
ATOM     61  C   UNL     1      -5.033  10.527  -9.263  1.00  0.00     0.135 A 
ATOM     62  F   UNL     1      -6.081  13.574 -10.925  1.00  0.00    -0.206 F 
ATOM     63  C   UNL     1      -7.063  11.430 -10.916  1.00  0.00     0.059 A 
ATOM     64  C   UNL     1      -5.930   9.607  -9.782  1.00  0.00     0.059 A 
ATOM     65  F   UNL     1      -4.082  10.039  -8.449  1.00  0.00    -0.206 F 
ATOM     66  C   UNL     1      -6.941  10.069 -10.621  1.00  0.00     0.060 A 
BRANCH  66  67
ATOM     67  S   UNL     1      -8.054   8.901 -11.448  1.00  0.00     0.124 S 
ATOM     68  O   UNL     1      -9.361   9.327 -10.966  1.00  0.00    -0.237 OA
ATOM     69  O   UNL     1      -7.778   9.168 -12.857  1.00  0.00    -0.237 OA
ATOM     70  O   UNL     1      -7.594   7.600 -10.970  1.00  0.00    -0.744 OA
ENDBRANCH  66  67
ENDBRANCH  45  59
BRANCH  46  71
ATOM     71  C   UNL     1     -10.077  11.272  -2.369  1.00  0.00     0.058 A 
ATOM     72  C   UNL     1     -11.450  10.871  -2.339  1.00  0.00     0.135 A 
ATOM     73  C   UNL     1      -9.224  10.261  -1.866  1.00  0.00     0.135 A 
ATOM     74  F   UNL     1     -12.397  11.687  -2.828  1.00  0.00    -0.206 F 
ATOM     75  C   UNL     1     -11.907   9.591  -1.861  1.00  0.00     0.059 A 
ATOM     76  C   UNL     1      -9.636   8.958  -1.473  1.00  0.00     0.059 A 
ATOM     77  F   UNL     1      -7.908  10.504  -1.821  1.00  0.00    -0.206 F 
ATOM     78  C   UNL     1     -10.980   8.605  -1.514  1.00  0.00     0.060 A 
BRANCH  78  79
ATOM     79  S   UNL     1     -11.509   6.861  -1.241  1.00  0.00     0.124 S 
ATOM     80  O   UNL     1     -12.401   6.976  -0.091  1.00  0.00    -0.237 OA
ATOM     81  O   UNL     1     -12.156   6.520  -2.504  1.00  0.00    -0.237 OA
ATOM     82  O   UNL     1     -10.257   6.155  -0.982  1.00  0.00    -0.744 OA
ENDBRANCH  78  79
ENDBRANCH  46  71
BRANCH  58  83
ATOM     83  C   UNL     1      -7.118  16.418  -4.972  1.00  0.00     0.058 A 
ATOM     84  C   UNL     1      -6.891  16.869  -3.632  1.00  0.00     0.135 A 
ATOM     85  C   UNL     1      -7.676  17.372  -5.793  1.00  0.00     0.135 A 
ATOM     86  F   UNL     1      -6.078  16.240  -2.778  1.00  0.00    -0.206 F 
ATOM     87  C   UNL     1      -7.526  17.976  -3.077  1.00  0.00     0.059 A 
ATOM     88  C   UNL     1      -8.141  18.591  -5.307  1.00  0.00     0.059 A 
ATOM     89  F   UNL     1      -7.717  17.147  -7.112  1.00  0.00    -0.206 F 
ATOM     90  C   UNL     1      -8.092  18.883  -3.945  1.00  0.00     0.060 A 
BRANCH  90  91
ATOM     91  S   UNL     1      -8.598  20.504  -3.314  1.00  0.00     0.124 S 
ATOM     92  O   UNL     1      -9.665  20.164  -2.380  1.00  0.00    -0.237 OA
ATOM     93  O   UNL     1      -7.368  21.002  -2.703  1.00  0.00    -0.237 OA
ATOM     94  O   UNL     1      -9.017  21.216  -4.517  1.00  0.00    -0.744 OA
ENDBRANCH  90  91
ENDBRANCH  58  83
ENDBRANCH  32  33
ENDBRANCH  24  27
ENDBRANCH   1  23
TORSDOF 15
