REMARK SMILES CCc1c(C(=O)NCC(=O)NCCCNC(=O)c2ccc(-c3c4nc(c(-c5c(F)cc(S(=O)(=O)[O-])cc5F)c5ccc([nH]5)c(-c5c(F)cc(S(=O)(=O)[O-])cc5F)c5nc(c(-c6c(F)cc(S(=O)(=O)[O-])cc6F)c6ccc3[nH]6)C=C5)C=C4)cc2)nnn1-c1ccc(C)cc1
REMARK SMILES IDX 13 1 12 2 11 3 9 4 10 5 8 7 7 8 5 9 6 10 4 12 3 13 86 14
REMARK SMILES IDX 84 15 85 16 2 17 1 18 87 19 88 20 93 21 89 22 92 23 90 24
REMARK SMILES IDX 91 25 14 26 15 27 16 28 17 30 18 31 19 32 83 33 20 34 82 35
REMARK SMILES IDX 21 36 22 37 23 38 76 39 24 40 81 41 75 42 77 43 25 44 80 45
REMARK SMILES IDX 74 46 73 47 26 49 60 50 39 51 59 52 40 53 43 54 58 55 78 56
REMARK SMILES IDX 41 57 42 58 57 60 79 61 44 62 27 63 28 64 37 65 29 66 30 67
REMARK SMILES IDX 36 68 38 69 31 70 32 71 33 72 34 73 35 74 61 75 62 76 71 77
REMARK SMILES IDX 63 78 64 79 70 80 72 81 65 82 66 83 67 84 68 85 69 86 45 87
REMARK SMILES IDX 46 88 55 89 47 90 48 91 54 92 56 93 49 94 50 95 51 96 52 97
REMARK SMILES IDX 53 98
REMARK H PARENT 11 6 7 11 15 29 77 48 43 59
REMARK Flexibility Score: inf
ROOT
ATOM      1  C   UNL     1      -2.405   1.619   3.469  1.00  0.00     0.042 C 
ENDROOT
BRANCH   1   2
ATOM      2  C   UNL     1      -2.193   0.529   2.421  1.00  0.00     0.117 C 
BRANCH   2   3
ATOM      3  N   UNL     1      -2.530   0.929   1.072  1.00  0.00    -0.355 N 
ATOM      4  C   UNL     1      -1.775   1.497   0.096  1.00  0.00     0.239 C 
ATOM      5  O   UNL     1      -2.270   1.537  -1.035  1.00  0.00    -0.273 OA
ATOM      6  H   UNL     1      -3.467   0.761   0.818  1.00  0.00     0.163 HD
BRANCH   4   7
ATOM      7  C   UNL     1      -0.304   1.892   0.283  1.00  0.00     0.216 C 
BRANCH   7   8
ATOM      8  N   UNL     1       0.197   2.434   1.526  1.00  0.00    -0.342 N 
ATOM      9  C   UNL     1       0.926   1.995   2.596  1.00  0.00     0.274 C 
ATOM     10  O   UNL     1       1.268   2.907   3.359  1.00  0.00    -0.267 OA
ATOM     11  H   UNL     1      -0.056   3.380   1.631  1.00  0.00     0.164 HD
BRANCH   9  12
ATOM     12  C   UNL     1       1.220   0.600   2.958  1.00  0.00     0.174 A 
ATOM     13  C   UNL     1       1.273  -0.644   2.318  1.00  0.00     0.077 A 
ATOM     14  N   UNL     1       1.531  -1.543   3.358  1.00  0.00    -0.217 N 
ATOM     15  N   UNL     1       1.399   0.377   4.314  1.00  0.00    -0.124 NA
ATOM     16  N   UNL     1       1.468  -0.916   4.544  1.00  0.00    -0.061 NA
BRANCH  13  17
ATOM     17  C   UNL     1       0.947  -1.126   0.941  1.00  0.00     0.055 C 
ATOM     18  C   UNL     1       1.979  -0.734  -0.103  1.00  0.00     0.011 C 
ENDBRANCH  13  17
BRANCH  14  19
ATOM     19  C   UNL     1       1.741  -2.940   3.308  1.00  0.00     0.067 A 
ATOM     20  C   UNL     1       1.129  -3.764   4.260  1.00  0.00     0.029 A 
ATOM     21  C   UNL     1       2.536  -3.499   2.304  1.00  0.00     0.029 A 
ATOM     22  C   UNL     1       1.241  -5.151   4.142  1.00  0.00     0.005 A 
ATOM     23  C   UNL     1       2.662  -4.883   2.205  1.00  0.00     0.005 A 
ATOM     24  C   UNL     1       1.996  -5.720   3.107  1.00  0.00    -0.051 A 
ATOM     25  C   UNL     1       2.079  -7.210   2.967  1.00  0.00     0.044 C 
ENDBRANCH  14  19
ENDBRANCH   9  12
ENDBRANCH   7   8
ENDBRANCH   4   7
ENDBRANCH   2   3
ENDBRANCH   1   2
BRANCH   1  26
ATOM     26  C   UNL     1      -3.874   1.803   3.789  1.00  0.00     0.118 C 
BRANCH  26  27
ATOM     27  N   UNL     1      -4.475   0.624   4.442  1.00  0.00    -0.352 N 
ATOM     28  C   UNL     1      -5.805   0.375   4.733  1.00  0.00     0.251 C 
ATOM     29  H   UNL     1      -3.842  -0.083   4.706  1.00  0.00     0.163 HD
ATOM     30  O   UNL     1      -6.115  -0.474   5.578  1.00  0.00    -0.269 OA
BRANCH  28  31
ATOM     31  C   UNL     1      -6.838   1.132   4.014  1.00  0.00     0.039 A 
ATOM     32  C   UNL     1      -8.031   1.583   4.584  1.00  0.00     0.014 A 
ATOM     33  C   UNL     1      -6.516   1.472   2.712  1.00  0.00     0.014 A 
ATOM     34  C   UNL     1      -8.854   2.400   3.809  1.00  0.00     0.010 A 
ATOM     35  C   UNL     1      -7.075   2.586   2.180  1.00  0.00     0.010 A 
ATOM     36  C   UNL     1      -8.351   2.888   2.594  1.00  0.00    -0.014 A 
BRANCH  36  37
ATOM     37  C   UNL     1      -9.090   3.727   1.674  1.00  0.00     0.031 A 
ATOM     38  C   UNL     1      -9.475   5.037   2.227  1.00  0.00     0.074 A 
ATOM     39  C   UNL     1      -9.199   3.436   0.357  1.00  0.00     0.049 A 
ATOM     40  N   UNL     1     -10.639   5.373   2.663  1.00  0.00    -0.248 NA
ATOM     41  C   UNL     1      -8.420   6.017   2.515  1.00  0.00     0.031 C 
ATOM     42  C   UNL     1      -8.586   2.355  -0.430  1.00  0.00     0.029 A 
ATOM     43  N   UNL     1      -9.871   4.137  -0.590  1.00  0.00    -0.354 N 
ATOM     44  C   UNL     1     -10.526   6.693   3.076  1.00  0.00     0.074 A 
ATOM     45  C   UNL     1      -9.113   6.957   3.164  1.00  0.00     0.031 C 
ATOM     46  C   UNL     1      -8.755   2.597  -1.751  1.00  0.00     0.029 A 
ATOM     47  C   UNL     1      -9.622   3.750  -1.902  1.00  0.00     0.049 A 
ATOM     48  H   UNL     1     -10.491   4.868  -0.365  1.00  0.00     0.167 HD
ATOM     49  C   UNL     1     -11.615   7.510   3.103  1.00  0.00     0.037 A 
ATOM     50  C   UNL     1     -10.094   4.368  -3.016  1.00  0.00     0.037 A 
ATOM     51  C   UNL     1     -12.824   6.749   2.878  1.00  0.00     0.049 A 
ATOM     52  C   UNL     1     -11.300   5.138  -2.583  1.00  0.00     0.074 A 
ATOM     53  C   UNL     1     -13.462   5.731   3.561  1.00  0.00     0.029 A 
ATOM     54  N   UNL     1     -13.313   6.702   1.591  1.00  0.00    -0.354 N 
ATOM     55  N   UNL     1     -12.392   4.568  -2.141  1.00  0.00    -0.248 NA
ATOM     56  C   UNL     1     -11.102   6.513  -2.146  1.00  0.00     0.031 C 
ATOM     57  C   UNL     1     -13.913   4.835   2.547  1.00  0.00     0.029 A 
ATOM     58  C   UNL     1     -13.606   5.391   1.303  1.00  0.00     0.049 A 
ATOM     59  H   UNL     1     -13.431   7.470   0.986  1.00  0.00     0.167 HD
ATOM     60  C   UNL     1     -12.794   5.340  -1.057  1.00  0.00     0.074 A 
ATOM     61  C   UNL     1     -11.995   6.563  -1.151  1.00  0.00     0.031 C 
ATOM     62  C   UNL     1     -13.508   4.804  -0.020  1.00  0.00     0.037 A 
BRANCH  49  63
ATOM     63  C   UNL     1     -11.595   9.013   3.004  1.00  0.00     0.058 A 
ATOM     64  C   UNL     1     -12.792   9.725   3.230  1.00  0.00     0.135 A 
ATOM     65  C   UNL     1     -10.534   9.764   2.456  1.00  0.00     0.135 A 
ATOM     66  F   UNL     1     -13.863   9.115   3.764  1.00  0.00    -0.206 F 
ATOM     67  C   UNL     1     -12.951  11.058   2.857  1.00  0.00     0.059 A 
ATOM     68  C   UNL     1     -10.654  11.110   2.126  1.00  0.00     0.059 A 
ATOM     69  F   UNL     1      -9.361   9.213   2.124  1.00  0.00    -0.206 F 
ATOM     70  C   UNL     1     -11.879  11.736   2.287  1.00  0.00     0.060 A 
BRANCH  70  71
ATOM     71  S   UNL     1     -12.120  13.420   1.698  1.00  0.00     0.124 S 
ATOM     72  O   UNL     1     -13.025  13.209   0.574  1.00  0.00    -0.237 OA
ATOM     73  O   UNL     1     -12.696  14.070   2.871  1.00  0.00    -0.237 OA
ATOM     74  O   UNL     1     -10.769  13.850   1.349  1.00  0.00    -0.744 OA
ENDBRANCH  70  71
ENDBRANCH  49  63
BRANCH  50  75
ATOM     75  C   UNL     1      -9.343   4.656  -4.271  1.00  0.00     0.058 A 
ATOM     76  C   UNL     1      -9.986   5.168  -5.414  1.00  0.00     0.135 A 
ATOM     77  C   UNL     1      -7.933   4.704  -4.287  1.00  0.00     0.135 A 
ATOM     78  F   UNL     1     -11.326   5.176  -5.485  1.00  0.00    -0.206 F 
ATOM     79  C   UNL     1      -9.278   5.746  -6.477  1.00  0.00     0.059 A 
ATOM     80  C   UNL     1      -7.207   5.268  -5.336  1.00  0.00     0.059 A 
ATOM     81  F   UNL     1      -7.214   4.288  -3.234  1.00  0.00    -0.206 F 
ATOM     82  C   UNL     1      -7.886   5.815  -6.416  1.00  0.00     0.060 A 
BRANCH  82  83
ATOM     83  S   UNL     1      -6.976   6.737  -7.681  1.00  0.00     0.124 S 
ATOM     84  O   UNL     1      -7.116   5.873  -8.847  1.00  0.00    -0.237 OA
ATOM     85  O   UNL     1      -7.708   7.999  -7.730  1.00  0.00    -0.237 OA
ATOM     86  O   UNL     1      -5.626   6.827  -7.129  1.00  0.00    -0.744 OA
ENDBRANCH  82  83
ENDBRANCH  50  75
BRANCH  62  87
ATOM     87  C   UNL     1     -14.058   3.403  -0.175  1.00  0.00     0.058 A 
ATOM     88  C   UNL     1     -13.266   2.246  -0.304  1.00  0.00     0.135 A 
ATOM     89  C   UNL     1     -15.437   3.206  -0.007  1.00  0.00     0.135 A 
ATOM     90  F   UNL     1     -11.932   2.328  -0.361  1.00  0.00    -0.206 F 
ATOM     91  C   UNL     1     -13.819   0.963  -0.309  1.00  0.00     0.059 A 
ATOM     92  C   UNL     1     -16.008   1.935   0.022  1.00  0.00     0.059 A 
ATOM     93  F   UNL     1     -16.245   4.261   0.190  1.00  0.00    -0.206 F 
ATOM     94  C   UNL     1     -15.194   0.817  -0.144  1.00  0.00     0.060 A 
BRANCH  94  95
ATOM     95  S   UNL     1     -15.904  -0.843  -0.087  1.00  0.00     0.124 S 
ATOM     96  O   UNL     1     -15.782  -1.276  -1.475  1.00  0.00    -0.237 OA
ATOM     97  O   UNL     1     -15.038  -1.528   0.868  1.00  0.00    -0.237 OA
ATOM     98  O   UNL     1     -17.270  -0.614   0.377  1.00  0.00    -0.744 OA
ENDBRANCH  94  95
ENDBRANCH  62  87
ENDBRANCH  36  37
ENDBRANCH  28  31
ENDBRANCH  26  27
ENDBRANCH   1  26
TORSDOF 17
