REMARK SMILES O=C(NCCCNC(=O)c1cc2ncoc2cn1)c1ccc(-c2c3nc(c(-c4c(F)cc(S(=O)(=O)[O-])cc4F)c4ccc([nH]4)c(-c4c(F)cc(S(=O)(=O)[O-])cc4F)c4nc(c(-c5c(F)cc(S(=O)(=O)[O-])cc5F)c5ccc2[nH]5)C=C4)C=C3)cc1
REMARK SMILES IDX 1 1 2 2 3 3 19 5 20 6 84 7 21 8 83 9 22 10 23 11 24 12 77 13
REMARK SMILES IDX 25 14 82 15 76 16 78 17 26 18 81 19 75 20 74 21 27 23 61 24
REMARK SMILES IDX 40 25 60 26 41 27 44 28 59 29 79 30 42 31 43 32 58 34 80 35
REMARK SMILES IDX 45 36 28 37 29 38 38 39 30 40 31 41 37 42 39 43 32 44 33 45
REMARK SMILES IDX 34 46 35 47 36 48 62 49 63 50 72 51 64 52 65 53 71 54 73 55
REMARK SMILES IDX 66 56 67 57 68 58 69 59 70 60 46 61 47 62 56 63 48 64 49 65
REMARK SMILES IDX 55 66 57 67 50 68 51 69 52 70 53 71 54 72 4 73 5 74 6 75
REMARK SMILES IDX 7 76 8 77 9 79 10 80 11 81 18 82 12 83 17 84 13 85 16 86
REMARK SMILES IDX 14 87 15 88
REMARK H PARENT 3 4 78 22 44 33 7 78
REMARK Flexibility Score: inf
ROOT
ATOM      1  O   UNL     1       1.213  -0.526  -0.036  1.00  0.00    -0.269 OA
ATOM      2  C   UNL     1       2.286   0.013  -0.179  1.00  0.00     0.251 C 
ATOM      3  N   UNL     1       2.978  -0.029  -1.393  1.00  0.00    -0.352 N 
ATOM      4  H   UNL     1       2.446  -0.275  -2.183  1.00  0.00     0.163 HD
ENDROOT
BRANCH   2   5
ATOM      5  C   UNL     1       2.927   0.760   0.922  1.00  0.00     0.039 A 
ATOM      6  C   UNL     1       3.102   0.240   2.206  1.00  0.00     0.014 A 
ATOM      7  C   UNL     1       3.528   1.946   0.546  1.00  0.00     0.014 A 
ATOM      8  C   UNL     1       4.007   0.877   3.059  1.00  0.00     0.010 A 
ATOM      9  C   UNL     1       4.622   2.349   1.251  1.00  0.00     0.010 A 
ATOM     10  C   UNL     1       4.806   1.917   2.555  1.00  0.00    -0.014 A 
BRANCH  10  11
ATOM     11  C   UNL     1       5.881   2.545   3.322  1.00  0.00     0.031 A 
ATOM     12  C   UNL     1       6.749   1.617   4.096  1.00  0.00     0.074 A 
ATOM     13  C   UNL     1       6.192   3.859   3.203  1.00  0.00     0.049 A 
ATOM     14  N   UNL     1       6.775   1.464   5.379  1.00  0.00    -0.248 NA
ATOM     15  C   UNL     1       7.582   0.646   3.370  1.00  0.00     0.031 C 
ATOM     16  C   UNL     1       5.625   4.874   2.298  1.00  0.00     0.029 A 
ATOM     17  N   UNL     1       7.183   4.558   3.817  1.00  0.00    -0.354 N 
ATOM     18  C   UNL     1       7.793   0.553   5.640  1.00  0.00     0.074 A 
ATOM     19  C   UNL     1       8.113  -0.057   4.375  1.00  0.00     0.031 C 
ATOM     20  C   UNL     1       6.442   5.945   2.229  1.00  0.00     0.029 A 
ATOM     21  C   UNL     1       7.457   5.798   3.249  1.00  0.00     0.049 A 
ATOM     22  H   UNL     1       7.668   4.214   4.601  1.00  0.00     0.167 HD
ATOM     23  C   UNL     1       8.448   0.550   6.837  1.00  0.00     0.037 A 
ATOM     24  C   UNL     1       8.432   6.668   3.605  1.00  0.00     0.037 A 
ATOM     25  C   UNL     1       7.745   1.345   7.814  1.00  0.00     0.049 A 
ATOM     26  C   UNL     1       8.796   6.330   5.004  1.00  0.00     0.074 A 
ATOM     27  C   UNL     1       6.478   1.302   8.365  1.00  0.00     0.029 A 
ATOM     28  N   UNL     1       8.219   2.612   8.065  1.00  0.00    -0.354 N 
ATOM     29  N   UNL     1       7.983   6.475   6.017  1.00  0.00    -0.248 NA
ATOM     30  C   UNL     1       9.883   5.386   5.208  1.00  0.00     0.031 C 
ATOM     31  C   UNL     1       6.076   2.666   8.466  1.00  0.00     0.029 A 
ATOM     32  C   UNL     1       7.143   3.465   8.050  1.00  0.00     0.049 A 
ATOM     33  H   UNL     1       9.157   2.861   8.226  1.00  0.00     0.167 HD
ATOM     34  C   UNL     1       8.191   5.350   6.803  1.00  0.00     0.074 A 
ATOM     35  C   UNL     1       9.435   4.766   6.304  1.00  0.00     0.031 C 
ATOM     36  C   UNL     1       7.197   4.838   7.589  1.00  0.00     0.037 A 
BRANCH  23  37
ATOM     37  C   UNL     1       9.887   0.139   7.035  1.00  0.00     0.058 A 
ATOM     38  C   UNL     1      10.390  -0.011   8.345  1.00  0.00     0.135 A 
ATOM     39  C   UNL     1      10.857   0.161   6.009  1.00  0.00     0.135 A 
ATOM     40  F   UNL     1       9.558  -0.039   9.398  1.00  0.00    -0.206 F 
ATOM     41  C   UNL     1      11.758  -0.057   8.620  1.00  0.00     0.059 A 
ATOM     42  C   UNL     1      12.222   0.060   6.256  1.00  0.00     0.059 A 
ATOM     43  F   UNL     1      10.538   0.383   4.729  1.00  0.00    -0.206 F 
ATOM     44  C   UNL     1      12.666  -0.004   7.567  1.00  0.00     0.060 A 
BRANCH  44  45
ATOM     45  S   UNL     1      14.430   0.056   7.924  1.00  0.00     0.124 S 
ATOM     46  O   UNL     1      14.555   1.366   8.553  1.00  0.00    -0.237 OA
ATOM     47  O   UNL     1      14.599  -1.096   8.804  1.00  0.00    -0.237 OA
ATOM     48  O   UNL     1      15.044  -0.074   6.606  1.00  0.00    -0.744 OA
ENDBRANCH  44  45
ENDBRANCH  23  37
BRANCH  24  49
ATOM     49  C   UNL     1       9.255   7.534   2.721  1.00  0.00     0.058 A 
ATOM     50  C   UNL     1      10.104   8.516   3.261  1.00  0.00     0.135 A 
ATOM     51  C   UNL     1       9.448   7.231   1.356  1.00  0.00     0.135 A 
ATOM     52  F   UNL     1       9.995   8.864   4.552  1.00  0.00    -0.206 F 
ATOM     53  C   UNL     1      11.130   9.107   2.516  1.00  0.00     0.059 A 
ATOM     54  C   UNL     1      10.458   7.815   0.591  1.00  0.00     0.059 A 
ATOM     55  F   UNL     1       8.720   6.283   0.748  1.00  0.00    -0.206 F 
ATOM     56  C   UNL     1      11.318   8.727   1.188  1.00  0.00     0.060 A 
BRANCH  56  57
ATOM     57  S   UNL     1      12.768   9.333   0.292  1.00  0.00     0.124 S 
ATOM     58  O   UNL     1      12.473  10.756   0.163  1.00  0.00    -0.237 OA
ATOM     59  O   UNL     1      13.856   8.988   1.201  1.00  0.00    -0.237 OA
ATOM     60  O   UNL     1      12.740   8.574  -0.956  1.00  0.00    -0.744 OA
ENDBRANCH  56  57
ENDBRANCH  24  49
BRANCH  36  61
ATOM     61  C   UNL     1       5.955   5.666   7.819  1.00  0.00     0.058 A 
ATOM     62  C   UNL     1       5.025   6.003   6.819  1.00  0.00     0.135 A 
ATOM     63  C   UNL     1       5.600   5.965   9.143  1.00  0.00     0.135 A 
ATOM     64  F   UNL     1       5.236   5.670   5.539  1.00  0.00    -0.206 F 
ATOM     65  C   UNL     1       3.811   6.628   7.119  1.00  0.00     0.059 A 
ATOM     66  C   UNL     1       4.384   6.561   9.469  1.00  0.00     0.059 A 
ATOM     67  F   UNL     1       6.417   5.618  10.151  1.00  0.00    -0.206 F 
ATOM     68  C   UNL     1       3.495   6.896   8.450  1.00  0.00     0.060 A 
BRANCH  68  69
ATOM     69  S   UNL     1       1.886   7.615   8.846  1.00  0.00     0.124 S 
ATOM     70  O   UNL     1       2.015   8.970   8.319  1.00  0.00    -0.237 OA
ATOM     71  O   UNL     1       0.962   6.741   8.128  1.00  0.00    -0.237 OA
ATOM     72  O   UNL     1       1.816   7.517  10.302  1.00  0.00    -0.744 OA
ENDBRANCH  68  69
ENDBRANCH  36  61
ENDBRANCH  10  11
ENDBRANCH   2   5
BRANCH   3  73
ATOM     73  C   UNL     1       4.404   0.250  -1.636  1.00  0.00     0.118 C 
BRANCH  73  74
ATOM     74  C   UNL     1       4.800   0.197  -3.101  1.00  0.00     0.042 C 
BRANCH  74  75
ATOM     75  C   UNL     1       4.188   1.343  -3.911  1.00  0.00     0.118 C 
BRANCH  75  76
ATOM     76  N   UNL     1       4.848   2.627  -3.698  1.00  0.00    -0.351 N 
ATOM     77  C   UNL     1       5.812   3.262  -4.454  1.00  0.00     0.269 C 
ATOM     78  H   UNL     1       4.561   3.115  -2.892  1.00  0.00     0.163 HD
ATOM     79  O   UNL     1       6.301   4.317  -4.058  1.00  0.00    -0.268 OA
BRANCH  77  80
ATOM     80  C   UNL     1       6.303   2.652  -5.722  1.00  0.00     0.130 A 
ATOM     81  C   UNL     1       7.677   2.612  -5.940  1.00  0.00     0.066 A 
ATOM     82  N   UNL     1       5.357   2.130  -6.561  1.00  0.00    -0.247 NA
ATOM     83  C   UNL     1       8.070   1.880  -7.059  1.00  0.00     0.113 A 
ATOM     84  C   UNL     1       5.752   1.450  -7.661  1.00  0.00     0.161 A 
ATOM     85  N   UNL     1       9.316   1.555  -7.537  1.00  0.00    -0.216 NA
ATOM     86  C   UNL     1       7.105   1.313  -7.878  1.00  0.00     0.172 A 
ATOM     87  C   UNL     1       9.057   0.809  -8.589  1.00  0.00     0.309 A 
ATOM     88  O   UNL     1       7.736   0.622  -8.869  1.00  0.00    -0.442 OA
ENDBRANCH  77  80
ENDBRANCH  75  76
ENDBRANCH  74  75
ENDBRANCH  73  74
ENDBRANCH   3  73
TORSDOF 13
