REMARK SMILES CC(C)C[C@H](NC(N)=O)C(=O)N[C@@H](C(=O)NCCCNC(=O)c1ccc(-c2c3nc(c(-c4c(F)cc(S(=O)(=O)[O-])cc4F)c4ccc([nH]4)c(-c4c(F)cc(S(=O)(=O)[O-])cc4F)c4nc(c(-c5c(F)cc(S(=O)(=O)[O-])cc5F)c5ccc2[nH]5)C=C4)C=C3)cc1)C(C)C
REMARK SMILES IDX 17 1 16 2 14 3 15 4 13 6 12 7 10 8 11 9 5 11 4 12 2 13 1 14
REMARK SMILES IDX 3 15 6 16 7 17 8 19 9 20 89 23 90 24 91 25 18 26 19 27 20 28
REMARK SMILES IDX 21 29 22 31 23 32 24 33 88 34 25 35 87 36 26 37 27 38 28 39
REMARK SMILES IDX 81 40 29 41 86 42 80 43 82 44 30 45 85 46 79 47 78 48 31 50
REMARK SMILES IDX 65 51 44 52 64 53 45 54 48 55 63 56 83 57 46 58 47 59 62 61
REMARK SMILES IDX 84 62 49 63 32 64 33 65 42 66 34 67 35 68 41 69 43 70 36 71
REMARK SMILES IDX 37 72 38 73 39 74 40 75 66 76 67 77 76 78 68 79 69 80 75 81
REMARK SMILES IDX 77 82 70 83 71 84 72 85 73 86 74 87 50 88 51 89 60 90 52 91
REMARK SMILES IDX 53 92 59 93 61 94 54 95 55 96 56 97 57 98 58 99
REMARK H PARENT 16 5 12 10 6 18 8 21 8 22 20 30 82 49 48 60
REMARK Flexibility Score: inf
ROOT
ATOM      1  C   UNL     1      -2.694   0.928   2.793  1.00  0.00     0.117 C 
ENDROOT
BRANCH   1   2
ATOM      2  N   UNL     1      -3.433   0.242   3.815  1.00  0.00    -0.354 N 
ATOM      3  C   UNL     1      -3.610  -1.088   4.026  1.00  0.00     0.242 C 
ATOM      4  O   UNL     1      -4.149  -1.362   5.105  1.00  0.00    -0.273 OA
ATOM      5  H   UNL     1      -3.882   0.829   4.466  1.00  0.00     0.163 HD
BRANCH   3   6
ATOM      6  C   UNL     1      -3.057  -2.201   3.054  1.00  0.00     0.173 C 
BRANCH   6   7
ATOM      7  N   UNL     1      -3.435  -1.923   1.661  1.00  0.00    -0.342 N 
ATOM      8  C   UNL     1      -2.750  -1.587   0.534  1.00  0.00     0.243 C 
ATOM      9  O   UNL     1      -3.470  -1.266  -0.425  1.00  0.00    -0.273 OA
ATOM     10  H   UNL     1      -4.405  -1.995   1.509  1.00  0.00     0.164 HD
BRANCH   8  11
ATOM     11  C   UNL     1      -1.191  -1.585   0.318  1.00  0.00     0.173 C 
BRANCH  11  12
ATOM     12  C   UNL     1      -0.467  -2.915   0.010  1.00  0.00     0.038 C 
BRANCH  12  13
ATOM     13  C   UNL     1      -1.269  -4.188   0.266  1.00  0.00    -0.015 C 
ATOM     14  C   UNL     1      -2.218  -4.521  -0.886  1.00  0.00     0.007 C 
ATOM     15  C   UNL     1      -0.350  -5.377   0.539  1.00  0.00     0.007 C 
ENDBRANCH  12  13
ENDBRANCH  11  12
BRANCH  11  16
ATOM     16  N   UNL     1      -0.402  -0.664   1.147  1.00  0.00    -0.327 N 
ATOM     17  C   UNL     1       0.223  -0.953   2.318  1.00  0.00     0.312 C 
ATOM     18  H   UNL     1      -0.316   0.261   0.819  1.00  0.00     0.166 HD
ATOM     19  N   UNL     1       0.752   0.146   2.910  1.00  0.00    -0.352 N 
ATOM     20  O   UNL     1       0.297  -2.048   2.843  1.00  0.00    -0.249 OA
ATOM     21  H   UNL     1       0.682   1.024   2.471  1.00  0.00     0.161 HD
ATOM     22  H   UNL     1       1.207   0.066   3.780  1.00  0.00     0.161 HD
ENDBRANCH  11  16
ENDBRANCH   8  11
ENDBRANCH   6   7
BRANCH   6  23
ATOM     23  C   UNL     1      -3.614  -3.572   3.583  1.00  0.00     0.015 C 
ATOM     24  C   UNL     1      -3.808  -4.712   2.581  1.00  0.00     0.010 C 
ATOM     25  C   UNL     1      -2.724  -4.080   4.731  1.00  0.00     0.010 C 
ENDBRANCH   6  23
ENDBRANCH   3   6
ENDBRANCH   1   2
BRANCH   1  26
ATOM     26  C   UNL     1      -3.534   1.908   2.002  1.00  0.00     0.042 C 
BRANCH  26  27
ATOM     27  C   UNL     1      -3.903   3.144   2.803  1.00  0.00     0.118 C 
BRANCH  27  28
ATOM     28  N   UNL     1      -2.730   3.915   3.209  1.00  0.00    -0.352 N 
ATOM     29  C   UNL     1      -2.391   5.215   2.922  1.00  0.00     0.251 C 
ATOM     30  H   UNL     1      -2.086   3.430   3.774  1.00  0.00     0.163 HD
ATOM     31  O   UNL     1      -1.258   5.617   3.172  1.00  0.00    -0.269 OA
BRANCH  29  32
ATOM     32  C   UNL     1      -3.387   6.107   2.295  1.00  0.00     0.039 A 
ATOM     33  C   UNL     1      -2.992   6.959   1.262  1.00  0.00     0.014 A 
ATOM     34  C   UNL     1      -4.721   6.073   2.709  1.00  0.00     0.014 A 
ATOM     35  C   UNL     1      -3.955   7.708   0.584  1.00  0.00     0.010 A 
ATOM     36  C   UNL     1      -5.688   6.734   1.966  1.00  0.00     0.010 A 
ATOM     37  C   UNL     1      -5.317   7.560   0.896  1.00  0.00    -0.014 A 
BRANCH  37  38
ATOM     38  C   UNL     1      -6.377   8.239   0.111  1.00  0.00     0.031 A 
ATOM     39  C   UNL     1      -7.309   9.208   0.785  1.00  0.00     0.074 A 
ATOM     40  C   UNL     1      -6.557   7.910  -1.183  1.00  0.00     0.049 A 
ATOM     41  N   UNL     1      -8.345   9.836   0.292  1.00  0.00    -0.248 NA
ATOM     42  C   UNL     1      -7.065   9.479   2.211  1.00  0.00     0.031 C 
ATOM     43  C   UNL     1      -5.753   6.939  -1.929  1.00  0.00     0.029 A 
ATOM     44  N   UNL     1      -7.480   8.348  -2.098  1.00  0.00    -0.354 N 
ATOM     45  C   UNL     1      -8.887  10.556   1.349  1.00  0.00     0.074 A 
ATOM     46  C   UNL     1      -8.104  10.238   2.523  1.00  0.00     0.031 C 
ATOM     47  C   UNL     1      -6.192   6.886  -3.196  1.00  0.00     0.029 A 
ATOM     48  C   UNL     1      -7.336   7.780  -3.341  1.00  0.00     0.049 A 
ATOM     49  H   UNL     1      -8.180   9.007  -1.884  1.00  0.00     0.167 HD
ATOM     50  C   UNL     1      -9.927  11.424   1.338  1.00  0.00     0.037 A 
ATOM     51  C   UNL     1      -8.047   7.958  -4.471  1.00  0.00     0.037 A 
ATOM     52  C   UNL     1     -10.686  11.748   0.159  1.00  0.00     0.049 A 
ATOM     53  C   UNL     1      -9.205   8.916  -4.461  1.00  0.00     0.074 A 
ATOM     54  C   UNL     1     -11.710  12.668   0.019  1.00  0.00     0.029 A 
ATOM     55  N   UNL     1     -10.511  11.153  -1.083  1.00  0.00    -0.354 N 
ATOM     56  N   UNL     1      -9.658   9.651  -3.472  1.00  0.00    -0.248 NA
ATOM     57  C   UNL     1      -9.950   9.069  -5.717  1.00  0.00     0.031 C 
ATOM     58  C   UNL     1     -12.187  12.592  -1.295  1.00  0.00     0.029 A 
ATOM     59  C   UNL     1     -11.428  11.662  -1.988  1.00  0.00     0.049 A 
ATOM     60  H   UNL     1      -9.834  10.469  -1.290  1.00  0.00     0.167 HD
ATOM     61  C   UNL     1     -10.728  10.369  -3.991  1.00  0.00     0.074 A 
ATOM     62  C   UNL     1     -10.847   9.989  -5.385  1.00  0.00     0.031 C 
ATOM     63  C   UNL     1     -11.537  11.264  -3.371  1.00  0.00     0.037 A 
BRANCH  50  64
ATOM     64  C   UNL     1     -10.299  12.070   2.646  1.00  0.00     0.058 A 
ATOM     65  C   UNL     1      -9.450  12.990   3.285  1.00  0.00     0.135 A 
ATOM     66  C   UNL     1     -11.509  11.750   3.282  1.00  0.00     0.135 A 
ATOM     67  F   UNL     1      -8.274  13.324   2.729  1.00  0.00    -0.206 F 
ATOM     68  C   UNL     1      -9.759  13.524   4.531  1.00  0.00     0.059 A 
ATOM     69  C   UNL     1     -11.854  12.298   4.515  1.00  0.00     0.059 A 
ATOM     70  F   UNL     1     -12.361  10.881   2.717  1.00  0.00    -0.206 F 
ATOM     71  C   UNL     1     -10.960  13.162   5.144  1.00  0.00     0.060 A 
BRANCH  71  72
ATOM     72  S   UNL     1     -11.326  13.825   6.782  1.00  0.00     0.124 S 
ATOM     73  O   UNL     1     -10.425  13.039   7.620  1.00  0.00    -0.237 OA
ATOM     74  O   UNL     1     -10.982  15.236   6.634  1.00  0.00    -0.237 OA
ATOM     75  O   UNL     1     -12.747  13.543   6.953  1.00  0.00    -0.744 OA
ENDBRANCH  71  72
ENDBRANCH  50  64
BRANCH  51  76
ATOM     76  C   UNL     1      -7.644   7.247  -5.712  1.00  0.00     0.058 A 
ATOM     77  C   UNL     1      -7.028   7.942  -6.763  1.00  0.00     0.135 A 
ATOM     78  C   UNL     1      -7.806   5.860  -5.851  1.00  0.00     0.135 A 
ATOM     79  F   UNL     1      -6.857   9.270  -6.678  1.00  0.00    -0.206 F 
ATOM     80  C   UNL     1      -6.583   7.289  -7.907  1.00  0.00     0.059 A 
ATOM     81  C   UNL     1      -7.349   5.180  -6.977  1.00  0.00     0.059 A 
ATOM     82  F   UNL     1      -8.375   5.147  -4.867  1.00  0.00    -0.206 F 
ATOM     83  C   UNL     1      -6.739   5.905  -8.000  1.00  0.00     0.060 A 
BRANCH  83  84
ATOM     84  S   UNL     1      -6.076   5.059  -9.452  1.00  0.00     0.124 S 
ATOM     85  O   UNL     1      -7.006   5.485 -10.491  1.00  0.00    -0.237 OA
ATOM     86  O   UNL     1      -4.727   5.611  -9.536  1.00  0.00    -0.237 OA
ATOM     87  O   UNL     1      -6.145   3.649  -9.080  1.00  0.00    -0.744 OA
ENDBRANCH  83  84
ENDBRANCH  51  76
BRANCH  63  88
ATOM     88  C   UNL     1     -12.616  11.908  -4.198  1.00  0.00     0.058 A 
ATOM     89  C   UNL     1     -13.759  11.198  -4.596  1.00  0.00     0.135 A 
ATOM     90  C   UNL     1     -12.531  13.266  -4.545  1.00  0.00     0.135 A 
ATOM     91  F   UNL     1     -13.884   9.895  -4.298  1.00  0.00    -0.206 F 
ATOM     92  C   UNL     1     -14.774  11.808  -5.326  1.00  0.00     0.059 A 
ATOM     93  C   UNL     1     -13.547  13.903  -5.250  1.00  0.00     0.059 A 
ATOM     94  F   UNL     1     -11.462  13.992  -4.181  1.00  0.00    -0.206 F 
ATOM     95  C   UNL     1     -14.661  13.163  -5.644  1.00  0.00     0.060 A 
BRANCH  95  96
ATOM     96  S   UNL     1     -16.006  13.953  -6.553  1.00  0.00     0.124 S 
ATOM     97  O   UNL     1     -15.819  13.403  -7.891  1.00  0.00    -0.237 OA
ATOM     98  O   UNL     1     -17.186  13.484  -5.833  1.00  0.00    -0.237 OA
ATOM     99  O   UNL     1     -15.720  15.378  -6.413  1.00  0.00    -0.744 OA
ENDBRANCH  95  96
ENDBRANCH  63  88
ENDBRANCH  37  38
ENDBRANCH  29  32
ENDBRANCH  27  28
ENDBRANCH  26  27
ENDBRANCH   1  26
TORSDOF 19
