REMARK SMILES CN1C(=O)C[C@H](C(=O)Nc2ccc(C(=O)NCCCNC(=O)c3ccc(-c4c5nc(c(-c6c(F)cc(S(=O)(=O)[O-])cc6F)c6ccc([nH]6)c(-c6c(F)cc(S(=O)(=O)[O-])cc6F)c6nc(c(-c7c(F)cc(S(=O)(=O)[O-])cc7F)c7ccc4[nH]7)C=C6)C=C5)cc3)cc2)S/C1=[NH+]\c1cccc(C(F)(F)F)c1
REMARK SMILES IDX 17 1 16 2 14 3 15 4 13 6 10 7 11 8 90 9 12 10 89 11 9 12
REMARK SMILES IDX 7 13 8 14 6 16 1 17 2 18 3 19 92 20 4 21 5 22 91 23 93 24
REMARK SMILES IDX 94 26 95 27 103 28 96 29 98 30 97 31 99 32 100 33 101 34
REMARK SMILES IDX 102 35 18 36 19 37 20 38 21 39 22 41 23 42 24 43 88 44 25 45
REMARK SMILES IDX 87 46 26 47 27 48 28 49 81 50 29 51 86 52 80 53 82 54 30 55
REMARK SMILES IDX 85 56 79 57 78 58 31 60 65 61 44 62 64 63 45 64 48 65 63 66
REMARK SMILES IDX 83 67 46 68 47 69 62 71 84 72 49 73 32 74 33 75 42 76 34 77
REMARK SMILES IDX 35 78 41 79 43 80 36 81 37 82 38 83 39 84 40 85 66 86 67 87
REMARK SMILES IDX 76 88 68 89 69 90 75 91 77 92 70 93 71 94 72 95 73 96 74 97
REMARK SMILES IDX 50 98 51 99 60 100 52 101 53 102 59 103 61 104 54 105 55 106
REMARK SMILES IDX 56 107 57 108 58 109
REMARK H PARENT 16 5 9 15 93 25 20 40 82 59 48 70
REMARK Flexibility Score: inf
ROOT
ATOM      1  C   UNL     1       2.544   9.556  -1.923  1.00  0.00     0.118 C 
ENDROOT
BRANCH   1   2
ATOM      2  N   UNL     1       1.650  10.511  -1.289  1.00  0.00    -0.352 N 
ATOM      3  C   UNL     1       0.376  10.398  -0.795  1.00  0.00     0.251 C 
ATOM      4  O   UNL     1      -0.115  11.378  -0.236  1.00  0.00    -0.269 OA
ATOM      5  H   UNL     1       2.034  11.413  -1.197  1.00  0.00     0.163 HD
BRANCH   3   6
ATOM      6  C   UNL     1      -0.399   9.128  -0.831  1.00  0.00     0.039 A 
ATOM      7  C   UNL     1      -1.738   6.673  -0.598  1.00  0.00     0.041 A 
ATOM      8  C   UNL     1      -1.996   7.689   0.319  1.00  0.00     0.027 A 
ATOM      9  C   UNL     1      -0.937   6.936  -1.710  1.00  0.00     0.027 A 
ATOM     10  C   UNL     1      -1.305   8.900   0.217  1.00  0.00     0.016 A 
ATOM     11  C   UNL     1      -0.290   8.168  -1.838  1.00  0.00     0.016 A 
BRANCH   7  12
ATOM     12  N   UNL     1      -2.280   5.405  -0.358  1.00  0.00    -0.325 N 
ATOM     13  C   UNL     1      -1.627   4.193  -0.369  1.00  0.00     0.238 C 
ATOM     14  O   UNL     1      -2.284   3.162  -0.203  1.00  0.00    -0.273 OA
ATOM     15  H   UNL     1      -3.243   5.376  -0.157  1.00  0.00     0.169 HD
BRANCH  13  16
ATOM     16  C   UNL     1      -0.099   4.164  -0.435  1.00  0.00     0.160 C 
ATOM     17  C   UNL     1       0.419  -0.189  -0.250  1.00  0.00     0.301 C 
ATOM     18  N   UNL     1       0.334   1.259  -0.402  1.00  0.00    -0.194 N 
ATOM     19  C   UNL     1       0.518   1.974   0.779  1.00  0.00     0.311 C 
ATOM     20  C   UNL     1       0.067   1.768  -1.675  1.00  0.00     0.319 C 
ATOM     21  O   UNL     1       0.741   1.415   1.860  1.00  0.00    -0.247 OA
ATOM     22  C   UNL     1       0.509   3.480   0.763  1.00  0.00     0.153 C 
ATOM     23  S   UNL     1       0.492   3.440  -1.950  1.00  0.00    -0.024 SA
ATOM     24  N   UNL     1      -0.410   0.985  -2.594  1.00  0.00    -0.235 N 
ATOM     25  H   UNL     1      -0.503   0.024  -2.405  1.00  0.00     0.313 HD
BRANCH  24  26
ATOM     26  C   UNL     1      -0.794   1.476  -3.847  1.00  0.00     0.126 A 
ATOM     27  C   UNL     1      -2.156   1.624  -4.122  1.00  0.00     0.052 A 
ATOM     28  C   UNL     1       0.141   1.806  -4.830  1.00  0.00     0.064 A 
ATOM     29  C   UNL     1      -2.583   2.134  -5.347  1.00  0.00     0.005 A 
ATOM     30  C   UNL     1      -0.270   2.360  -6.053  1.00  0.00     0.060 A 
ATOM     31  C   UNL     1      -1.642   2.511  -6.305  1.00  0.00     0.013 A 
BRANCH  30  32
ATOM     32  C   UNL     1       0.743   2.806  -7.077  1.00  0.00     0.416 C 
ATOM     33  F   UNL     1       0.721   2.041  -8.200  1.00  0.00    -0.166 F 
ATOM     34  F   UNL     1       0.538   4.090  -7.479  1.00  0.00    -0.166 F 
ATOM     35  F   UNL     1       2.026   2.763  -6.617  1.00  0.00    -0.166 F 
ENDBRANCH  30  32
ENDBRANCH  24  26
ENDBRANCH  13  16
ENDBRANCH   7  12
ENDBRANCH   3   6
ENDBRANCH   1   2
BRANCH   1  36
ATOM     36  C   UNL     1       2.580   9.752  -3.438  1.00  0.00     0.042 C 
BRANCH  36  37
ATOM     37  C   UNL     1       3.334  11.006  -3.872  1.00  0.00     0.118 C 
BRANCH  37  38
ATOM     38  N   UNL     1       4.768  10.888  -3.646  1.00  0.00    -0.352 N 
ATOM     39  C   UNL     1       5.811  11.001  -4.532  1.00  0.00     0.251 C 
ATOM     40  H   UNL     1       5.029  10.697  -2.716  1.00  0.00     0.163 HD
ATOM     41  O   UNL     1       6.934  10.650  -4.180  1.00  0.00    -0.269 OA
BRANCH  39  42
ATOM     42  C   UNL     1       5.591  11.527  -5.898  1.00  0.00     0.039 A 
ATOM     43  C   UNL     1       6.266  10.929  -6.966  1.00  0.00     0.014 A 
ATOM     44  C   UNL     1       4.762  12.630  -6.127  1.00  0.00     0.014 A 
ATOM     45  C   UNL     1       6.068  11.401  -8.267  1.00  0.00     0.010 A 
ATOM     46  C   UNL     1       4.512  13.054  -7.430  1.00  0.00     0.010 A 
ATOM     47  C   UNL     1       5.167  12.449  -8.513  1.00  0.00    -0.014 A 
BRANCH  47  48
ATOM     48  C   UNL     1       4.898  12.927  -9.895  1.00  0.00     0.031 A 
ATOM     49  C   UNL     1       5.266  14.330 -10.297  1.00  0.00     0.074 A 
ATOM     50  C   UNL     1       4.269  12.116 -10.768  1.00  0.00     0.049 A 
ATOM     51  N   UNL     1       5.046  14.950 -11.428  1.00  0.00    -0.248 NA
ATOM     52  C   UNL     1       5.949  15.152  -9.285  1.00  0.00     0.031 C 
ATOM     53  C   UNL     1       3.827  10.748 -10.484  1.00  0.00     0.029 A 
ATOM     54  N   UNL     1       3.882  12.325 -12.068  1.00  0.00    -0.354 N 
ATOM     55  C   UNL     1       5.550  16.235 -11.261  1.00  0.00     0.074 A 
ATOM     56  C   UNL     1       6.040  16.322  -9.902  1.00  0.00     0.031 C 
ATOM     57  C   UNL     1       3.250  10.235 -11.582  1.00  0.00     0.029 A 
ATOM     58  C   UNL     1       3.244  11.246 -12.635  1.00  0.00     0.049 A 
ATOM     59  H   UNL     1       4.045  13.168 -12.549  1.00  0.00     0.167 HD
ATOM     60  C   UNL     1       5.619  17.243 -12.164  1.00  0.00     0.037 A 
ATOM     61  C   UNL     1       2.709  11.092 -13.861  1.00  0.00     0.037 A 
ATOM     62  C   UNL     1       5.148  17.142 -13.521  1.00  0.00     0.049 A 
ATOM     63  C   UNL     1       2.788  12.228 -14.844  1.00  0.00     0.074 A 
ATOM     64  C   UNL     1       5.215  18.089 -14.529  1.00  0.00     0.029 A 
ATOM     65  N   UNL     1       4.521  16.028 -14.062  1.00  0.00    -0.354 N 
ATOM     66  N   UNL     1       3.316  13.419 -14.686  1.00  0.00    -0.248 NA
ATOM     67  C   UNL     1       2.205  12.000 -16.173  1.00  0.00     0.031 C 
ATOM     68  C   UNL     1       4.592  17.563 -15.666  1.00  0.00     0.029 A 
ATOM     69  C   UNL     1       4.180  16.270 -15.383  1.00  0.00     0.049 A 
ATOM     70  H   UNL     1       4.345  15.189 -13.578  1.00  0.00     0.167 HD
ATOM     71  C   UNL     1       3.153  14.072 -15.903  1.00  0.00     0.074 A 
ATOM     72  C   UNL     1       2.487  13.139 -16.790  1.00  0.00     0.031 C 
ATOM     73  C   UNL     1       3.523  15.328 -16.255  1.00  0.00     0.037 A 
BRANCH  60  74
ATOM     74  C   UNL     1       6.231  18.542 -11.712  1.00  0.00     0.058 A 
ATOM     75  C   UNL     1       7.605  18.654 -11.444  1.00  0.00     0.135 A 
ATOM     76  C   UNL     1       5.442  19.695 -11.568  1.00  0.00     0.135 A 
ATOM     77  F   UNL     1       8.405  17.582 -11.551  1.00  0.00    -0.206 F 
ATOM     78  C   UNL     1       8.168  19.852 -11.015  1.00  0.00     0.059 A 
ATOM     79  C   UNL     1       5.989  20.911 -11.169  1.00  0.00     0.059 A 
ATOM     80  F   UNL     1       4.123  19.646 -11.813  1.00  0.00    -0.206 F 
ATOM     81  C   UNL     1       7.351  20.975 -10.877  1.00  0.00     0.060 A 
BRANCH  81  82
ATOM     82  S   UNL     1       8.095  22.519 -10.312  1.00  0.00     0.124 S 
ATOM     83  O   UNL     1       8.318  22.234  -8.898  1.00  0.00    -0.237 OA
ATOM     84  O   UNL     1       9.297  22.608 -11.136  1.00  0.00    -0.237 OA
ATOM     85  O   UNL     1       7.069  23.517 -10.597  1.00  0.00    -0.744 OA
ENDBRANCH  81  82
ENDBRANCH  60  74
BRANCH  61  86
ATOM     86  C   UNL     1       2.074   9.800 -14.236  1.00  0.00     0.058 A 
ATOM     87  C   UNL     1       2.683   8.941 -15.162  1.00  0.00     0.135 A 
ATOM     88  C   UNL     1       0.858   9.391 -13.667  1.00  0.00     0.135 A 
ATOM     89  F   UNL     1       3.844   9.291 -15.737  1.00  0.00    -0.206 F 
ATOM     90  C   UNL     1       2.105   7.729 -15.523  1.00  0.00     0.059 A 
ATOM     91  C   UNL     1       0.272   8.172 -13.993  1.00  0.00     0.059 A 
ATOM     92  F   UNL     1       0.242  10.170 -12.763  1.00  0.00    -0.206 F 
ATOM     93  C   UNL     1       0.898   7.352 -14.930  1.00  0.00     0.060 A 
BRANCH  93  94
ATOM     94  S   UNL     1       0.179   5.755 -15.370  1.00  0.00     0.124 S 
ATOM     95  O   UNL     1      -0.321   6.019 -16.715  1.00  0.00    -0.237 OA
ATOM     96  O   UNL     1       1.331   4.864 -15.280  1.00  0.00    -0.237 OA
ATOM     97  O   UNL     1      -0.842   5.554 -14.346  1.00  0.00    -0.744 OA
ENDBRANCH  93  94
ENDBRANCH  61  86
BRANCH  73  98
ATOM     98  C   UNL     1       3.250  15.759 -17.669  1.00  0.00     0.058 A 
ATOM     99  C   UNL     1       1.952  16.055 -18.113  1.00  0.00     0.135 A 
ATOM    100  C   UNL     1       4.308  15.925 -18.577  1.00  0.00     0.135 A 
ATOM    101  F   UNL     1       0.904  15.905 -17.287  1.00  0.00    -0.206 F 
ATOM    102  C   UNL     1       1.710  16.481 -19.415  1.00  0.00     0.059 A 
ATOM    103  C   UNL     1       4.092  16.376 -19.875  1.00  0.00     0.059 A 
ATOM    104  F   UNL     1       5.570  15.664 -18.200  1.00  0.00    -0.206 F 
ATOM    105  C   UNL     1       2.787  16.641 -20.289  1.00  0.00     0.060 A 
BRANCH 105 106
ATOM    106  S   UNL     1       2.464  17.229 -21.964  1.00  0.00     0.124 S 
ATOM    107  O   UNL     1       1.885  16.043 -22.586  1.00  0.00    -0.237 OA
ATOM    108  O   UNL     1       1.543  18.338 -21.734  1.00  0.00    -0.237 OA
ATOM    109  O   UNL     1       3.786  17.612 -22.451  1.00  0.00    -0.744 OA
ENDBRANCH 105 106
ENDBRANCH  73  98
ENDBRANCH  47  48
ENDBRANCH  39  42
ENDBRANCH  37  38
ENDBRANCH  36  37
ENDBRANCH   1  36
TORSDOF 17
