REMARK SMILES CC[C@@](C)([NH2+]CC(=O)N[C@@H](C)C(C)C)C(=O)NCCCNC(=O)c1ccc(-c2c3nc(c(-c4c(F)cc(S(=O)(=O)[O-])cc4F)c4ccc([nH]4)c(-c4c(F)cc(S(=O)(=O)[O-])cc4F)c4nc(c(-c5c(F)cc(S(=O)(=O)[O-])cc5F)c5ccc2[nH]5)C=C4)C=C3)cc1
REMARK SMILES IDX 18 1 17 2 15 3 16 4 3 6 4 7 2 8 1 9 5 10 6 13 7 14 8 15 9 16
REMARK SMILES IDX 10 18 11 19 12 20 13 21 14 22 19 23 20 24 21 25 22 26 23 28
REMARK SMILES IDX 24 29 25 30 89 31 26 32 88 33 27 34 28 35 29 36 82 37 30 38
REMARK SMILES IDX 87 39 81 40 83 41 31 42 86 43 80 44 79 45 32 47 66 48 45 49
REMARK SMILES IDX 65 50 46 51 49 52 64 53 84 54 47 55 48 56 63 58 85 59 50 60
REMARK SMILES IDX 33 61 34 62 43 63 35 64 36 65 42 66 44 67 37 68 38 69 39 70
REMARK SMILES IDX 40 71 41 72 67 73 68 74 77 75 69 76 70 77 76 78 78 79 71 80
REMARK SMILES IDX 72 81 73 82 74 83 75 84 51 85 52 86 61 87 53 88 54 89 60 90
REMARK SMILES IDX 62 91 55 92 56 93 57 94 58 95 59 96
REMARK H PARENT 17 5 5 11 5 12 9 17 21 27 83 46 49 57
REMARK Flexibility Score: inf
ROOT
ATOM      1  C   UNL     1       3.416  -3.908   2.185  1.00  0.00     0.118 C 
ENDROOT
BRANCH   1   2
ATOM      2  N   UNL     1       2.902  -3.511   0.880  1.00  0.00    -0.351 N 
ATOM      3  C   UNL     1       2.234  -2.305   0.734  1.00  0.00     0.281 C 
ATOM      4  O   UNL     1       2.908  -1.292   0.537  1.00  0.00    -0.268 OA
ATOM      5  H   UNL     1       3.030  -4.100   0.101  1.00  0.00     0.163 HD
BRANCH   3   6
ATOM      6  C   UNL     1       0.652  -2.311   0.618  1.00  0.00     0.172 C 
ATOM      7  C   UNL     1      -0.204  -1.221   1.273  1.00  0.00     0.090 C 
BRANCH   6   8
ATOM      8  C   UNL     1       0.426  -2.090  -0.927  1.00  0.00     0.075 C 
ATOM      9  C   UNL     1       0.583  -0.615  -1.370  1.00  0.00     0.011 C 
ENDBRANCH   6   8
BRANCH   6  10
ATOM     10  N   UNL     1       0.098  -3.582   1.085  1.00  0.00    -0.326 N 
ATOM     11  H   UNL     1       0.545  -4.308   0.524  1.00  0.00     0.347 HD
ATOM     12  H   UNL     1      -0.904  -3.417   0.992  1.00  0.00     0.347 HD
BRANCH  10  13
ATOM     13  C   UNL     1       0.199  -4.031   2.493  1.00  0.00     0.362 C 
BRANCH  13  14
ATOM     14  C   UNL     1       0.122  -3.175   3.798  1.00  0.00     0.275 C 
ATOM     15  O   UNL     1      -0.757  -3.490   4.622  1.00  0.00    -0.268 OA
ATOM     16  N   UNL     1       1.007  -2.259   4.307  1.00  0.00    -0.349 N 
ATOM     17  H   UNL     1       1.170  -2.389   5.269  1.00  0.00     0.163 HD
BRANCH  16  18
ATOM     18  C   UNL     1       1.772  -1.126   3.758  1.00  0.00     0.081 C 
ATOM     19  C   UNL     1       0.931   0.163   3.882  1.00  0.00     0.031 C 
BRANCH  18  20
ATOM     20  C   UNL     1       3.163  -0.822   4.403  1.00  0.00     0.005 C 
ATOM     21  C   UNL     1       3.906  -1.994   5.030  1.00  0.00     0.009 C 
ATOM     22  C   UNL     1       4.094  -0.149   3.373  1.00  0.00     0.009 C 
ENDBRANCH  18  20
ENDBRANCH  16  18
ENDBRANCH  13  14
ENDBRANCH  10  13
ENDBRANCH   6  10
ENDBRANCH   3   6
ENDBRANCH   1   2
BRANCH   1  23
ATOM     23  C   UNL     1       3.512  -5.416   2.394  1.00  0.00     0.042 C 
BRANCH  23  24
ATOM     24  C   UNL     1       4.849  -5.851   2.976  1.00  0.00     0.118 C 
BRANCH  24  25
ATOM     25  N   UNL     1       5.106  -5.347   4.322  1.00  0.00    -0.352 N 
ATOM     26  C   UNL     1       5.681  -5.967   5.407  1.00  0.00     0.251 C 
ATOM     27  H   UNL     1       4.824  -4.417   4.478  1.00  0.00     0.163 HD
ATOM     28  O   UNL     1       5.777  -5.369   6.476  1.00  0.00    -0.269 OA
BRANCH  26  29
ATOM     29  C   UNL     1       6.119  -7.372   5.294  1.00  0.00     0.039 A 
ATOM     30  C   UNL     1       5.763  -8.275   6.299  1.00  0.00     0.014 A 
ATOM     31  C   UNL     1       6.792  -7.813   4.155  1.00  0.00     0.014 A 
ATOM     32  C   UNL     1       5.976  -9.639   6.101  1.00  0.00     0.010 A 
ATOM     33  C   UNL     1       6.896  -9.174   3.910  1.00  0.00     0.010 A 
ATOM     34  C   UNL     1       6.480 -10.102   4.875  1.00  0.00    -0.014 A 
BRANCH  34  35
ATOM     35  C   UNL     1       6.567 -11.550   4.560  1.00  0.00     0.031 A 
ATOM     36  C   UNL     1       7.898 -12.157   4.211  1.00  0.00     0.074 A 
ATOM     37  C   UNL     1       5.438 -12.283   4.483  1.00  0.00     0.049 A 
ATOM     38  N   UNL     1       8.168 -13.359   3.774  1.00  0.00    -0.248 NA
ATOM     39  C   UNL     1       9.077 -11.282   4.325  1.00  0.00     0.031 C 
ATOM     40  C   UNL     1       4.081 -11.784   4.729  1.00  0.00     0.029 A 
ATOM     41  N   UNL     1       5.247 -13.603   4.159  1.00  0.00    -0.354 N 
ATOM     42  C   UNL     1       9.537 -13.373   3.534  1.00  0.00     0.074 A 
ATOM     43  C   UNL     1      10.031 -12.044   3.814  1.00  0.00     0.031 C 
ATOM     44  C   UNL     1       3.205 -12.790   4.577  1.00  0.00     0.029 A 
ATOM     45  C   UNL     1       3.928 -13.993   4.180  1.00  0.00     0.049 A 
ATOM     46  H   UNL     1       5.985 -14.214   3.933  1.00  0.00     0.167 HD
ATOM     47  C   UNL     1      10.315 -14.410   3.145  1.00  0.00     0.037 A 
ATOM     48  C   UNL     1       3.365 -15.184   3.901  1.00  0.00     0.037 A 
ATOM     49  C   UNL     1       9.818 -15.740   2.917  1.00  0.00     0.049 A 
ATOM     50  C   UNL     1       4.254 -16.329   3.498  1.00  0.00     0.074 A 
ATOM     51  C   UNL     1      10.529 -16.882   2.598  1.00  0.00     0.029 A 
ATOM     52  N   UNL     1       8.481 -16.106   2.989  1.00  0.00    -0.354 N 
ATOM     53  N   UNL     1       5.557 -16.343   3.343  1.00  0.00    -0.248 NA
ATOM     54  C   UNL     1       3.601 -17.618   3.236  1.00  0.00     0.031 C 
ATOM     55  C   UNL     1       9.618 -17.932   2.441  1.00  0.00     0.029 A 
ATOM     56  C   UNL     1       8.344 -17.454   2.704  1.00  0.00     0.049 A 
ATOM     57  H   UNL     1       7.740 -15.498   3.211  1.00  0.00     0.167 HD
ATOM     58  C   UNL     1       5.882 -17.645   2.981  1.00  0.00     0.074 A 
ATOM     59  C   UNL     1       4.641 -18.393   2.960  1.00  0.00     0.031 C 
ATOM     60  C   UNL     1       7.096 -18.175   2.690  1.00  0.00     0.037 A 
BRANCH  47  61
ATOM     61  C   UNL     1      11.784 -14.146   2.961  1.00  0.00     0.058 A 
ATOM     62  C   UNL     1      12.627 -13.877   4.053  1.00  0.00     0.135 A 
ATOM     63  C   UNL     1      12.363 -14.177   1.682  1.00  0.00     0.135 A 
ATOM     64  F   UNL     1      12.124 -13.816   5.296  1.00  0.00    -0.206 F 
ATOM     65  C   UNL     1      13.981 -13.615   3.880  1.00  0.00     0.059 A 
ATOM     66  C   UNL     1      13.722 -13.947   1.489  1.00  0.00     0.059 A 
ATOM     67  F   UNL     1      11.604 -14.425   0.603  1.00  0.00    -0.206 F 
ATOM     68  C   UNL     1      14.520 -13.651   2.593  1.00  0.00     0.060 A 
BRANCH  68  69
ATOM     69  S   UNL     1      16.281 -13.312   2.388  1.00  0.00     0.124 S 
ATOM     70  O   UNL     1      16.325 -11.868   2.596  1.00  0.00    -0.237 OA
ATOM     71  O   UNL     1      16.881 -14.122   3.443  1.00  0.00    -0.237 OA
ATOM     72  O   UNL     1      16.556 -13.758   1.026  1.00  0.00    -0.744 OA
ENDBRANCH  68  69
ENDBRANCH  47  61
BRANCH  48  73
ATOM     73  C   UNL     1       1.892 -15.360   4.018  1.00  0.00     0.058 A 
ATOM     74  C   UNL     1       1.340 -16.126   5.055  1.00  0.00     0.135 A 
ATOM     75  C   UNL     1       1.007 -14.755   3.111  1.00  0.00     0.135 A 
ATOM     76  F   UNL     1       2.144 -16.729   5.944  1.00  0.00    -0.206 F 
ATOM     77  C   UNL     1      -0.035 -16.300   5.183  1.00  0.00     0.059 A 
ATOM     78  C   UNL     1      -0.373 -14.895   3.232  1.00  0.00     0.059 A 
ATOM     79  F   UNL     1       1.483 -13.997   2.111  1.00  0.00    -0.206 F 
ATOM     80  C   UNL     1      -0.884 -15.678   4.266  1.00  0.00     0.060 A 
BRANCH  80  81
ATOM     81  S   UNL     1      -2.668 -15.872   4.469  1.00  0.00     0.124 S 
ATOM     82  O   UNL     1      -2.866 -17.247   4.028  1.00  0.00    -0.237 OA
ATOM     83  O   UNL     1      -2.844 -15.627   5.897  1.00  0.00    -0.237 OA
ATOM     84  O   UNL     1      -3.219 -14.842   3.593  1.00  0.00    -0.744 OA
ENDBRANCH  80  81
ENDBRANCH  48  73
BRANCH  60  85
ATOM     85  C   UNL     1       7.142 -19.635   2.342  1.00  0.00     0.058 A 
ATOM     86  C   UNL     1       6.683 -20.108   1.103  1.00  0.00     0.135 A 
ATOM     87  C   UNL     1       7.702 -20.563   3.235  1.00  0.00     0.135 A 
ATOM     88  F   UNL     1       6.133 -19.262   0.218  1.00  0.00    -0.206 F 
ATOM     89  C   UNL     1       6.759 -21.456   0.769  1.00  0.00     0.059 A 
ATOM     90  C   UNL     1       7.812 -21.910   2.911  1.00  0.00     0.059 A 
ATOM     91  F   UNL     1       8.164 -20.158   4.429  1.00  0.00    -0.206 F 
ATOM     92  C   UNL     1       7.327 -22.349   1.679  1.00  0.00     0.060 A 
BRANCH  92  93
ATOM     93  S   UNL     1       7.454 -24.089   1.218  1.00  0.00     0.124 S 
ATOM     94  O   UNL     1       6.071 -24.532   1.361  1.00  0.00    -0.237 OA
ATOM     95  O   UNL     1       7.958 -24.015  -0.149  1.00  0.00    -0.237 OA
ATOM     96  O   UNL     1       8.391 -24.632   2.197  1.00  0.00    -0.744 OA
ENDBRANCH  92  93
ENDBRANCH  60  85
ENDBRANCH  34  35
ENDBRANCH  26  29
ENDBRANCH  24  25
ENDBRANCH  23  24
ENDBRANCH   1  23
TORSDOF 19
