REMARK SMILES C[C@@H](C(=O)NCCCNC(=O)c1ccc(-c2c3nc(c(-c4c(F)cc(S(=O)(=O)[O-])cc4F)c4ccc([nH]4)c(-c4c(F)cc(S(=O)(=O)[O-])cc4F)c4nc(c(-c5c(F)cc(S(=O)(=O)[O-])cc5F)c5ccc2[nH]5)C=C4)C=C3)cc1)c1ccc(C[C@@H]2CCC[C@@H]2O)cc1F
REMARK SMILES IDX 6 1 5 2 3 3 4 4 2 6 1 7 78 8 79 9 90 10 80 11 89 12 91 13
REMARK SMILES IDX 81 14 82 15 83 16 84 17 87 18 85 19 86 20 88 21 7 23 8 24
REMARK SMILES IDX 9 25 10 26 11 28 12 29 13 30 77 31 14 32 76 33 15 34 16 35
REMARK SMILES IDX 17 36 70 37 18 38 75 39 69 40 71 41 19 42 74 43 68 44 67 45
REMARK SMILES IDX 20 47 54 48 33 49 53 50 34 51 37 52 52 53 72 54 35 55 36 56
REMARK SMILES IDX 51 58 73 59 38 60 21 61 22 62 31 63 23 64 24 65 30 66 32 67
REMARK SMILES IDX 25 68 26 69 27 70 28 71 29 72 55 73 56 74 65 75 57 76 58 77
REMARK SMILES IDX 64 78 66 79 59 80 60 81 61 82 62 83 63 84 39 85 40 86 49 87
REMARK SMILES IDX 41 88 42 89 48 90 50 91 43 92 44 93 45 94 46 95 47 96
REMARK H PARENT 5 5 88 22 9 27 71 46 37 57
REMARK Flexibility Score: inf
ROOT
ATOM      1  C   UNL     1     -11.347   4.350   7.354  1.00  0.00     0.117 C 
ENDROOT
BRANCH   1   2
ATOM      2  N   UNL     1     -11.860   3.875   6.083  1.00  0.00    -0.356 N 
ATOM      3  C   UNL     1     -11.206   3.498   4.946  1.00  0.00     0.227 C 
ATOM      4  O   UNL     1     -11.908   3.089   4.018  1.00  0.00    -0.274 OA
ATOM      5  H   UNL     1     -12.841   3.814   6.033  1.00  0.00     0.163 HD
BRANCH   3   6
ATOM      6  C   UNL     1      -9.672   3.526   4.895  1.00  0.00     0.108 C 
ATOM      7  C   UNL     1      -9.098   4.947   4.958  1.00  0.00     0.023 C 
BRANCH   6   8
ATOM      8  C   UNL     1      -9.122   2.793   3.681  1.00  0.00    -0.000 A 
ATOM      9  C   UNL     1      -8.479   1.556   3.830  1.00  0.00     0.008 A 
ATOM     10  C   UNL     1      -9.215   3.336   2.395  1.00  0.00     0.127 A 
ATOM     11  C   UNL     1      -7.889   0.924   2.732  1.00  0.00     0.004 A 
ATOM     12  C   UNL     1      -8.616   2.719   1.302  1.00  0.00     0.043 A 
ATOM     13  F   UNL     1      -9.852   4.499   2.196  1.00  0.00    -0.207 F 
ATOM     14  C   UNL     1      -7.909   1.522   1.466  1.00  0.00    -0.045 A 
BRANCH  14  15
ATOM     15  C   UNL     1      -7.160   0.926   0.302  1.00  0.00     0.041 C 
BRANCH  15  16
ATOM     16  C   UNL     1      -5.635   1.171   0.223  1.00  0.00     0.022 C 
ATOM     17  C   UNL     1      -4.822   0.535   1.357  1.00  0.00     0.007 C 
ATOM     18  C   UNL     1      -5.143   2.623   0.239  1.00  0.00     0.117 C 
ATOM     19  C   UNL     1      -4.518   1.649   2.362  1.00  0.00     0.003 C 
ATOM     20  C   UNL     1      -4.955   2.958   1.712  1.00  0.00     0.032 C 
BRANCH  18  21
ATOM     21  O   UNL     1      -6.008   3.533  -0.405  1.00  0.00    -0.393 OA
ATOM     22  H   UNL     1      -6.872   3.525   0.036  1.00  0.00     0.210 HD
ENDBRANCH  18  21
ENDBRANCH  15  16
ENDBRANCH  14  15
ENDBRANCH   6   8
ENDBRANCH   3   6
ENDBRANCH   1   2
BRANCH   1  23
ATOM     23  C   UNL     1     -11.572   5.849   7.543  1.00  0.00     0.042 C 
BRANCH  23  24
ATOM     24  C   UNL     1     -13.037   6.279   7.544  1.00  0.00     0.118 C 
BRANCH  24  25
ATOM     25  N   UNL     1     -13.804   5.666   8.617  1.00  0.00    -0.352 N 
ATOM     26  C   UNL     1     -14.575   6.232   9.598  1.00  0.00     0.251 C 
ATOM     27  H   UNL     1     -13.762   4.682   8.642  1.00  0.00     0.163 HD
ATOM     28  O   UNL     1     -14.993   5.514  10.508  1.00  0.00    -0.269 OA
BRANCH  26  29
ATOM     29  C   UNL     1     -14.895   7.678   9.597  1.00  0.00     0.039 A 
ATOM     30  C   UNL     1     -14.921   8.352  10.822  1.00  0.00     0.014 A 
ATOM     31  C   UNL     1     -15.221   8.365   8.423  1.00  0.00     0.014 A 
ATOM     32  C   UNL     1     -15.217   9.716  10.864  1.00  0.00     0.010 A 
ATOM     33  C   UNL     1     -15.452   9.742   8.458  1.00  0.00     0.010 A 
ATOM     34  C   UNL     1     -15.455  10.431   9.678  1.00  0.00    -0.014 A 
BRANCH  34  35
ATOM     35  C   UNL     1     -15.683  11.900   9.717  1.00  0.00     0.031 A 
ATOM     36  C   UNL     1     -17.011  12.487   9.321  1.00  0.00     0.074 A 
ATOM     37  C   UNL     1     -14.671  12.712  10.085  1.00  0.00     0.049 A 
ATOM     38  N   UNL     1     -17.384  13.742   9.299  1.00  0.00    -0.248 NA
ATOM     39  C   UNL     1     -18.048  11.546   8.871  1.00  0.00     0.031 C 
ATOM     40  C   UNL     1     -13.318  12.270  10.432  1.00  0.00     0.029 A 
ATOM     41  N   UNL     1     -14.620  14.075  10.226  1.00  0.00    -0.354 N 
ATOM     42  C   UNL     1     -18.694  13.743   8.835  1.00  0.00     0.074 A 
ATOM     43  C   UNL     1     -19.034  12.367   8.537  1.00  0.00     0.031 C 
ATOM     44  C   UNL     1     -12.579  13.339  10.769  1.00  0.00     0.029 A 
ATOM     45  C   UNL     1     -13.394  14.542  10.637  1.00  0.00     0.049 A 
ATOM     46  H   UNL     1     -15.389  14.664  10.050  1.00  0.00     0.167 HD
ATOM     47  C   UNL     1     -19.544  14.789   8.694  1.00  0.00     0.037 A 
ATOM     48  C   UNL     1     -12.972  15.797  10.882  1.00  0.00     0.037 A 
ATOM     49  C   UNL     1     -19.207  16.155   9.005  1.00  0.00     0.049 A 
ATOM     50  C   UNL     1     -13.939  16.939  10.739  1.00  0.00     0.074 A 
ATOM     51  C   UNL     1     -20.014  17.279   8.939  1.00  0.00     0.029 A 
ATOM     52  N   UNL     1     -17.962  16.585   9.441  1.00  0.00    -0.354 N 
ATOM     53  N   UNL     1     -15.194  16.912  10.358  1.00  0.00    -0.248 NA
ATOM     54  C   UNL     1     -13.438  18.279  11.072  1.00  0.00     0.031 C 
ATOM     55  C   UNL     1     -19.247  18.392   9.303  1.00  0.00     0.029 A 
ATOM     56  C   UNL     1     -17.975  17.958   9.635  1.00  0.00     0.049 A 
ATOM     57  H   UNL     1     -17.184  16.001   9.591  1.00  0.00     0.167 HD
ATOM     58  C   UNL     1     -15.636  18.228  10.416  1.00  0.00     0.074 A 
ATOM     59  C   UNL     1     -14.521  19.022  10.893  1.00  0.00     0.031 C 
ATOM     60  C   UNL     1     -16.853  18.736  10.099  1.00  0.00     0.037 A 
BRANCH  47  61
ATOM     61  C   UNL     1     -20.931  14.494   8.192  1.00  0.00     0.058 A 
ATOM     62  C   UNL     1     -21.875  13.835   8.995  1.00  0.00     0.135 A 
ATOM     63  C   UNL     1     -21.336  14.906   6.912  1.00  0.00     0.135 A 
ATOM     64  F   UNL     1     -21.538  13.407  10.222  1.00  0.00    -0.206 F 
ATOM     65  C   UNL     1     -23.163  13.571   8.540  1.00  0.00     0.059 A 
ATOM     66  C   UNL     1     -22.627  14.675   6.444  1.00  0.00     0.059 A 
ATOM     67  F   UNL     1     -20.474  15.541   6.102  1.00  0.00    -0.206 F 
ATOM     68  C   UNL     1     -23.529  13.994   7.261  1.00  0.00     0.060 A 
BRANCH  68  69
ATOM     69  S   UNL     1     -25.206  13.651   6.686  1.00  0.00     0.124 S 
ATOM     70  O   UNL     1     -25.131  12.219   6.409  1.00  0.00    -0.237 OA
ATOM     71  O   UNL     1     -26.017  14.029   7.840  1.00  0.00    -0.237 OA
ATOM     72  O   UNL     1     -25.348  14.510   5.516  1.00  0.00    -0.744 OA
ENDBRANCH  68  69
ENDBRANCH  47  61
BRANCH  48  73
ATOM     73  C   UNL     1     -11.569  16.033  11.313  1.00  0.00     0.058 A 
ATOM     74  C   UNL     1     -11.270  16.401  12.632  1.00  0.00     0.135 A 
ATOM     75  C   UNL     1     -10.500  15.875  10.418  1.00  0.00     0.135 A 
ATOM     76  F   UNL     1     -12.259  16.569  13.523  1.00  0.00    -0.206 F 
ATOM     77  C   UNL     1      -9.960  16.618  13.048  1.00  0.00     0.059 A 
ATOM     78  C   UNL     1      -9.180  16.064  10.816  1.00  0.00     0.059 A 
ATOM     79  F   UNL     1     -10.734  15.506   9.149  1.00  0.00    -0.206 F 
ATOM     80  C   UNL     1      -8.921  16.445  12.132  1.00  0.00     0.060 A 
BRANCH  80  81
ATOM     81  S   UNL     1      -7.220  16.672  12.694  1.00  0.00     0.124 S 
ATOM     82  O   UNL     1      -7.123  18.126  12.754  1.00  0.00    -0.237 OA
ATOM     83  O   UNL     1      -7.223  15.979  13.978  1.00  0.00    -0.237 OA
ATOM     84  O   UNL     1      -6.434  16.028  11.646  1.00  0.00    -0.744 OA
ENDBRANCH  80  81
ENDBRANCH  48  73
BRANCH  60  85
ATOM     85  C   UNL     1     -17.039  20.218  10.268  1.00  0.00     0.058 A 
ATOM     86  C   UNL     1     -16.445  21.137   9.388  1.00  0.00     0.135 A 
ATOM     87  C   UNL     1     -17.827  20.725  11.313  1.00  0.00     0.135 A 
ATOM     88  F   UNL     1     -15.677  20.703   8.376  1.00  0.00    -0.206 F 
ATOM     89  C   UNL     1     -16.594  22.509   9.560  1.00  0.00     0.059 A 
ATOM     90  C   UNL     1     -18.011  22.093  11.489  1.00  0.00     0.059 A 
ATOM     91  F   UNL     1     -18.427  19.890  12.175  1.00  0.00    -0.206 F 
ATOM     92  C   UNL     1     -17.375  22.978  10.618  1.00  0.00     0.060 A 
BRANCH  92  93
ATOM     93  S   UNL     1     -17.564  24.760  10.835  1.00  0.00     0.124 S 
ATOM     94  O   UNL     1     -16.284  25.119  11.436  1.00  0.00    -0.237 OA
ATOM     95  O   UNL     1     -17.773  25.224   9.466  1.00  0.00    -0.237 OA
ATOM     96  O   UNL     1     -18.725  24.874  11.712  1.00  0.00    -0.744 OA
ENDBRANCH  92  93
ENDBRANCH  60  85
ENDBRANCH  34  35
ENDBRANCH  26  29
ENDBRANCH  24  25
ENDBRANCH  23  24
ENDBRANCH   1  23
TORSDOF 17
