REMARK SMILES Cc1c(C[NH2+]Cc2cccc(F)c2)c(C(=O)NCCCNC(=O)c2ccc(-c3c4nc(c(-c5c(F)cc(S(=O)(=O)[O-])cc5F)c5ccc([nH]5)c(-c5c(F)cc(S(=O)(=O)[O-])cc5F)c5nc(c(-c6c(F)cc(S(=O)(=O)[O-])cc6F)c6ccc3[nH]6)C=C5)C=C4)cc2)c(C)n1Cc1c(F)cccc1Cl
REMARK SMILES IDX 18 1 17 2 15 3 16 4 14 6 1 7 2 8 3 9 92 10 90 11 91 12 4 13
REMARK SMILES IDX 5 14 6 17 7 18 8 19 13 20 9 21 11 22 10 23 12 24 93 25 94 26
REMARK SMILES IDX 95 27 100 28 96 29 97 30 99 31 101 32 98 33 19 34 20 35
REMARK SMILES IDX 21 36 22 37 23 39 24 40 25 41 89 42 26 43 88 44 27 45 28 46
REMARK SMILES IDX 29 47 82 48 30 49 87 50 81 51 83 52 31 53 86 54 80 55 79 56
REMARK SMILES IDX 32 58 66 59 45 60 65 61 46 62 49 63 64 64 84 65 47 66 48 67
REMARK SMILES IDX 63 69 85 70 50 71 33 72 34 73 43 74 35 75 36 76 42 77 44 78
REMARK SMILES IDX 37 79 38 80 39 81 40 82 41 83 67 84 68 85 77 86 69 87 70 88
REMARK SMILES IDX 76 89 78 90 71 91 72 92 73 93 74 94 75 95 51 96 52 97 61 98
REMARK SMILES IDX 53 99 54 100 60 101 62 102 55 103 56 104 57 105 58 106
REMARK SMILES IDX 59 107
REMARK H PARENT 17 5 5 15 5 16 21 38 83 57 49 68
REMARK Flexibility Score: inf
ROOT
ATOM      1  C   UNL     1      -0.112   4.159  -5.837  1.00  0.00     0.118 C 
ENDROOT
BRANCH   1   2
ATOM      2  N   UNL     1      -0.607   2.796  -5.863  1.00  0.00    -0.352 N 
ATOM      3  C   UNL     1      -0.652   1.727  -5.004  1.00  0.00     0.253 C 
ATOM      4  O   UNL     1      -1.085   0.698  -5.532  1.00  0.00    -0.269 OA
ATOM      5  H   UNL     1      -1.022   2.579  -6.729  1.00  0.00     0.163 HD
BRANCH   3   6
ATOM      6  C   UNL     1      -0.155   1.725  -3.611  1.00  0.00     0.069 A 
ATOM      7  C   UNL     1       1.064   0.049  -0.457  1.00  0.00     0.065 C 
ATOM      8  C   UNL     1       0.652   0.896  -1.613  1.00  0.00     0.025 A 
ATOM      9  C   UNL     1       0.141   0.513  -2.852  1.00  0.00     0.040 A 
ATOM     10  N   UNL     1       0.707   2.277  -1.615  1.00  0.00    -0.343 N 
ATOM     11  C   UNL     1      -0.121   2.727  -2.638  1.00  0.00     0.028 A 
ATOM     12  C   UNL     1      -0.908   3.988  -2.520  1.00  0.00     0.065 C 
BRANCH   9  13
ATOM     13  C   UNL     1      -0.140  -0.907  -3.292  1.00  0.00     0.300 C 
BRANCH  13  14
ATOM     14  N   UNL     1      -1.579  -1.116  -3.182  1.00  0.00    -0.339 N 
ATOM     15  H   UNL     1      -2.045  -0.456  -3.805  1.00  0.00     0.346 HD
ATOM     16  H   UNL     1      -1.819  -0.976  -2.201  1.00  0.00     0.346 HD
BRANCH  14  17
ATOM     17  C   UNL     1      -2.021  -2.457  -3.528  1.00  0.00     0.297 C 
BRANCH  17  18
ATOM     18  C   UNL     1      -1.938  -3.503  -2.432  1.00  0.00     0.009 A 
ATOM     19  C   UNL     1      -1.737  -3.199  -1.075  1.00  0.00     0.010 A 
ATOM     20  C   UNL     1      -2.146  -4.849  -2.781  1.00  0.00     0.048 A 
ATOM     21  C   UNL     1      -1.714  -4.206  -0.104  1.00  0.00     0.004 A 
ATOM     22  C   UNL     1      -2.128  -5.843  -1.807  1.00  0.00     0.123 A 
ATOM     23  C   UNL     1      -1.909  -5.534  -0.471  1.00  0.00     0.039 A 
ATOM     24  F   UNL     1      -2.333  -7.120  -2.160  1.00  0.00    -0.207 F 
ENDBRANCH  17  18
ENDBRANCH  14  17
ENDBRANCH  13  14
ENDBRANCH   9  13
BRANCH  10  25
ATOM     25  C   UNL     1       1.345   3.114  -0.585  1.00  0.00     0.162 C 
BRANCH  25  26
ATOM     26  C   UNL     1       2.714   3.611  -0.993  1.00  0.00     0.026 A 
ATOM     27  C   UNL     1       2.813   4.671  -1.905  1.00  0.00     0.129 A 
ATOM     28  C   UNL     1       3.922   3.105  -0.488  1.00  0.00     0.048 A 
ATOM     29  F   UNL     1       1.708   5.284  -2.341  1.00  0.00    -0.207 F 
ATOM     30  C   UNL     1       4.034   5.173  -2.351  1.00  0.00     0.040 A 
ATOM     31  C   UNL     1       5.159   3.611  -0.925  1.00  0.00     0.021 A 
ATOM     32  Cl  UNL     1       3.980   1.895   0.743  1.00  0.00    -0.084 Cl
ATOM     33  C   UNL     1       5.216   4.636  -1.867  1.00  0.00     0.005 A 
ENDBRANCH  25  26
ENDBRANCH  10  25
ENDBRANCH   3   6
ENDBRANCH   1   2
BRANCH   1  34
ATOM     34  C   UNL     1       1.314   4.330  -6.374  1.00  0.00     0.042 C 
BRANCH  34  35
ATOM     35  C   UNL     1       1.529   3.970  -7.859  1.00  0.00     0.118 C 
BRANCH  35  36
ATOM     36  N   UNL     1       1.372   5.104  -8.748  1.00  0.00    -0.352 N 
ATOM     37  C   UNL     1       2.066   5.436  -9.891  1.00  0.00     0.251 C 
ATOM     38  H   UNL     1       0.659   5.735  -8.495  1.00  0.00     0.163 HD
ATOM     39  O   UNL     1       1.849   6.547 -10.375  1.00  0.00    -0.269 OA
BRANCH  37  40
ATOM     40  C   UNL     1       3.149   4.579 -10.477  1.00  0.00     0.039 A 
ATOM     41  C   UNL     1       4.430   5.109 -10.454  1.00  0.00     0.014 A 
ATOM     42  C   UNL     1       2.943   3.423 -11.250  1.00  0.00     0.014 A 
ATOM     43  C   UNL     1       5.475   4.490 -11.173  1.00  0.00     0.010 A 
ATOM     44  C   UNL     1       3.997   2.851 -12.062  1.00  0.00     0.010 A 
ATOM     45  C   UNL     1       5.290   3.398 -12.083  1.00  0.00    -0.014 A 
BRANCH  45  46
ATOM     46  C   UNL     1       6.322   3.322 -13.257  1.00  0.00     0.031 A 
ATOM     47  C   UNL     1       6.559   4.743 -13.666  1.00  0.00     0.074 A 
ATOM     48  C   UNL     1       7.034   2.419 -14.020  1.00  0.00     0.049 A 
ATOM     49  N   UNL     1       5.589   5.562 -13.964  1.00  0.00    -0.248 NA
ATOM     50  C   UNL     1       7.851   5.387 -13.398  1.00  0.00     0.031 C 
ATOM     51  C   UNL     1       7.050   0.954 -13.960  1.00  0.00     0.029 A 
ATOM     52  N   UNL     1       7.965   2.645 -15.064  1.00  0.00    -0.354 N 
ATOM     53  C   UNL     1       6.190   6.769 -14.204  1.00  0.00     0.074 A 
ATOM     54  C   UNL     1       7.525   6.657 -13.640  1.00  0.00     0.031 C 
ATOM     55  C   UNL     1       7.990   0.437 -14.806  1.00  0.00     0.029 A 
ATOM     56  C   UNL     1       8.636   1.499 -15.573  1.00  0.00     0.049 A 
ATOM     57  H   UNL     1       8.137   3.547 -15.418  1.00  0.00     0.167 HD
ATOM     58  C   UNL     1       5.778   7.516 -15.263  1.00  0.00     0.037 A 
ATOM     59  C   UNL     1       9.586   1.407 -16.573  1.00  0.00     0.037 A 
ATOM     60  C   UNL     1       6.791   7.643 -16.274  1.00  0.00     0.049 A 
ATOM     61  C   UNL     1       9.503   2.633 -17.390  1.00  0.00     0.074 A 
ATOM     62  C   UNL     1       8.142   7.925 -16.264  1.00  0.00     0.029 A 
ATOM     63  N   UNL     1       6.554   6.953 -17.449  1.00  0.00    -0.354 N 
ATOM     64  N   UNL     1       8.522   2.860 -18.207  1.00  0.00    -0.248 NA
ATOM     65  C   UNL     1      10.586   3.616 -17.424  1.00  0.00     0.031 C 
ATOM     66  C   UNL     1       8.714   6.910 -17.078  1.00  0.00     0.029 A 
ATOM     67  C   UNL     1       7.693   6.236 -17.747  1.00  0.00     0.049 A 
ATOM     68  H   UNL     1       5.723   6.970 -17.976  1.00  0.00     0.167 HD
ATOM     69  C   UNL     1       8.643   4.182 -18.499  1.00  0.00     0.074 A 
ATOM     70  C   UNL     1      10.028   4.511 -18.241  1.00  0.00     0.031 C 
ATOM     71  C   UNL     1       7.539   4.963 -18.420  1.00  0.00     0.037 A 
BRANCH  58  72
ATOM     72  C   UNL     1       4.317   7.467 -15.583  1.00  0.00     0.058 A 
ATOM     73  C   UNL     1       3.666   6.312 -16.058  1.00  0.00     0.135 A 
ATOM     74  C   UNL     1       3.545   8.615 -15.386  1.00  0.00     0.135 A 
ATOM     75  F   UNL     1       4.375   5.213 -16.359  1.00  0.00    -0.206 F 
ATOM     76  C   UNL     1       2.293   6.277 -16.269  1.00  0.00     0.059 A 
ATOM     77  C   UNL     1       2.173   8.612 -15.614  1.00  0.00     0.059 A 
ATOM     78  F   UNL     1       4.125   9.757 -14.979  1.00  0.00    -0.206 F 
ATOM     79  C   UNL     1       1.551   7.431 -16.026  1.00  0.00     0.060 A 
BRANCH  79  80
ATOM     80  S   UNL     1      -0.235   7.404 -16.295  1.00  0.00     0.124 S 
ATOM     81  O   UNL     1      -0.358   6.709 -17.565  1.00  0.00    -0.237 OA
ATOM     82  O   UNL     1      -0.706   6.678 -15.114  1.00  0.00    -0.237 OA
ATOM     83  O   UNL     1      -0.588   8.820 -16.331  1.00  0.00    -0.744 OA
ENDBRANCH  79  80
ENDBRANCH  58  72
BRANCH  59  84
ATOM     84  C   UNL     1      10.609   0.441 -17.174  1.00  0.00     0.058 A 
ATOM     85  C   UNL     1      11.536  -0.260 -16.393  1.00  0.00     0.135 A 
ATOM     86  C   UNL     1      10.968   0.552 -18.556  1.00  0.00     0.135 A 
ATOM     87  F   UNL     1      11.310  -0.441 -15.084  1.00  0.00    -0.206 F 
ATOM     88  C   UNL     1      12.776  -0.702 -16.911  1.00  0.00     0.059 A 
ATOM     89  C   UNL     1      12.206   0.162 -19.080  1.00  0.00     0.059 A 
ATOM     90  F   UNL     1      10.153   1.155 -19.433  1.00  0.00    -0.206 F 
ATOM     91  C   UNL     1      13.127  -0.435 -18.239  1.00  0.00     0.060 A 
BRANCH  91  92
ATOM     92  S   UNL     1      14.823  -0.737 -18.815  1.00  0.00     0.124 S 
ATOM     93  O   UNL     1      15.615  -0.035 -17.808  1.00  0.00    -0.237 OA
ATOM     94  O   UNL     1      14.906  -2.193 -18.782  1.00  0.00    -0.237 OA
ATOM     95  O   UNL     1      14.854  -0.137 -20.146  1.00  0.00    -0.744 OA
ENDBRANCH  91  92
ENDBRANCH  59  84
BRANCH  71  96
ATOM     96  C   UNL     1       6.211   4.330 -18.841  1.00  0.00     0.058 A 
ATOM     97  C   UNL     1       5.434   5.003 -19.797  1.00  0.00     0.135 A 
ATOM     98  C   UNL     1       5.712   3.068 -18.433  1.00  0.00     0.135 A 
ATOM     99  F   UNL     1       5.790   6.235 -20.195  1.00  0.00    -0.206 F 
ATOM    100  C   UNL     1       4.290   4.443 -20.372  1.00  0.00     0.059 A 
ATOM    101  C   UNL     1       4.608   2.459 -19.040  1.00  0.00     0.059 A 
ATOM    102  F   UNL     1       6.264   2.383 -17.421  1.00  0.00    -0.206 F 
ATOM    103  C   UNL     1       3.908   3.150 -20.020  1.00  0.00     0.060 A 
BRANCH 103 104
ATOM    104  S   UNL     1       2.567   2.344 -20.926  1.00  0.00     0.124 S 
ATOM    105  O   UNL     1       1.383   2.900 -20.287  1.00  0.00    -0.237 OA
ATOM    106  O   UNL     1       2.810   2.780 -22.300  1.00  0.00    -0.237 OA
ATOM    107  O   UNL     1       2.799   0.921 -20.690  1.00  0.00    -0.744 OA
ENDBRANCH 103 104
ENDBRANCH  71  96
ENDBRANCH  45  46
ENDBRANCH  37  40
ENDBRANCH  35  36
ENDBRANCH  34  35
ENDBRANCH   1  34
TORSDOF 19
