REMARK SMILES C[C@H]([C@H](C)C(=O)NCCCNC(=O)c1ccc(-c2c3nc(c(-c4c(F)cc(S(=O)(=O)[O-])cc4F)c4ccc([nH]4)c(-c4c(F)cc(S(=O)(=O)[O-])cc4F)c4nc(c(-c5c(F)cc(S(=O)(=O)[O-])cc5F)c5ccc2[nH]5)C=C4)C=C3)cc1)[C@H](O)c1cncn1C1CC1
REMARK SMILES IDX 8 1 7 2 5 3 6 4 3 6 4 7 2 8 1 9 80 10 82 11 83 12 86 13
REMARK SMILES IDX 84 14 85 15 87 16 88 17 89 18 81 19 9 21 10 22 11 23 12 24
REMARK SMILES IDX 13 26 14 27 15 28 79 29 16 30 78 31 17 32 18 33 19 34 72 35
REMARK SMILES IDX 20 36 77 37 71 38 73 39 21 40 76 41 70 42 69 43 22 45 56 46
REMARK SMILES IDX 35 47 55 48 36 49 39 50 54 51 74 52 37 53 38 54 53 56 75 57
REMARK SMILES IDX 40 58 23 59 24 60 33 61 25 62 26 63 32 64 34 65 27 66 28 67
REMARK SMILES IDX 29 68 30 69 31 70 57 71 58 72 67 73 59 74 60 75 66 76 68 77
REMARK SMILES IDX 61 78 62 79 63 80 64 81 65 82 41 83 42 84 51 85 43 86 44 87
REMARK SMILES IDX 50 88 52 89 45 90 46 91 47 92 48 93 49 94
REMARK H PARENT 7 5 81 20 11 25 73 44 39 55
REMARK Flexibility Score: inf
ROOT
ATOM      1  C   UNL     1      -1.096  -3.723   1.919  1.00  0.00     0.117 C 
ENDROOT
BRANCH   1   2
ATOM      2  N   UNL     1      -0.011  -3.866   0.985  1.00  0.00    -0.356 N 
ATOM      3  C   UNL     1       0.631  -2.855   0.336  1.00  0.00     0.223 C 
ATOM      4  O   UNL     1       1.861  -2.944   0.255  1.00  0.00    -0.275 OA
ATOM      5  H   UNL     1       0.297  -4.782   0.798  1.00  0.00     0.163 HD
BRANCH   3   6
ATOM      6  C   UNL     1      -0.118  -1.795  -0.477  1.00  0.00     0.081 C 
ATOM      7  C   UNL     1      -0.657  -2.503  -1.734  1.00  0.00     0.018 C 
BRANCH   6   8
ATOM      8  C   UNL     1      -1.143  -0.790   0.132  1.00  0.00     0.033 C 
ATOM      9  C   UNL     1      -2.598  -1.280   0.235  1.00  0.00     0.011 C 
BRANCH   8  10
ATOM     10  C   UNL     1      -0.659   0.139   1.290  1.00  0.00     0.166 C 
BRANCH  10  11
ATOM     11  C   UNL     1      -0.809  -0.351   2.688  1.00  0.00     0.067 A 
ATOM     12  C   UNL     1      -0.041  -1.267   3.390  1.00  0.00     0.137 A 
ATOM     13  N   UNL     1      -1.739   0.043   3.633  1.00  0.00    -0.329 N 
ATOM     14  N   UNL     1      -0.649  -1.649   4.555  1.00  0.00    -0.245 NA
ATOM     15  C   UNL     1      -1.693  -0.862   4.661  1.00  0.00     0.199 A 
BRANCH  13  16
ATOM     16  C   UNL     1      -2.485   1.279   3.783  1.00  0.00     0.088 C 
ATOM     17  C   UNL     1      -1.779   2.598   3.491  1.00  0.00     0.027 C 
ATOM     18  C   UNL     1      -2.997   2.219   2.721  1.00  0.00     0.027 C 
ENDBRANCH  13  16
ENDBRANCH  10  11
BRANCH  10  19
ATOM     19  O   UNL     1       0.721   0.437   1.111  1.00  0.00    -0.387 OA
ATOM     20  H   UNL     1       1.242  -0.377   1.202  1.00  0.00     0.211 HD
ENDBRANCH  10  19
ENDBRANCH   8  10
ENDBRANCH   6   8
ENDBRANCH   3   6
ENDBRANCH   1   2
BRANCH   1  21
ATOM     21  C   UNL     1      -2.210  -4.737   1.797  1.00  0.00     0.042 C 
BRANCH  21  22
ATOM     22  C   UNL     1      -2.284  -5.628   3.027  1.00  0.00     0.118 C 
BRANCH  22  23
ATOM     23  N   UNL     1      -2.470  -4.905   4.288  1.00  0.00    -0.352 N 
ATOM     24  C   UNL     1      -3.189  -5.285   5.402  1.00  0.00     0.251 C 
ATOM     25  H   UNL     1      -2.021  -4.031   4.349  1.00  0.00     0.163 HD
ATOM     26  O   UNL     1      -3.289  -4.541   6.367  1.00  0.00    -0.269 OA
BRANCH  24  27
ATOM     27  C   UNL     1      -3.898  -6.582   5.381  1.00  0.00     0.039 A 
ATOM     28  C   UNL     1      -5.238  -6.622   5.774  1.00  0.00     0.014 A 
ATOM     29  C   UNL     1      -3.274  -7.725   4.880  1.00  0.00     0.014 A 
ATOM     30  C   UNL     1      -5.981  -7.784   5.562  1.00  0.00     0.010 A 
ATOM     31  C   UNL     1      -4.041  -8.836   4.565  1.00  0.00     0.010 A 
ATOM     32  C   UNL     1      -5.402  -8.879   4.902  1.00  0.00    -0.014 A 
BRANCH  32  33
ATOM     33  C   UNL     1      -6.179 -10.096   4.563  1.00  0.00     0.031 A 
ATOM     34  C   UNL     1      -5.729 -11.426   5.102  1.00  0.00     0.074 A 
ATOM     35  C   UNL     1      -7.204 -10.022   3.692  1.00  0.00     0.049 A 
ATOM     36  N   UNL     1      -6.136 -12.627   4.790  1.00  0.00    -0.248 NA
ATOM     37  C   UNL     1      -4.632 -11.400   6.085  1.00  0.00     0.031 C 
ATOM     38  C   UNL     1      -7.690  -8.798   3.050  1.00  0.00     0.029 A 
ATOM     39  N   UNL     1      -8.011 -11.005   3.178  1.00  0.00    -0.354 N 
ATOM     40  C   UNL     1      -5.313 -13.497   5.494  1.00  0.00     0.074 A 
ATOM     41  C   UNL     1      -4.351 -12.688   6.209  1.00  0.00     0.031 C 
ATOM     42  C   UNL     1      -8.726  -9.100   2.251  1.00  0.00     0.029 A 
ATOM     43  C   UNL     1      -8.952 -10.541   2.290  1.00  0.00     0.049 A 
ATOM     44  H   UNL     1      -7.924 -11.955   3.422  1.00  0.00     0.167 HD
ATOM     45  C   UNL     1      -5.369 -14.848   5.561  1.00  0.00     0.037 A 
ATOM     46  C   UNL     1      -9.887 -11.205   1.583  1.00  0.00     0.037 A 
ATOM     47  C   UNL     1      -6.375 -15.636   4.902  1.00  0.00     0.049 A 
ATOM     48  C   UNL     1      -9.988 -12.697   1.737  1.00  0.00     0.074 A 
ATOM     49  C   UNL     1      -6.575 -17.003   4.958  1.00  0.00     0.029 A 
ATOM     50  N   UNL     1      -7.366 -15.117   4.080  1.00  0.00    -0.354 N 
ATOM     51  N   UNL     1      -9.229 -13.504   2.440  1.00  0.00    -0.248 NA
ATOM     52  C   UNL     1     -11.073 -13.370   1.011  1.00  0.00     0.031 C 
ATOM     53  C   UNL     1      -7.680 -17.313   4.156  1.00  0.00     0.029 A 
ATOM     54  C   UNL     1      -8.185 -16.136   3.626  1.00  0.00     0.049 A 
ATOM     55  H   UNL     1      -7.471 -14.165   3.853  1.00  0.00     0.167 HD
ATOM     56  C   UNL     1      -9.758 -14.777   2.261  1.00  0.00     0.074 A 
ATOM     57  C   UNL     1     -10.906 -14.631   1.389  1.00  0.00     0.031 C 
ATOM     58  C   UNL     1      -9.333 -15.958   2.773  1.00  0.00     0.037 A 
BRANCH  45  59
ATOM     59  C   UNL     1      -4.319 -15.540   6.384  1.00  0.00     0.058 A 
ATOM     60  C   UNL     1      -4.290 -15.432   7.784  1.00  0.00     0.135 A 
ATOM     61  C   UNL     1      -3.312 -16.299   5.766  1.00  0.00     0.135 A 
ATOM     62  F   UNL     1      -5.218 -14.703   8.425  1.00  0.00    -0.206 F 
ATOM     63  C   UNL     1      -3.272 -16.006   8.538  1.00  0.00     0.059 A 
ATOM     64  C   UNL     1      -2.301 -16.908   6.503  1.00  0.00     0.059 A 
ATOM     65  F   UNL     1      -3.292 -16.437   4.431  1.00  0.00    -0.206 F 
ATOM     66  C   UNL     1      -2.276 -16.734   7.887  1.00  0.00     0.060 A 
BRANCH  66  67
ATOM     67  S   UNL     1      -0.942 -17.447   8.871  1.00  0.00     0.124 S 
ATOM     68  O   UNL     1      -0.101 -16.278   9.109  1.00  0.00    -0.237 OA
ATOM     69  O   UNL     1      -1.651 -17.964  10.038  1.00  0.00    -0.237 OA
ATOM     70  O   UNL     1      -0.375 -18.461   7.987  1.00  0.00    -0.744 OA
ENDBRANCH  66  67
ENDBRANCH  45  59
BRANCH  46  71
ATOM     71  C   UNL     1     -10.825 -10.453   0.710  1.00  0.00     0.058 A 
ATOM     72  C   UNL     1     -12.158 -10.251   1.098  1.00  0.00     0.135 A 
ATOM     73  C   UNL     1     -10.403  -9.884  -0.501  1.00  0.00     0.135 A 
ATOM     74  F   UNL     1     -12.608 -10.779   2.246  1.00  0.00    -0.206 F 
ATOM     75  C   UNL     1     -13.042  -9.514   0.317  1.00  0.00     0.059 A 
ATOM     76  C   UNL     1     -11.264  -9.127  -1.292  1.00  0.00     0.059 A 
ATOM     77  F   UNL     1      -9.133 -10.033  -0.908  1.00  0.00    -0.206 F 
ATOM     78  C   UNL     1     -12.583  -8.951  -0.876  1.00  0.00     0.060 A 
BRANCH  78  79
ATOM     79  S   UNL     1     -13.718  -7.932  -1.845  1.00  0.00     0.124 S 
ATOM     80  O   UNL     1     -14.573  -8.944  -2.456  1.00  0.00    -0.237 OA
ATOM     81  O   UNL     1     -14.342  -7.104  -0.818  1.00  0.00    -0.237 OA
ATOM     82  O   UNL     1     -12.829  -7.219  -2.758  1.00  0.00    -0.744 OA
ENDBRANCH  78  79
ENDBRANCH  46  71
BRANCH  58  83
ATOM     83  C   UNL     1     -10.135 -17.182   2.438  1.00  0.00     0.058 A 
ATOM     84  C   UNL     1     -10.037 -17.803   1.185  1.00  0.00     0.135 A 
ATOM     85  C   UNL     1     -10.951 -17.779   3.411  1.00  0.00     0.135 A 
ATOM     86  F   UNL     1      -9.274 -17.265   0.221  1.00  0.00    -0.206 F 
ATOM     87  C   UNL     1     -10.733 -18.973   0.902  1.00  0.00     0.059 A 
ATOM     88  C   UNL     1     -11.639 -18.960   3.157  1.00  0.00     0.059 A 
ATOM     89  F   UNL     1     -11.068 -17.226   4.628  1.00  0.00    -0.206 F 
ATOM     90  C   UNL     1     -11.529 -19.546   1.896  1.00  0.00     0.060 A 
BRANCH  90  91
ATOM     91  S   UNL     1     -12.386 -21.094   1.537  1.00  0.00     0.124 S 
ATOM     92  O   UNL     1     -13.502 -20.628   0.721  1.00  0.00    -0.237 OA
ATOM     93  O   UNL     1     -11.364 -21.863   0.834  1.00  0.00    -0.237 OA
ATOM     94  O   UNL     1     -12.741 -21.599   2.860  1.00  0.00    -0.744 OA
ENDBRANCH  90  91
ENDBRANCH  58  83
ENDBRANCH  32  33
ENDBRANCH  24  27
ENDBRANCH  22  23
ENDBRANCH  21  22
ENDBRANCH   1  21
TORSDOF 18
