REMARK SMILES CC(=O)N1CC[NH+](C[C@@H](CC(=O)Nc2ccccc2F)C(=O)NCCCNC(=O)c2ccc(-c3c4nc(c(-c5c(F)cc(S(=O)(=O)[O-])cc5F)c5ccc([nH]5)c(-c5c(F)cc(S(=O)(=O)[O-])cc5F)c5nc(c(-c6c(F)cc(S(=O)(=O)[O-])cc6F)c6ccc3[nH]6)C=C5)C=C4)cc2)CC1
REMARK SMILES IDX 25 1 24 2 23 3 21 4 22 5 9 7 8 8 7 9 1 10 2 11 3 12 4 13
REMARK SMILES IDX 5 14 97 15 6 16 96 17 10 19 11 20 12 21 13 22 14 24 15 25
REMARK SMILES IDX 19 26 16 27 18 28 20 29 17 30 26 31 27 32 28 33 29 35 30 36
REMARK SMILES IDX 31 37 95 38 32 39 94 40 33 41 34 42 35 43 88 44 36 45 93 46
REMARK SMILES IDX 87 47 89 48 37 49 92 50 86 51 85 52 38 54 72 55 51 56 71 57
REMARK SMILES IDX 52 58 55 59 70 60 90 61 53 62 54 63 69 65 91 66 56 67 39 68
REMARK SMILES IDX 40 69 49 70 41 71 42 72 48 73 50 74 43 75 44 76 45 77 46 78
REMARK SMILES IDX 47 79 73 80 74 81 83 82 75 83 76 84 82 85 84 86 77 87 78 88
REMARK SMILES IDX 79 89 80 90 81 91 57 92 58 93 67 94 59 95 60 96 66 97 68 98
REMARK SMILES IDX 61 99 62 100 63 101 64 102 65 103
REMARK H PARENT 23 6 7 18 13 23 27 34 89 53 55 64
REMARK Flexibility Score: inf
ROOT
ATOM      1  C   UNL     1       0.722  -3.142   9.086  1.00  0.00     0.042 C 
ENDROOT
BRANCH   1   2
ATOM      2  C   UNL     1       0.520  -1.955   8.188  1.00  0.00     0.117 C 
BRANCH   2   3
ATOM      3  N   UNL     1       1.674  -1.165   7.870  1.00  0.00    -0.356 N 
ATOM      4  C   UNL     1       1.939  -0.579   6.668  1.00  0.00     0.229 C 
ATOM      5  O   UNL     1       2.929   0.159   6.603  1.00  0.00    -0.275 OA
ATOM      6  H   UNL     1       2.336  -1.033   8.586  1.00  0.00     0.163 HD
BRANCH   4   7
ATOM      7  C   UNL     1       1.104  -0.865   5.393  1.00  0.00     0.142 C 
BRANCH   7   8
ATOM      8  C   UNL     1       1.911  -1.821   4.496  1.00  0.00     0.276 C 
BRANCH   8   9
ATOM      9  N   UNL     1       1.451  -2.350   3.202  1.00  0.00    -0.331 N 
ATOM     10  C   UNL     1       1.648   0.545  -1.095  1.00  0.00     0.114 C 
ATOM     11  C   UNL     1       0.774   0.586   0.124  1.00  0.00     0.219 C 
ATOM     12  O   UNL     1      -0.214   1.319   0.159  1.00  0.00    -0.275 OA
ATOM     13  N   UNL     1       1.079  -0.307   1.133  1.00  0.00    -0.332 N 
ATOM     14  C   UNL     1       0.059  -0.541   2.139  1.00  0.00     0.181 C 
ATOM     15  C   UNL     1       2.432  -0.770   1.479  1.00  0.00     0.181 C 
ATOM     16  C   UNL     1       0.139  -1.968   2.680  1.00  0.00     0.284 C 
ATOM     17  C   UNL     1       2.450  -2.175   2.127  1.00  0.00     0.284 C 
ATOM     18  H   UNL     1       1.330  -3.326   3.474  1.00  0.00     0.348 HD
ENDBRANCH   8   9
ENDBRANCH   7   8
BRANCH   7  19
ATOM     19  C   UNL     1      -0.420  -0.897   5.564  1.00  0.00     0.119 C 
BRANCH  19  20
ATOM     20  C   UNL     1      -1.432  -1.998   5.930  1.00  0.00     0.225 C 
ATOM     21  O   UNL     1      -2.444  -1.601   6.540  1.00  0.00    -0.275 OA
ATOM     22  N   UNL     1      -1.501  -3.299   5.580  1.00  0.00    -0.324 N 
ATOM     23  H   UNL     1      -2.395  -3.663   5.778  1.00  0.00     0.170 HD
BRANCH  22  24
ATOM     24  C   UNL     1      -0.680  -4.290   5.017  1.00  0.00     0.077 A 
ATOM     25  C   UNL     1      -1.300  -5.117   4.071  1.00  0.00     0.029 A 
ATOM     26  C   UNL     1       0.624  -4.611   5.391  1.00  0.00     0.146 A 
ATOM     27  C   UNL     1      -0.590  -6.134   3.424  1.00  0.00     0.002 A 
ATOM     28  C   UNL     1       1.340  -5.629   4.757  1.00  0.00     0.041 A 
ATOM     29  F   UNL     1       1.219  -4.024   6.432  1.00  0.00    -0.205 F 
ATOM     30  C   UNL     1       0.740  -6.377   3.751  1.00  0.00     0.003 A 
ENDBRANCH  22  24
ENDBRANCH  19  20
ENDBRANCH   7  19
ENDBRANCH   4   7
ENDBRANCH   2   3
ENDBRANCH   1   2
BRANCH   1  31
ATOM     31  C   UNL     1       0.659  -2.793  10.549  1.00  0.00     0.118 C 
BRANCH  31  32
ATOM     32  N   UNL     1      -0.640  -2.270  10.965  1.00  0.00    -0.352 N 
ATOM     33  C   UNL     1      -1.620  -2.789  11.780  1.00  0.00     0.251 C 
ATOM     34  H   UNL     1      -0.853  -1.384  10.594  1.00  0.00     0.163 HD
ATOM     35  O   UNL     1      -2.687  -2.196  11.884  1.00  0.00    -0.269 OA
BRANCH  33  36
ATOM     36  C   UNL     1      -1.411  -4.067  12.497  1.00  0.00     0.039 A 
ATOM     37  C   UNL     1      -2.497  -4.920  12.708  1.00  0.00     0.014 A 
ATOM     38  C   UNL     1      -0.151  -4.440  12.954  1.00  0.00     0.014 A 
ATOM     39  C   UNL     1      -2.289  -6.167  13.302  1.00  0.00     0.010 A 
ATOM     40  C   UNL     1       0.085  -5.743  13.359  1.00  0.00     0.010 A 
ATOM     41  C   UNL     1      -0.986  -6.610  13.586  1.00  0.00    -0.014 A 
BRANCH  41  42
ATOM     42  C   UNL     1      -0.726  -7.949  14.169  1.00  0.00     0.031 A 
ATOM     43  C   UNL     1       0.018  -8.075  15.475  1.00  0.00     0.074 A 
ATOM     44  C   UNL     1      -1.118  -9.051  13.500  1.00  0.00     0.049 A 
ATOM     45  N   UNL     1       0.337  -9.156  16.141  1.00  0.00    -0.248 NA
ATOM     46  C   UNL     1       0.513  -6.834  16.096  1.00  0.00     0.031 C 
ATOM     47  C   UNL     1      -1.758  -9.058  12.182  1.00  0.00     0.029 A 
ATOM     48  N   UNL     1      -1.047 -10.378  13.839  1.00  0.00    -0.354 N 
ATOM     49  C   UNL     1       1.080  -8.722  17.233  1.00  0.00     0.074 A 
ATOM     50  C   UNL     1       1.244  -7.295  17.098  1.00  0.00     0.031 C 
ATOM     51  C   UNL     1      -2.082 -10.318  11.856  1.00  0.00     0.029 A 
ATOM     52  C   UNL     1      -1.639 -11.212  12.921  1.00  0.00     0.049 A 
ATOM     53  H   UNL     1      -0.613 -10.702  14.661  1.00  0.00     0.167 HD
ATOM     54  C   UNL     1       1.544  -9.440  18.282  1.00  0.00     0.037 A 
ATOM     55  C   UNL     1      -1.823 -12.547  12.944  1.00  0.00     0.037 A 
ATOM     56  C   UNL     1       1.326 -10.853  18.433  1.00  0.00     0.049 A 
ATOM     57  C   UNL     1      -1.350 -13.321  14.141  1.00  0.00     0.074 A 
ATOM     58  C   UNL     1       1.672 -11.667  19.495  1.00  0.00     0.029 A 
ATOM     59  N   UNL     1       0.701 -11.660  17.493  1.00  0.00    -0.354 N 
ATOM     60  N   UNL     1      -0.725 -12.883  15.209  1.00  0.00    -0.248 NA
ATOM     61  C   UNL     1      -1.613 -14.765  14.144  1.00  0.00     0.031 C 
ATOM     62  C   UNL     1       1.301 -12.977  19.175  1.00  0.00     0.029 A 
ATOM     63  C   UNL     1       0.675 -12.970  17.938  1.00  0.00     0.049 A 
ATOM     64  H   UNL     1       0.331 -11.347  16.636  1.00  0.00     0.167 HD
ATOM     65  C   UNL     1      -0.525 -13.996  16.016  1.00  0.00     0.074 A 
ATOM     66  C   UNL     1      -1.118 -15.123  15.322  1.00  0.00     0.031 C 
ATOM     67  C   UNL     1       0.096 -14.079  17.220  1.00  0.00     0.037 A 
BRANCH  54  68
ATOM     68  C   UNL     1       2.309  -8.704  19.350  1.00  0.00     0.058 A 
ATOM     69  C   UNL     1       3.677  -8.950  19.544  1.00  0.00     0.135 A 
ATOM     70  C   UNL     1       1.689  -7.766  20.194  1.00  0.00     0.135 A 
ATOM     71  F   UNL     1       4.325  -9.828  18.764  1.00  0.00    -0.206 F 
ATOM     72  C   UNL     1       4.402  -8.296  20.536  1.00  0.00     0.059 A 
ATOM     73  C   UNL     1       2.401  -7.076  21.171  1.00  0.00     0.059 A 
ATOM     74  F   UNL     1       0.388  -7.472  20.038  1.00  0.00    -0.206 F 
ATOM     75  C   UNL     1       3.756  -7.357  21.342  1.00  0.00     0.060 A 
BRANCH  75  76
ATOM     76  S   UNL     1       4.723  -6.474  22.584  1.00  0.00     0.124 S 
ATOM     77  O   UNL     1       4.970  -7.519  23.570  1.00  0.00    -0.237 OA
ATOM     78  O   UNL     1       5.884  -6.035  21.815  1.00  0.00    -0.237 OA
ATOM     79  O   UNL     1       3.827  -5.403  23.012  1.00  0.00    -0.744 OA
ENDBRANCH  75  76
ENDBRANCH  54  68
BRANCH  55  80
ATOM     80  C   UNL     1      -2.545 -13.198  11.819  1.00  0.00     0.058 A 
ATOM     81  C   UNL     1      -1.968 -13.296  10.544  1.00  0.00     0.135 A 
ATOM     82  C   UNL     1      -3.867 -13.643  11.975  1.00  0.00     0.135 A 
ATOM     83  F   UNL     1      -0.711 -12.872  10.339  1.00  0.00    -0.206 F 
ATOM     84  C   UNL     1      -2.688 -13.772   9.454  1.00  0.00     0.059 A 
ATOM     85  C   UNL     1      -4.601 -14.145  10.903  1.00  0.00     0.059 A 
ATOM     86  F   UNL     1      -4.458 -13.577  13.177  1.00  0.00    -0.206 F 
ATOM     87  C   UNL     1      -4.009 -14.181   9.641  1.00  0.00     0.060 A 
BRANCH  87  88
ATOM     88  S   UNL     1      -4.947 -14.727   8.198  1.00  0.00     0.124 S 
ATOM     89  O   UNL     1      -5.073 -13.483   7.444  1.00  0.00    -0.237 OA
ATOM     90  O   UNL     1      -4.061 -15.732   7.620  1.00  0.00    -0.237 OA
ATOM     91  O   UNL     1      -6.186 -15.241   8.773  1.00  0.00    -0.744 OA
ENDBRANCH  87  88
ENDBRANCH  55  80
BRANCH  67  92
ATOM     92  C   UNL     1       0.176 -15.435  17.863  1.00  0.00     0.058 A 
ATOM     93  C   UNL     1      -0.560 -15.720  19.023  1.00  0.00     0.135 A 
ATOM     94  C   UNL     1       1.033 -16.430  17.366  1.00  0.00     0.135 A 
ATOM     95  F   UNL     1      -1.386 -14.799  19.545  1.00  0.00    -0.206 F 
ATOM     96  C   UNL     1      -0.442 -16.941  19.676  1.00  0.00     0.059 A 
ATOM     97  C   UNL     1       1.144 -17.671  17.987  1.00  0.00     0.059 A 
ATOM     98  F   UNL     1       1.752 -16.209  16.255  1.00  0.00    -0.206 F 
ATOM     99  C   UNL     1       0.412 -17.911  19.149  1.00  0.00     0.060 A 
BRANCH  99 100
ATOM    100  S   UNL     1       0.524 -19.504  19.989  1.00  0.00     0.124 S 
ATOM    101  O   UNL     1       1.263 -19.154  21.197  1.00  0.00    -0.237 OA
ATOM    102  O   UNL     1      -0.881 -19.851  20.181  1.00  0.00    -0.237 OA
ATOM    103  O   UNL     1       1.243 -20.341  19.032  1.00  0.00    -0.744 OA
ENDBRANCH  99 100
ENDBRANCH  67  92
ENDBRANCH  41  42
ENDBRANCH  33  36
ENDBRANCH  31  32
ENDBRANCH   1  31
TORSDOF 18
