REMARK SMILES CC[N@@H+](C[C@@H](C)C(=O)NCCCNC(=O)c1ccc(-c2c3nc(c(-c4c(F)cc(S(=O)(=O)[O-])cc4F)c4ccc([nH]4)c(-c4c(F)cc(S(=O)(=O)[O-])cc4F)c4nc(c(-c5c(F)cc(S(=O)(=O)[O-])cc5F)c5ccc2[nH]5)C=C4)C=C3)cc1)[C@@H](C)c1ccoc1
REMARK SMILES IDX 10 1 9 2 7 3 8 4 5 6 6 7 4 8 3 9 2 11 1 12 82 13 83 14 84 15
REMARK SMILES IDX 85 16 88 17 86 18 87 19 11 20 12 21 13 22 14 23 15 25 16 26
REMARK SMILES IDX 17 27 81 28 18 29 80 30 19 31 20 32 21 33 74 34 22 35 79 36
REMARK SMILES IDX 73 37 75 38 23 39 78 40 72 41 71 42 24 44 58 45 37 46 57 47
REMARK SMILES IDX 38 48 41 49 56 50 76 51 39 52 40 53 55 55 77 56 42 57 25 58
REMARK SMILES IDX 26 59 35 60 27 61 28 62 34 63 36 64 29 65 30 66 31 67 32 68
REMARK SMILES IDX 33 69 59 70 60 71 69 72 61 73 62 74 68 75 70 76 63 77 64 78
REMARK SMILES IDX 65 79 66 80 67 81 43 82 44 83 53 84 45 85 46 86 52 87 54 88
REMARK SMILES IDX 47 89 48 90 49 91 50 92 51 93
REMARK H PARENT 9 5 3 10 13 24 75 43 41 54
REMARK Flexibility Score: inf
ROOT
ATOM      1  C   UNL     1       1.573   5.097  -4.351  1.00  0.00     0.117 C 
ENDROOT
BRANCH   1   2
ATOM      2  N   UNL     1       0.555   5.572  -3.428  1.00  0.00    -0.356 N 
ATOM      3  C   UNL     1       0.312   5.223  -2.135  1.00  0.00     0.228 C 
ATOM      4  O   UNL     1      -0.598   5.799  -1.537  1.00  0.00    -0.275 OA
ATOM      5  H   UNL     1      -0.055   6.252  -3.795  1.00  0.00     0.163 HD
BRANCH   3   6
ATOM      6  C   UNL     1       1.167   4.174  -1.435  1.00  0.00     0.130 C 
ATOM      7  C   UNL     1       2.614   4.687  -1.370  1.00  0.00     0.024 C 
BRANCH   6   8
ATOM      8  C   UNL     1       0.905   2.772  -2.049  1.00  0.00     0.275 C 
BRANCH   8   9
ATOM      9  N   UNL     1       1.215   1.552  -1.265  1.00  0.00    -0.328 N 
ATOM     10  H   UNL     1       1.025   0.743  -1.856  1.00  0.00     0.348 HD
BRANCH   9  11
ATOM     11  C   UNL     1       0.283   1.363  -0.147  1.00  0.00     0.259 C 
ATOM     12  C   UNL     1       0.282  -0.034   0.467  1.00  0.00     0.071 C 
ENDBRANCH   9  11
BRANCH   9  13
ATOM     13  C   UNL     1       2.652   1.354  -1.008  1.00  0.00     0.215 C 
ATOM     14  C   UNL     1       3.144   1.946   0.325  1.00  0.00     0.081 C 
BRANCH  13  15
ATOM     15  C   UNL     1       3.033  -0.103  -1.150  1.00  0.00     0.047 A 
ATOM     16  C   UNL     1       4.115  -0.777  -0.501  1.00  0.00     0.052 A 
ATOM     17  C   UNL     1       2.458  -1.068  -1.957  1.00  0.00     0.204 A 
ATOM     18  C   UNL     1       4.072  -2.088  -0.907  1.00  0.00     0.195 A 
ATOM     19  O   UNL     1       3.068  -2.270  -1.797  1.00  0.00    -0.472 OA
ENDBRANCH  13  15
ENDBRANCH   9  13
ENDBRANCH   8   9
ENDBRANCH   6   8
ENDBRANCH   3   6
ENDBRANCH   1   2
BRANCH   1  20
ATOM     20  C   UNL     1       0.963   4.619  -5.655  1.00  0.00     0.042 C 
BRANCH  20  21
ATOM     21  C   UNL     1       0.432   5.767  -6.498  1.00  0.00     0.118 C 
BRANCH  21  22
ATOM     22  N   UNL     1       1.496   6.664  -6.939  1.00  0.00    -0.352 N 
ATOM     23  C   UNL     1       1.873   6.995  -8.219  1.00  0.00     0.251 C 
ATOM     24  H   UNL     1       2.016   7.092  -6.220  1.00  0.00     0.163 HD
ATOM     25  O   UNL     1       2.921   7.591  -8.423  1.00  0.00    -0.269 OA
BRANCH  23  26
ATOM     26  C   UNL     1       0.995   6.599  -9.336  1.00  0.00     0.039 A 
ATOM     27  C   UNL     1       1.545   5.980 -10.459  1.00  0.00     0.014 A 
ATOM     28  C   UNL     1      -0.385   6.797  -9.232  1.00  0.00     0.014 A 
ATOM     29  C   UNL     1       0.696   5.490 -11.451  1.00  0.00     0.010 A 
ATOM     30  C   UNL     1      -1.228   6.220 -10.167  1.00  0.00     0.010 A 
ATOM     31  C   UNL     1      -0.698   5.571 -11.292  1.00  0.00    -0.014 A 
BRANCH  31  32
ATOM     32  C   UNL     1      -1.637   5.014 -12.295  1.00  0.00     0.031 A 
ATOM     33  C   UNL     1      -2.601   5.936 -12.991  1.00  0.00     0.074 A 
ATOM     34  C   UNL     1      -1.686   3.684 -12.504  1.00  0.00     0.049 A 
ATOM     35  N   UNL     1      -3.596   5.644 -13.786  1.00  0.00    -0.248 NA
ATOM     36  C   UNL     1      -2.450   7.377 -12.721  1.00  0.00     0.031 C 
ATOM     37  C   UNL     1      -0.835   2.688 -11.848  1.00  0.00     0.029 A 
ATOM     38  N   UNL     1      -2.501   2.937 -13.317  1.00  0.00    -0.354 N 
ATOM     39  C   UNL     1      -4.203   6.857 -14.088  1.00  0.00     0.074 A 
ATOM     40  C   UNL     1      -3.504   7.881 -13.344  1.00  0.00     0.031 C 
ATOM     41  C   UNL     1      -1.157   1.465 -12.301  1.00  0.00     0.029 A 
ATOM     42  C   UNL     1      -2.265   1.584 -13.243  1.00  0.00     0.049 A 
ATOM     43  H   UNL     1      -3.189   3.333 -13.898  1.00  0.00     0.167 HD
ATOM     44  C   UNL     1      -5.231   7.099 -14.934  1.00  0.00     0.037 A 
ATOM     45  C   UNL     1      -2.882   0.557 -13.859  1.00  0.00     0.037 A 
ATOM     46  C   UNL     1      -5.891   6.077 -15.701  1.00  0.00     0.049 A 
ATOM     47  C   UNL     1      -4.017   0.852 -14.803  1.00  0.00     0.074 A 
ATOM     48  C   UNL     1      -6.904   6.219 -16.631  1.00  0.00     0.029 A 
ATOM     49  N   UNL     1      -5.595   4.723 -15.630  1.00  0.00    -0.354 N 
ATOM     50  N   UNL     1      -4.545   2.010 -15.120  1.00  0.00    -0.248 NA
ATOM     51  C   UNL     1      -4.638  -0.297 -15.476  1.00  0.00     0.031 C 
ATOM     52  C   UNL     1      -7.246   4.946 -17.098  1.00  0.00     0.029 A 
ATOM     53  C   UNL     1      -6.414   4.016 -16.492  1.00  0.00     0.049 A 
ATOM     54  H   UNL     1      -4.904   4.325 -15.053  1.00  0.00     0.167 HD
ATOM     55  C   UNL     1      -5.537   1.733 -16.053  1.00  0.00     0.074 A 
ATOM     56  C   UNL     1      -5.533   0.299 -16.253  1.00  0.00     0.031 C 
ATOM     57  C   UNL     1      -6.376   2.588 -16.689  1.00  0.00     0.037 A 
BRANCH  44  58
ATOM     58  C   UNL     1      -5.691   8.523 -15.080  1.00  0.00     0.058 A 
ATOM     59  C   UNL     1      -4.897   9.492 -15.716  1.00  0.00     0.135 A 
ATOM     60  C   UNL     1      -6.948   8.922 -14.597  1.00  0.00     0.135 A 
ATOM     61  F   UNL     1      -3.679   9.170 -16.179  1.00  0.00    -0.206 F 
ATOM     62  C   UNL     1      -5.317  10.812 -15.838  1.00  0.00     0.059 A 
ATOM     63  C   UNL     1      -7.402  10.231 -14.736  1.00  0.00     0.059 A 
ATOM     64  F   UNL     1      -7.747   8.039 -13.979  1.00  0.00    -0.206 F 
ATOM     65  C   UNL     1      -6.572  11.172 -15.344  1.00  0.00     0.060 A 
BRANCH  65  66
ATOM     66  S   UNL     1      -7.103  12.889 -15.514  1.00  0.00     0.124 S 
ATOM     67  O   UNL     1      -6.276  13.549 -14.508  1.00  0.00    -0.237 OA
ATOM     68  O   UNL     1      -6.766  13.184 -16.903  1.00  0.00    -0.237 OA
ATOM     69  O   UNL     1      -8.530  12.834 -15.215  1.00  0.00    -0.744 OA
ENDBRANCH  65  66
ENDBRANCH  44  58
BRANCH  45  70
ATOM     70  C   UNL     1      -2.424  -0.838 -13.623  1.00  0.00     0.058 A 
ATOM     71  C   UNL     1      -1.757  -1.554 -14.628  1.00  0.00     0.135 A 
ATOM     72  C   UNL     1      -2.630  -1.479 -12.392  1.00  0.00     0.135 A 
ATOM     73  F   UNL     1      -1.540  -0.985 -15.824  1.00  0.00    -0.206 F 
ATOM     74  C   UNL     1      -1.327  -2.862 -14.430  1.00  0.00     0.059 A 
ATOM     75  C   UNL     1      -2.187  -2.778 -12.161  1.00  0.00     0.059 A 
ATOM     76  F   UNL     1      -3.245  -0.831 -11.390  1.00  0.00    -0.206 F 
ATOM     77  C   UNL     1      -1.546  -3.465 -13.191  1.00  0.00     0.060 A 
BRANCH  77  78
ATOM     78  S   UNL     1      -0.948  -5.149 -12.931  1.00  0.00     0.124 S 
ATOM     79  O   UNL     1      -1.901  -5.924 -13.716  1.00  0.00    -0.237 OA
ATOM     80  O   UNL     1       0.409  -5.078 -13.464  1.00  0.00    -0.237 OA
ATOM     81  O   UNL     1      -1.036  -5.317 -11.484  1.00  0.00    -0.744 OA
ENDBRANCH  77  78
ENDBRANCH  45  70
BRANCH  57  82
ATOM     82  C   UNL     1      -7.329   2.007 -17.695  1.00  0.00     0.058 A 
ATOM     83  C   UNL     1      -8.464   1.284 -17.303  1.00  0.00     0.135 A 
ATOM     84  C   UNL     1      -7.140   2.247 -19.066  1.00  0.00     0.135 A 
ATOM     85  F   UNL     1      -8.685   1.022 -16.005  1.00  0.00    -0.206 F 
ATOM     86  C   UNL     1      -9.377   0.806 -18.238  1.00  0.00     0.059 A 
ATOM     87  C   UNL     1      -8.053   1.802 -20.015  1.00  0.00     0.059 A 
ATOM     88  F   UNL     1      -6.073   2.943 -19.490  1.00  0.00    -0.206 F 
ATOM     89  C   UNL     1      -9.165   1.076 -19.592  1.00  0.00     0.060 A 
BRANCH  89  90
ATOM     90  S   UNL     1     -10.386   0.500 -20.790  1.00  0.00     0.124 S 
ATOM     91  O   UNL     1     -10.107  -0.932 -20.828  1.00  0.00    -0.237 OA
ATOM     92  O   UNL     1     -11.646   0.883 -20.160  1.00  0.00    -0.237 OA
ATOM     93  O   UNL     1     -10.048   1.239 -22.002  1.00  0.00    -0.744 OA
ENDBRANCH  89  90
ENDBRANCH  57  82
ENDBRANCH  31  32
ENDBRANCH  23  26
ENDBRANCH  21  22
ENDBRANCH  20  21
ENDBRANCH   1  20
TORSDOF 18
