REMARK SMILES Cc1ccc(OCCC(=O)N2C[C@H](O)C[C@@H]2C(=O)NCCCNC(=O)c2ccc(-c3c4nc(c(-c5c(F)cc(S(=O)(=O)[O-])cc5F)c5ccc([nH]5)c(-c5c(F)cc(S(=O)(=O)[O-])cc5F)c5nc(c(-c6c(F)cc(S(=O)(=O)[O-])cc6F)c6ccc3[nH]6)C=C5)C=C4)cc2)cc1
REMARK SMILES IDX 20 1 19 2 17 3 18 4 16 6 11 7 12 8 13 9 15 10 9 11 10 12
REMARK SMILES IDX 8 13 7 14 6 15 5 16 1 17 2 18 3 19 93 20 4 21 92 22 14 23
REMARK SMILES IDX 21 25 22 26 23 27 24 28 25 30 26 31 27 32 91 33 28 34 90 35
REMARK SMILES IDX 29 36 30 37 31 38 84 39 32 40 89 41 83 42 85 43 33 44 88 45
REMARK SMILES IDX 82 46 81 47 34 49 68 50 47 51 67 52 48 53 51 54 66 55 86 56
REMARK SMILES IDX 49 57 50 58 65 60 87 61 52 62 35 63 36 64 45 65 37 66 38 67
REMARK SMILES IDX 44 68 46 69 39 70 40 71 41 72 42 73 43 74 69 75 70 76 79 77
REMARK SMILES IDX 71 78 72 79 78 80 80 81 73 82 74 83 75 84 76 85 77 86 53 87
REMARK SMILES IDX 54 88 63 89 55 90 56 91 62 92 64 93 57 94 58 95 59 96 60 97
REMARK SMILES IDX 61 98
REMARK H PARENT 19 5 14 24 23 29 85 48 51 59
REMARK Flexibility Score: inf
ROOT
ATOM      1  C   UNL     1      -3.138   1.440   4.184  1.00  0.00     0.117 C 
ENDROOT
BRANCH   1   2
ATOM      2  N   UNL     1      -1.845   1.105   4.768  1.00  0.00    -0.354 N 
ATOM      3  C   UNL     1      -0.587   1.233   4.256  1.00  0.00     0.242 C 
ATOM      4  O   UNL     1       0.333   1.324   5.080  1.00  0.00    -0.273 OA
ATOM      5  H   UNL     1      -1.886   0.727   5.676  1.00  0.00     0.163 HD
BRANCH   3   6
ATOM      6  C   UNL     1      -0.245   1.176   2.739  1.00  0.00     0.177 C 
ATOM      7  N   UNL     1      -1.310   0.929   1.765  1.00  0.00    -0.328 N 
ATOM      8  C   UNL     1      -1.305  -0.465   1.336  1.00  0.00     0.152 C 
ATOM      9  C   UNL     1      -0.200  -1.156   2.127  1.00  0.00     0.136 C 
ATOM     10  C   UNL     1       0.721  -0.007   2.519  1.00  0.00     0.069 C 
BRANCH   7  11
ATOM     11  C   UNL     1      -1.905   1.951   1.040  1.00  0.00     0.226 C 
ATOM     12  O   UNL     1      -1.473   3.104   1.055  1.00  0.00    -0.275 OA
BRANCH  11  13
ATOM     13  C   UNL     1      -3.210   1.620   0.322  1.00  0.00     0.141 C 
BRANCH  13  14
ATOM     14  C   UNL     1      -3.258   1.876  -1.179  1.00  0.00     0.239 C 
BRANCH  14  15
ATOM     15  O   UNL     1      -2.752   0.781  -1.961  1.00  0.00    -0.493 OA
BRANCH  15  16
ATOM     16  C   UNL     1      -1.394   0.650  -2.030  1.00  0.00     0.119 A 
ATOM     17  C   UNL     1       2.776  -0.176  -1.427  1.00  0.00     0.044 C 
ATOM     18  C   UNL     1       1.340   0.115  -1.743  1.00  0.00    -0.051 A 
ATOM     19  C   UNL     1       0.449  -0.923  -2.042  1.00  0.00     0.007 A 
ATOM     20  C   UNL     1       0.867   1.429  -1.712  1.00  0.00     0.007 A 
ATOM     21  C   UNL     1      -0.914  -0.653  -2.200  1.00  0.00     0.046 A 
ATOM     22  C   UNL     1      -0.492   1.696  -1.865  1.00  0.00     0.046 A 
ENDBRANCH  15  16
ENDBRANCH  14  15
ENDBRANCH  13  14
ENDBRANCH  11  13
ENDBRANCH   7  11
BRANCH   9  23
ATOM     23  O   UNL     1      -0.709  -1.851   3.257  1.00  0.00    -0.391 OA
ATOM     24  H   UNL     1      -1.187  -1.231   3.830  1.00  0.00     0.211 HD
ENDBRANCH   9  23
ENDBRANCH   3   6
ENDBRANCH   1   2
BRANCH   1  25
ATOM     25  C   UNL     1      -3.824   0.263   3.507  1.00  0.00     0.042 C 
BRANCH  25  26
ATOM     26  C   UNL     1      -4.963  -0.376   4.284  1.00  0.00     0.118 C 
BRANCH  26  27
ATOM     27  N   UNL     1      -6.241  -0.282   3.573  1.00  0.00    -0.352 N 
ATOM     28  C   UNL     1      -7.375  -1.060   3.756  1.00  0.00     0.251 C 
ATOM     29  H   UNL     1      -6.303   0.418   2.883  1.00  0.00     0.163 HD
ATOM     30  O   UNL     1      -8.348  -1.008   3.029  1.00  0.00    -0.269 OA
BRANCH  28  31
ATOM     31  C   UNL     1      -7.370  -1.904   4.967  1.00  0.00     0.039 A 
ATOM     32  C   UNL     1      -7.900  -1.304   6.116  1.00  0.00     0.014 A 
ATOM     33  C   UNL     1      -6.436  -2.932   5.034  1.00  0.00     0.014 A 
ATOM     34  C   UNL     1      -7.304  -1.557   7.343  1.00  0.00     0.010 A 
ATOM     35  C   UNL     1      -5.797  -3.123   6.244  1.00  0.00     0.010 A 
ATOM     36  C   UNL     1      -6.181  -2.374   7.375  1.00  0.00    -0.014 A 
BRANCH  36  37
ATOM     37  C   UNL     1      -5.268  -2.442   8.510  1.00  0.00     0.031 A 
ATOM     38  C   UNL     1      -5.162  -3.713   9.259  1.00  0.00     0.074 A 
ATOM     39  C   UNL     1      -4.433  -1.414   8.789  1.00  0.00     0.049 A 
ATOM     40  N   UNL     1      -4.465  -3.868  10.330  1.00  0.00    -0.248 NA
ATOM     41  C   UNL     1      -5.917  -4.913   8.893  1.00  0.00     0.031 C 
ATOM     42  C   UNL     1      -3.189  -1.475   9.554  1.00  0.00     0.029 A 
ATOM     43  N   UNL     1      -4.668  -0.044   8.630  1.00  0.00    -0.354 N 
ATOM     44  C   UNL     1      -4.416  -5.213  10.598  1.00  0.00     0.074 A 
ATOM     45  C   UNL     1      -5.434  -5.798   9.769  1.00  0.00     0.031 C 
ATOM     46  C   UNL     1      -2.886  -0.250  10.005  1.00  0.00     0.029 A 
ATOM     47  C   UNL     1      -4.006   0.614   9.688  1.00  0.00     0.049 A 
ATOM     48  H   UNL     1      -5.194   0.380   7.914  1.00  0.00     0.167 HD
ATOM     49  C   UNL     1      -3.407  -5.676  11.383  1.00  0.00     0.037 A 
ATOM     50  C   UNL     1      -4.696   1.340  10.619  1.00  0.00     0.037 A 
ATOM     51  C   UNL     1      -2.841  -4.582  12.176  1.00  0.00     0.049 A 
ATOM     52  C   UNL     1      -4.587   0.811  12.032  1.00  0.00     0.074 A 
ATOM     53  C   UNL     1      -1.656  -3.870  12.140  1.00  0.00     0.029 A 
ATOM     54  N   UNL     1      -3.691  -3.883  13.033  1.00  0.00    -0.354 N 
ATOM     55  N   UNL     1      -4.122  -0.370  12.338  1.00  0.00    -0.248 NA
ATOM     56  C   UNL     1      -4.999   1.564  13.214  1.00  0.00     0.031 C 
ATOM     57  C   UNL     1      -1.848  -2.671  12.885  1.00  0.00     0.029 A 
ATOM     58  C   UNL     1      -3.128  -2.682  13.416  1.00  0.00     0.049 A 
ATOM     59  H   UNL     1      -4.575  -4.203  13.326  1.00  0.00     0.167 HD
ATOM     60  C   UNL     1      -4.211  -0.571  13.693  1.00  0.00     0.074 A 
ATOM     61  C   UNL     1      -4.730   0.688  14.199  1.00  0.00     0.031 C 
ATOM     62  C   UNL     1      -3.870  -1.762  14.274  1.00  0.00     0.037 A 
BRANCH  49  63
ATOM     63  C   UNL     1      -2.811  -7.070  11.281  1.00  0.00     0.058 A 
ATOM     64  C   UNL     1      -1.738  -7.450  12.117  1.00  0.00     0.135 A 
ATOM     65  C   UNL     1      -3.139  -8.024  10.288  1.00  0.00     0.135 A 
ATOM     66  F   UNL     1      -1.295  -6.637  13.087  1.00  0.00    -0.206 F 
ATOM     67  C   UNL     1      -1.044  -8.660  11.968  1.00  0.00     0.059 A 
ATOM     68  C   UNL     1      -2.494  -9.254  10.152  1.00  0.00     0.059 A 
ATOM     69  F   UNL     1      -4.053  -7.796   9.341  1.00  0.00    -0.206 F 
ATOM     70  C   UNL     1      -1.429  -9.557  10.979  1.00  0.00     0.060 A 
BRANCH  70  71
ATOM     71  S   UNL     1      -0.518 -11.095  10.749  1.00  0.00     0.124 S 
ATOM     72  O   UNL     1       0.748 -10.616  10.204  1.00  0.00    -0.237 OA
ATOM     73  O   UNL     1      -0.467 -11.634  12.104  1.00  0.00    -0.237 OA
ATOM     74  O   UNL     1      -1.352 -11.848   9.815  1.00  0.00    -0.744 OA
ENDBRANCH  70  71
ENDBRANCH  49  63
BRANCH  50  75
ATOM     75  C   UNL     1      -5.846   2.083  10.034  1.00  0.00     0.058 A 
ATOM     76  C   UNL     1      -5.532   3.157   9.180  1.00  0.00     0.135 A 
ATOM     77  C   UNL     1      -7.096   1.467   9.874  1.00  0.00     0.135 A 
ATOM     78  F   UNL     1      -4.360   3.799   9.313  1.00  0.00    -0.206 F 
ATOM     79  C   UNL     1      -6.321   3.466   8.079  1.00  0.00     0.059 A 
ATOM     80  C   UNL     1      -7.910   1.769   8.779  1.00  0.00     0.059 A 
ATOM     81  F   UNL     1      -7.454   0.448  10.668  1.00  0.00    -0.206 F 
ATOM     82  C   UNL     1      -7.463   2.704   7.843  1.00  0.00     0.060 A 
BRANCH  82  83
ATOM     83  S   UNL     1      -8.196   2.793   6.191  1.00  0.00     0.124 S 
ATOM     84  O   UNL     1      -8.530   4.208   6.079  1.00  0.00    -0.237 OA
ATOM     85  O   UNL     1      -7.082   2.338   5.357  1.00  0.00    -0.237 OA
ATOM     86  O   UNL     1      -9.329   1.880   6.277  1.00  0.00    -0.744 OA
ENDBRANCH  82  83
ENDBRANCH  50  75
BRANCH  62  87
ATOM     87  C   UNL     1      -4.145  -2.167  15.712  1.00  0.00     0.058 A 
ATOM     88  C   UNL     1      -5.191  -1.655  16.502  1.00  0.00     0.135 A 
ATOM     89  C   UNL     1      -3.411  -3.226  16.306  1.00  0.00     0.135 A 
ATOM     90  F   UNL     1      -6.047  -0.741  16.024  1.00  0.00    -0.206 F 
ATOM     91  C   UNL     1      -5.440  -2.100  17.804  1.00  0.00     0.059 A 
ATOM     92  C   UNL     1      -3.682  -3.726  17.578  1.00  0.00     0.059 A 
ATOM     93  F   UNL     1      -2.404  -3.829  15.657  1.00  0.00    -0.206 F 
ATOM     94  C   UNL     1      -4.681  -3.136  18.336  1.00  0.00     0.060 A 
BRANCH  94  95
ATOM     95  S   UNL     1      -5.035  -3.762  19.988  1.00  0.00     0.124 S 
ATOM     96  O   UNL     1      -4.129  -2.959  20.804  1.00  0.00    -0.237 OA
ATOM     97  O   UNL     1      -6.456  -3.469  20.152  1.00  0.00    -0.237 OA
ATOM     98  O   UNL     1      -4.706  -5.180  19.883  1.00  0.00    -0.744 OA
ENDBRANCH  94  95
ENDBRANCH  62  87
ENDBRANCH  36  37
ENDBRANCH  28  31
ENDBRANCH  26  27
ENDBRANCH  25  26
ENDBRANCH   1  25
TORSDOF 19
