REMARK SMILES O=C(CSCc1nnnn1-c1ccc([N+](=O)[O-])cc1)NCCCNC(=O)c1ccc(-c2c3nc(c(-c4c(F)cc(S(=O)(=O)[O-])cc4F)c4ccc([nH]4)c(-c4c(F)cc(S(=O)(=O)[O-])cc4F)c4nc(c(-c5c(F)cc(S(=O)(=O)[O-])cc5F)c5ccc2[nH]5)C=C4)C=C3)cc1
REMARK SMILES IDX 21 1 20 2 1 3 2 4 3 6 4 7 5 8 6 9 7 10 10 11 8 12 9 13 11 14
REMARK SMILES IDX 12 15 19 16 13 17 18 18 14 19 15 20 16 21 17 22 22 23 23 24
REMARK SMILES IDX 24 25 25 26 26 28 27 29 28 30 92 31 29 32 91 33 30 34 31 35
REMARK SMILES IDX 32 36 85 37 33 38 90 39 84 40 86 41 34 42 89 43 83 44 82 45
REMARK SMILES IDX 35 47 69 48 48 49 68 50 49 51 52 52 67 53 87 54 50 55 51 56
REMARK SMILES IDX 66 58 88 59 53 60 36 61 37 62 46 63 38 64 39 65 45 66 47 67
REMARK SMILES IDX 40 68 41 69 42 70 43 71 44 72 70 73 71 74 80 75 72 76 73 77
REMARK SMILES IDX 79 78 81 79 74 80 75 81 76 82 77 83 78 84 54 85 55 86 64 87
REMARK SMILES IDX 56 88 57 89 63 90 65 91 58 92 59 93 60 94 61 95 62 96
REMARK H PARENT 20 5 24 27 86 46 52 57
REMARK Flexibility Score: inf
ROOT
ATOM      1  C   UNL     1       1.838  -2.779  -1.068  1.00  0.00     0.117 C 
ENDROOT
BRANCH   1   2
ATOM      2  N   UNL     1       2.469  -1.655  -0.407  1.00  0.00    -0.355 N 
ATOM      3  O   UNL     1       0.532  -0.472  -0.098  1.00  0.00    -0.274 OA
ATOM      4  C   UNL     1       1.752  -0.559   0.007  1.00  0.00     0.230 C 
ATOM      5  H   UNL     1       3.441  -1.677  -0.250  1.00  0.00     0.163 HD
BRANCH   4   6
ATOM      6  C   UNL     1       2.576   0.601   0.507  1.00  0.00     0.169 C 
BRANCH   6   7
ATOM      7  S   UNL     1       3.787   0.159   1.783  1.00  0.00    -0.144 SA
BRANCH   7   8
ATOM      8  C   UNL     1       2.713  -0.024   3.220  1.00  0.00     0.149 C 
BRANCH   8   9
ATOM      9  C   UNL     1       1.929   1.135   3.743  1.00  0.00     0.166 A 
ATOM     10  N   UNL     1       0.760   0.986   4.348  1.00  0.00    -0.113 NA
ATOM     11  N   UNL     1       2.379   2.417   4.034  1.00  0.00    -0.196 N 
ATOM     12  N   UNL     1       0.560   2.109   5.101  1.00  0.00    -0.023 NA
ATOM     13  N   UNL     1       1.577   2.946   4.983  1.00  0.00    -0.040 NA
BRANCH  11  14
ATOM     14  C   UNL     1       3.408   3.188   3.466  1.00  0.00     0.069 A 
ATOM     15  C   UNL     1       4.401   3.734   4.284  1.00  0.00     0.035 A 
ATOM     16  C   UNL     1       3.413   3.429   2.088  1.00  0.00     0.035 A 
ATOM     17  C   UNL     1       5.494   4.374   3.690  1.00  0.00     0.088 A 
ATOM     18  C   UNL     1       4.507   4.049   1.488  1.00  0.00     0.088 A 
ATOM     19  C   UNL     1       5.564   4.483   2.292  1.00  0.00     0.269 A 
BRANCH  19  20
ATOM     20  N   UNL     1       6.771   5.022   1.659  1.00  0.00     0.062 N 
ATOM     21  O   UNL     1       7.553   5.658   2.377  1.00  0.00    -0.258 OA
ATOM     22  O   UNL     1       6.942   4.768   0.460  1.00  0.00    -0.258 OA
ENDBRANCH  19  20
ENDBRANCH  11  14
ENDBRANCH   8   9
ENDBRANCH   7   8
ENDBRANCH   6   7
ENDBRANCH   4   6
ENDBRANCH   1   2
BRANCH   1  23
ATOM     23  C   UNL     1       2.026  -2.742  -2.586  1.00  0.00     0.042 C 
BRANCH  23  24
ATOM     24  C   UNL     1       3.483  -2.879  -3.001  1.00  0.00     0.118 C 
BRANCH  24  25
ATOM     25  N   UNL     1       4.068  -4.163  -2.620  1.00  0.00    -0.352 N 
ATOM     26  C   UNL     1       5.340  -4.638  -2.890  1.00  0.00     0.251 C 
ATOM     27  H   UNL     1       3.484  -4.766  -2.107  1.00  0.00     0.163 HD
ATOM     28  O   UNL     1       5.590  -5.825  -2.784  1.00  0.00    -0.269 OA
BRANCH  26  29
ATOM     29  C   UNL     1       6.374  -3.679  -3.326  1.00  0.00     0.039 A 
ATOM     30  C   UNL     1       7.243  -3.999  -4.370  1.00  0.00     0.014 A 
ATOM     31  C   UNL     1       6.434  -2.431  -2.711  1.00  0.00     0.014 A 
ATOM     32  C   UNL     1       8.103  -3.014  -4.848  1.00  0.00     0.010 A 
ATOM     33  C   UNL     1       7.171  -1.419  -3.282  1.00  0.00     0.010 A 
ATOM     34  C   UNL     1       8.038  -1.707  -4.327  1.00  0.00    -0.014 A 
BRANCH  34  35
ATOM     35  C   UNL     1       8.777  -0.624  -4.979  1.00  0.00     0.031 A 
ATOM     36  C   UNL     1       8.588  -0.584  -6.454  1.00  0.00     0.074 A 
ATOM     37  C   UNL     1       9.429   0.372  -4.336  1.00  0.00     0.049 A 
ATOM     38  N   UNL     1       9.421  -0.985  -7.356  1.00  0.00    -0.248 NA
ATOM     39  C   UNL     1       7.260  -0.240  -6.990  1.00  0.00     0.031 C 
ATOM     40  C   UNL     1       9.424   0.667  -2.897  1.00  0.00     0.029 A 
ATOM     41  N   UNL     1      10.169   1.402  -4.845  1.00  0.00    -0.354 N 
ATOM     42  C   UNL     1       8.836  -0.653  -8.575  1.00  0.00     0.074 A 
ATOM     43  C   UNL     1       7.442  -0.432  -8.301  1.00  0.00     0.031 C 
ATOM     44  C   UNL     1       9.901   1.913  -2.684  1.00  0.00     0.029 A 
ATOM     45  C   UNL     1      10.436   2.420  -3.933  1.00  0.00     0.049 A 
ATOM     46  H   UNL     1      10.486   1.423  -5.777  1.00  0.00     0.167 HD
ATOM     47  C   UNL     1       9.617  -0.267  -9.623  1.00  0.00     0.037 A 
ATOM     48  C   UNL     1      11.077   3.592  -4.165  1.00  0.00     0.037 A 
ATOM     49  C   UNL     1      11.005  -0.539  -9.342  1.00  0.00     0.049 A 
ATOM     50  C   UNL     1      11.948   3.389  -5.345  1.00  0.00     0.074 A 
ATOM     51  C   UNL     1      11.836  -1.637  -9.312  1.00  0.00     0.029 A 
ATOM     52  N   UNL     1      11.617   0.457  -8.630  1.00  0.00    -0.354 N 
ATOM     53  N   UNL     1      12.956   2.558  -5.359  1.00  0.00    -0.248 NA
ATOM     54  C   UNL     1      11.502   3.852  -6.654  1.00  0.00     0.031 C 
ATOM     55  C   UNL     1      12.910  -1.302  -8.433  1.00  0.00     0.029 A 
ATOM     56  C   UNL     1      12.736   0.004  -7.985  1.00  0.00     0.049 A 
ATOM     57  H   UNL     1      11.292   1.385  -8.588  1.00  0.00     0.167 HD
ATOM     58  C   UNL     1      12.976   2.070  -6.649  1.00  0.00     0.074 A 
ATOM     59  C   UNL     1      12.196   3.018  -7.434  1.00  0.00     0.031 C 
ATOM     60  C   UNL     1      13.318   0.775  -6.905  1.00  0.00     0.037 A 
BRANCH  47  61
ATOM     61  C   UNL     1       9.248   0.793 -10.644  1.00  0.00     0.058 A 
ATOM     62  C   UNL     1      10.106   1.011 -11.745  1.00  0.00     0.135 A 
ATOM     63  C   UNL     1       8.275   1.795 -10.432  1.00  0.00     0.135 A 
ATOM     64  F   UNL     1      11.080   0.133 -12.036  1.00  0.00    -0.206 F 
ATOM     65  C   UNL     1      10.040   2.161 -12.535  1.00  0.00     0.059 A 
ATOM     66  C   UNL     1       8.159   2.924 -11.238  1.00  0.00     0.059 A 
ATOM     67  F   UNL     1       7.451   1.782  -9.379  1.00  0.00    -0.206 F 
ATOM     68  C   UNL     1       9.066   3.117 -12.266  1.00  0.00     0.060 A 
BRANCH  68  69
ATOM     69  S   UNL     1       9.012   4.631 -13.240  1.00  0.00     0.124 S 
ATOM     70  O   UNL     1      10.229   5.305 -12.804  1.00  0.00    -0.237 OA
ATOM     71  O   UNL     1       9.020   4.112 -14.604  1.00  0.00    -0.237 OA
ATOM     72  O   UNL     1       7.759   5.254 -12.822  1.00  0.00    -0.744 OA
ENDBRANCH  68  69
ENDBRANCH  47  61
BRANCH  48  73
ATOM     73  C   UNL     1      10.793   4.936  -3.598  1.00  0.00     0.058 A 
ATOM     74  C   UNL     1      11.700   5.999  -3.757  1.00  0.00     0.135 A 
ATOM     75  C   UNL     1       9.498   5.282  -3.165  1.00  0.00     0.135 A 
ATOM     76  F   UNL     1      12.954   5.760  -4.172  1.00  0.00    -0.206 F 
ATOM     77  C   UNL     1      11.324   7.334  -3.576  1.00  0.00     0.059 A 
ATOM     78  C   UNL     1       9.103   6.606  -2.967  1.00  0.00     0.059 A 
ATOM     79  F   UNL     1       8.547   4.346  -3.023  1.00  0.00    -0.206 F 
ATOM     80  C   UNL     1      10.012   7.630  -3.208  1.00  0.00     0.060 A 
BRANCH  80  81
ATOM     81  S   UNL     1       9.465   9.355  -3.188  1.00  0.00     0.124 S 
ATOM     82  O   UNL     1      10.167   9.883  -2.024  1.00  0.00    -0.237 OA
ATOM     83  O   UNL     1       9.928   9.840  -4.484  1.00  0.00    -0.237 OA
ATOM     84  O   UNL     1       8.014   9.250  -3.049  1.00  0.00    -0.744 OA
ENDBRANCH  80  81
ENDBRANCH  48  73
BRANCH  60  85
ATOM     85  C   UNL     1      14.251   0.089  -5.953  1.00  0.00     0.058 A 
ATOM     86  C   UNL     1      13.959  -0.249  -4.622  1.00  0.00     0.135 A 
ATOM     87  C   UNL     1      15.501  -0.302  -6.457  1.00  0.00     0.135 A 
ATOM     88  F   UNL     1      12.759   0.022  -4.087  1.00  0.00    -0.206 F 
ATOM     89  C   UNL     1      14.887  -0.917  -3.819  1.00  0.00     0.059 A 
ATOM     90  C   UNL     1      16.427  -0.995  -5.688  1.00  0.00     0.059 A 
ATOM     91  F   UNL     1      15.822  -0.041  -7.736  1.00  0.00    -0.206 F 
ATOM     92  C   UNL     1      16.119  -1.286  -4.362  1.00  0.00     0.060 A 
BRANCH  92  93
ATOM     93  S   UNL     1      17.302  -2.195  -3.345  1.00  0.00     0.124 S 
ATOM     94  O   UNL     1      17.723  -1.182  -2.383  1.00  0.00    -0.237 OA
ATOM     95  O   UNL     1      16.488  -3.282  -2.808  1.00  0.00    -0.237 OA
ATOM     96  O   UNL     1      18.327  -2.610  -4.300  1.00  0.00    -0.744 OA
ENDBRANCH  92  93
ENDBRANCH  60  85
ENDBRANCH  34  35
ENDBRANCH  26  29
ENDBRANCH  24  25
ENDBRANCH  23  24
ENDBRANCH   1  23
TORSDOF 18
