REMARK SMILES C[C@H](C(=O)NCCCNC(=O)c1ccc(-c2c3nc(c(-c4c(F)cc(S(=O)(=O)[O-])cc4F)c4ccc([nH]4)c(-c4c(F)cc(S(=O)(=O)[O-])cc4F)c4nc(c(-c5c(F)cc(S(=O)(=O)[O-])cc5F)c5ccc2[nH]5)C=C4)C=C3)cc1)[C@H](C)[N@H+](Cc1ccsc1)C1CC1
REMARK SMILES IDX 6 1 5 2 3 3 4 4 2 6 1 7 78 8 79 9 80 10 81 12 82 13 83 14
REMARK SMILES IDX 86 15 84 16 85 17 87 18 88 19 89 20 7 21 8 22 9 23 10 24
REMARK SMILES IDX 11 26 12 27 13 28 77 29 14 30 76 31 15 32 16 33 17 34 70 35
REMARK SMILES IDX 18 36 75 37 69 38 71 39 19 40 74 41 68 42 67 43 20 45 54 46
REMARK SMILES IDX 33 47 53 48 34 49 37 50 52 51 72 52 35 53 36 54 51 56 73 57
REMARK SMILES IDX 38 58 21 59 22 60 31 61 23 62 24 63 30 64 32 65 25 66 26 67
REMARK SMILES IDX 27 68 28 69 29 70 55 71 56 72 65 73 57 74 58 75 64 76 66 77
REMARK SMILES IDX 59 78 60 79 61 80 62 81 63 82 39 83 40 84 49 85 41 86 42 87
REMARK SMILES IDX 48 88 50 89 43 90 44 91 45 92 46 93 47 94
REMARK H PARENT 5 5 80 11 9 25 71 44 37 55
REMARK Flexibility Score: inf
ROOT
ATOM      1  C   UNL     1      -4.708  -2.118  -1.059  1.00  0.00     0.117 C 
ENDROOT
BRANCH   1   2
ATOM      2  N   UNL     1      -4.271  -1.171  -0.035  1.00  0.00    -0.356 N 
ATOM      3  C   UNL     1      -3.228  -0.412   0.350  1.00  0.00     0.228 C 
ATOM      4  O   UNL     1      -3.430   0.049   1.489  1.00  0.00    -0.275 OA
ATOM      5  H   UNL     1      -5.007  -1.042   0.606  1.00  0.00     0.163 HD
BRANCH   3   6
ATOM      6  C   UNL     1      -1.968   0.065  -0.442  1.00  0.00     0.133 C 
ATOM      7  C   UNL     1      -1.233   1.042   0.526  1.00  0.00     0.024 C 
BRANCH   6   8
ATOM      8  C   UNL     1      -0.965  -0.976  -1.141  1.00  0.00     0.193 C 
ATOM      9  C   UNL     1       0.488  -0.788  -0.626  1.00  0.00     0.076 C 
BRANCH   8  10
ATOM     10  N   UNL     1      -0.993  -0.872  -2.667  1.00  0.00    -0.326 N 
ATOM     11  H   UNL     1      -0.704   0.082  -2.881  1.00  0.00     0.348 HD
BRANCH  10  12
ATOM     12  C   UNL     1      -2.354  -1.126  -3.140  1.00  0.00     0.300 C 
BRANCH  12  13
ATOM     13  C   UNL     1      -3.015  -0.004  -3.875  1.00  0.00     0.017 A 
ATOM     14  C   UNL     1      -4.207  -0.212  -4.652  1.00  0.00     0.021 A 
ATOM     15  C   UNL     1      -2.711   1.343  -3.810  1.00  0.00     0.074 A 
ATOM     16  C   UNL     1      -4.786   0.963  -5.069  1.00  0.00     0.065 A 
ATOM     17  S   UNL     1      -3.872   2.324  -4.594  1.00  0.00    -0.152 S 
ENDBRANCH  12  13
ENDBRANCH  10  12
BRANCH  10  18
ATOM     18  C   UNL     1       0.018  -1.694  -3.416  1.00  0.00     0.184 C 
ATOM     19  C   UNL     1      -0.253  -2.608  -4.592  1.00  0.00     0.071 C 
ATOM     20  C   UNL     1       0.342  -1.257  -4.828  1.00  0.00     0.071 C 
ENDBRANCH  10  18
ENDBRANCH   8  10
ENDBRANCH   6   8
ENDBRANCH   3   6
ENDBRANCH   1   2
BRANCH   1  21
ATOM     21  C   UNL     1      -3.941  -3.436  -0.978  1.00  0.00     0.042 C 
BRANCH  21  22
ATOM     22  C   UNL     1      -4.804  -4.625  -1.360  1.00  0.00     0.118 C 
BRANCH  22  23
ATOM     23  N   UNL     1      -4.993  -4.834  -2.789  1.00  0.00    -0.352 N 
ATOM     24  C   UNL     1      -5.627  -5.931  -3.352  1.00  0.00     0.251 C 
ATOM     25  H   UNL     1      -4.644  -4.145  -3.401  1.00  0.00     0.163 HD
ATOM     26  O   UNL     1      -5.552  -6.164  -4.553  1.00  0.00    -0.269 OA
BRANCH  24  27
ATOM     27  C   UNL     1      -6.358  -6.839  -2.438  1.00  0.00     0.039 A 
ATOM     28  C   UNL     1      -6.016  -8.190  -2.360  1.00  0.00     0.014 A 
ATOM     29  C   UNL     1      -7.285  -6.292  -1.551  1.00  0.00     0.014 A 
ATOM     30  C   UNL     1      -6.551  -8.971  -1.330  1.00  0.00     0.010 A 
ATOM     31  C   UNL     1      -7.703  -7.032  -0.456  1.00  0.00     0.010 A 
ATOM     32  C   UNL     1      -7.366  -8.388  -0.343  1.00  0.00    -0.014 A 
BRANCH  32  33
ATOM     33  C   UNL     1      -7.930  -9.178   0.784  1.00  0.00     0.031 A 
ATOM     34  C   UNL     1      -9.428  -9.250   0.956  1.00  0.00     0.074 A 
ATOM     35  C   UNL     1      -7.114  -9.762   1.686  1.00  0.00     0.049 A 
ATOM     36  N   UNL     1     -10.129  -9.815   1.905  1.00  0.00    -0.248 NA
ATOM     37  C   UNL     1     -10.248  -8.545  -0.046  1.00  0.00     0.031 C 
ATOM     38  C   UNL     1      -5.650  -9.692   1.679  1.00  0.00     0.029 A 
ATOM     39  N   UNL     1      -7.398 -10.529   2.788  1.00  0.00    -0.354 N 
ATOM     40  C   UNL     1     -11.457  -9.504   1.628  1.00  0.00     0.074 A 
ATOM     41  C   UNL     1     -11.460  -8.632   0.478  1.00  0.00     0.031 C 
ATOM     42  C   UNL     1      -5.166 -10.424   2.697  1.00  0.00     0.029 A 
ATOM     43  C   UNL     1      -6.282 -10.991   3.447  1.00  0.00     0.049 A 
ATOM     44  H   UNL     1      -8.316 -10.730   3.080  1.00  0.00     0.167 HD
ATOM     45  C   UNL     1     -12.579  -9.944   2.246  1.00  0.00     0.037 A 
ATOM     46  C   UNL     1      -6.175 -11.793   4.526  1.00  0.00     0.037 A 
ATOM     47  C   UNL     1     -12.566 -10.868   3.346  1.00  0.00     0.049 A 
ATOM     48  C   UNL     1      -7.435 -12.323   5.159  1.00  0.00     0.074 A 
ATOM     49  C   UNL     1     -13.639 -11.447   3.998  1.00  0.00     0.029 A 
ATOM     50  N   UNL     1     -11.415 -11.359   3.946  1.00  0.00    -0.354 N 
ATOM     51  N   UNL     1      -8.684 -12.082   4.836  1.00  0.00    -0.248 NA
ATOM     52  C   UNL     1      -7.274 -13.246   6.291  1.00  0.00     0.031 C 
ATOM     53  C   UNL     1     -13.136 -12.264   5.017  1.00  0.00     0.029 A 
ATOM     54  C   UNL     1     -11.751 -12.229   4.968  1.00  0.00     0.049 A 
ATOM     55  H   UNL     1     -10.496 -11.123   3.684  1.00  0.00     0.167 HD
ATOM     56  C   UNL     1      -9.457 -12.845   5.704  1.00  0.00     0.074 A 
ATOM     57  C   UNL     1      -8.534 -13.566   6.557  1.00  0.00     0.031 C 
ATOM     58  C   UNL     1     -10.807 -12.943   5.791  1.00  0.00     0.037 A 
BRANCH  45  59
ATOM     59  C   UNL     1     -13.901  -9.449   1.723  1.00  0.00     0.058 A 
ATOM     60  C   UNL     1     -14.380  -9.821   0.455  1.00  0.00     0.135 A 
ATOM     61  C   UNL     1     -14.704  -8.598   2.498  1.00  0.00     0.135 A 
ATOM     62  F   UNL     1     -13.647 -10.617  -0.339  1.00  0.00    -0.206 F 
ATOM     63  C   UNL     1     -15.584  -9.333  -0.042  1.00  0.00     0.059 A 
ATOM     64  C   UNL     1     -15.929  -8.124   2.035  1.00  0.00     0.059 A 
ATOM     65  F   UNL     1     -14.297  -8.208   3.717  1.00  0.00    -0.206 F 
ATOM     66  C   UNL     1     -16.351  -8.483   0.755  1.00  0.00     0.060 A 
BRANCH  66  67
ATOM     67  S   UNL     1     -17.911  -7.859   0.095  1.00  0.00     0.124 S 
ATOM     68  O   UNL     1     -17.442  -6.879  -0.880  1.00  0.00    -0.237 OA
ATOM     69  O   UNL     1     -18.519  -9.064  -0.461  1.00  0.00    -0.237 OA
ATOM     70  O   UNL     1     -18.580  -7.307   1.268  1.00  0.00    -0.744 OA
ENDBRANCH  66  67
ENDBRANCH  45  59
BRANCH  46  71
ATOM     71  C   UNL     1      -4.833 -12.193   5.036  1.00  0.00     0.058 A 
ATOM     72  C   UNL     1      -4.367 -13.509   4.884  1.00  0.00     0.135 A 
ATOM     73  C   UNL     1      -3.985 -11.274   5.672  1.00  0.00     0.135 A 
ATOM     74  F   UNL     1      -5.141 -14.428   4.287  1.00  0.00    -0.206 F 
ATOM     75  C   UNL     1      -3.120 -13.904   5.359  1.00  0.00     0.059 A 
ATOM     76  C   UNL     1      -2.722 -11.638   6.133  1.00  0.00     0.059 A 
ATOM     77  F   UNL     1      -4.372  -9.998   5.827  1.00  0.00    -0.206 F 
ATOM     78  C   UNL     1      -2.303 -12.959   5.981  1.00  0.00     0.060 A 
BRANCH  78  79
ATOM     79  S   UNL     1      -0.665 -13.470   6.549  1.00  0.00     0.124 S 
ATOM     80  O   UNL     1      -0.997 -14.275   7.719  1.00  0.00    -0.237 OA
ATOM     81  O   UNL     1      -0.155 -14.202   5.393  1.00  0.00    -0.237 OA
ATOM     82  O   UNL     1       0.005 -12.203   6.823  1.00  0.00    -0.744 OA
ENDBRANCH  78  79
ENDBRANCH  46  71
BRANCH  58  83
ATOM     83  C   UNL     1     -11.365 -13.890   6.815  1.00  0.00     0.058 A 
ATOM     84  C   UNL     1     -11.328 -13.599   8.187  1.00  0.00     0.135 A 
ATOM     85  C   UNL     1     -11.993 -15.079   6.410  1.00  0.00     0.135 A 
ATOM     86  F   UNL     1     -10.737 -12.475   8.623  1.00  0.00    -0.206 F 
ATOM     87  C   UNL     1     -11.869 -14.469   9.126  1.00  0.00     0.059 A 
ATOM     88  C   UNL     1     -12.566 -15.950   7.330  1.00  0.00     0.059 A 
ATOM     89  F   UNL     1     -12.067 -15.396   5.107  1.00  0.00    -0.206 F 
ATOM     90  C   UNL     1     -12.486 -15.642   8.688  1.00  0.00     0.060 A 
BRANCH  90  91
ATOM     91  S   UNL     1     -13.207 -16.752   9.915  1.00  0.00     0.124 S 
ATOM     92  O   UNL     1     -12.015 -17.371  10.485  1.00  0.00    -0.237 OA
ATOM     93  O   UNL     1     -13.922 -15.828  10.790  1.00  0.00    -0.237 OA
ATOM     94  O   UNL     1     -14.054 -17.634   9.119  1.00  0.00    -0.744 OA
ENDBRANCH  90  91
ENDBRANCH  58  83
ENDBRANCH  32  33
ENDBRANCH  24  27
ENDBRANCH  22  23
ENDBRANCH  21  22
ENDBRANCH   1  21
TORSDOF 18
