REMARK SMILES CC(C)C[C@@H](C[NH3+])C(=O)N1CCC(CC(=O)NCCCNC(=O)c2ccc(-c3c4nc(c(-c5c(F)cc(S(=O)(=O)[O-])cc5F)c5ccc([nH]5)c(-c5c(F)cc(S(=O)(=O)[O-])cc5F)c5nc(c(-c6c(F)cc(S(=O)(=O)[O-])cc6F)c6ccc3[nH]6)C=C5)C=C4)cc2)CC1
REMARK SMILES IDX 18 1 17 2 15 3 16 4 14 6 13 7 8 8 9 9 10 10 11 11 91 12
REMARK SMILES IDX 12 13 90 14 5 15 4 16 2 17 1 18 3 19 6 20 7 21 19 25 20 26
REMARK SMILES IDX 21 27 22 28 23 30 24 31 25 32 89 33 26 34 88 35 27 36 28 37
REMARK SMILES IDX 29 38 82 39 30 40 87 41 81 42 83 43 31 44 86 45 80 46 79 47
REMARK SMILES IDX 32 49 66 50 45 51 65 52 46 53 49 54 64 55 84 56 47 57 48 58
REMARK SMILES IDX 63 60 85 61 50 62 33 63 34 64 43 65 35 66 36 67 42 68 44 69
REMARK SMILES IDX 37 70 38 71 39 72 40 73 41 74 67 75 68 76 77 77 69 78 70 79
REMARK SMILES IDX 76 80 78 81 71 82 72 83 73 84 74 85 75 86 51 87 52 88 61 89
REMARK SMILES IDX 53 90 54 91 60 92 62 93 55 94 56 95 57 96 58 97 59 98
REMARK H PARENT 17 5 7 22 7 23 7 24 21 29 83 48 49 59
REMARK Flexibility Score: inf
ROOT
ATOM      1  C   UNL     1      -8.893   1.985  -0.343  1.00  0.00     0.117 C 
ENDROOT
BRANCH   1   2
ATOM      2  N   UNL     1      -8.993   3.034  -1.352  1.00  0.00    -0.356 N 
ATOM      3  C   UNL     1      -8.255   3.279  -2.472  1.00  0.00     0.220 C 
ATOM      4  O   UNL     1      -8.571   4.235  -3.183  1.00  0.00    -0.275 OA
ATOM      5  H   UNL     1      -9.721   3.678  -1.196  1.00  0.00     0.163 HD
BRANCH   3   6
ATOM      6  C   UNL     1      -7.063   2.412  -2.832  1.00  0.00     0.103 C 
BRANCH   6   7
ATOM      7  C   UNL     1      -5.718   2.997  -2.361  1.00  0.00     0.002 C 
ATOM      8  C   UNL     1      -2.845   1.623   0.161  1.00  0.00     0.231 C 
ATOM      9  O   UNL     1      -3.587   1.045   0.961  1.00  0.00    -0.274 OA
ATOM     10  N   UNL     1      -3.346   2.541  -0.741  1.00  0.00    -0.342 N 
ATOM     11  C   UNL     1      -4.334   3.488  -0.273  1.00  0.00     0.120 C 
ATOM     12  C   UNL     1      -3.220   2.443  -2.185  1.00  0.00     0.120 C 
ATOM     13  C   UNL     1      -5.697   3.151  -0.839  1.00  0.00     0.026 C 
ATOM     14  C   UNL     1      -4.564   2.094  -2.830  1.00  0.00     0.026 C 
BRANCH   8  15
ATOM     15  C   UNL     1      -1.321   1.538   0.331  1.00  0.00     0.133 C 
BRANCH  15  16
ATOM     16  C   UNL     1      -0.538   1.233  -0.951  1.00  0.00     0.022 C 
BRANCH  16  17
ATOM     17  C   UNL     1       0.970   0.969  -0.789  1.00  0.00    -0.016 C 
ATOM     18  C   UNL     1       1.277  -0.200   0.146  1.00  0.00     0.007 C 
ATOM     19  C   UNL     1       1.573   0.697  -2.172  1.00  0.00     0.007 C 
ENDBRANCH  16  17
ENDBRANCH  15  16
BRANCH  15  20
ATOM     20  C   UNL     1      -0.841   2.780   1.110  1.00  0.00     0.272 C 
BRANCH  20  21
ATOM     21  N   UNL     1      -0.752   4.010   0.320  1.00  0.00    -0.357 N 
ATOM     22  H   UNL     1      -0.061   3.890  -0.420  1.00  0.00     0.344 HD
ATOM     23  H   UNL     1      -0.473   4.783   0.924  1.00  0.00     0.344 HD
ATOM     24  H   UNL     1      -1.662   4.214  -0.095  1.00  0.00     0.344 HD
ENDBRANCH  20  21
ENDBRANCH  15  20
ENDBRANCH   8  15
ENDBRANCH   6   7
ENDBRANCH   3   6
ENDBRANCH   1   2
BRANCH   1  25
ATOM     25  C   UNL     1      -8.435   2.496   1.025  1.00  0.00     0.042 C 
BRANCH  25  26
ATOM     26  C   UNL     1      -9.398   3.460   1.700  1.00  0.00     0.118 C 
BRANCH  26  27
ATOM     27  N   UNL     1     -10.368   2.754   2.513  1.00  0.00    -0.352 N 
ATOM     28  C   UNL     1     -10.538   2.762   3.875  1.00  0.00     0.251 C 
ATOM     29  H   UNL     1     -10.998   2.185   2.014  1.00  0.00     0.163 HD
ATOM     30  O   UNL     1     -11.217   1.873   4.385  1.00  0.00    -0.269 OA
BRANCH  28  31
ATOM     31  C   UNL     1      -9.934   3.814   4.737  1.00  0.00     0.039 A 
ATOM     32  C   UNL     1      -9.578   3.474   6.047  1.00  0.00     0.014 A 
ATOM     33  C   UNL     1      -9.814   5.144   4.321  1.00  0.00     0.014 A 
ATOM     34  C   UNL     1      -9.124   4.458   6.932  1.00  0.00     0.010 A 
ATOM     35  C   UNL     1      -9.279   6.109   5.178  1.00  0.00     0.010 A 
ATOM     36  C   UNL     1      -8.976   5.788   6.509  1.00  0.00    -0.014 A 
BRANCH  36  37
ATOM     37  C   UNL     1      -8.613   6.859   7.477  1.00  0.00     0.031 A 
ATOM     38  C   UNL     1      -9.608   7.946   7.805  1.00  0.00     0.074 A 
ATOM     39  C   UNL     1      -7.400   6.863   8.063  1.00  0.00     0.049 A 
ATOM     40  N   UNL     1      -9.489   8.961   8.623  1.00  0.00    -0.248 NA
ATOM     41  C   UNL     1     -10.899   7.902   7.098  1.00  0.00     0.031 C 
ATOM     42  C   UNL     1      -6.328   5.901   7.799  1.00  0.00     0.029 A 
ATOM     43  N   UNL     1      -6.865   7.705   9.007  1.00  0.00    -0.354 N 
ATOM     44  C   UNL     1     -10.674   9.681   8.514  1.00  0.00     0.074 A 
ATOM     45  C   UNL     1     -11.477   9.021   7.509  1.00  0.00     0.031 C 
ATOM     46  C   UNL     1      -5.277   6.188   8.586  1.00  0.00     0.029 A 
ATOM     47  C   UNL     1      -5.591   7.363   9.394  1.00  0.00     0.049 A 
ATOM     48  H   UNL     1      -7.349   8.480   9.372  1.00  0.00     0.167 HD
ATOM     49  C   UNL     1     -11.076  10.774   9.208  1.00  0.00     0.037 A 
ATOM     50  C   UNL     1      -4.774   7.925  10.306  1.00  0.00     0.037 A 
ATOM     51  C   UNL     1     -10.299  11.404  10.242  1.00  0.00     0.049 A 
ATOM     52  C   UNL     1      -5.260   9.108  11.100  1.00  0.00     0.074 A 
ATOM     53  C   UNL     1     -10.638  12.480  11.043  1.00  0.00     0.029 A 
ATOM     54  N   UNL     1      -9.028  11.004  10.628  1.00  0.00    -0.354 N 
ATOM     55  N   UNL     1      -6.405   9.742  11.019  1.00  0.00    -0.248 NA
ATOM     56  C   UNL     1      -4.347   9.641  12.121  1.00  0.00     0.031 C 
ATOM     57  C   UNL     1      -9.561  12.748  11.897  1.00  0.00     0.029 A 
ATOM     58  C   UNL     1      -8.566  11.816  11.651  1.00  0.00     0.049 A 
ATOM     59  H   UNL     1      -8.527  10.254  10.233  1.00  0.00     0.167 HD
ATOM     60  C   UNL     1      -6.360  10.734  11.993  1.00  0.00     0.074 A 
ATOM     61  C   UNL     1      -5.081  10.604  12.661  1.00  0.00     0.031 C 
ATOM     62  C   UNL     1      -7.291  11.670  12.306  1.00  0.00     0.037 A 
BRANCH  49  63
ATOM     63  C   UNL     1     -12.427  11.348   8.875  1.00  0.00     0.058 A 
ATOM     64  C   UNL     1     -13.615  10.681   9.219  1.00  0.00     0.135 A 
ATOM     65  C   UNL     1     -12.539  12.583   8.217  1.00  0.00     0.135 A 
ATOM     66  F   UNL     1     -13.566   9.489   9.835  1.00  0.00    -0.206 F 
ATOM     67  C   UNL     1     -14.863  11.199   8.890  1.00  0.00     0.059 A 
ATOM     68  C   UNL     1     -13.779  13.134   7.902  1.00  0.00     0.059 A 
ATOM     69  F   UNL     1     -11.437  13.265   7.867  1.00  0.00    -0.206 F 
ATOM     70  C   UNL     1     -14.935  12.425   8.227  1.00  0.00     0.060 A 
BRANCH  70  71
ATOM     71  S   UNL     1     -16.561  13.082   7.798  1.00  0.00     0.124 S 
ATOM     72  O   UNL     1     -16.916  12.253   6.651  1.00  0.00    -0.237 OA
ATOM     73  O   UNL     1     -17.329  12.843   9.015  1.00  0.00    -0.237 OA
ATOM     74  O   UNL     1     -16.291  14.486   7.498  1.00  0.00    -0.744 OA
ENDBRANCH  70  71
ENDBRANCH  49  63
BRANCH  50  75
ATOM     75  C   UNL     1      -3.426   7.347  10.552  1.00  0.00     0.058 A 
ATOM     76  C   UNL     1      -3.150   6.637  11.729  1.00  0.00     0.135 A 
ATOM     77  C   UNL     1      -2.393   7.485   9.613  1.00  0.00     0.135 A 
ATOM     78  F   UNL     1      -4.105   6.485  12.660  1.00  0.00    -0.206 F 
ATOM     79  C   UNL     1      -1.892   6.097  11.978  1.00  0.00     0.059 A 
ATOM     80  C   UNL     1      -1.133   6.935   9.828  1.00  0.00     0.059 A 
ATOM     81  F   UNL     1      -2.612   8.142   8.463  1.00  0.00    -0.206 F 
ATOM     82  C   UNL     1      -0.889   6.252  11.020  1.00  0.00     0.060 A 
BRANCH  82  83
ATOM     83  S   UNL     1       0.728   5.507  11.326  1.00  0.00     0.124 S 
ATOM     84  O   UNL     1       1.301   6.436  12.292  1.00  0.00    -0.237 OA
ATOM     85  O   UNL     1       0.369   4.189  11.841  1.00  0.00    -0.237 OA
ATOM     86  O   UNL     1       1.350   5.505  10.005  1.00  0.00    -0.744 OA
ENDBRANCH  82  83
ENDBRANCH  50  75
BRANCH  62  87
ATOM     87  C   UNL     1      -6.968  12.605  13.437  1.00  0.00     0.058 A 
ATOM     88  C   UNL     1      -6.026  13.635  13.292  1.00  0.00     0.135 A 
ATOM     89  C   UNL     1      -7.620  12.479  14.673  1.00  0.00     0.135 A 
ATOM     90  F   UNL     1      -5.372  13.796  12.130  1.00  0.00    -0.206 F 
ATOM     91  C   UNL     1      -5.713  14.486  14.348  1.00  0.00     0.059 A 
ATOM     92  C   UNL     1      -7.341  13.334  15.735  1.00  0.00     0.059 A 
ATOM     93  F   UNL     1      -8.539  11.518  14.859  1.00  0.00    -0.206 F 
ATOM     94  C   UNL     1      -6.371  14.322  15.568  1.00  0.00     0.060 A 
BRANCH  94  95
ATOM     95  S   UNL     1      -5.960  15.429  16.934  1.00  0.00     0.124 S 
ATOM     96  O   UNL     1      -4.703  14.858  17.405  1.00  0.00    -0.237 OA
ATOM     97  O   UNL     1      -5.858  16.726  16.270  1.00  0.00    -0.237 OA
ATOM     98  O   UNL     1      -7.096  15.285  17.839  1.00  0.00    -0.744 OA
ENDBRANCH  94  95
ENDBRANCH  62  87
ENDBRANCH  36  37
ENDBRANCH  28  31
ENDBRANCH  26  27
ENDBRANCH  25  26
ENDBRANCH   1  25
TORSDOF 19
