REMARK SMILES COc1c(N)cc(-c2ccccc2)cc1C(=O)NCCCNC(=O)c1ccc(-c2c3nc(c(-c4c(F)cc(S(=O)(=O)[O-])cc4F)c4ccc([nH]4)c(-c4c(F)cc(S(=O)(=O)[O-])cc4F)c4nc(c(-c5c(F)cc(S(=O)(=O)[O-])cc5F)c5ccc2[nH]5)C=C4)C=C3)cc1
REMARK SMILES IDX 21 1 20 2 19 3 18 4 16 5 17 6 15 8 3 9 4 10 6 11 14 12 7 13
REMARK SMILES IDX 2 14 1 15 5 16 8 19 9 20 13 21 10 22 12 23 11 24 22 25 23 26
REMARK SMILES IDX 24 28 25 29 26 30 90 31 27 32 89 33 28 34 29 35 30 36 83 37
REMARK SMILES IDX 31 38 88 39 82 40 84 41 32 42 87 43 81 44 80 45 33 47 67 48
REMARK SMILES IDX 46 49 66 50 47 51 50 52 65 53 85 54 48 55 49 56 64 58 86 59
REMARK SMILES IDX 51 60 34 61 35 62 44 63 36 64 37 65 43 66 45 67 38 68 39 69
REMARK SMILES IDX 40 70 41 71 42 72 68 73 69 74 78 75 70 76 71 77 77 78 79 79
REMARK SMILES IDX 72 80 73 81 74 82 75 83 76 84 52 85 53 86 62 87 54 88 55 89
REMARK SMILES IDX 61 90 63 91 56 92 57 93 58 94 59 95 60 96
REMARK H PARENT 18 7 5 17 5 18 22 27 84 46 50 57
REMARK Flexibility Score: inf
ROOT
ATOM      1  C   UNL     1      -2.683  -1.668  -0.178  1.00  0.00     0.118 C 
ENDROOT
BRANCH   1   2
ATOM      2  C   UNL     1      -1.287  -1.233  -0.611  1.00  0.00     0.042 C 
BRANCH   2   3
ATOM      3  C   UNL     1      -1.177  -0.881  -2.095  1.00  0.00     0.118 C 
BRANCH   3   4
ATOM      4  N   UNL     1      -1.745   0.430  -2.339  1.00  0.00    -0.352 N 
ATOM      5  C   UNL     1      -1.213   1.688  -2.417  1.00  0.00     0.255 C 
ATOM      6  O   UNL     1      -2.034   2.605  -2.526  1.00  0.00    -0.269 OA
ATOM      7  H   UNL     1      -2.720   0.411  -2.477  1.00  0.00     0.163 HD
BRANCH   5   8
ATOM      8  C   UNL     1       0.240   2.034  -2.482  1.00  0.00     0.084 A 
ATOM      9  C   UNL     1       1.324   1.404  -1.857  1.00  0.00     0.154 A 
ATOM     10  C   UNL     1       2.651   1.821  -2.121  1.00  0.00     0.076 A 
ATOM     11  C   UNL     1       2.866   3.009  -2.821  1.00  0.00     0.038 A 
ATOM     12  C   UNL     1       0.509   3.210  -3.219  1.00  0.00     0.026 A 
ATOM     13  C   UNL     1       1.801   3.738  -3.360  1.00  0.00    -0.015 A 
BRANCH   9  14
ATOM     14  O   UNL     1       1.160   0.363  -0.977  1.00  0.00    -0.494 OA
ATOM     15  C   UNL     1       1.290   0.821   0.376  1.00  0.00     0.278 C 
ENDBRANCH   9  14
BRANCH  10  16
ATOM     16  N   UNL     1       3.742   1.155  -1.561  1.00  0.00    -0.396 N 
ATOM     17  H   UNL     1       3.605   0.316  -1.064  1.00  0.00     0.156 HD
ATOM     18  H   UNL     1       4.649   1.524  -1.663  1.00  0.00     0.156 HD
ENDBRANCH  10  16
BRANCH  13  19
ATOM     19  C   UNL     1       2.025   5.038  -4.011  1.00  0.00    -0.018 A 
ATOM     20  C   UNL     1       2.936   5.179  -5.069  1.00  0.00     0.009 A 
ATOM     21  C   UNL     1       1.350   6.187  -3.562  1.00  0.00     0.009 A 
ATOM     22  C   UNL     1       3.169   6.427  -5.654  1.00  0.00     0.001 A 
ATOM     23  C   UNL     1       1.584   7.435  -4.144  1.00  0.00     0.001 A 
ATOM     24  C   UNL     1       2.496   7.554  -5.189  1.00  0.00     0.000 A 
ENDBRANCH  13  19
ENDBRANCH   5   8
ENDBRANCH   3   4
ENDBRANCH   2   3
ENDBRANCH   1   2
BRANCH   1  25
ATOM     25  N   UNL     1      -2.954  -3.050  -0.537  1.00  0.00    -0.352 N 
ATOM     26  C   UNL     1      -3.184  -4.138   0.267  1.00  0.00     0.251 C 
ATOM     27  H   UNL     1      -2.976  -3.233  -1.504  1.00  0.00     0.163 HD
ATOM     28  O   UNL     1      -3.140  -5.263  -0.231  1.00  0.00    -0.269 OA
BRANCH  26  29
ATOM     29  C   UNL     1      -3.477  -3.986   1.714  1.00  0.00     0.039 A 
ATOM     30  C   UNL     1      -2.968  -4.939   2.604  1.00  0.00     0.014 A 
ATOM     31  C   UNL     1      -4.307  -2.969   2.196  1.00  0.00     0.014 A 
ATOM     32  C   UNL     1      -3.262  -4.855   3.969  1.00  0.00     0.010 A 
ATOM     33  C   UNL     1      -4.545  -2.847   3.566  1.00  0.00     0.010 A 
ATOM     34  C   UNL     1      -4.040  -3.798   4.465  1.00  0.00    -0.014 A 
BRANCH  34  35
ATOM     35  C   UNL     1      -4.363  -3.693   5.914  1.00  0.00     0.031 A 
ATOM     36  C   UNL     1      -5.787  -3.835   6.384  1.00  0.00     0.074 A 
ATOM     37  C   UNL     1      -3.385  -3.422   6.801  1.00  0.00     0.049 A 
ATOM     38  N   UNL     1      -6.277  -3.705   7.591  1.00  0.00    -0.248 NA
ATOM     39  C   UNL     1      -6.797  -4.141   5.358  1.00  0.00     0.031 C 
ATOM     40  C   UNL     1      -1.973  -3.222   6.470  1.00  0.00     0.029 A 
ATOM     41  N   UNL     1      -3.433  -3.256   8.163  1.00  0.00    -0.354 N 
ATOM     42  C   UNL     1      -7.649  -3.889   7.466  1.00  0.00     0.074 A 
ATOM     43  C   UNL     1      -7.920  -4.101   6.061  1.00  0.00     0.031 C 
ATOM     44  C   UNL     1      -1.287  -2.976   7.598  1.00  0.00     0.029 A 
ATOM     45  C   UNL     1      -2.212  -2.969   8.727  1.00  0.00     0.049 A 
ATOM     46  H   UNL     1      -4.263  -3.335   8.687  1.00  0.00     0.167 HD
ATOM     47  C   UNL     1      -8.597  -3.899   8.436  1.00  0.00     0.037 A 
ATOM     48  C   UNL     1      -1.876  -2.723  10.009  1.00  0.00     0.037 A 
ATOM     49  C   UNL     1      -8.320  -3.725   9.838  1.00  0.00     0.049 A 
ATOM     50  C   UNL     1      -2.940  -2.766  11.071  1.00  0.00     0.074 A 
ATOM     51  C   UNL     1      -9.203  -3.777  10.903  1.00  0.00     0.029 A 
ATOM     52  N   UNL     1      -7.066  -3.472  10.372  1.00  0.00    -0.354 N 
ATOM     53  N   UNL     1      -4.225  -2.989  10.940  1.00  0.00    -0.248 NA
ATOM     54  C   UNL     1      -2.507  -2.531  12.456  1.00  0.00     0.031 C 
ATOM     55  C   UNL     1      -8.486  -3.528  12.079  1.00  0.00     0.029 A 
ATOM     56  C   UNL     1      -7.151  -3.355  11.749  1.00  0.00     0.049 A 
ATOM     57  H   UNL     1      -6.236  -3.388   9.849  1.00  0.00     0.167 HD
ATOM     58  C   UNL     1      -4.752  -2.942  12.226  1.00  0.00     0.074 A 
ATOM     59  C   UNL     1      -3.644  -2.681  13.122  1.00  0.00     0.031 C 
ATOM     60  C   UNL     1      -6.037  -3.102  12.627  1.00  0.00     0.037 A 
BRANCH  47  61
ATOM     61  C   UNL     1     -10.024  -4.111   8.011  1.00  0.00     0.058 A 
ATOM     62  C   UNL     1     -10.481  -5.363   7.571  1.00  0.00     0.135 A 
ATOM     63  C   UNL     1     -10.951  -3.059   8.069  1.00  0.00     0.135 A 
ATOM     64  F   UNL     1      -9.633  -6.400   7.482  1.00  0.00    -0.206 F 
ATOM     65  C   UNL     1     -11.800  -5.557   7.173  1.00  0.00     0.059 A 
ATOM     66  C   UNL     1     -12.282  -3.236   7.699  1.00  0.00     0.059 A 
ATOM     67  F   UNL     1     -10.568  -1.841   8.484  1.00  0.00    -0.206 F 
ATOM     68  C   UNL     1     -12.692  -4.486   7.236  1.00  0.00     0.060 A 
BRANCH  68  69
ATOM     69  S   UNL     1     -14.401  -4.747   6.714  1.00  0.00     0.124 S 
ATOM     70  O   UNL     1     -14.260  -4.756   5.259  1.00  0.00    -0.237 OA
ATOM     71  O   UNL     1     -14.722  -6.036   7.324  1.00  0.00    -0.237 OA
ATOM     72  O   UNL     1     -15.106  -3.602   7.270  1.00  0.00    -0.744 OA
ENDBRANCH  68  69
ENDBRANCH  47  61
BRANCH  48  73
ATOM     73  C   UNL     1      -0.460  -2.440  10.360  1.00  0.00     0.058 A 
ATOM     74  C   UNL     1       0.320  -3.394  11.029  1.00  0.00     0.135 A 
ATOM     75  C   UNL     1       0.147  -1.223  10.013  1.00  0.00     0.135 A 
ATOM     76  F   UNL     1      -0.219  -4.570  11.386  1.00  0.00    -0.206 F 
ATOM     77  C   UNL     1       1.651  -3.150  11.353  1.00  0.00     0.059 A 
ATOM     78  C   UNL     1       1.482  -0.964  10.308  1.00  0.00     0.059 A 
ATOM     79  F   UNL     1      -0.553  -0.285   9.358  1.00  0.00    -0.206 F 
ATOM     80  C   UNL     1       2.224  -1.931  10.985  1.00  0.00     0.060 A 
BRANCH  80  81
ATOM     81  S   UNL     1       3.969  -1.646  11.353  1.00  0.00     0.124 S 
ATOM     82  O   UNL     1       3.924  -1.352  12.781  1.00  0.00    -0.237 OA
ATOM     83  O   UNL     1       4.576  -2.921  10.982  1.00  0.00    -0.237 OA
ATOM     84  O   UNL     1       4.313  -0.523  10.486  1.00  0.00    -0.744 OA
ENDBRANCH  80  81
ENDBRANCH  48  73
BRANCH  60  85
ATOM     85  C   UNL     1      -6.312  -3.027  14.102  1.00  0.00     0.058 A 
ATOM     86  C   UNL     1      -6.326  -1.802  14.785  1.00  0.00     0.135 A 
ATOM     87  C   UNL     1      -6.611  -4.190  14.830  1.00  0.00     0.135 A 
ATOM     88  F   UNL     1      -6.040  -0.662  14.135  1.00  0.00    -0.206 F 
ATOM     89  C   UNL     1      -6.607  -1.733  16.146  1.00  0.00     0.059 A 
ATOM     90  C   UNL     1      -6.917  -4.142  16.186  1.00  0.00     0.059 A 
ATOM     91  F   UNL     1      -6.620  -5.386  14.220  1.00  0.00    -0.206 F 
ATOM     92  C   UNL     1      -6.901  -2.910  16.838  1.00  0.00     0.060 A 
BRANCH  92  93
ATOM     93  S   UNL     1      -7.297  -2.808  18.597  1.00  0.00     0.124 S 
ATOM     94  O   UNL     1      -5.973  -2.638  19.186  1.00  0.00    -0.237 OA
ATOM     95  O   UNL     1      -8.172  -1.640  18.656  1.00  0.00    -0.237 OA
ATOM     96  O   UNL     1      -7.949  -4.085  18.871  1.00  0.00    -0.744 OA
ENDBRANCH  92  93
ENDBRANCH  60  85
ENDBRANCH  34  35
ENDBRANCH  26  29
ENDBRANCH   1  25
TORSDOF 16
