REMARK SMILES COCCCC(=O)N[C@H]1CC[C@@H](C(=O)NCCCNC(=O)c2ccc(-c3c4nc(c(-c5c(F)cc(S(=O)(=O)[O-])cc5F)c5ccc([nH]5)c(-c5c(F)cc(S(=O)(=O)[O-])cc5F)c5nc(c(-c6c(F)cc(S(=O)(=O)[O-])cc6F)c6ccc3[nH]6)C=C5)C=C4)cc2)CC1
REMARK SMILES IDX 16 1 15 2 13 3 14 4 12 6 9 7 10 8 89 9 11 10 88 11 8 12 6 13
REMARK SMILES IDX 7 14 5 16 4 17 3 18 2 19 1 20 17 21 18 22 19 23 20 24 21 26
REMARK SMILES IDX 22 27 23 28 87 29 24 30 86 31 25 32 26 33 27 34 80 35 28 36
REMARK SMILES IDX 85 37 79 38 81 39 29 40 84 41 78 42 77 43 30 45 64 46 43 47
REMARK SMILES IDX 63 48 44 49 47 50 62 51 82 52 45 53 46 54 61 56 83 57 48 58
REMARK SMILES IDX 31 59 32 60 41 61 33 62 34 63 40 64 42 65 35 66 36 67 37 68
REMARK SMILES IDX 38 69 39 70 65 71 66 72 75 73 67 74 68 75 74 76 76 77 69 78
REMARK SMILES IDX 70 79 71 80 72 81 73 82 49 83 50 84 59 85 51 86 52 87 58 88
REMARK SMILES IDX 60 89 53 90 54 91 55 92 56 93 57 94
REMARK H PARENT 15 5 8 15 19 25 81 44 47 55
REMARK Flexibility Score: inf
ROOT
ATOM      1  C   UNL     1       5.799  -1.610   0.905  1.00  0.00     0.117 C 
ENDROOT
BRANCH   1   2
ATOM      2  N   UNL     1       5.582  -2.117   2.240  1.00  0.00    -0.356 N 
ATOM      3  C   UNL     1       4.503  -2.642   2.866  1.00  0.00     0.223 C 
ATOM      4  O   UNL     1       4.732  -3.177   3.959  1.00  0.00    -0.275 OA
ATOM      5  H   UNL     1       6.383  -2.071   2.811  1.00  0.00     0.163 HD
BRANCH   3   6
ATOM      6  C   UNL     1       3.057  -2.597   2.351  1.00  0.00     0.078 C 
ATOM      7  C   UNL     1       2.345  -1.264  -0.234  1.00  0.00     0.082 C 
ATOM      8  C   UNL     1       2.754  -2.747  -0.221  1.00  0.00     0.026 C 
ATOM      9  C   UNL     1       2.615  -0.450   1.032  1.00  0.00     0.026 C 
ATOM     10  C   UNL     1       2.707  -3.442   1.130  1.00  0.00     0.015 C 
ATOM     11  C   UNL     1       2.416  -1.215   2.326  1.00  0.00     0.015 C 
BRANCH   7  12
ATOM     12  N   UNL     1       2.926  -0.641  -1.418  1.00  0.00    -0.353 N 
ATOM     13  C   UNL     1       2.377  -0.099  -2.532  1.00  0.00     0.220 C 
ATOM     14  O   UNL     1       3.140   0.132  -3.473  1.00  0.00    -0.275 OA
ATOM     15  H   UNL     1       3.910  -0.607  -1.405  1.00  0.00     0.163 HD
BRANCH  13  16
ATOM     16  C   UNL     1       0.922   0.313  -2.608  1.00  0.00     0.102 C 
BRANCH  16  17
ATOM     17  C   UNL     1      -0.146  -0.752  -2.849  1.00  0.00     0.038 C 
BRANCH  17  18
ATOM     18  C   UNL     1      -0.626  -1.685  -1.736  1.00  0.00     0.160 C 
BRANCH  18  19
ATOM     19  O   UNL     1      -1.210  -1.203  -0.530  1.00  0.00    -0.385 OA
ATOM     20  C   UNL     1      -1.047   0.145  -0.143  1.00  0.00     0.194 C 
ENDBRANCH  18  19
ENDBRANCH  17  18
ENDBRANCH  16  17
ENDBRANCH  13  16
ENDBRANCH   7  12
ENDBRANCH   3   6
ENDBRANCH   1   2
BRANCH   1  21
ATOM     21  C   UNL     1       6.010  -0.108   0.843  1.00  0.00     0.042 C 
BRANCH  21  22
ATOM     22  C   UNL     1       7.402   0.290   0.417  1.00  0.00     0.118 C 
BRANCH  22  23
ATOM     23  N   UNL     1       7.718  -0.130  -0.947  1.00  0.00    -0.352 N 
ATOM     24  C   UNL     1       8.139   0.599  -2.034  1.00  0.00     0.251 C 
ATOM     25  H   UNL     1       7.611  -1.094  -1.115  1.00  0.00     0.163 HD
ATOM     26  O   UNL     1       8.247   0.037  -3.124  1.00  0.00    -0.269 OA
BRANCH  24  27
ATOM     27  C   UNL     1       8.433   2.043  -1.908  1.00  0.00     0.039 A 
ATOM     28  C   UNL     1       8.147   2.904  -2.971  1.00  0.00     0.014 A 
ATOM     29  C   UNL     1       8.982   2.558  -0.735  1.00  0.00     0.014 A 
ATOM     30  C   UNL     1       8.355   4.279  -2.823  1.00  0.00     0.010 A 
ATOM     31  C   UNL     1       9.021   3.927  -0.529  1.00  0.00     0.010 A 
ATOM     32  C   UNL     1       8.757   4.805  -1.585  1.00  0.00    -0.014 A 
BRANCH  32  33
ATOM     33  C   UNL     1       8.989   6.256  -1.374  1.00  0.00     0.031 A 
ATOM     34  C   UNL     1      10.342   6.725  -0.890  1.00  0.00     0.074 A 
ATOM     35  C   UNL     1       7.980   7.133  -1.536  1.00  0.00     0.049 A 
ATOM     36  N   UNL     1      10.724   7.923  -0.534  1.00  0.00    -0.248 NA
ATOM     37  C   UNL     1      11.390   5.699  -0.736  1.00  0.00     0.031 C 
ATOM     38  C   UNL     1       6.611   6.792  -1.933  1.00  0.00     0.029 A 
ATOM     39  N   UNL     1       7.947   8.496  -1.381  1.00  0.00    -0.354 N 
ATOM     40  C   UNL     1      12.034   7.783  -0.088  1.00  0.00     0.074 A 
ATOM     41  C   UNL     1      12.353   6.376  -0.133  1.00  0.00     0.031 C 
ATOM     42  C   UNL     1       5.886   7.917  -2.031  1.00  0.00     0.029 A 
ATOM     43  C   UNL     1       6.722   9.055  -1.661  1.00  0.00     0.049 A 
ATOM     44  H   UNL     1       8.727   9.024  -1.095  1.00  0.00     0.167 HD
ATOM     45  C   UNL     1      12.912   8.744   0.284  1.00  0.00     0.037 A 
ATOM     46  C   UNL     1       6.321  10.340  -1.623  1.00  0.00     0.037 A 
ATOM     47  C   UNL     1      12.602  10.148   0.266  1.00  0.00     0.049 A 
ATOM     48  C   UNL     1       7.321  11.397  -1.234  1.00  0.00     0.074 A 
ATOM     49  C   UNL     1      13.432  11.216   0.549  1.00  0.00     0.029 A 
ATOM     50  N   UNL     1      11.362  10.677  -0.065  1.00  0.00    -0.354 N 
ATOM     51  N   UNL     1       8.576  11.254  -0.879  1.00  0.00    -0.248 NA
ATOM     52  C   UNL     1       6.854  12.789  -1.248  1.00  0.00     0.031 C 
ATOM     53  C   UNL     1      12.681  12.390   0.435  1.00  0.00     0.029 A 
ATOM     54  C   UNL     1      11.399  12.056   0.025  1.00  0.00     0.049 A 
ATOM     55  H   UNL     1      10.573  10.148  -0.325  1.00  0.00     0.167 HD
ATOM     56  C   UNL     1       9.058  12.540  -0.658  1.00  0.00     0.074 A 
ATOM     57  C   UNL     1       7.961  13.446  -0.931  1.00  0.00     0.031 C 
ATOM     58  C   UNL     1      10.294  12.937  -0.265  1.00  0.00     0.037 A 
BRANCH  45  59
ATOM     59  C   UNL     1      14.287   8.309   0.717  1.00  0.00     0.058 A 
ATOM     60  C   UNL     1      15.201   7.736  -0.184  1.00  0.00     0.135 A 
ATOM     61  C   UNL     1      14.705   8.482   2.046  1.00  0.00     0.135 A 
ATOM     62  F   UNL     1      14.851   7.528  -1.463  1.00  0.00    -0.206 F 
ATOM     63  C   UNL     1      16.462   7.317   0.225  1.00  0.00     0.059 A 
ATOM     64  C   UNL     1      15.976   8.101   2.469  1.00  0.00     0.059 A 
ATOM     65  F   UNL     1      13.873   9.020   2.952  1.00  0.00    -0.206 F 
ATOM     66  C   UNL     1      16.841   7.505   1.554  1.00  0.00     0.060 A 
BRANCH  66  67
ATOM     67  S   UNL     1      18.485   6.961   2.064  1.00  0.00     0.124 S 
ATOM     68  O   UNL     1      18.329   5.510   2.051  1.00  0.00    -0.237 OA
ATOM     69  O   UNL     1      19.335   7.516   1.016  1.00  0.00    -0.237 OA
ATOM     70  O   UNL     1      18.648   7.563   3.384  1.00  0.00    -0.744 OA
ENDBRANCH  66  67
ENDBRANCH  45  59
BRANCH  46  71
ATOM     71  C   UNL     1       4.927  10.699  -1.998  1.00  0.00     0.058 A 
ATOM     72  C   UNL     1       4.656  11.402  -3.182  1.00  0.00     0.135 A 
ATOM     73  C   UNL     1       3.836  10.333  -1.194  1.00  0.00     0.135 A 
ATOM     74  F   UNL     1       5.664  11.777  -3.984  1.00  0.00    -0.206 F 
ATOM     75  C   UNL     1       3.358  11.748  -3.546  1.00  0.00     0.059 A 
ATOM     76  C   UNL     1       2.526  10.643  -1.551  1.00  0.00     0.059 A 
ATOM     77  F   UNL     1       4.036   9.642  -0.061  1.00  0.00    -0.206 F 
ATOM     78  C   UNL     1       2.299  11.362  -2.724  1.00  0.00     0.060 A 
BRANCH  78  79
ATOM     79  S   UNL     1       0.616  11.780  -3.227  1.00  0.00     0.124 S 
ATOM     80  O   UNL     1       0.590  13.220  -3.001  1.00  0.00    -0.237 OA
ATOM     81  O   UNL     1       0.598  11.351  -4.622  1.00  0.00    -0.237 OA
ATOM     82  O   UNL     1      -0.212  10.984  -2.325  1.00  0.00    -0.744 OA
ENDBRANCH  78  79
ENDBRANCH  46  71
BRANCH  58  83
ATOM     83  C   UNL     1      10.541  14.414  -0.146  1.00  0.00     0.058 A 
ATOM     84  C   UNL     1       9.986  15.175   0.894  1.00  0.00     0.135 A 
ATOM     85  C   UNL     1      11.396  15.063  -1.052  1.00  0.00     0.135 A 
ATOM     86  F   UNL     1       9.159  14.603   1.784  1.00  0.00    -0.206 F 
ATOM     87  C   UNL     1      10.250  16.534   1.017  1.00  0.00     0.059 A 
ATOM     88  C   UNL     1      11.700  16.414  -0.929  1.00  0.00     0.059 A 
ATOM     89  F   UNL     1      11.964  14.377  -2.057  1.00  0.00    -0.206 F 
ATOM     90  C   UNL     1      11.111  17.144   0.102  1.00  0.00     0.060 A 
BRANCH  90  91
ATOM     91  S   UNL     1      11.473  18.901   0.296  1.00  0.00     0.124 S 
ATOM     92  O   UNL     1      10.218  19.508  -0.133  1.00  0.00    -0.237 OA
ATOM     93  O   UNL     1      11.772  19.002   1.721  1.00  0.00    -0.237 OA
ATOM     94  O   UNL     1      12.611  19.115  -0.594  1.00  0.00    -0.744 OA
ENDBRANCH  90  91
ENDBRANCH  58  83
ENDBRANCH  32  33
ENDBRANCH  24  27
ENDBRANCH  22  23
ENDBRANCH  21  22
ENDBRANCH   1  21
TORSDOF 18
