REMARK SMILES O=C(NCCCNC(=O)[C@@H]1[C@H](C(=O)NCc2ccccc2Cl)[C@@H]2C=C[C@H]1C2)c1ccc(-c2c3nc(c(-c4c(F)cc(S(=O)(=O)[O-])cc4F)c4ccc([nH]4)c(-c4c(F)cc(S(=O)(=O)[O-])cc4F)c4nc(c(-c5c(F)cc(S(=O)(=O)[O-])cc5F)c5ccc2[nH]5)C=C4)C=C3)cc1
REMARK SMILES IDX 5 1 4 2 3 3 1 4 2 5 28 7 29 8 93 9 30 10 92 11 31 12 32 13
REMARK SMILES IDX 33 14 86 15 34 16 91 17 85 18 87 19 35 20 90 21 84 22 83 23
REMARK SMILES IDX 36 25 70 26 49 27 69 28 50 29 53 30 68 31 88 32 51 33 52 34
REMARK SMILES IDX 67 36 89 37 54 38 37 39 38 40 47 41 39 42 40 43 46 44 48 45
REMARK SMILES IDX 41 46 42 47 43 48 44 49 45 50 71 51 72 52 81 53 73 54 74 55
REMARK SMILES IDX 80 56 82 57 75 58 76 59 77 60 78 61 79 62 55 63 56 64 65 65
REMARK SMILES IDX 57 66 58 67 64 68 66 69 59 70 60 71 61 72 62 73 63 74 6 75
REMARK SMILES IDX 7 76 8 77 9 79 10 80 11 81 26 82 23 83 25 84 27 85 24 86
REMARK SMILES IDX 12 87 13 88 14 89 15 91 16 92 17 93 21 94 18 95 20 96 22 97
REMARK SMILES IDX 19 98
REMARK H PARENT 3 6 87 24 53 35 7 78 14 90
REMARK Flexibility Score: inf
ROOT
ATOM      1  C   UNL     1       3.541  -1.529  -2.884  1.00  0.00     0.042 C 
ENDROOT
BRANCH   1   2
ATOM      2  C   UNL     1       3.657  -0.689  -1.610  1.00  0.00     0.118 C 
BRANCH   2   3
ATOM      3  N   UNL     1       2.412  -0.102  -1.151  1.00  0.00    -0.352 N 
ATOM      4  O   UNL     1       0.814   0.381   0.373  1.00  0.00    -0.269 OA
ATOM      5  C   UNL     1       1.950  -0.012   0.146  1.00  0.00     0.251 C 
ATOM      6  H   UNL     1       1.828   0.278  -1.847  1.00  0.00     0.163 HD
BRANCH   5   7
ATOM      7  C   UNL     1       2.837  -0.397   1.273  1.00  0.00     0.039 A 
ATOM      8  C   UNL     1       4.067   0.241   1.458  1.00  0.00     0.014 A 
ATOM      9  C   UNL     1       2.405  -1.361   2.189  1.00  0.00     0.014 A 
ATOM     10  C   UNL     1       4.888  -0.128   2.528  1.00  0.00     0.010 A 
ATOM     11  C   UNL     1       3.214  -1.701   3.283  1.00  0.00     0.010 A 
ATOM     12  C   UNL     1       4.466  -1.091   3.463  1.00  0.00    -0.014 A 
BRANCH  12  13
ATOM     13  C   UNL     1       5.297  -1.387   4.668  1.00  0.00     0.031 A 
ATOM     14  C   UNL     1       5.919  -2.743   4.880  1.00  0.00     0.074 A 
ATOM     15  C   UNL     1       5.479  -0.417   5.588  1.00  0.00     0.049 A 
ATOM     16  N   UNL     1       6.644  -3.171   5.885  1.00  0.00    -0.248 NA
ATOM     17  C   UNL     1       5.694  -3.751   3.835  1.00  0.00     0.031 C 
ATOM     18  C   UNL     1       4.908   0.930   5.513  1.00  0.00     0.029 A 
ATOM     19  N   UNL     1       6.190  -0.408   6.764  1.00  0.00    -0.354 N 
ATOM     20  C   UNL     1       6.965  -4.493   5.594  1.00  0.00     0.074 A 
ATOM     21  C   UNL     1       6.317  -4.810   4.338  1.00  0.00     0.031 C 
ATOM     22  C   UNL     1       5.309   1.640   6.579  1.00  0.00     0.029 A 
ATOM     23  C   UNL     1       6.117   0.787   7.443  1.00  0.00     0.049 A 
ATOM     24  H   UNL     1       6.703  -1.182   7.090  1.00  0.00     0.167 HD
ATOM     25  C   UNL     1       7.739  -5.355   6.300  1.00  0.00     0.037 A 
ATOM     26  C   UNL     1       6.621   1.153   8.638  1.00  0.00     0.037 A 
ATOM     27  C   UNL     1       8.374  -5.035   7.556  1.00  0.00     0.049 A 
ATOM     28  C   UNL     1       7.437   0.162   9.423  1.00  0.00     0.074 A 
ATOM     29  C   UNL     1       9.184  -5.838   8.342  1.00  0.00     0.029 A 
ATOM     30  N   UNL     1       8.268  -3.817   8.215  1.00  0.00    -0.354 N 
ATOM     31  N   UNL     1       7.757  -1.071   9.113  1.00  0.00    -0.248 NA
ATOM     32  C   UNL     1       7.964   0.613  10.718  1.00  0.00     0.031 C 
ATOM     33  C   UNL     1       9.529  -5.124   9.495  1.00  0.00     0.029 A 
ATOM     34  C   UNL     1       8.984  -3.854   9.402  1.00  0.00     0.049 A 
ATOM     35  H   UNL     1       7.760  -3.041   7.886  1.00  0.00     0.167 HD
ATOM     36  C   UNL     1       8.544  -1.535  10.161  1.00  0.00     0.074 A 
ATOM     37  C   UNL     1       8.669  -0.442  11.103  1.00  0.00     0.031 C 
ATOM     38  C   UNL     1       9.109  -2.756  10.330  1.00  0.00     0.037 A 
BRANCH  25  39
ATOM     39  C   UNL     1       7.951  -6.737   5.734  1.00  0.00     0.058 A 
ATOM     40  C   UNL     1       8.735  -6.950   4.588  1.00  0.00     0.135 A 
ATOM     41  C   UNL     1       7.421  -7.869   6.377  1.00  0.00     0.135 A 
ATOM     42  F   UNL     1       9.262  -5.907   3.927  1.00  0.00    -0.206 F 
ATOM     43  C   UNL     1       8.964  -8.228   4.086  1.00  0.00     0.059 A 
ATOM     44  C   UNL     1       7.661  -9.159   5.909  1.00  0.00     0.059 A 
ATOM     45  F   UNL     1       6.669  -7.729   7.480  1.00  0.00    -0.206 F 
ATOM     46  C   UNL     1       8.424  -9.328   4.755  1.00  0.00     0.060 A 
BRANCH  46  47
ATOM     47  S   UNL     1       8.743 -10.978   4.095  1.00  0.00     0.124 S 
ATOM     48  O   UNL     1       7.937 -10.967   2.878  1.00  0.00    -0.237 OA
ATOM     49  O   UNL     1      10.188 -10.961   3.897  1.00  0.00    -0.237 OA
ATOM     50  O   UNL     1       8.268 -11.867   5.151  1.00  0.00    -0.744 OA
ENDBRANCH  46  47
ENDBRANCH  25  39
BRANCH  26  51
ATOM     51  C   UNL     1       6.354   2.516   9.175  1.00  0.00     0.058 A 
ATOM     52  C   UNL     1       7.386   3.453   9.334  1.00  0.00     0.135 A 
ATOM     53  C   UNL     1       5.057   2.906   9.550  1.00  0.00     0.135 A 
ATOM     54  F   UNL     1       8.643   3.129   8.997  1.00  0.00    -0.206 F 
ATOM     55  C   UNL     1       7.150   4.714   9.873  1.00  0.00     0.059 A 
ATOM     56  C   UNL     1       4.791   4.174  10.058  1.00  0.00     0.059 A 
ATOM     57  F   UNL     1       4.029   2.056   9.404  1.00  0.00    -0.206 F 
ATOM     58  C   UNL     1       5.848   5.065  10.232  1.00  0.00     0.060 A 
BRANCH  58  59
ATOM     59  S   UNL     1       5.549   6.711  10.911  1.00  0.00     0.124 S 
ATOM     60  O   UNL     1       6.131   6.588  12.242  1.00  0.00    -0.237 OA
ATOM     61  O   UNL     1       6.271   7.565   9.974  1.00  0.00    -0.237 OA
ATOM     62  O   UNL     1       4.095   6.833  10.867  1.00  0.00    -0.744 OA
ENDBRANCH  58  59
ENDBRANCH  26  51
BRANCH  38  63
ATOM     63  C   UNL     1       9.953  -2.961  11.561  1.00  0.00     0.058 A 
ATOM     64  C   UNL     1       9.389  -3.034  12.844  1.00  0.00     0.135 A 
ATOM     65  C   UNL     1      11.345  -3.111  11.449  1.00  0.00     0.135 A 
ATOM     66  F   UNL     1       8.064  -2.889  13.010  1.00  0.00    -0.206 F 
ATOM     67  C   UNL     1      10.177  -3.215  13.976  1.00  0.00     0.059 A 
ATOM     68  C   UNL     1      12.149  -3.326  12.564  1.00  0.00     0.059 A 
ATOM     69  F   UNL     1      11.937  -3.059  10.246  1.00  0.00    -0.206 F 
ATOM     70  C   UNL     1      11.558  -3.361  13.826  1.00  0.00     0.060 A 
BRANCH  70  71
ATOM     71  S   UNL     1      12.567  -3.616  15.301  1.00  0.00     0.124 S 
ATOM     72  O   UNL     1      12.538  -2.290  15.910  1.00  0.00    -0.237 OA
ATOM     73  O   UNL     1      11.827  -4.655  16.009  1.00  0.00    -0.237 OA
ATOM     74  O   UNL     1      13.859  -4.031  14.762  1.00  0.00    -0.744 OA
ENDBRANCH  70  71
ENDBRANCH  38  63
ENDBRANCH  12  13
ENDBRANCH   5   7
ENDBRANCH   2   3
ENDBRANCH   1   2
BRANCH   1  75
ATOM     75  C   UNL     1       3.473  -0.902  -4.294  1.00  0.00     0.117 C 
BRANCH  75  76
ATOM     76  N   UNL     1       4.271   0.273  -4.624  1.00  0.00    -0.356 N 
ATOM     77  C   UNL     1       5.361   0.499  -5.418  1.00  0.00     0.224 C 
ATOM     78  H   UNL     1       3.952   1.089  -4.173  1.00  0.00     0.163 HD
ATOM     79  O   UNL     1       5.584   1.650  -5.797  1.00  0.00    -0.275 OA
BRANCH  77  80
ATOM     80  C   UNL     1       6.238  -0.641  -5.859  1.00  0.00     0.098 C 
ATOM     81  C   UNL     1       6.769  -1.611  -4.786  1.00  0.00     0.098 C 
ATOM     82  C   UNL     1       7.543  -0.316  -6.674  1.00  0.00     0.025 C 
ATOM     83  C   UNL     1       8.176  -1.998  -5.335  1.00  0.00     0.025 C 
ATOM     84  C   UNL     1       8.732   0.151  -5.842  1.00  0.00    -0.027 C 
ATOM     85  C   UNL     1       8.040  -1.758  -6.854  1.00  0.00     0.017 C 
ATOM     86  C   UNL     1       9.116  -0.864  -5.051  1.00  0.00    -0.027 C 
BRANCH  81  87
ATOM     87  C   UNL     1       6.736  -1.272  -3.278  1.00  0.00     0.224 C 
ATOM     88  O   UNL     1       6.768  -2.219  -2.480  1.00  0.00    -0.275 OA
ATOM     89  N   UNL     1       6.622  -0.022  -2.719  1.00  0.00    -0.352 N 
ATOM     90  H   UNL     1       6.016   0.063  -1.948  1.00  0.00     0.163 HD
BRANCH  89  91
ATOM     91  C   UNL     1       7.297   1.177  -3.144  1.00  0.00     0.153 C 
BRANCH  91  92
ATOM     92  C   UNL     1       6.877   2.607  -2.838  1.00  0.00    -0.010 A 
ATOM     93  C   UNL     1       7.980   3.497  -2.882  1.00  0.00     0.007 A 
ATOM     94  C   UNL     1       5.610   3.213  -2.802  1.00  0.00     0.046 A 
ATOM     95  C   UNL     1       7.837   4.884  -2.947  1.00  0.00     0.000 A 
ATOM     96  C   UNL     1       5.469   4.613  -2.880  1.00  0.00     0.021 A 
ATOM     97  Cl  UNL     1       4.101   2.422  -2.654  1.00  0.00    -0.084 Cl
ATOM     98  C   UNL     1       6.575   5.446  -2.969  1.00  0.00     0.002 A 
ENDBRANCH  91  92
ENDBRANCH  89  91
ENDBRANCH  81  87
ENDBRANCH  77  80
ENDBRANCH  75  76
ENDBRANCH   1  75
TORSDOF 16
