REMARK SMILES C[C@H](C(=O)NCCCNC(=O)c1ccc(-c2c3nc(c(-c4c(F)cc(S(=O)(=O)[O-])cc4F)c4ccc([nH]4)c(-c4c(F)cc(S(=O)(=O)[O-])cc4F)c4nc(c(-c5c(F)cc(S(=O)(=O)[O-])cc5F)c5ccc2[nH]5)C=C4)C=C3)cc1)c1ccc2c(c1)OCCO2
REMARK SMILES IDX 8 1 7 2 6 3 5 4 3 5 4 6 2 8 1 9 78 10 79 11 83 12 80 13
REMARK SMILES IDX 82 14 81 15 84 16 87 17 85 18 86 19 9 20 10 21 11 23 12 24
REMARK SMILES IDX 13 25 77 26 14 27 76 28 15 29 16 30 17 31 70 32 18 33 75 34
REMARK SMILES IDX 69 35 71 36 19 37 74 38 68 39 67 40 20 42 54 43 33 44 53 45
REMARK SMILES IDX 34 46 37 47 52 48 72 49 35 50 36 51 51 53 73 54 38 55 21 56
REMARK SMILES IDX 22 57 31 58 23 59 24 60 30 61 32 62 25 63 26 64 27 65 28 66
REMARK SMILES IDX 29 67 55 68 56 69 65 70 57 71 58 72 64 73 66 74 59 75 60 76
REMARK SMILES IDX 61 77 62 78 63 79 39 80 40 81 49 82 41 83 42 84 48 85 50 86
REMARK SMILES IDX 43 87 44 88 45 89 46 90 47 91
REMARK H PARENT 5 7 9 22 71 41 37 52
REMARK Flexibility Score: inf
ROOT
ATOM      1  C   UNL     1      -1.872   1.766  -2.621  1.00  0.00     0.118 C 
ENDROOT
BRANCH   1   2
ATOM      2  C   UNL     1      -2.084   0.802  -1.460  1.00  0.00     0.042 C 
BRANCH   2   3
ATOM      3  C   UNL     1      -1.051  -0.326  -1.373  1.00  0.00     0.117 C 
BRANCH   3   4
ATOM      4  N   UNL     1       0.250   0.179  -0.959  1.00  0.00    -0.356 N 
ATOM      5  C   UNL     1       0.915   0.257   0.224  1.00  0.00     0.227 C 
ATOM      6  O   UNL     1       1.966   0.914   0.168  1.00  0.00    -0.274 OA
ATOM      7  H   UNL     1       0.768   0.551  -1.709  1.00  0.00     0.163 HD
BRANCH   5   8
ATOM      8  C   UNL     1       0.581  -0.521   1.512  1.00  0.00     0.105 C 
ATOM      9  C   UNL     1       1.280   0.099   2.721  1.00  0.00     0.023 C 
BRANCH   8  10
ATOM     10  C   UNL     1      -0.857  -0.854   1.844  1.00  0.00    -0.032 A 
ATOM     11  C   UNL     1      -1.923   0.041   1.707  1.00  0.00     0.008 A 
ATOM     12  C   UNL     1      -1.133  -2.188   2.179  1.00  0.00     0.055 A 
ATOM     13  C   UNL     1      -3.217  -0.459   1.524  1.00  0.00     0.051 A 
ATOM     14  C   UNL     1      -2.401  -2.691   1.972  1.00  0.00     0.161 A 
ATOM     15  C   UNL     1      -3.409  -1.837   1.526  1.00  0.00     0.161 A 
ATOM     16  O   UNL     1      -2.522  -4.053   2.027  1.00  0.00    -0.486 OA
ATOM     17  O   UNL     1      -4.524  -2.344   0.899  1.00  0.00    -0.486 OA
ATOM     18  C   UNL     1      -3.602  -4.548   1.225  1.00  0.00     0.271 C 
ATOM     19  C   UNL     1      -4.095  -3.529   0.204  1.00  0.00     0.271 C 
ENDBRANCH   8  10
ENDBRANCH   5   8
ENDBRANCH   3   4
ENDBRANCH   2   3
ENDBRANCH   1   2
BRANCH   1  20
ATOM     20  N   UNL     1      -2.325   1.218  -3.890  1.00  0.00    -0.352 N 
ATOM     21  C   UNL     1      -3.332   1.649  -4.718  1.00  0.00     0.251 C 
ATOM     22  H   UNL     1      -1.837   0.421  -4.202  1.00  0.00     0.163 HD
ATOM     23  O   UNL     1      -3.702   0.921  -5.645  1.00  0.00    -0.269 OA
BRANCH  21  24
ATOM     24  C   UNL     1      -3.988   2.960  -4.504  1.00  0.00     0.039 A 
ATOM     25  C   UNL     1      -5.372   3.069  -4.675  1.00  0.00     0.014 A 
ATOM     26  C   UNL     1      -3.242   4.092  -4.167  1.00  0.00     0.014 A 
ATOM     27  C   UNL     1      -6.011   4.294  -4.454  1.00  0.00     0.010 A 
ATOM     28  C   UNL     1      -3.888   5.286  -3.861  1.00  0.00     0.010 A 
ATOM     29  C   UNL     1      -5.278   5.408  -4.016  1.00  0.00    -0.014 A 
BRANCH  29  30
ATOM     30  C   UNL     1      -5.918   6.725  -3.753  1.00  0.00     0.031 A 
ATOM     31  C   UNL     1      -5.498   7.928  -4.557  1.00  0.00     0.074 A 
ATOM     32  C   UNL     1      -6.797   6.865  -2.741  1.00  0.00     0.049 A 
ATOM     33  N   UNL     1      -5.804   9.188  -4.388  1.00  0.00    -0.248 NA
ATOM     34  C   UNL     1      -4.580   7.679  -5.680  1.00  0.00     0.031 C 
ATOM     35  C   UNL     1      -7.264   5.786  -1.870  1.00  0.00     0.029 A 
ATOM     36  N   UNL     1      -7.435   7.981  -2.258  1.00  0.00    -0.354 N 
ATOM     37  C   UNL     1      -5.094   9.883  -5.361  1.00  0.00     0.074 A 
ATOM     38  C   UNL     1      -4.301   8.910  -6.079  1.00  0.00     0.031 C 
ATOM     39  C   UNL     1      -8.117   6.291  -0.964  1.00  0.00     0.029 A 
ATOM     40  C   UNL     1      -8.220   7.734  -1.156  1.00  0.00     0.049 A 
ATOM     41  H   UNL     1      -7.339   8.874  -2.662  1.00  0.00     0.167 HD
ATOM     42  C   UNL     1      -5.116  11.208  -5.644  1.00  0.00     0.037 A 
ATOM     43  C   UNL     1      -8.926   8.577  -0.375  1.00  0.00     0.037 A 
ATOM     44  C   UNL     1      -5.926  12.165  -4.937  1.00  0.00     0.049 A 
ATOM     45  C   UNL     1      -8.934  10.047  -0.698  1.00  0.00     0.074 A 
ATOM     46  C   UNL     1      -6.062  13.521  -5.175  1.00  0.00     0.029 A 
ATOM     47  N   UNL     1      -6.737  11.867  -3.850  1.00  0.00    -0.354 N 
ATOM     48  N   UNL     1      -8.293  10.684  -1.649  1.00  0.00    -0.248 NA
ATOM     49  C   UNL     1      -9.762  10.913   0.152  1.00  0.00     0.031 C 
ATOM     50  C   UNL     1      -6.913  14.052  -4.201  1.00  0.00     0.029 A 
ATOM     51  C   UNL     1      -7.361  13.017  -3.395  1.00  0.00     0.049 A 
ATOM     52  H   UNL     1      -6.852  10.970  -3.461  1.00  0.00     0.167 HD
ATOM     53  C   UNL     1      -8.670  12.018  -1.537  1.00  0.00     0.074 A 
ATOM     54  C   UNL     1      -9.592  12.097  -0.423  1.00  0.00     0.031 C 
ATOM     55  C   UNL     1      -8.293  13.078  -2.294  1.00  0.00     0.037 A 
BRANCH  42  56
ATOM     56  C   UNL     1      -4.225  11.695  -6.757  1.00  0.00     0.058 A 
ATOM     57  C   UNL     1      -4.448  11.337  -8.097  1.00  0.00     0.135 A 
ATOM     58  C   UNL     1      -3.130  12.531  -6.481  1.00  0.00     0.135 A 
ATOM     59  F   UNL     1      -5.472  10.532  -8.421  1.00  0.00    -0.206 F 
ATOM     60  C   UNL     1      -3.588  11.743  -9.113  1.00  0.00     0.059 A 
ATOM     61  C   UNL     1      -2.278  12.979  -7.486  1.00  0.00     0.059 A 
ATOM     62  F   UNL     1      -2.870  12.911  -5.220  1.00  0.00    -0.206 F 
ATOM     63  C   UNL     1      -2.501  12.558  -8.796  1.00  0.00     0.060 A 
BRANCH  63  64
ATOM     64  S   UNL     1      -1.377  13.049 -10.120  1.00  0.00     0.124 S 
ATOM     65  O   UNL     1      -0.669  11.799 -10.378  1.00  0.00    -0.237 OA
ATOM     66  O   UNL     1      -2.297  13.482 -11.167  1.00  0.00    -0.237 OA
ATOM     67  O   UNL     1      -0.578  14.108  -9.514  1.00  0.00    -0.744 OA
ENDBRANCH  63  64
ENDBRANCH  42  56
BRANCH  43  68
ATOM     68  C   UNL     1      -9.700   8.036   0.775  1.00  0.00     0.058 A 
ATOM     69  C   UNL     1     -11.101   7.981   0.740  1.00  0.00     0.135 A 
ATOM     70  C   UNL     1      -9.055   7.518   1.909  1.00  0.00     0.135 A 
ATOM     71  F   UNL     1     -11.765   8.472  -0.317  1.00  0.00    -0.206 F 
ATOM     72  C   UNL     1     -11.836   7.434   1.788  1.00  0.00     0.059 A 
ATOM     73  C   UNL     1      -9.766   6.942   2.958  1.00  0.00     0.059 A 
ATOM     74  F   UNL     1      -7.715   7.533   1.986  1.00  0.00    -0.206 F 
ATOM     75  C   UNL     1     -11.158   6.908   2.889  1.00  0.00     0.060 A 
BRANCH  75  76
ATOM     76  S   UNL     1     -12.120   6.128   4.203  1.00  0.00     0.124 S 
ATOM     77  O   UNL     1     -12.764   7.281   4.822  1.00  0.00    -0.237 OA
ATOM     78  O   UNL     1     -12.996   5.235   3.451  1.00  0.00    -0.237 OA
ATOM     79  O   UNL     1     -11.105   5.462   5.013  1.00  0.00    -0.744 OA
ENDBRANCH  75  76
ENDBRANCH  43  68
BRANCH  55  80
ATOM     80  C   UNL     1      -8.915  14.414  -1.994  1.00  0.00     0.058 A 
ATOM     81  C   UNL     1      -8.561  15.165  -0.864  1.00  0.00     0.135 A 
ATOM     82  C   UNL     1      -9.818  14.988  -2.906  1.00  0.00     0.135 A 
ATOM     83  F   UNL     1      -7.709  14.662   0.043  1.00  0.00    -0.206 F 
ATOM     84  C   UNL     1      -9.086  16.436  -0.643  1.00  0.00     0.059 A 
ATOM     85  C   UNL     1     -10.332  16.267  -2.720  1.00  0.00     0.059 A 
ATOM     86  F   UNL     1     -10.184  14.315  -4.009  1.00  0.00    -0.206 F 
ATOM     87  C   UNL     1      -9.964  16.982  -1.582  1.00  0.00     0.060 A 
BRANCH  87  88
ATOM     88  S   UNL     1     -10.587  18.655  -1.315  1.00  0.00     0.124 S 
ATOM     89  O   UNL     1     -11.519  18.450  -0.211  1.00  0.00    -0.237 OA
ATOM     90  O   UNL     1      -9.370  19.392  -0.989  1.00  0.00    -0.237 OA
ATOM     91  O   UNL     1     -11.198  19.000  -2.595  1.00  0.00    -0.744 OA
ENDBRANCH  87  88
ENDBRANCH  55  80
ENDBRANCH  29  30
ENDBRANCH  21  24
ENDBRANCH   1  20
TORSDOF 14
