REMARK SMILES [NH3+][C@H](CCC(=O)NCCCNC(=O)c1ccc(-c2c3nc(c(-c4c(F)cc(S(=O)(=O)[O-])cc4F)c4ccc([nH]4)c(-c4c(F)cc(S(=O)(=O)[O-])cc4F)c4nc(c(-c5c(F)cc(S(=O)(=O)[O-])cc5F)c5ccc2[nH]5)C=C4)C=C3)cc1)c1nccc2[nH]ccc12
REMARK SMILES IDX 9 1 8 2 7 3 5 4 6 5 4 7 3 8 2 9 1 10 80 14 81 15 88 16 82 17
REMARK SMILES IDX 84 18 87 19 83 20 85 21 86 22 10 24 11 25 12 26 13 28 14 29
REMARK SMILES IDX 15 30 79 31 16 32 78 33 17 34 18 35 19 36 72 37 20 38 77 39
REMARK SMILES IDX 71 40 73 41 21 42 76 43 70 44 69 45 22 47 56 48 35 49 55 50
REMARK SMILES IDX 36 51 39 52 54 53 74 54 37 55 38 56 53 58 75 59 40 60 23 61
REMARK SMILES IDX 24 62 33 63 25 64 26 65 32 66 34 67 27 68 28 69 29 70 30 71
REMARK SMILES IDX 31 72 57 73 58 74 67 75 59 76 60 77 66 78 68 79 61 80 62 81
REMARK SMILES IDX 63 82 64 83 65 84 41 85 42 86 51 87 43 88 44 89 50 90 52 91
REMARK SMILES IDX 45 92 46 93 47 94 48 95 49 96
REMARK H PARENT 7 6 1 11 1 12 1 13 85 23 11 27 73 46 39 57
REMARK Flexibility Score: inf
ROOT
ATOM      1  C   UNL     1       0.671  -3.941  -0.441  1.00  0.00     0.042 C 
ENDROOT
BRANCH   1   2
ATOM      2  C   UNL     1       0.953  -3.378   0.951  1.00  0.00     0.117 C 
BRANCH   2   3
ATOM      3  N   UNL     1       1.995  -2.368   0.893  1.00  0.00    -0.356 N 
ATOM      4  C   UNL     1       1.905  -1.011   0.980  1.00  0.00     0.220 C 
ATOM      5  O   UNL     1       2.907  -0.353   0.687  1.00  0.00    -0.275 OA
ATOM      6  H   UNL     1       2.907  -2.718   0.773  1.00  0.00     0.163 HD
BRANCH   4   7
ATOM      7  C   UNL     1       0.654  -0.327   1.505  1.00  0.00     0.106 C 
BRANCH   7   8
ATOM      8  C   UNL     1      -0.048   0.616   0.516  1.00  0.00     0.082 C 
BRANCH   8   9
ATOM      9  C   UNL     1      -1.198   0.071  -0.360  1.00  0.00     0.232 C 
BRANCH   9  10
ATOM     10  N   UNL     1      -0.666  -0.893  -1.346  1.00  0.00    -0.350 N 
ATOM     11  H   UNL     1      -1.430  -1.248  -1.921  1.00  0.00     0.345 HD
ATOM     12  H   UNL     1      -0.219  -1.668  -0.857  1.00  0.00     0.345 HD
ATOM     13  H   UNL     1       0.019  -0.427  -1.941  1.00  0.00     0.345 HD
ENDBRANCH   9  10
BRANCH   9  14
ATOM     14  C   UNL     1      -2.392  -0.593   0.358  1.00  0.00     0.107 A 
ATOM     15  N   UNL     1      -2.056  -1.734   1.052  1.00  0.00    -0.254 NA
ATOM     16  C   UNL     1      -3.695  -0.576  -0.211  1.00  0.00     0.027 A 
ATOM     17  C   UNL     1      -2.734  -2.877   0.828  1.00  0.00     0.114 A 
ATOM     18  C   UNL     1      -4.260  -1.808  -0.549  1.00  0.00     0.049 A 
ATOM     19  C   UNL     1      -4.658   0.410  -0.578  1.00  0.00     0.030 A 
ATOM     20  C   UNL     1      -3.740  -3.016  -0.105  1.00  0.00     0.047 A 
ATOM     21  N   UNL     1      -5.327  -1.546  -1.374  1.00  0.00    -0.361 N 
ATOM     22  C   UNL     1      -5.689  -0.233  -1.230  1.00  0.00     0.083 A 
ATOM     23  H   UNL     1      -5.761  -2.196  -1.973  1.00  0.00     0.166 HD
ENDBRANCH   9  14
ENDBRANCH   8   9
ENDBRANCH   7   8
ENDBRANCH   4   7
ENDBRANCH   2   3
ENDBRANCH   1   2
BRANCH   1  24
ATOM     24  C   UNL     1       1.583  -5.103  -0.813  1.00  0.00     0.118 C 
BRANCH  24  25
ATOM     25  N   UNL     1       1.091  -6.367  -0.282  1.00  0.00    -0.352 N 
ATOM     26  C   UNL     1       0.414  -7.387  -0.908  1.00  0.00     0.251 C 
ATOM     27  H   UNL     1       1.272  -6.513   0.675  1.00  0.00     0.163 HD
ATOM     28  O   UNL     1      -0.150  -8.236  -0.221  1.00  0.00    -0.269 OA
BRANCH  26  29
ATOM     29  C   UNL     1       0.340  -7.470  -2.388  1.00  0.00     0.039 A 
ATOM     30  C   UNL     1      -0.844  -7.915  -2.987  1.00  0.00     0.014 A 
ATOM     31  C   UNL     1       1.443  -7.171  -3.191  1.00  0.00     0.014 A 
ATOM     32  C   UNL     1      -0.940  -7.998  -4.381  1.00  0.00     0.010 A 
ATOM     33  C   UNL     1       1.320  -7.170  -4.579  1.00  0.00     0.010 A 
ATOM     34  C   UNL     1       0.132  -7.594  -5.193  1.00  0.00    -0.014 A 
BRANCH  34  35
ATOM     35  C   UNL     1       0.054  -7.628  -6.679  1.00  0.00     0.031 A 
ATOM     36  C   UNL     1       1.006  -8.497  -7.461  1.00  0.00     0.074 A 
ATOM     37  C   UNL     1      -0.806  -6.818  -7.330  1.00  0.00     0.049 A 
ATOM     38  N   UNL     1       1.201  -8.559  -8.753  1.00  0.00    -0.248 NA
ATOM     39  C   UNL     1       1.876  -9.394  -6.682  1.00  0.00     0.031 C 
ATOM     40  C   UNL     1      -1.756  -5.905  -6.691  1.00  0.00     0.029 A 
ATOM     41  N   UNL     1      -1.005  -6.615  -8.674  1.00  0.00    -0.354 N 
ATOM     42  C   UNL     1       2.230  -9.476  -8.940  1.00  0.00     0.074 A 
ATOM     43  C   UNL     1       2.649  -9.911  -7.625  1.00  0.00     0.031 C 
ATOM     44  C   UNL     1      -2.442  -5.248  -7.641  1.00  0.00     0.029 A 
ATOM     45  C   UNL     1      -1.951  -5.655  -8.954  1.00  0.00     0.049 A 
ATOM     46  H   UNL     1      -0.517  -7.109  -9.371  1.00  0.00     0.167 HD
ATOM     47  C   UNL     1       2.764  -9.928 -10.100  1.00  0.00     0.037 A 
ATOM     48  C   UNL     1      -2.362  -5.145 -10.132  1.00  0.00     0.037 A 
ATOM     49  C   UNL     1       2.318  -9.516 -11.405  1.00  0.00     0.049 A 
ATOM     50  C   UNL     1      -1.751  -5.658 -11.409  1.00  0.00     0.074 A 
ATOM     51  C   UNL     1       2.754  -9.959 -12.641  1.00  0.00     0.029 A 
ATOM     52  N   UNL     1       1.334  -8.568 -11.643  1.00  0.00    -0.354 N 
ATOM     53  N   UNL     1      -0.813  -6.562 -11.567  1.00  0.00    -0.248 NA
ATOM     54  C   UNL     1      -2.253  -5.087 -12.667  1.00  0.00     0.031 C 
ATOM     55  C   UNL     1       2.065  -9.246 -13.628  1.00  0.00     0.029 A 
ATOM     56  C   UNL     1       1.161  -8.399 -13.007  1.00  0.00     0.049 A 
ATOM     57  H   UNL     1       0.832  -8.086 -10.946  1.00  0.00     0.167 HD
ATOM     58  C   UNL     1      -0.638  -6.691 -12.941  1.00  0.00     0.074 A 
ATOM     59  C   UNL     1      -1.567  -5.776 -13.569  1.00  0.00     0.031 C 
ATOM     60  C   UNL     1       0.214  -7.499 -13.618  1.00  0.00     0.037 A 
BRANCH  47  61
ATOM     61  C   UNL     1       3.890 -10.924 -10.013  1.00  0.00     0.058 A 
ATOM     62  C   UNL     1       3.679 -12.241  -9.573  1.00  0.00     0.135 A 
ATOM     63  C   UNL     1       5.189 -10.569 -10.412  1.00  0.00     0.135 A 
ATOM     64  F   UNL     1       2.461 -12.632  -9.167  1.00  0.00    -0.206 F 
ATOM     65  C   UNL     1       4.721 -13.159  -9.499  1.00  0.00     0.059 A 
ATOM     66  C   UNL     1       6.241 -11.481 -10.375  1.00  0.00     0.059 A 
ATOM     67  F   UNL     1       5.448  -9.325 -10.844  1.00  0.00    -0.206 F 
ATOM     68  C   UNL     1       5.999 -12.770  -9.902  1.00  0.00     0.060 A 
BRANCH  68  69
ATOM     69  S   UNL     1       7.344 -13.971  -9.805  1.00  0.00     0.124 S 
ATOM     70  O   UNL     1       7.558 -14.046  -8.358  1.00  0.00    -0.237 OA
ATOM     71  O   UNL     1       6.739 -15.161 -10.410  1.00  0.00    -0.237 OA
ATOM     72  O   UNL     1       8.411 -13.357 -10.567  1.00  0.00    -0.744 OA
ENDBRANCH  68  69
ENDBRANCH  47  61
BRANCH  48  73
ATOM     73  C   UNL     1      -3.419  -4.097 -10.159  1.00  0.00     0.058 A 
ATOM     74  C   UNL     1      -4.704  -4.383 -10.643  1.00  0.00     0.135 A 
ATOM     75  C   UNL     1      -3.174  -2.798  -9.686  1.00  0.00     0.135 A 
ATOM     76  F   UNL     1      -4.986  -5.608 -11.114  1.00  0.00    -0.206 F 
ATOM     77  C   UNL     1      -5.706  -3.418 -10.669  1.00  0.00     0.059 A 
ATOM     78  C   UNL     1      -4.167  -1.823  -9.677  1.00  0.00     0.059 A 
ATOM     79  F   UNL     1      -1.966  -2.477  -9.199  1.00  0.00    -0.206 F 
ATOM     80  C   UNL     1      -5.429  -2.141 -10.178  1.00  0.00     0.060 A 
BRANCH  80  81
ATOM     81  S   UNL     1      -6.755  -0.915 -10.162  1.00  0.00     0.124 S 
ATOM     82  O   UNL     1      -6.875  -0.593 -11.579  1.00  0.00    -0.237 OA
ATOM     83  O   UNL     1      -7.862  -1.671  -9.583  1.00  0.00    -0.237 OA
ATOM     84  O   UNL     1      -6.221   0.146  -9.314  1.00  0.00    -0.744 OA
ENDBRANCH  80  81
ENDBRANCH  48  73
BRANCH  60  85
ATOM     85  C   UNL     1       0.155  -7.479 -15.121  1.00  0.00     0.058 A 
ATOM     86  C   UNL     1       0.683  -6.417 -15.868  1.00  0.00     0.135 A 
ATOM     87  C   UNL     1      -0.355  -8.586 -15.820  1.00  0.00     0.135 A 
ATOM     88  F   UNL     1       1.175  -5.332 -15.248  1.00  0.00    -0.206 F 
ATOM     89  C   UNL     1       0.704  -6.449 -17.259  1.00  0.00     0.059 A 
ATOM     90  C   UNL     1      -0.321  -8.650 -17.209  1.00  0.00     0.059 A 
ATOM     91  F   UNL     1      -0.865  -9.632 -15.151  1.00  0.00    -0.206 F 
ATOM     92  C   UNL     1       0.208  -7.574 -17.920  1.00  0.00     0.060 A 
BRANCH  92  93
ATOM     93  S   UNL     1       0.305  -7.632 -19.722  1.00  0.00     0.124 S 
ATOM     94  O   UNL     1      -0.733  -6.681 -20.105  1.00  0.00    -0.237 OA
ATOM     95  O   UNL     1       1.679  -7.207 -19.974  1.00  0.00    -0.237 OA
ATOM     96  O   UNL     1       0.022  -9.030 -20.034  1.00  0.00    -0.744 OA
ENDBRANCH  92  93
ENDBRANCH  60  85
ENDBRANCH  34  35
ENDBRANCH  26  29
ENDBRANCH  24  25
ENDBRANCH   1  24
TORSDOF 17
