REMARK SMILES CC[C@](O)(C(=O)NCCCNC(=O)c1ccc(-c2c3nc(c(-c4c(F)cc(S(=O)(=O)[O-])cc4F)c4ccc([nH]4)c(-c4c(F)cc(S(=O)(=O)[O-])cc4F)c4nc(c(-c5c(F)cc(S(=O)(=O)[O-])cc5F)c5ccc2[nH]5)C=C4)C=C3)cc1)[C@@H](C)c1ccc(C)s1
REMARK SMILES IDX 9 1 8 2 7 3 5 4 6 5 3 7 2 8 1 9 80 10 81 11 82 12 83 13
REMARK SMILES IDX 87 14 84 15 85 16 86 17 4 18 10 20 11 21 12 22 13 24 14 25
REMARK SMILES IDX 15 26 79 27 16 28 78 29 17 30 18 31 19 32 72 33 20 34 77 35
REMARK SMILES IDX 71 36 73 37 21 38 76 39 70 40 69 41 22 43 56 44 35 45 55 46
REMARK SMILES IDX 36 47 39 48 54 49 74 50 37 51 38 52 53 54 75 55 40 56 23 57
REMARK SMILES IDX 24 58 33 59 25 60 26 61 32 62 34 63 27 64 28 65 29 66 30 67
REMARK SMILES IDX 31 68 57 69 58 70 67 71 59 72 60 73 66 74 68 75 61 76 62 77
REMARK SMILES IDX 63 78 64 79 65 80 41 81 42 82 51 83 43 84 44 85 50 86 52 87
REMARK SMILES IDX 45 88 46 89 47 90 48 91 49 92
REMARK H PARENT 7 6 4 19 11 23 73 42 39 53
REMARK Flexibility Score: inf
ROOT
ATOM      1  C   UNL     1      -2.756   3.019  -0.772  1.00  0.00     0.042 C 
ENDROOT
BRANCH   1   2
ATOM      2  C   UNL     1      -1.905   2.585  -1.945  1.00  0.00     0.117 C 
BRANCH   2   3
ATOM      3  N   UNL     1      -0.760   3.442  -2.180  1.00  0.00    -0.354 N 
ATOM      4  C   UNL     1       0.568   3.128  -2.300  1.00  0.00     0.252 C 
ATOM      5  O   UNL     1       1.285   3.986  -2.821  1.00  0.00    -0.272 OA
ATOM      6  H   UNL     1      -0.970   4.400  -2.267  1.00  0.00     0.163 HD
BRANCH   4   7
ATOM      7  C   UNL     1       1.104   1.714  -1.872  1.00  0.00     0.150 C 
BRANCH   7   8
ATOM      8  C   UNL     1       0.509   0.711  -2.917  1.00  0.00     0.043 C 
ATOM      9  C   UNL     1      -0.105  -0.577  -2.370  1.00  0.00     0.007 C 
ENDBRANCH   7   8
BRANCH   7  10
ATOM     10  C   UNL     1       2.696   1.727  -1.870  1.00  0.00     0.068 C 
ATOM     11  C   UNL     1       3.251   2.805  -0.902  1.00  0.00     0.017 C 
BRANCH  10  12
ATOM     12  C   UNL     1       3.303   0.363  -1.480  1.00  0.00     0.011 A 
ATOM     13  C   UNL     1       3.992  -0.001  -0.331  1.00  0.00     0.016 A 
ATOM     14  S   UNL     1       3.273  -0.987  -2.552  1.00  0.00    -0.145 S 
ATOM     15  C   UNL     1       4.143  -1.413  -0.206  1.00  0.00     0.015 A 
ATOM     16  C   UNL     1       3.574  -2.075  -1.270  1.00  0.00     0.002 A 
ATOM     17  C   UNL     1       3.252  -3.520  -1.405  1.00  0.00     0.056 C 
ENDBRANCH  10  12
ENDBRANCH   7  10
BRANCH   7  18
ATOM     18  O   UNL     1       0.702   1.431  -0.524  1.00  0.00    -0.379 OA
ATOM     19  H   UNL     1       1.100   2.083   0.075  1.00  0.00     0.212 HD
ENDBRANCH   7  18
ENDBRANCH   4   7
ENDBRANCH   2   3
ENDBRANCH   1   2
BRANCH   1  20
ATOM     20  C   UNL     1      -3.535   4.293  -1.041  1.00  0.00     0.118 C 
BRANCH  20  21
ATOM     21  N   UNL     1      -4.455   4.160  -2.166  1.00  0.00    -0.352 N 
ATOM     22  C   UNL     1      -5.825   4.238  -2.212  1.00  0.00     0.251 C 
ATOM     23  H   UNL     1      -4.023   3.987  -3.034  1.00  0.00     0.163 HD
ATOM     24  O   UNL     1      -6.414   3.887  -3.229  1.00  0.00    -0.269 OA
BRANCH  22  25
ATOM     25  C   UNL     1      -6.583   4.721  -1.038  1.00  0.00     0.039 A 
ATOM     26  C   UNL     1      -7.806   4.125  -0.727  1.00  0.00     0.014 A 
ATOM     27  C   UNL     1      -6.093   5.762  -0.247  1.00  0.00     0.014 A 
ATOM     28  C   UNL     1      -8.498   4.530   0.416  1.00  0.00     0.010 A 
ATOM     29  C   UNL     1      -6.718   6.077   0.952  1.00  0.00     0.010 A 
ATOM     30  C   UNL     1      -7.939   5.479   1.288  1.00  0.00    -0.014 A 
BRANCH  30  31
ATOM     31  C   UNL     1      -8.626   5.871   2.543  1.00  0.00     0.031 A 
ATOM     32  C   UNL     1      -9.036   7.303   2.766  1.00  0.00     0.074 A 
ATOM     33  C   UNL     1      -8.836   4.945   3.500  1.00  0.00     0.049 A 
ATOM     34  N   UNL     1      -9.620   7.841   3.806  1.00  0.00    -0.248 NA
ATOM     35  C   UNL     1      -8.722   8.265   1.696  1.00  0.00     0.031 C 
ATOM     36  C   UNL     1      -8.417   3.543   3.428  1.00  0.00     0.029 A 
ATOM     37  N   UNL     1      -9.451   5.043   4.722  1.00  0.00    -0.354 N 
ATOM     38  C   UNL     1      -9.737   9.195   3.516  1.00  0.00     0.074 A 
ATOM     39  C   UNL     1      -9.094   9.413   2.240  1.00  0.00     0.031 C 
ATOM     40  C   UNL     1      -8.819   2.905   4.538  1.00  0.00     0.029 A 
ATOM     41  C   UNL     1      -9.487   3.857   5.418  1.00  0.00     0.049 A 
ATOM     42  H   UNL     1      -9.831   5.882   5.068  1.00  0.00     0.167 HD
ATOM     43  C   UNL     1     -10.357  10.165   4.230  1.00  0.00     0.037 A 
ATOM     44  C   UNL     1      -9.998   3.571   6.631  1.00  0.00     0.037 A 
ATOM     45  C   UNL     1     -11.011   9.935   5.492  1.00  0.00     0.049 A 
ATOM     46  C   UNL     1     -10.688   4.663   7.404  1.00  0.00     0.074 A 
ATOM     47  C   UNL     1     -11.708  10.836   6.276  1.00  0.00     0.029 A 
ATOM     48  N   UNL     1     -11.048   8.716   6.153  1.00  0.00    -0.354 N 
ATOM     49  N   UNL     1     -10.851   5.924   7.081  1.00  0.00    -0.248 NA
ATOM     50  C   UNL     1     -11.274   4.291   8.697  1.00  0.00     0.031 C 
ATOM     51  C   UNL     1     -12.126  10.173   7.435  1.00  0.00     0.029 A 
ATOM     52  C   UNL     1     -11.741   8.845   7.346  1.00  0.00     0.049 A 
ATOM     53  H   UNL     1     -10.642   7.881   5.824  1.00  0.00     0.167 HD
ATOM     54  C   UNL     1     -11.579   6.491   8.121  1.00  0.00     0.074 A 
ATOM     55  C   UNL     1     -11.843   5.428   9.070  1.00  0.00     0.031 C 
ATOM     56  C   UNL     1     -11.992   7.774   8.278  1.00  0.00     0.037 A 
BRANCH  43  57
ATOM     57  C   UNL     1     -10.369  11.556   3.654  1.00  0.00     0.058 A 
ATOM     58  C   UNL     1     -11.102  11.866   2.495  1.00  0.00     0.135 A 
ATOM     59  C   UNL     1      -9.667  12.599   4.279  1.00  0.00     0.135 A 
ATOM     60  F   UNL     1     -11.778  10.905   1.844  1.00  0.00    -0.206 F 
ATOM     61  C   UNL     1     -11.114  13.150   1.962  1.00  0.00     0.059 A 
ATOM     62  C   UNL     1      -9.692  13.899   3.781  1.00  0.00     0.059 A 
ATOM     63  F   UNL     1      -8.947  12.361   5.386  1.00  0.00    -0.206 F 
ATOM     64  C   UNL     1     -10.407  14.161   2.613  1.00  0.00     0.060 A 
BRANCH  64  65
ATOM     65  S   UNL     1     -10.445  15.824   1.913  1.00  0.00     0.124 S 
ATOM     66  O   UNL     1      -9.624  15.655   0.717  1.00  0.00    -0.237 OA
ATOM     67  O   UNL     1     -11.870  16.030   1.678  1.00  0.00    -0.237 OA
ATOM     68  O   UNL     1      -9.859  16.650   2.963  1.00  0.00    -0.744 OA
ENDBRANCH  64  65
ENDBRANCH  43  57
BRANCH  44  69
ATOM     69  C   UNL     1      -9.897   2.189   7.174  1.00  0.00     0.058 A 
ATOM     70  C   UNL     1     -11.033   1.379   7.316  1.00  0.00     0.135 A 
ATOM     71  C   UNL     1      -8.658   1.646   7.548  1.00  0.00     0.135 A 
ATOM     72  F   UNL     1     -12.242   1.852   6.975  1.00  0.00    -0.206 F 
ATOM     73  C   UNL     1     -10.950   0.089   7.830  1.00  0.00     0.059 A 
ATOM     74  C   UNL     1      -8.544   0.348   8.036  1.00  0.00     0.059 A 
ATOM     75  F   UNL     1      -7.536   2.371   7.412  1.00  0.00    -0.206 F 
ATOM     76  C   UNL     1      -9.698  -0.419   8.185  1.00  0.00     0.060 A 
BRANCH  76  77
ATOM     77  S   UNL     1      -9.595  -2.110   8.810  1.00  0.00     0.124 S 
ATOM     78  O   UNL     1     -10.180  -1.969  10.138  1.00  0.00    -0.237 OA
ATOM     79  O   UNL     1     -10.393  -2.846   7.834  1.00  0.00    -0.237 OA
ATOM     80  O   UNL     1      -8.163  -2.392   8.777  1.00  0.00    -0.744 OA
ENDBRANCH  76  77
ENDBRANCH  44  69
BRANCH  56  81
ATOM     81  C   UNL     1     -12.800   8.091   9.508  1.00  0.00     0.058 A 
ATOM     82  C   UNL     1     -12.225   8.105  10.788  1.00  0.00     0.135 A 
ATOM     83  C   UNL     1     -14.162   8.415   9.398  1.00  0.00     0.135 A 
ATOM     84  F   UNL     1     -10.928   7.798  10.950  1.00  0.00    -0.206 F 
ATOM     85  C   UNL     1     -12.980   8.392  11.920  1.00  0.00     0.059 A 
ATOM     86  C   UNL     1     -14.928   8.739  10.512  1.00  0.00     0.059 A 
ATOM     87  F   UNL     1     -14.759   8.431   8.195  1.00  0.00    -0.206 F 
ATOM     88  C   UNL     1     -14.332   8.707  11.772  1.00  0.00     0.060 A 
BRANCH  88  89
ATOM     89  S   UNL     1     -15.298   9.089  13.248  1.00  0.00     0.124 S 
ATOM     90  O   UNL     1     -15.438   7.770  13.856  1.00  0.00    -0.237 OA
ATOM     91  O   UNL     1     -14.429  10.024  13.955  1.00  0.00    -0.237 OA
ATOM     92  O   UNL     1     -16.526   9.667  12.711  1.00  0.00    -0.744 OA
ENDBRANCH  88  89
ENDBRANCH  56  81
ENDBRANCH  30  31
ENDBRANCH  22  25
ENDBRANCH  20  21
ENDBRANCH   1  20
TORSDOF 17
