REMARK SMILES COc1ccccc1CCNC(=O)[C@@H]1[C@@H](C(=O)NCCCNC(=O)c2ccc(-c3c4nc(c(-c5c(F)cc(S(=O)(=O)[O-])cc5F)c5ccc([nH]5)c(-c5c(F)cc(S(=O)(=O)[O-])cc5F)c5nc(c(-c6c(F)cc(S(=O)(=O)[O-])cc6F)c6ccc3[nH]6)C=C5)C=C4)cc2)[C@H]2C=C[C@@H]1CC2
REMARK SMILES IDX 19 1 18 2 16 3 17 4 15 6 14 7 94 8 91 9 93 10 95 11 92 12
REMARK SMILES IDX 96 13 12 14 11 15 13 17 10 18 9 19 8 20 3 21 4 22 5 23 7 24
REMARK SMILES IDX 6 25 2 26 1 27 20 28 21 29 22 30 23 31 24 33 25 34 26 35
REMARK SMILES IDX 90 36 27 37 89 38 28 39 29 40 30 41 83 42 31 43 88 44 82 45
REMARK SMILES IDX 84 46 32 47 87 48 81 49 80 50 33 52 67 53 46 54 66 55 47 56
REMARK SMILES IDX 50 57 65 58 85 59 48 60 49 61 64 63 86 64 51 65 34 66 35 67
REMARK SMILES IDX 44 68 36 69 37 70 43 71 45 72 38 73 39 74 40 75 41 76 42 77
REMARK SMILES IDX 68 78 69 79 78 80 70 81 71 82 77 83 79 84 72 85 73 86 74 87
REMARK SMILES IDX 75 88 76 89 52 90 53 91 62 92 54 93 55 94 61 95 63 96 56 97
REMARK SMILES IDX 57 98 58 99 59 100 60 101
REMARK H PARENT 18 5 11 16 22 32 84 51 50 62
REMARK Flexibility Score: inf
ROOT
ATOM      1  C   UNL     1      10.030   2.383  -0.148  1.00  0.00     0.117 C 
ENDROOT
BRANCH   1   2
ATOM      2  N   UNL     1       9.846   1.878  -1.506  1.00  0.00    -0.356 N 
ATOM      3  C   UNL     1       8.817   1.329  -2.200  1.00  0.00     0.224 C 
ATOM      4  O   UNL     1       9.037   1.119  -3.402  1.00  0.00    -0.275 OA
ATOM      5  H   UNL     1      10.664   1.954  -2.048  1.00  0.00     0.163 HD
BRANCH   3   6
ATOM      6  C   UNL     1       7.479   0.858  -1.621  1.00  0.00     0.098 C 
ATOM      7  C   UNL     1       6.849   1.742  -0.524  1.00  0.00     0.098 C 
ATOM      8  C   UNL     1       6.515   0.871   0.725  1.00  0.00     0.025 C 
ATOM      9  C   UNL     1       7.629  -0.608  -1.111  1.00  0.00     0.025 C 
ATOM     10  C   UNL     1       7.830   0.192   1.146  1.00  0.00    -0.027 C 
ATOM     11  C   UNL     1       5.636  -0.358   0.419  1.00  0.00     0.009 C 
ATOM     12  C   UNL     1       8.389  -0.584   0.198  1.00  0.00    -0.027 C 
ATOM     13  C   UNL     1       6.229  -1.163  -0.760  1.00  0.00     0.009 C 
BRANCH   7  14
ATOM     14  C   UNL     1       5.963   2.872  -1.054  1.00  0.00     0.224 C 
ATOM     15  N   UNL     1       4.849   2.697  -1.793  1.00  0.00    -0.355 N 
ATOM     16  H   UNL     1       4.657   3.401  -2.454  1.00  0.00     0.163 HD
ATOM     17  O   UNL     1       6.299   4.049  -0.872  1.00  0.00    -0.275 OA
BRANCH  15  18
ATOM     18  C   UNL     1       3.906   1.614  -1.738  1.00  0.00     0.120 C 
BRANCH  18  19
ATOM     19  C   UNL     1       3.074   1.713  -0.457  1.00  0.00     0.060 C 
BRANCH  19  20
ATOM     20  C   UNL     1       1.912   2.654  -0.618  1.00  0.00    -0.004 A 
ATOM     21  C   UNL     1       0.641   2.188  -0.978  1.00  0.00     0.122 A 
ATOM     22  C   UNL     1      -0.376   3.090  -1.288  1.00  0.00     0.047 A 
ATOM     23  C   UNL     1      -0.143   4.463  -1.203  1.00  0.00     0.004 A 
ATOM     24  C   UNL     1       2.126   4.038  -0.506  1.00  0.00     0.007 A 
ATOM     25  C   UNL     1       1.104   4.938  -0.803  1.00  0.00     0.001 A 
BRANCH  21  26
ATOM     26  O   UNL     1       0.374   0.856  -1.153  1.00  0.00    -0.496 OA
ATOM     27  C   UNL     1       0.249   0.160   0.092  1.00  0.00     0.278 C 
ENDBRANCH  21  26
ENDBRANCH  19  20
ENDBRANCH  18  19
ENDBRANCH  15  18
ENDBRANCH   7  14
ENDBRANCH   3   6
ENDBRANCH   1   2
BRANCH   1  28
ATOM     28  C   UNL     1      11.176   1.726   0.594  1.00  0.00     0.042 C 
BRANCH  28  29
ATOM     29  C   UNL     1      12.528   2.187   0.100  1.00  0.00     0.118 C 
BRANCH  29  30
ATOM     30  N   UNL     1      12.743   3.611   0.335  1.00  0.00    -0.352 N 
ATOM     31  C   UNL     1      13.385   4.278   1.352  1.00  0.00     0.251 C 
ATOM     32  H   UNL     1      12.361   4.198  -0.356  1.00  0.00     0.163 HD
ATOM     33  O   UNL     1      13.206   5.486   1.478  1.00  0.00    -0.269 OA
BRANCH  31  34
ATOM     34  C   UNL     1      14.265   3.557   2.298  1.00  0.00     0.039 A 
ATOM     35  C   UNL     1      14.352   3.994   3.622  1.00  0.00     0.014 A 
ATOM     36  C   UNL     1      15.033   2.470   1.882  1.00  0.00     0.014 A 
ATOM     37  C   UNL     1      15.152   3.296   4.530  1.00  0.00     0.010 A 
ATOM     38  C   UNL     1      15.703   1.691   2.813  1.00  0.00     0.010 A 
ATOM     39  C   UNL     1      15.797   2.109   4.144  1.00  0.00    -0.014 A 
BRANCH  39  40
ATOM     40  C   UNL     1      16.595   1.308   5.107  1.00  0.00     0.031 A 
ATOM     41  C   UNL     1      18.052   1.029   4.838  1.00  0.00     0.074 A 
ATOM     42  C   UNL     1      15.989   0.783   6.191  1.00  0.00     0.049 A 
ATOM     43  N   UNL     1      18.899   0.318   5.537  1.00  0.00    -0.248 NA
ATOM     44  C   UNL     1      18.628   1.589   3.602  1.00  0.00     0.031 C 
ATOM     45  C   UNL     1      14.565   0.918   6.515  1.00  0.00     0.029 A 
ATOM     46  N   UNL     1      16.490   0.032   7.222  1.00  0.00    -0.354 N 
ATOM     47  C   UNL     1      20.091   0.333   4.821  1.00  0.00     0.074 A 
ATOM     48  C   UNL     1      19.841   1.058   3.597  1.00  0.00     0.031 C 
ATOM     49  C   UNL     1      14.320   0.313   7.687  1.00  0.00     0.029 A 
ATOM     50  C   UNL     1      15.555  -0.289   8.177  1.00  0.00     0.049 A 
ATOM     51  H   UNL     1      17.432  -0.251   7.274  1.00  0.00     0.167 HD
ATOM     52  C   UNL     1      21.296  -0.179   5.168  1.00  0.00     0.037 A 
ATOM     53  C   UNL     1      15.679  -0.988   9.321  1.00  0.00     0.037 A 
ATOM     54  C   UNL     1      21.544  -0.866   6.408  1.00  0.00     0.049 A 
ATOM     55  C   UNL     1      17.033  -1.524   9.697  1.00  0.00     0.074 A 
ATOM     56  C   UNL     1      22.740  -1.363   6.892  1.00  0.00     0.029 A 
ATOM     57  N   UNL     1      20.577  -1.149   7.362  1.00  0.00    -0.354 N 
ATOM     58  N   UNL     1      18.168  -1.433   9.043  1.00  0.00    -0.248 NA
ATOM     59  C   UNL     1      17.128  -2.249  10.970  1.00  0.00     0.031 C 
ATOM     60  C   UNL     1      22.488  -1.989   8.118  1.00  0.00     0.029 A 
ATOM     61  C   UNL     1      21.144  -1.834   8.422  1.00  0.00     0.049 A 
ATOM     62  H   UNL     1      19.627  -0.899   7.294  1.00  0.00     0.167 HD
ATOM     63  C   UNL     1      19.115  -2.072   9.834  1.00  0.00     0.074 A 
ATOM     64  C   UNL     1      18.424  -2.520  11.027  1.00  0.00     0.031 C 
ATOM     65  C   UNL     1      20.435  -2.277   9.597  1.00  0.00     0.037 A 
BRANCH  52  66
ATOM     66  C   UNL     1      22.439   0.002   4.204  1.00  0.00     0.058 A 
ATOM     67  C   UNL     1      23.003   1.265   3.956  1.00  0.00     0.135 A 
ATOM     68  C   UNL     1      23.003  -1.104   3.548  1.00  0.00     0.135 A 
ATOM     69  F   UNL     1      22.492   2.361   4.540  1.00  0.00    -0.206 F 
ATOM     70  C   UNL     1      24.066   1.428   3.074  1.00  0.00     0.059 A 
ATOM     71  C   UNL     1      24.088  -0.968   2.685  1.00  0.00     0.059 A 
ATOM     72  F   UNL     1      22.503  -2.334   3.743  1.00  0.00    -0.206 F 
ATOM     73  C   UNL     1      24.605   0.305   2.446  1.00  0.00     0.060 A 
BRANCH  73  74
ATOM     74  S   UNL     1      25.999   0.533   1.322  1.00  0.00     0.124 S 
ATOM     75  O   UNL     1      25.352   1.175   0.182  1.00  0.00    -0.237 OA
ATOM     76  O   UNL     1      26.892   1.383   2.103  1.00  0.00    -0.237 OA
ATOM     77  O   UNL     1      26.475  -0.827   1.089  1.00  0.00    -0.744 OA
ENDBRANCH  73  74
ENDBRANCH  52  66
BRANCH  53  78
ATOM     78  C   UNL     1      14.499  -1.194  10.204  1.00  0.00     0.058 A 
ATOM     79  C   UNL     1      14.414  -0.566  11.456  1.00  0.00     0.135 A 
ATOM     80  C   UNL     1      13.429  -2.013   9.812  1.00  0.00     0.135 A 
ATOM     81  F   UNL     1      15.412   0.226  11.877  1.00  0.00    -0.206 F 
ATOM     82  C   UNL     1      13.324  -0.761  12.298  1.00  0.00     0.059 A 
ATOM     83  C   UNL     1      12.315  -2.201  10.624  1.00  0.00     0.059 A 
ATOM     84  F   UNL     1      13.449  -2.620   8.615  1.00  0.00    -0.206 F 
ATOM     85  C   UNL     1      12.278  -1.581  11.872  1.00  0.00     0.060 A 
BRANCH  85  86
ATOM     86  S   UNL     1      10.850  -1.798  12.956  1.00  0.00     0.124 S 
ATOM     87  O   UNL     1      11.399  -2.663  13.994  1.00  0.00    -0.237 OA
ATOM     88  O   UNL     1      10.557  -0.425  13.356  1.00  0.00    -0.237 OA
ATOM     89  O   UNL     1       9.856  -2.414  12.081  1.00  0.00    -0.744 OA
ENDBRANCH  85  86
ENDBRANCH  53  78
BRANCH  65  90
ATOM     90  C   UNL     1      21.215  -3.000  10.659  1.00  0.00     0.058 A 
ATOM     91  C   UNL     1      21.027  -4.370  10.906  1.00  0.00     0.135 A 
ATOM     92  C   UNL     1      22.173  -2.320  11.427  1.00  0.00     0.135 A 
ATOM     93  F   UNL     1      20.120  -5.066  10.201  1.00  0.00    -0.206 F 
ATOM     94  C   UNL     1      21.730  -5.029  11.908  1.00  0.00     0.059 A 
ATOM     95  C   UNL     1      22.911  -2.967  12.412  1.00  0.00     0.059 A 
ATOM     96  F   UNL     1      22.403  -1.013  11.221  1.00  0.00    -0.206 F 
ATOM     97  C   UNL     1      22.668  -4.317  12.659  1.00  0.00     0.060 A 
BRANCH  97  98
ATOM     98  S   UNL     1      23.572  -5.185  13.957  1.00  0.00     0.124 S 
ATOM     99  O   UNL     1      22.547  -5.321  14.986  1.00  0.00    -0.237 OA
ATOM    100  O   UNL     1      23.969  -6.421  13.290  1.00  0.00    -0.237 OA
ATOM    101  O   UNL     1      24.666  -4.272  14.276  1.00  0.00    -0.744 OA
ENDBRANCH  97  98
ENDBRANCH  65  90
ENDBRANCH  39  40
ENDBRANCH  31  34
ENDBRANCH  29  30
ENDBRANCH  28  29
ENDBRANCH   1  28
TORSDOF 18
