REMARK SMILES O=C(/C=C\c1ccc(OCc2ccc(Br)cc2)cc1)NCCCNC(=O)c1ccc(-c2c3nc(c(-c4c(F)cc(S(=O)(=O)[O-])cc4F)c4ccc([nH]4)c(-c4c(F)cc(S(=O)(=O)[O-])cc4F)c4nc(c(-c5c(F)cc(S(=O)(=O)[O-])cc5F)c5ccc2[nH]5)C=C4)C=C3)cc1
REMARK SMILES IDX 21 1 20 2 1 3 2 4 3 6 4 7 5 8 6 9 19 10 7 11 18 12 8 13 9 14
REMARK SMILES IDX 10 15 11 16 12 17 17 18 13 19 16 20 14 21 15 22 22 23 23 24
REMARK SMILES IDX 24 25 25 26 26 28 27 29 28 30 92 31 29 32 91 33 30 34 31 35
REMARK SMILES IDX 32 36 85 37 33 38 90 39 84 40 86 41 34 42 89 43 83 44 82 45
REMARK SMILES IDX 35 47 69 48 48 49 68 50 49 51 52 52 67 53 87 54 50 55 51 56
REMARK SMILES IDX 66 58 88 59 53 60 36 61 37 62 46 63 38 64 39 65 45 66 47 67
REMARK SMILES IDX 40 68 41 69 42 70 43 71 44 72 70 73 71 74 80 75 72 76 73 77
REMARK SMILES IDX 79 78 81 79 74 80 75 81 76 82 77 83 78 84 54 85 55 86 64 87
REMARK SMILES IDX 56 88 57 89 63 90 65 91 58 92 59 93 60 94 61 95 62 96
REMARK H PARENT 20 5 24 27 86 46 52 57
REMARK Flexibility Score: inf
ROOT
ATOM      1  C   UNL     1       1.812   0.785  -2.161  1.00  0.00     0.118 C 
ENDROOT
BRANCH   1   2
ATOM      2  N   UNL     1       2.521   0.019  -1.145  1.00  0.00    -0.352 N 
ATOM      3  O   UNL     1       0.888   0.152   0.458  1.00  0.00    -0.270 OA
ATOM      4  C   UNL     1       1.993  -0.233   0.092  1.00  0.00     0.244 C 
ATOM      5  H   UNL     1       3.417  -0.330  -1.356  1.00  0.00     0.163 HD
BRANCH   4   6
ATOM      6  C   UNL     1       2.779  -1.130   0.986  1.00  0.00     0.072 C 
ATOM      7  C   UNL     1       4.103  -1.247   1.181  1.00  0.00     0.014 C 
BRANCH   7   8
ATOM      8  C   UNL     1       5.156  -0.467   0.545  1.00  0.00    -0.025 A 
ATOM      9  C   UNL     1       6.079  -1.113  -0.282  1.00  0.00     0.012 A 
ATOM     10  C   UNL     1       5.247   0.913   0.744  1.00  0.00     0.012 A 
ATOM     11  C   UNL     1       7.005  -0.366  -1.000  1.00  0.00     0.047 A 
ATOM     12  C   UNL     1       6.185   1.658   0.033  1.00  0.00     0.047 A 
ATOM     13  C   UNL     1       7.006   1.021  -0.896  1.00  0.00     0.119 A 
BRANCH  13  14
ATOM     14  O   UNL     1       7.821   1.644  -1.789  1.00  0.00    -0.489 OA
BRANCH  14  15
ATOM     15  C   UNL     1       7.419   2.947  -2.186  1.00  0.00     0.265 C 
BRANCH  15  16
ATOM     16  C   UNL     1       6.105   3.029  -2.945  1.00  0.00    -0.011 A 
ATOM     17  C   UNL     1       5.809   1.883  -4.331  1.00  0.00     0.008 A 
ATOM     18  C   UNL     1       4.947   4.434  -2.645  1.00  0.00     0.008 A 
ATOM     19  C   UNL     1       4.368   2.114  -5.441  1.00  0.00     0.016 A 
ATOM     20  C   UNL     1       3.514   4.685  -3.784  1.00  0.00     0.016 A 
ATOM     21  C   UNL     1       3.251   3.522  -5.160  1.00  0.00     0.017 A 
ATOM     22  Br  UNL     1       1.777   3.759  -6.314  1.00  0.00    -0.051 Br
ENDBRANCH  15  16
ENDBRANCH  14  15
ENDBRANCH  13  14
ENDBRANCH   7   8
ENDBRANCH   4   6
ENDBRANCH   1   2
BRANCH   1  23
ATOM     23  C   UNL     1       1.997   2.291  -2.027  1.00  0.00     0.042 C 
BRANCH  23  24
ATOM     24  C   UNL     1       3.456   2.735  -2.006  1.00  0.00     0.118 C 
BRANCH  24  25
ATOM     25  N   UNL     1       4.178   2.812  -3.511  1.00  0.00    -0.352 N 
ATOM     26  C   UNL     1       5.292   3.952  -4.664  1.00  0.00     0.251 C 
ATOM     27  H   UNL     1       3.969   1.983  -3.999  1.00  0.00     0.163 HD
ATOM     28  O   UNL     1       5.774   3.715  -5.820  1.00  0.00    -0.269 OA
BRANCH  26  29
ATOM     29  C   UNL     1       5.888   5.489  -4.548  1.00  0.00     0.039 A 
ATOM     30  C   UNL     1       5.501   6.483  -5.462  1.00  0.00     0.014 A 
ATOM     31  C   UNL     1       6.829   5.867  -3.586  1.00  0.00     0.014 A 
ATOM     32  C   UNL     1       5.890   7.821  -5.256  1.00  0.00     0.010 A 
ATOM     33  C   UNL     1       6.965   7.181  -3.217  1.00  0.00     0.010 A 
ATOM     34  C   UNL     1       6.560   8.187  -4.077  1.00  0.00    -0.014 A 
BRANCH  34  35
ATOM     35  C   UNL     1       6.886   9.565  -3.641  1.00  0.00     0.031 A 
ATOM     36  C   UNL     1       8.290   9.883  -3.150  1.00  0.00     0.074 A 
ATOM     37  C   UNL     1       5.878  10.436  -3.445  1.00  0.00     0.049 A 
ATOM     38  N   UNL     1       8.727  10.940  -2.516  1.00  0.00    -0.248 NA
ATOM     39  C   UNL     1       9.311   8.822  -3.284  1.00  0.00     0.031 C 
ATOM     40  C   UNL     1       4.456  10.166  -3.688  1.00  0.00     0.029 A 
ATOM     41  N   UNL     1       5.889  11.718  -2.968  1.00  0.00    -0.354 N 
ATOM     42  C   UNL     1      10.034  10.639  -2.139  1.00  0.00     0.074 A 
ATOM     43  C   UNL     1      10.269   9.260  -2.483  1.00  0.00     0.031 C 
ATOM     44  C   UNL     1       3.742  11.269  -3.413  1.00  0.00     0.029 A 
ATOM     45  C   UNL     1       4.650  12.313  -2.956  1.00  0.00     0.049 A 
ATOM     46  H   UNL     1       6.707  12.172  -2.661  1.00  0.00     0.167 HD
ATOM     47  C   UNL     1      10.982  11.460  -1.627  1.00  0.00     0.037 A 
ATOM     48  C   UNL     1       4.303  13.574  -2.644  1.00  0.00     0.037 A 
ATOM     49  C   UNL     1      10.747  12.861  -1.409  1.00  0.00     0.049 A 
ATOM     50  C   UNL     1       5.399  14.527  -2.254  1.00  0.00     0.074 A 
ATOM     51  C   UNL     1      11.643  13.847  -1.044  1.00  0.00     0.029 A 
ATOM     52  N   UNL     1       9.513  13.475  -1.577  1.00  0.00    -0.354 N 
ATOM     53  N   UNL     1       6.669  14.273  -2.035  1.00  0.00    -0.248 NA
ATOM     54  C   UNL     1       5.030  15.938  -2.105  1.00  0.00     0.031 C 
ATOM     55  C   UNL     1      10.945  15.058  -0.975  1.00  0.00     0.029 A 
ATOM     56  C   UNL     1       9.623  14.830  -1.333  1.00  0.00     0.049 A 
ATOM     57  H   UNL     1       8.682  13.013  -1.832  1.00  0.00     0.167 HD
ATOM     58  C   UNL     1       7.260  15.499  -1.758  1.00  0.00     0.074 A 
ATOM     59  C   UNL     1       6.207  16.493  -1.849  1.00  0.00     0.031 C 
ATOM     60  C   UNL     1       8.551  15.784  -1.456  1.00  0.00     0.037 A 
BRANCH  47  61
ATOM     61  C   UNL     1      12.354  10.888  -1.363  1.00  0.00     0.058 A 
ATOM     62  C   UNL     1      13.160  10.392  -2.405  1.00  0.00     0.135 A 
ATOM     63  C   UNL     1      12.884  10.839  -0.062  1.00  0.00     0.135 A 
ATOM     64  F   UNL     1      12.712  10.404  -3.671  1.00  0.00    -0.206 F 
ATOM     65  C   UNL     1      14.405   9.820  -2.164  1.00  0.00     0.059 A 
ATOM     66  C   UNL     1      14.147  10.307   0.197  1.00  0.00     0.059 A 
ATOM     67  F   UNL     1      12.172  11.302   0.977  1.00  0.00    -0.206 F 
ATOM     68  C   UNL     1      14.891   9.780  -0.859  1.00  0.00     0.060 A 
BRANCH  68  69
ATOM     69  S   UNL     1      16.511   9.038  -0.568  1.00  0.00     0.124 S 
ATOM     70  O   UNL     1      16.212   7.618  -0.724  1.00  0.00    -0.237 OA
ATOM     71  O   UNL     1      17.322   9.633  -1.626  1.00  0.00    -0.237 OA
ATOM     72  O   UNL     1      16.843   9.465   0.787  1.00  0.00    -0.744 OA
ENDBRANCH  68  69
ENDBRANCH  47  61
BRANCH  48  73
ATOM     73  C   UNL     1       2.899  14.025  -2.832  1.00  0.00     0.058 A 
ATOM     74  C   UNL     1       2.557  14.842  -3.921  1.00  0.00     0.135 A 
ATOM     75  C   UNL     1       1.866  13.614  -1.976  1.00  0.00     0.135 A 
ATOM     76  F   UNL     1       3.507  15.249  -4.777  1.00  0.00    -0.206 F 
ATOM     77  C   UNL     1       1.250  15.263  -4.139  1.00  0.00     0.059 A 
ATOM     78  C   UNL     1       0.545  14.004  -2.186  1.00  0.00     0.059 A 
ATOM     79  F   UNL     1       2.132  12.801  -0.942  1.00  0.00    -0.206 F 
ATOM     80  C   UNL     1       0.249  14.838  -3.264  1.00  0.00     0.060 A 
BRANCH  80  81
ATOM     81  S   UNL     1      -1.450  15.363  -3.582  1.00  0.00     0.124 S 
ATOM     82  O   UNL     1      -1.394  16.774  -3.218  1.00  0.00    -0.237 OA
ATOM     83  O   UNL     1      -1.598  15.076  -5.005  1.00  0.00    -0.237 OA
ATOM     84  O   UNL     1      -2.236  14.512  -2.693  1.00  0.00    -0.744 OA
ENDBRANCH  80  81
ENDBRANCH  48  73
BRANCH  60  85
ATOM     85  C   UNL     1       8.899  17.227  -1.246  1.00  0.00     0.058 A 
ATOM     86  C   UNL     1       8.517  17.910  -0.083  1.00  0.00     0.135 A 
ATOM     87  C   UNL     1       9.679  17.909  -2.192  1.00  0.00     0.135 A 
ATOM     88  F   UNL     1       7.769  17.297   0.848  1.00  0.00    -0.206 F 
ATOM     89  C   UNL     1       8.878  19.235   0.126  1.00  0.00     0.059 A 
ATOM     90  C   UNL     1      10.075  19.225  -1.991  1.00  0.00     0.059 A 
ATOM     91  F   UNL     1      10.079  17.290  -3.314  1.00  0.00    -0.206 F 
ATOM     92  C   UNL     1       9.659  19.883  -0.834  1.00  0.00     0.060 A 
BRANCH  92  93
ATOM     93  S   UNL     1      10.152  21.591  -0.532  1.00  0.00     0.124 S 
ATOM     94  O   UNL     1       8.908  22.305  -0.794  1.00  0.00    -0.237 OA
ATOM     95  O   UNL     1      10.579  21.551   0.863  1.00  0.00    -0.237 OA
ATOM     96  O   UNL     1      11.221  21.812  -1.502  1.00  0.00    -0.744 OA
ENDBRANCH  92  93
ENDBRANCH  60  85
ENDBRANCH  34  35
ENDBRANCH  26  29
ENDBRANCH  24  25
ENDBRANCH  23  24
ENDBRANCH   1  23
TORSDOF 17
