REMARK SMILES COc1cc(OC)cc(-c2ccc([C@@H](C)C(=O)NCCCNC(=O)c3ccc(-c4c5nc(c(-c6c(F)cc(S(=O)(=O)[O-])cc6F)c6ccc([nH]6)c(-c6c(F)cc(S(=O)(=O)[O-])cc6F)c6nc(c(-c7c(F)cc(S(=O)(=O)[O-])cc7F)c7ccc4[nH]7)C=C6)C=C5)cc3)cc2F)c1
REMARK SMILES IDX 20 1 19 2 18 3 16 4 17 5 14 7 15 8 13 9 10 10 11 11 92 12
REMARK SMILES IDX 12 13 91 14 93 15 9 16 3 17 4 18 94 19 5 20 8 21 2 22 1 23
REMARK SMILES IDX 6 24 7 25 21 26 22 27 23 28 24 30 25 31 26 32 90 33 27 34
REMARK SMILES IDX 89 35 28 36 29 37 30 38 83 39 31 40 88 41 82 42 84 43 32 44
REMARK SMILES IDX 87 45 81 46 80 47 33 49 67 50 46 51 66 52 47 53 50 54 65 55
REMARK SMILES IDX 85 56 48 57 49 58 64 60 86 61 51 62 34 63 35 64 44 65 36 66
REMARK SMILES IDX 37 67 43 68 45 69 38 70 39 71 40 72 41 73 42 74 68 75 69 76
REMARK SMILES IDX 78 77 70 78 71 79 77 80 79 81 72 82 73 83 74 84 75 85 76 86
REMARK SMILES IDX 52 87 53 88 62 89 54 90 55 91 61 92 63 93 56 94 57 95 58 96
REMARK SMILES IDX 59 97 60 98
REMARK H PARENT 18 6 22 29 84 48 50 59
REMARK Flexibility Score: inf
ROOT
ATOM      1  C   UNL     1       5.963   1.979   6.925  1.00  0.00     0.042 C 
ENDROOT
BRANCH   1   2
ATOM      2  C   UNL     1       7.365   2.579   6.871  1.00  0.00     0.117 C 
BRANCH   2   3
ATOM      3  N   UNL     1       8.199   1.958   5.859  1.00  0.00    -0.356 N 
ATOM      4  C   UNL     1       8.532   2.331   4.594  1.00  0.00     0.227 C 
ATOM      5  O   UNL     1       9.254   1.547   3.965  1.00  0.00    -0.274 OA
ATOM      6  H   UNL     1       8.600   1.104   6.142  1.00  0.00     0.163 HD
BRANCH   4   7
ATOM      7  C   UNL     1       8.073   3.639   3.931  1.00  0.00     0.105 C 
ATOM      8  C   UNL     1       8.513   4.908   4.660  1.00  0.00     0.023 C 
BRANCH   7   9
ATOM      9  C   UNL     1       6.623   3.606   3.477  1.00  0.00    -0.033 A 
ATOM     10  C   UNL     1       3.904   3.366   2.610  1.00  0.00     0.018 A 
ATOM     11  C   UNL     1       4.237   3.818   3.899  1.00  0.00     0.012 A 
ATOM     12  C   UNL     1       4.976   3.053   1.764  1.00  0.00     0.131 A 
ATOM     13  C   UNL     1       5.565   3.975   4.308  1.00  0.00     0.005 A 
ATOM     14  C   UNL     1       6.306   3.151   2.188  1.00  0.00     0.044 A 
ATOM     15  F   UNL     1       4.756   2.660   0.499  1.00  0.00    -0.206 F 
BRANCH  10  16
ATOM     16  C   UNL     1       2.486   3.275   2.192  1.00  0.00    -0.008 A 
ATOM     17  C   UNL     1       0.660   2.183   0.992  1.00  0.00     0.123 A 
ATOM     18  C   UNL     1      -0.219   3.174   1.431  1.00  0.00     0.092 A 
ATOM     19  C   UNL     1       2.004   2.233   1.376  1.00  0.00     0.055 A 
ATOM     20  C   UNL     1       0.224   4.212   2.245  1.00  0.00     0.123 A 
ATOM     21  C   UNL     1       1.567   4.258   2.613  1.00  0.00     0.055 A 
BRANCH  17  22
ATOM     22  O   UNL     1       0.096   1.251   0.164  1.00  0.00    -0.497 OA
ATOM     23  C   UNL     1       0.799   0.028  -0.003  1.00  0.00     0.278 C 
ENDBRANCH  17  22
BRANCH  20  24
ATOM     24  O   UNL     1      -0.731   5.122   2.603  1.00  0.00    -0.497 OA
ATOM     25  C   UNL     1      -0.327   6.191   3.448  1.00  0.00     0.278 C 
ENDBRANCH  20  24
ENDBRANCH  10  16
ENDBRANCH   7   9
ENDBRANCH   4   7
ENDBRANCH   2   3
ENDBRANCH   1   2
BRANCH   1  26
ATOM     26  C   UNL     1       5.870   0.685   7.724  1.00  0.00     0.118 C 
BRANCH  26  27
ATOM     27  N   UNL     1       6.061   0.905   9.150  1.00  0.00    -0.352 N 
ATOM     28  C   UNL     1       5.206   0.715  10.209  1.00  0.00     0.251 C 
ATOM     29  H   UNL     1       6.951   1.248   9.398  1.00  0.00     0.163 HD
ATOM     30  O   UNL     1       5.512   1.179  11.304  1.00  0.00    -0.269 OA
BRANCH  28  31
ATOM     31  C   UNL     1       3.931  -0.025  10.049  1.00  0.00     0.039 A 
ATOM     32  C   UNL     1       2.817   0.388  10.789  1.00  0.00     0.014 A 
ATOM     33  C   UNL     1       3.834  -1.151   9.228  1.00  0.00     0.014 A 
ATOM     34  C   UNL     1       1.602  -0.293  10.665  1.00  0.00     0.010 A 
ATOM     35  C   UNL     1       2.603  -1.775   9.039  1.00  0.00     0.010 A 
ATOM     36  C   UNL     1       1.476  -1.363   9.765  1.00  0.00    -0.014 A 
BRANCH  36  37
ATOM     37  C   UNL     1       0.187  -2.081   9.588  1.00  0.00     0.031 A 
ATOM     38  C   UNL     1       0.080  -3.541   9.944  1.00  0.00     0.074 A 
ATOM     39  C   UNL     1      -0.869  -1.438   9.054  1.00  0.00     0.049 A 
ATOM     40  N   UNL     1      -0.930  -4.358   9.795  1.00  0.00    -0.248 NA
ATOM     41  C   UNL     1       1.280  -4.172  10.519  1.00  0.00     0.031 C 
ATOM     42  C   UNL     1      -0.882  -0.034   8.636  1.00  0.00     0.029 A 
ATOM     43  N   UNL     1      -2.136  -1.880   8.766  1.00  0.00    -0.354 N 
ATOM     44  C   UNL     1      -0.486  -5.598  10.242  1.00  0.00     0.074 A 
ATOM     45  C   UNL     1       0.904  -5.438  10.611  1.00  0.00     0.031 C 
ATOM     46  C   UNL     1      -2.104   0.277   8.176  1.00  0.00     0.029 A 
ATOM     47  C   UNL     1      -2.950  -0.912   8.227  1.00  0.00     0.049 A 
ATOM     48  H   UNL     1      -2.434  -2.804   8.929  1.00  0.00     0.167 HD
ATOM     49  C   UNL     1      -1.178  -6.757  10.360  1.00  0.00     0.037 A 
ATOM     50  C   UNL     1      -4.232  -0.975   7.818  1.00  0.00     0.037 A 
ATOM     51  C   UNL     1      -2.567  -6.904  10.009  1.00  0.00     0.049 A 
ATOM     52  C   UNL     1      -4.976  -2.278   7.939  1.00  0.00     0.074 A 
ATOM     53  C   UNL     1      -3.373  -8.023  10.129  1.00  0.00     0.029 A 
ATOM     54  N   UNL     1      -3.356  -5.899   9.469  1.00  0.00    -0.354 N 
ATOM     55  N   UNL     1      -4.554  -3.428   8.409  1.00  0.00    -0.248 NA
ATOM     56  C   UNL     1      -6.370  -2.291   7.476  1.00  0.00     0.031 C 
ATOM     57  C   UNL     1      -4.639  -7.705   9.625  1.00  0.00     0.029 A 
ATOM     58  C   UNL     1      -4.636  -6.375   9.233  1.00  0.00     0.049 A 
ATOM     59  H   UNL     1      -3.052  -4.982   9.280  1.00  0.00     0.167 HD
ATOM     60  C   UNL     1      -5.640  -4.293   8.327  1.00  0.00     0.074 A 
ATOM     61  C   UNL     1      -6.738  -3.530   7.769  1.00  0.00     0.031 C 
ATOM     62  C   UNL     1      -5.721  -5.599   8.684  1.00  0.00     0.037 A 
BRANCH  49  63
ATOM     63  C   UNL     1      -0.434  -7.954  10.891  1.00  0.00     0.058 A 
ATOM     64  C   UNL     1      -0.006  -8.021  12.228  1.00  0.00     0.135 A 
ATOM     65  C   UNL     1      -0.142  -9.046  10.058  1.00  0.00     0.135 A 
ATOM     66  F   UNL     1      -0.246  -7.000  13.066  1.00  0.00    -0.206 F 
ATOM     67  C   UNL     1       0.728  -9.102  12.705  1.00  0.00     0.059 A 
ATOM     68  C   UNL     1       0.564 -10.152  10.523  1.00  0.00     0.059 A 
ATOM     69  F   UNL     1      -0.531  -9.040   8.773  1.00  0.00    -0.206 F 
ATOM     70  C   UNL     1       1.015 -10.160  11.842  1.00  0.00     0.060 A 
BRANCH  70  71
ATOM     71  S   UNL     1       1.997 -11.540  12.467  1.00  0.00     0.124 S 
ATOM     72  O   UNL     1       3.331 -10.950  12.510  1.00  0.00    -0.237 OA
ATOM     73  O   UNL     1       1.379 -11.805  13.762  1.00  0.00    -0.237 OA
ATOM     74  O   UNL     1       1.803 -12.579  11.459  1.00  0.00    -0.744 OA
ENDBRANCH  70  71
ENDBRANCH  49  63
BRANCH  50  75
ATOM     75  C   UNL     1      -4.907   0.245   7.301  1.00  0.00     0.058 A 
ATOM     76  C   UNL     1      -5.898   0.887   8.058  1.00  0.00     0.135 A 
ATOM     77  C   UNL     1      -4.565   0.807   6.062  1.00  0.00     0.135 A 
ATOM     78  F   UNL     1      -6.264   0.383   9.247  1.00  0.00    -0.206 F 
ATOM     79  C   UNL     1      -6.534   2.036   7.603  1.00  0.00     0.059 A 
ATOM     80  C   UNL     1      -5.169   1.972   5.595  1.00  0.00     0.059 A 
ATOM     81  F   UNL     1      -3.612   0.239   5.307  1.00  0.00    -0.206 F 
ATOM     82  C   UNL     1      -6.159   2.575   6.371  1.00  0.00     0.060 A 
BRANCH  82  83
ATOM     83  S   UNL     1      -6.953   4.101   5.822  1.00  0.00     0.124 S 
ATOM     84  O   UNL     1      -8.286   3.628   5.468  1.00  0.00    -0.237 OA
ATOM     85  O   UNL     1      -6.868   4.936   7.016  1.00  0.00    -0.237 OA
ATOM     86  O   UNL     1      -6.117   4.532   4.705  1.00  0.00    -0.744 OA
ENDBRANCH  82  83
ENDBRANCH  50  75
BRANCH  62  87
ATOM     87  C   UNL     1      -7.051  -6.279   8.518  1.00  0.00     0.058 A 
ATOM     88  C   UNL     1      -7.547  -6.633   7.254  1.00  0.00     0.135 A 
ATOM     89  C   UNL     1      -7.817  -6.623   9.643  1.00  0.00     0.135 A 
ATOM     90  F   UNL     1      -6.858  -6.320   6.145  1.00  0.00    -0.206 F 
ATOM     91  C   UNL     1      -8.767  -7.287   7.109  1.00  0.00     0.059 A 
ATOM     92  C   UNL     1      -9.027  -7.301   9.524  1.00  0.00     0.059 A 
ATOM     93  F   UNL     1      -7.383  -6.316  10.876  1.00  0.00    -0.206 F 
ATOM     94  C   UNL     1      -9.499  -7.618   8.252  1.00  0.00     0.060 A 
BRANCH  94  95
ATOM     95  S   UNL     1     -11.062  -8.499   8.054  1.00  0.00     0.124 S 
ATOM     96  O   UNL     1     -11.939  -7.437   7.572  1.00  0.00    -0.237 OA
ATOM     97  O   UNL     1     -10.719  -9.530   7.079  1.00  0.00    -0.237 OA
ATOM     98  O   UNL     1     -11.349  -8.989   9.399  1.00  0.00    -0.744 OA
ENDBRANCH  94  95
ENDBRANCH  62  87
ENDBRANCH  36  37
ENDBRANCH  28  31
ENDBRANCH  26  27
ENDBRANCH   1  26
TORSDOF 17
