REMARK SMILES Cc1ccnc(C(=O)c2[nH]c3ccc(F)cc3c2CC(=O)NCCCNC(=O)c2ccc(-c3c4nc(c(-c5c(F)cc(S(=O)(=O)[O-])cc5F)c5ccc([nH]5)c(-c5c(F)cc(S(=O)(=O)[O-])cc5F)c5nc(c(-c6c(F)cc(S(=O)(=O)[O-])cc6F)c6ccc3[nH]6)C=C5)C=C4)cc2)c1
REMARK SMILES IDX 24 1 23 2 22 3 20 4 21 5 19 7 18 8 9 9 10 10 11 11 17 13
REMARK SMILES IDX 12 14 16 15 13 16 14 17 15 18 7 19 8 20 6 21 1 22 2 23 3 24
REMARK SMILES IDX 95 25 4 26 5 27 25 28 26 29 27 30 28 32 29 33 30 34 94 35
REMARK SMILES IDX 31 36 93 37 32 38 33 39 34 40 87 41 35 42 92 43 86 44 88 45
REMARK SMILES IDX 36 46 91 47 85 48 84 49 37 51 71 52 50 53 70 54 51 55 54 56
REMARK SMILES IDX 69 57 89 58 52 59 53 60 68 62 90 63 55 64 38 65 39 66 48 67
REMARK SMILES IDX 40 68 41 69 47 70 49 71 42 72 43 73 44 74 45 75 46 76 72 77
REMARK SMILES IDX 73 78 82 79 74 80 75 81 81 82 83 83 76 84 77 85 78 86 79 87
REMARK SMILES IDX 80 88 56 89 57 90 66 91 58 92 59 93 65 94 67 95 60 96 61 97
REMARK SMILES IDX 62 98 63 99 64 100
REMARK H PARENT 22 6 10 12 26 31 88 50 54 61
REMARK Flexibility Score: inf
ROOT
ATOM      1  C   UNL     1      -2.918  -3.828   0.631  1.00  0.00     0.042 C 
ENDROOT
BRANCH   1   2
ATOM      2  C   UNL     1      -3.088  -3.658  -0.881  1.00  0.00     0.117 C 
BRANCH   2   3
ATOM      3  N   UNL     1      -2.433  -2.503  -1.463  1.00  0.00    -0.356 N 
ATOM      4  C   UNL     1      -1.252  -2.396  -2.138  1.00  0.00     0.224 C 
ATOM      5  O   UNL     1      -1.042  -1.332  -2.730  1.00  0.00    -0.275 OA
ATOM      6  H   UNL     1      -2.921  -1.656  -1.352  1.00  0.00     0.163 HD
BRANCH   4   7
ATOM      7  C   UNL     1      -0.251  -3.531  -2.231  1.00  0.00     0.138 C 
BRANCH   7   8
ATOM      8  C   UNL     1       0.194  -4.143  -0.934  1.00  0.00    -0.002 A 
ATOM      9  C   UNL     1       1.048  -3.627   0.045  1.00  0.00     0.093 A 
ATOM     10  N   UNL     1       1.242  -4.634   0.972  1.00  0.00    -0.352 N 
ATOM     11  C   UNL     1       0.477  -5.735   0.690  1.00  0.00     0.046 A 
ATOM     12  H   UNL     1       1.854  -4.569   1.740  1.00  0.00     0.167 HD
ATOM     13  C   UNL     1      -0.138  -5.492  -0.534  1.00  0.00     0.007 A 
ATOM     14  C   UNL     1       0.305  -6.926   1.411  1.00  0.00     0.030 A 
ATOM     15  C   UNL     1      -0.928  -6.519  -1.095  1.00  0.00     0.049 A 
ATOM     16  C   UNL     1      -0.531  -7.901   0.860  1.00  0.00     0.041 A 
ATOM     17  C   UNL     1      -1.125  -7.697  -0.375  1.00  0.00     0.123 A 
ATOM     18  F   UNL     1      -1.923  -8.644  -0.888  1.00  0.00    -0.207 F 
BRANCH   9  19
ATOM     19  C   UNL     1       1.808  -2.387   0.191  1.00  0.00     0.227 C 
ATOM     20  O   UNL     1       3.003  -2.447   0.477  1.00  0.00    -0.285 OA
BRANCH  19  21
ATOM     21  C   UNL     1       1.152  -1.032   0.124  1.00  0.00     0.113 A 
ATOM     22  C   UNL     1      -2.233   0.690   0.295  1.00  0.00     0.044 C 
ATOM     23  C   UNL     1      -0.758   0.434   0.215  1.00  0.00    -0.047 A 
ATOM     24  C   UNL     1       0.106   1.505   0.001  1.00  0.00     0.023 A 
ATOM     25  C   UNL     1      -0.210  -0.849   0.341  1.00  0.00     0.036 A 
ATOM     26  C   UNL     1       1.459   1.248  -0.132  1.00  0.00     0.112 A 
ATOM     27  N   UNL     1       1.996   0.011  -0.093  1.00  0.00    -0.253 NA
ENDBRANCH  19  21
ENDBRANCH   9  19
ENDBRANCH   7   8
ENDBRANCH   4   7
ENDBRANCH   2   3
ENDBRANCH   1   2
BRANCH   1  28
ATOM     28  C   UNL     1      -3.556  -2.782   1.541  1.00  0.00     0.118 C 
BRANCH  28  29
ATOM     29  N   UNL     1      -4.947  -2.505   1.245  1.00  0.00    -0.352 N 
ATOM     30  C   UNL     1      -6.003  -2.352   2.110  1.00  0.00     0.251 C 
ATOM     31  H   UNL     1      -5.166  -2.412   0.290  1.00  0.00     0.163 HD
ATOM     32  O   UNL     1      -7.140  -2.253   1.662  1.00  0.00    -0.269 OA
BRANCH  30  33
ATOM     33  C   UNL     1      -5.775  -2.327   3.572  1.00  0.00     0.039 A 
ATOM     34  C   UNL     1      -6.585  -3.120   4.388  1.00  0.00     0.014 A 
ATOM     35  C   UNL     1      -4.793  -1.509   4.140  1.00  0.00     0.014 A 
ATOM     36  C   UNL     1      -6.379  -3.131   5.770  1.00  0.00     0.010 A 
ATOM     37  C   UNL     1      -4.556  -1.560   5.514  1.00  0.00     0.010 A 
ATOM     38  C   UNL     1      -5.345  -2.373   6.344  1.00  0.00    -0.014 A 
BRANCH  38  39
ATOM     39  C   UNL     1      -5.067  -2.442   7.804  1.00  0.00     0.031 A 
ATOM     40  C   UNL     1      -5.258  -1.232   8.680  1.00  0.00     0.074 A 
ATOM     41  C   UNL     1      -4.595  -3.588   8.335  1.00  0.00     0.049 A 
ATOM     42  N   UNL     1      -5.023  -1.095   9.960  1.00  0.00    -0.248 NA
ATOM     43  C   UNL     1      -5.759  -0.012   8.028  1.00  0.00     0.031 C 
ATOM     44  C   UNL     1      -4.331  -4.819   7.587  1.00  0.00     0.029 A 
ATOM     45  N   UNL     1      -4.243  -3.904   9.624  1.00  0.00    -0.354 N 
ATOM     46  C   UNL     1      -5.339   0.224  10.267  1.00  0.00     0.074 A 
ATOM     47  C   UNL     1      -5.735   0.859   9.027  1.00  0.00     0.031 C 
ATOM     48  C   UNL     1      -3.878  -5.759   8.431  1.00  0.00     0.029 A 
ATOM     49  C   UNL     1      -3.778  -5.190   9.771  1.00  0.00     0.049 A 
ATOM     50  H   UNL     1      -4.317  -3.269  10.373  1.00  0.00     0.167 HD
ATOM     51  C   UNL     1      -5.320   0.843  11.472  1.00  0.00     0.037 A 
ATOM     52  C   UNL     1      -3.312  -5.837  10.858  1.00  0.00     0.037 A 
ATOM     53  C   UNL     1      -4.936   0.202  12.704  1.00  0.00     0.049 A 
ATOM     54  C   UNL     1      -3.281  -5.122  12.182  1.00  0.00     0.074 A 
ATOM     55  C   UNL     1      -4.934   0.730  13.984  1.00  0.00     0.029 A 
ATOM     56  N   UNL     1      -4.478  -1.104  12.813  1.00  0.00    -0.354 N 
ATOM     57  N   UNL     1      -3.646  -3.894  12.464  1.00  0.00    -0.248 NA
ATOM     58  C   UNL     1      -2.783  -5.881  13.337  1.00  0.00     0.031 C 
ATOM     59  C   UNL     1      -4.422  -0.236  14.857  1.00  0.00     0.029 A 
ATOM     60  C   UNL     1      -4.165  -1.389  14.133  1.00  0.00     0.049 A 
ATOM     61  H   UNL     1      -4.388  -1.735  12.063  1.00  0.00     0.167 HD
ATOM     62  C   UNL     1      -3.449  -3.744  13.833  1.00  0.00     0.074 A 
ATOM     63  C   UNL     1      -2.946  -5.010  14.323  1.00  0.00     0.031 C 
ATOM     64  C   UNL     1      -3.669  -2.656  14.613  1.00  0.00     0.037 A 
BRANCH  51  65
ATOM     65  C   UNL     1      -5.723   2.294  11.523  1.00  0.00     0.058 A 
ATOM     66  C   UNL     1      -7.050   2.700  11.307  1.00  0.00     0.135 A 
ATOM     67  C   UNL     1      -4.780   3.287  11.837  1.00  0.00     0.135 A 
ATOM     68  F   UNL     1      -7.992   1.796  10.991  1.00  0.00    -0.206 F 
ATOM     69  C   UNL     1      -7.421   4.040  11.370  1.00  0.00     0.059 A 
ATOM     70  C   UNL     1      -5.136   4.629  11.937  1.00  0.00     0.059 A 
ATOM     71  F   UNL     1      -3.498   2.957  12.056  1.00  0.00    -0.206 F 
ATOM     72  C   UNL     1      -6.457   4.997  11.686  1.00  0.00     0.060 A 
BRANCH  72  73
ATOM     73  S   UNL     1      -6.958   6.730  11.767  1.00  0.00     0.124 S 
ATOM     74  O   UNL     1      -7.181   7.033  10.356  1.00  0.00    -0.237 OA
ATOM     75  O   UNL     1      -8.155   6.669  12.598  1.00  0.00    -0.237 OA
ATOM     76  O   UNL     1      -5.807   7.390  12.375  1.00  0.00    -0.744 OA
ENDBRANCH  72  73
ENDBRANCH  51  65
BRANCH  52  77
ATOM     77  C   UNL     1      -2.847  -7.246  10.741  1.00  0.00     0.058 A 
ATOM     78  C   UNL     1      -3.564  -8.297  11.331  1.00  0.00     0.135 A 
ATOM     79  C   UNL     1      -1.682  -7.571  10.027  1.00  0.00     0.135 A 
ATOM     80  F   UNL     1      -4.679  -8.037  12.030  1.00  0.00    -0.206 F 
ATOM     81  C   UNL     1      -3.137  -9.617  11.233  1.00  0.00     0.059 A 
ATOM     82  C   UNL     1      -1.250  -8.886   9.890  1.00  0.00     0.059 A 
ATOM     83  F   UNL     1      -0.968  -6.605   9.428  1.00  0.00    -0.206 F 
ATOM     84  C   UNL     1      -1.979  -9.902  10.507  1.00  0.00     0.060 A 
BRANCH  84  85
ATOM     85  S   UNL     1      -1.462 -11.624  10.342  1.00  0.00     0.124 S 
ATOM     86  O   UNL     1      -0.980 -11.915  11.687  1.00  0.00    -0.237 OA
ATOM     87  O   UNL     1      -2.705 -12.280   9.952  1.00  0.00    -0.237 OA
ATOM     88  O   UNL     1      -0.438 -11.568   9.302  1.00  0.00    -0.744 OA
ENDBRANCH  84  85
ENDBRANCH  52  77
BRANCH  64  89
ATOM     89  C   UNL     1      -3.404  -2.792  16.088  1.00  0.00     0.058 A 
ATOM     90  C   UNL     1      -2.101  -2.887  16.603  1.00  0.00     0.135 A 
ATOM     91  C   UNL     1      -4.468  -2.776  17.005  1.00  0.00     0.135 A 
ATOM     92  F   UNL     1      -1.046  -2.914  15.772  1.00  0.00    -0.206 F 
ATOM     93  C   UNL     1      -1.865  -2.986  17.971  1.00  0.00     0.059 A 
ATOM     94  C   UNL     1      -4.254  -2.842  18.378  1.00  0.00     0.059 A 
ATOM     95  F   UNL     1      -5.734  -2.676  16.569  1.00  0.00    -0.206 F 
ATOM     96  C   UNL     1      -2.948  -2.959  18.851  1.00  0.00     0.060 A 
BRANCH  96  97
ATOM     97  S   UNL     1      -2.624  -3.054  20.624  1.00  0.00     0.124 S 
ATOM     98  O   UNL     1      -2.232  -4.450  20.778  1.00  0.00    -0.237 OA
ATOM     99  O   UNL     1      -1.558  -2.072  20.799  1.00  0.00    -0.237 OA
ATOM    100  O   UNL     1      -3.905  -2.692  21.224  1.00  0.00    -0.744 OA
ENDBRANCH  96  97
ENDBRANCH  64  89
ENDBRANCH  38  39
ENDBRANCH  30  33
ENDBRANCH  28  29
ENDBRANCH   1  28
TORSDOF 16
