REMARK SMILES CC1(C)S[C@@H]2c3ccccc3C(=O)N2[C@H]1C(=O)N[C@H](Cc1c[nH]c2ccccc12)C(=O)NCCCNC(=O)c1ccc(-c2c3nc(c(-c4c(F)cc(S(=O)(=O)[O-])cc4F)c4ccc([nH]4)c(-c4c(F)cc(S(=O)(=O)[O-])cc4F)c4nc(c(-c5c(F)cc(S(=O)(=O)[O-])cc5F)c5ccc2[nH]5)C=C4)C=C3)cc1
REMARK SMILES IDX 34 1 33 2 32 3 30 4 31 5 19 7 18 8 16 9 17 10 15 12 1 13
REMARK SMILES IDX 2 14 3 15 4 16 5 17 14 18 6 19 12 20 7 21 11 22 13 23 8 24
REMARK SMILES IDX 10 25 9 26 20 27 21 28 22 29 29 30 23 31 24 32 28 33 25 35
REMARK SMILES IDX 27 36 26 37 35 38 36 39 37 40 38 42 39 43 40 44 104 45 41 46
REMARK SMILES IDX 103 47 42 48 43 49 44 50 97 51 45 52 102 53 96 54 98 55
REMARK SMILES IDX 46 56 101 57 95 58 94 59 47 61 81 62 60 63 80 64 61 65 64 66
REMARK SMILES IDX 79 67 99 68 62 69 63 70 78 72 100 73 65 74 48 75 49 76 58 77
REMARK SMILES IDX 50 78 51 79 57 80 59 81 52 82 53 83 54 84 55 85 56 86 82 87
REMARK SMILES IDX 83 88 92 89 84 90 85 91 91 92 93 93 86 94 87 95 88 96 89 97
REMARK SMILES IDX 90 98 66 99 67 100 76 101 68 102 69 103 75 104 77 105 70 106
REMARK SMILES IDX 71 107 72 108 73 109 74 110
REMARK H PARENT 32 6 18 11 23 34 36 41 98 60 64 71
REMARK Flexibility Score: inf
ROOT
ATOM      1  C   UNL     1      -0.785   0.874   6.069  1.00  0.00     0.042 C 
ENDROOT
BRANCH   1   2
ATOM      2  C   UNL     1      -1.891   0.235   5.237  1.00  0.00     0.117 C 
BRANCH   2   3
ATOM      3  N   UNL     1      -2.907   1.159   4.745  1.00  0.00    -0.354 N 
ATOM      4  C   UNL     1      -3.073   1.787   3.547  1.00  0.00     0.242 C 
ATOM      5  O   UNL     1      -4.091   2.464   3.383  1.00  0.00    -0.273 OA
ATOM      6  H   UNL     1      -3.607   1.368   5.405  1.00  0.00     0.163 HD
BRANCH   4   7
ATOM      7  C   UNL     1      -2.000   1.724   2.463  1.00  0.00     0.175 C 
BRANCH   7   8
ATOM      8  N   UNL     1      -1.696   0.261   2.166  1.00  0.00    -0.342 N 
ATOM      9  C   UNL     1      -0.847  -0.629   1.599  1.00  0.00     0.244 C 
ATOM     10  O   UNL     1      -1.309  -1.787   1.663  1.00  0.00    -0.273 OA
ATOM     11  H   UNL     1      -2.435  -0.263   2.551  1.00  0.00     0.164 HD
BRANCH   9  12
ATOM     12  C   UNL     1       0.531  -0.475   0.855  1.00  0.00     0.191 C 
ATOM     13  C   UNL     1      -0.830   0.452  -1.134  1.00  0.00     0.026 C 
ATOM     14  C   UNL     1       0.550   0.268  -0.509  1.00  0.00     0.042 C 
ATOM     15  C   UNL     1       1.464  -0.449  -1.524  1.00  0.00     0.026 C 
ATOM     16  S   UNL     1       1.411   1.886  -0.185  1.00  0.00    -0.123 SA
ATOM     17  C   UNL     1       1.879   1.450   1.466  1.00  0.00     0.176 C 
ATOM     18  N   UNL     1       1.642   0.062   1.623  1.00  0.00    -0.309 N 
ATOM     19  C   UNL     1       3.201   1.686   2.076  1.00  0.00    -0.002 A 
ATOM     20  C   UNL     1       2.720  -0.585   2.197  1.00  0.00     0.256 C 
ATOM     21  C   UNL     1       3.739   2.899   2.479  1.00  0.00     0.007 A 
ATOM     22  C   UNL     1       3.680   0.477   2.586  1.00  0.00     0.046 A 
ATOM     23  O   UNL     1       2.887  -1.780   2.342  1.00  0.00    -0.269 OA
ATOM     24  C   UNL     1       4.784   2.875   3.402  1.00  0.00     0.000 A 
ATOM     25  C   UNL     1       4.755   0.430   3.452  1.00  0.00     0.014 A 
ATOM     26  C   UNL     1       5.300   1.652   3.869  1.00  0.00     0.001 A 
ENDBRANCH   9  12
ENDBRANCH   7   8
BRANCH   7  27
ATOM     27  C   UNL     1      -0.805   2.526   2.871  1.00  0.00     0.072 C 
BRANCH  27  28
ATOM     28  C   UNL     1      -0.560   3.754   3.703  1.00  0.00    -0.020 A 
ATOM     29  C   UNL     1       0.752   3.935   4.135  1.00  0.00     0.087 A 
ATOM     30  C   UNL     1      -1.266   4.904   4.219  1.00  0.00     0.003 A 
ATOM     31  N   UNL     1       0.930   5.248   4.411  1.00  0.00    -0.361 N 
ATOM     32  C   UNL     1      -0.287   5.773   4.737  1.00  0.00     0.046 A 
ATOM     33  C   UNL     1      -2.601   5.348   4.336  1.00  0.00     0.010 A 
ATOM     34  H   UNL     1       1.784   5.737   4.381  1.00  0.00     0.166 HD
ATOM     35  C   UNL     1      -0.544   6.960   5.426  1.00  0.00     0.026 A 
ATOM     36  C   UNL     1      -2.885   6.527   5.063  1.00  0.00     0.001 A 
ATOM     37  C   UNL     1      -1.873   7.303   5.622  1.00  0.00     0.002 A 
ENDBRANCH  27  28
ENDBRANCH   7  27
ENDBRANCH   4   7
ENDBRANCH   2   3
ENDBRANCH   1   2
BRANCH   1  38
ATOM     38  C   UNL     1      -1.273   1.844   7.132  1.00  0.00     0.118 C 
BRANCH  38  39
ATOM     39  N   UNL     1      -2.155   1.198   8.093  1.00  0.00    -0.352 N 
ATOM     40  C   UNL     1      -1.993   0.982   9.439  1.00  0.00     0.251 C 
ATOM     41  H   UNL     1      -3.002   0.863   7.719  1.00  0.00     0.163 HD
ATOM     42  O   UNL     1      -2.757   0.217  10.021  1.00  0.00    -0.269 OA
BRANCH  40  43
ATOM     43  C   UNL     1      -0.895   1.644  10.176  1.00  0.00     0.039 A 
ATOM     44  C   UNL     1      -0.557   2.974   9.921  1.00  0.00     0.014 A 
ATOM     45  C   UNL     1      -0.203   0.924  11.154  1.00  0.00     0.014 A 
ATOM     46  C   UNL     1       0.574   3.526  10.512  1.00  0.00     0.010 A 
ATOM     47  C   UNL     1       0.876   1.515  11.819  1.00  0.00     0.010 A 
ATOM     48  C   UNL     1       1.306   2.804  11.468  1.00  0.00    -0.014 A 
BRANCH  48  49
ATOM     49  C   UNL     1       2.517   3.415  12.077  1.00  0.00     0.031 A 
ATOM     50  C   UNL     1       3.876   2.800  11.868  1.00  0.00     0.074 A 
ATOM     51  C   UNL     1       2.397   4.556  12.785  1.00  0.00     0.049 A 
ATOM     52  N   UNL     1       5.041   3.215  12.296  1.00  0.00    -0.248 NA
ATOM     53  C   UNL     1       3.937   1.558  11.082  1.00  0.00     0.031 C 
ATOM     54  C   UNL     1       1.135   5.246  13.060  1.00  0.00     0.029 A 
ATOM     55  N   UNL     1       3.344   5.347  13.386  1.00  0.00    -0.354 N 
ATOM     56  C   UNL     1       5.968   2.279  11.851  1.00  0.00     0.074 A 
ATOM     57  C   UNL     1       5.226   1.254  11.149  1.00  0.00     0.031 C 
ATOM     58  C   UNL     1       1.389   6.377  13.734  1.00  0.00     0.029 A 
ATOM     59  C   UNL     1       2.822   6.463  13.995  1.00  0.00     0.049 A 
ATOM     60  H   UNL     1       4.305   5.135  13.380  1.00  0.00     0.167 HD
ATOM     61  C   UNL     1       7.314   2.281  12.002  1.00  0.00     0.037 A 
ATOM     62  C   UNL     1       3.423   7.441  14.702  1.00  0.00     0.037 A 
ATOM     63  C   UNL     1       8.048   3.315  12.685  1.00  0.00     0.049 A 
ATOM     64  C   UNL     1       4.913   7.402  14.887  1.00  0.00     0.074 A 
ATOM     65  C   UNL     1       9.418   3.430  12.846  1.00  0.00     0.029 A 
ATOM     66  N   UNL     1       7.479   4.404  13.329  1.00  0.00    -0.354 N 
ATOM     67  N   UNL     1       5.777   6.534  14.419  1.00  0.00    -0.248 NA
ATOM     68  C   UNL     1       5.512   8.471  15.697  1.00  0.00     0.031 C 
ATOM     69  C   UNL     1       9.673   4.554  13.638  1.00  0.00     0.029 A 
ATOM     70  C   UNL     1       8.467   5.175  13.920  1.00  0.00     0.049 A 
ATOM     71  H   UNL     1       6.514   4.600  13.362  1.00  0.00     0.167 HD
ATOM     72  C   UNL     1       7.022   6.953  14.874  1.00  0.00     0.074 A 
ATOM     73  C   UNL     1       6.801   8.168  15.632  1.00  0.00     0.031 C 
ATOM     74  C   UNL     1       8.236   6.379  14.683  1.00  0.00     0.037 A 
BRANCH  61  75
ATOM     75  C   UNL     1       8.089   1.123  11.430  1.00  0.00     0.058 A 
ATOM     76  C   UNL     1       8.242   0.945  10.046  1.00  0.00     0.135 A 
ATOM     77  C   UNL     1       8.732   0.209  12.282  1.00  0.00     0.135 A 
ATOM     78  F   UNL     1       7.639   1.779   9.184  1.00  0.00    -0.206 F 
ATOM     79  C   UNL     1       8.984  -0.112   9.527  1.00  0.00     0.059 A 
ATOM     80  C   UNL     1       9.503  -0.838  11.785  1.00  0.00     0.059 A 
ATOM     81  F   UNL     1       8.620   0.333  13.614  1.00  0.00    -0.206 F 
ATOM     82  C   UNL     1       9.613  -0.996  10.405  1.00  0.00     0.060 A 
BRANCH  82  83
ATOM     83  S   UNL     1      10.577  -2.355   9.709  1.00  0.00     0.124 S 
ATOM     84  O   UNL     1       9.529  -3.182   9.120  1.00  0.00    -0.237 OA
ATOM     85  O   UNL     1      11.444  -1.663   8.761  1.00  0.00    -0.237 OA
ATOM     86  O   UNL     1      11.250  -2.927  10.871  1.00  0.00    -0.744 OA
ENDBRANCH  82  83
ENDBRANCH  61  75
BRANCH  62  87
ATOM     87  C   UNL     1       2.596   8.532  15.283  1.00  0.00     0.058 A 
ATOM     88  C   UNL     1       2.658   9.837  14.775  1.00  0.00     0.135 A 
ATOM     89  C   UNL     1       1.682   8.275  16.318  1.00  0.00     0.135 A 
ATOM     90  F   UNL     1       3.522  10.135  13.793  1.00  0.00    -0.206 F 
ATOM     91  C   UNL     1       1.838  10.848  15.266  1.00  0.00     0.059 A 
ATOM     92  C   UNL     1       0.832   9.262  16.806  1.00  0.00     0.059 A 
ATOM     93  F   UNL     1       1.576   7.039  16.831  1.00  0.00    -0.206 F 
ATOM     94  C   UNL     1       0.918  10.547  16.273  1.00  0.00     0.060 A 
BRANCH  94  95
ATOM     95  S   UNL     1      -0.200  11.847  16.837  1.00  0.00     0.124 S 
ATOM     96  O   UNL     1       0.717  12.748  17.525  1.00  0.00    -0.237 OA
ATOM     97  O   UNL     1      -0.752  12.337  15.577  1.00  0.00    -0.237 OA
ATOM     98  O   UNL     1      -1.144  11.133  17.691  1.00  0.00    -0.744 OA
ENDBRANCH  94  95
ENDBRANCH  62  87
BRANCH  74  99
ATOM     99  C   UNL     1       9.432   7.050  15.302  1.00  0.00     0.058 A 
ATOM    100  C   UNL     1       9.657   7.013  16.687  1.00  0.00     0.135 A 
ATOM    101  C   UNL     1      10.404   7.665  14.496  1.00  0.00     0.135 A 
ATOM    102  F   UNL     1       8.756   6.446  17.504  1.00  0.00    -0.206 F 
ATOM    103  C   UNL     1      10.799   7.572  17.252  1.00  0.00     0.059 A 
ATOM    104  C   UNL     1      11.567   8.204  15.037  1.00  0.00     0.059 A 
ATOM    105  F   UNL     1      10.242   7.719  13.164  1.00  0.00    -0.206 F 
ATOM    106  C   UNL     1      11.753   8.158  16.417  1.00  0.00     0.060 A 
BRANCH 106 107
ATOM    107  S   UNL     1      13.252   8.833  17.164  1.00  0.00     0.124 S 
ATOM    108  O   UNL     1      12.728   9.991  17.880  1.00  0.00    -0.237 OA
ATOM    109  O   UNL     1      13.709   7.725  17.996  1.00  0.00    -0.237 OA
ATOM    110  O   UNL     1      14.098   9.137  16.014  1.00  0.00    -0.744 OA
ENDBRANCH 106 107
ENDBRANCH  74  99
ENDBRANCH  48  49
ENDBRANCH  40  43
ENDBRANCH  38  39
ENDBRANCH   1  38
TORSDOF 17
