REMARK SMILES CC[C@](C)([NH3+])C(=O)Nc1ccc(C(F)(F)F)cc1C(=O)NCCCNC(=O)c1ccc(-c2c3nc(c(-c4c(F)cc(S(=O)(=O)[O-])cc4F)c4ccc([nH]4)c(-c4c(F)cc(S(=O)(=O)[O-])cc4F)c4nc(c(-c5c(F)cc(S(=O)(=O)[O-])cc5F)c5ccc2[nH]5)C=C4)C=C3)cc1
REMARK SMILES IDX 23 1 22 2 21 3 19 4 20 5 18 7 9 8 10 9 11 10 17 11 12 12
REMARK SMILES IDX 8 13 6 14 7 15 3 17 4 18 2 19 1 20 5 21 13 25 14 26 15 27
REMARK SMILES IDX 16 28 24 29 25 30 26 31 27 33 28 34 29 35 93 36 30 37 92 38
REMARK SMILES IDX 31 39 32 40 33 41 86 42 34 43 91 44 85 45 87 46 35 47 90 48
REMARK SMILES IDX 84 49 83 50 36 52 70 53 49 54 69 55 50 56 53 57 68 58 88 59
REMARK SMILES IDX 51 60 52 61 67 63 89 64 54 65 37 66 38 67 47 68 39 69 40 70
REMARK SMILES IDX 46 71 48 72 41 73 42 74 43 75 44 76 45 77 71 78 72 79 81 80
REMARK SMILES IDX 73 81 74 82 80 83 82 84 75 85 76 86 77 87 78 88 79 89 55 90
REMARK SMILES IDX 56 91 65 92 57 93 58 94 64 95 66 96 59 97 60 98 61 99 62 100
REMARK SMILES IDX 63 101
REMARK H PARENT 21 6 8 16 5 22 5 23 5 24 25 32 87 51 53 62
REMARK Flexibility Score: inf
ROOT
ATOM      1  C   UNL     1       4.411  -0.763  -3.967  1.00  0.00     0.042 C 
ENDROOT
BRANCH   1   2
ATOM      2  C   UNL     1       3.476  -1.822  -3.419  1.00  0.00     0.118 C 
BRANCH   2   3
ATOM      3  N   UNL     1       2.311  -2.096  -4.230  1.00  0.00    -0.352 N 
ATOM      4  C   UNL     1       1.401  -3.123  -4.170  1.00  0.00     0.253 C 
ATOM      5  O   UNL     1       0.469  -3.086  -4.980  1.00  0.00    -0.269 OA
ATOM      6  H   UNL     1       2.143  -1.438  -4.943  1.00  0.00     0.163 HD
BRANCH   4   7
ATOM      7  C   UNL     1       1.531  -4.333  -3.285  1.00  0.00     0.063 A 
ATOM      8  C   UNL     1       2.133  -4.449  -2.019  1.00  0.00     0.054 A 
ATOM      9  C   UNL     1       2.419  -5.732  -1.514  1.00  0.00     0.027 A 
ATOM     10  C   UNL     1       1.919  -6.881  -2.123  1.00  0.00     0.015 A 
ATOM     11  C   UNL     1       0.997  -5.512  -3.866  1.00  0.00     0.029 A 
ATOM     12  C   UNL     1       1.135  -6.776  -3.269  1.00  0.00     0.056 A 
BRANCH   8  13
ATOM     13  N   UNL     1       2.520  -3.427  -1.144  1.00  0.00    -0.320 N 
ATOM     14  C   UNL     1       1.916  -2.296  -0.678  1.00  0.00     0.285 C 
ATOM     15  O   UNL     1       2.674  -1.523  -0.071  1.00  0.00    -0.267 OA
ATOM     16  H   UNL     1       3.429  -3.553  -0.786  1.00  0.00     0.170 HD
BRANCH  14  17
ATOM     17  C   UNL     1       0.381  -2.044  -0.664  1.00  0.00     0.171 C 
ATOM     18  C   UNL     1       0.132  -0.528  -0.577  1.00  0.00     0.090 C 
BRANCH  17  19
ATOM     19  C   UNL     1      -0.226  -2.811   0.533  1.00  0.00     0.075 C 
ATOM     20  C   UNL     1       0.244  -2.341   1.905  1.00  0.00     0.011 C 
ENDBRANCH  17  19
BRANCH  17  21
ATOM     21  N   UNL     1      -0.298  -2.507  -1.881  1.00  0.00    -0.345 N 
ATOM     22  H   UNL     1       0.082  -2.017  -2.691  1.00  0.00     0.345 HD
ATOM     23  H   UNL     1      -1.298  -2.316  -1.807  1.00  0.00     0.345 HD
ATOM     24  H   UNL     1      -0.152  -3.511  -1.992  1.00  0.00     0.345 HD
ENDBRANCH  17  21
ENDBRANCH  14  17
ENDBRANCH   8  13
BRANCH  12  25
ATOM     25  C   UNL     1       0.466  -8.000  -3.844  1.00  0.00     0.416 C 
ATOM     26  F   UNL     1       1.332  -8.816  -4.501  1.00  0.00    -0.166 F 
ATOM     27  F   UNL     1      -0.108  -8.770  -2.875  1.00  0.00    -0.166 F 
ATOM     28  F   UNL     1      -0.534  -7.716  -4.722  1.00  0.00    -0.166 F 
ENDBRANCH  12  25
ENDBRANCH   4   7
ENDBRANCH   2   3
ENDBRANCH   1   2
BRANCH   1  29
ATOM     29  C   UNL     1       3.833   0.649  -3.900  1.00  0.00     0.118 C 
BRANCH  29  30
ATOM     30  N   UNL     1       3.644   1.179  -2.547  1.00  0.00    -0.352 N 
ATOM     31  C   UNL     1       4.247   2.228  -1.881  1.00  0.00     0.251 C 
ATOM     32  H   UNL     1       2.964   0.702  -2.018  1.00  0.00     0.163 HD
ATOM     33  O   UNL     1       3.928   2.495  -0.730  1.00  0.00    -0.269 OA
BRANCH  31  34
ATOM     34  C   UNL     1       5.334   2.989  -2.534  1.00  0.00     0.039 A 
ATOM     35  C   UNL     1       6.517   3.226  -1.828  1.00  0.00     0.014 A 
ATOM     36  C   UNL     1       5.224   3.391  -3.860  1.00  0.00     0.014 A 
ATOM     37  C   UNL     1       7.636   3.722  -2.503  1.00  0.00     0.010 A 
ATOM     38  C   UNL     1       6.369   3.748  -4.559  1.00  0.00     0.010 A 
ATOM     39  C   UNL     1       7.595   3.902  -3.894  1.00  0.00    -0.014 A 
BRANCH  39  40
ATOM     40  C   UNL     1       8.807   4.234  -4.691  1.00  0.00     0.031 A 
ATOM     41  C   UNL     1       8.793   5.436  -5.600  1.00  0.00     0.074 A 
ATOM     42  C   UNL     1       9.868   3.399  -4.694  1.00  0.00     0.049 A 
ATOM     43  N   UNL     1       9.646   5.782  -6.529  1.00  0.00    -0.248 NA
ATOM     44  C   UNL     1       7.634   6.338  -5.486  1.00  0.00     0.031 C 
ATOM     45  C   UNL     1       9.988   2.166  -3.910  1.00  0.00     0.029 A 
ATOM     46  N   UNL     1      11.049   3.454  -5.394  1.00  0.00    -0.354 N 
ATOM     47  C   UNL     1       9.104   6.910  -7.136  1.00  0.00     0.074 A 
ATOM     48  C   UNL     1       7.822   7.151  -6.514  1.00  0.00     0.031 C 
ATOM     49  C   UNL     1      11.187   1.607  -4.142  1.00  0.00     0.029 A 
ATOM     50  C   UNL     1      11.903   2.409  -5.127  1.00  0.00     0.049 A 
ATOM     51  H   UNL     1      11.264   4.176  -6.028  1.00  0.00     0.167 HD
ATOM     52  C   UNL     1       9.640   7.696  -8.100  1.00  0.00     0.037 A 
ATOM     53  C   UNL     1      13.122   2.126  -5.625  1.00  0.00     0.037 A 
ATOM     54  C   UNL     1      10.948   7.496  -8.662  1.00  0.00     0.049 A 
ATOM     55  C   UNL     1      13.720   3.044  -6.657  1.00  0.00     0.074 A 
ATOM     56  C   UNL     1      11.609   8.265  -9.602  1.00  0.00     0.029 A 
ATOM     57  N   UNL     1      11.806   6.464  -8.312  1.00  0.00    -0.354 N 
ATOM     58  N   UNL     1      13.202   4.119  -7.201  1.00  0.00    -0.248 NA
ATOM     59  C   UNL     1      15.066   2.711  -7.145  1.00  0.00     0.031 C 
ATOM     60  C   UNL     1      12.865   7.692  -9.830  1.00  0.00     0.029 A 
ATOM     61  C   UNL     1      12.995   6.582  -9.010  1.00  0.00     0.049 A 
ATOM     62  H   UNL     1      11.600   5.753  -7.663  1.00  0.00     0.167 HD
ATOM     63  C   UNL     1      14.171   4.609  -8.069  1.00  0.00     0.074 A 
ATOM     64  C   UNL     1      15.308   3.716  -7.975  1.00  0.00     0.031 C 
ATOM     65  C   UNL     1      14.124   5.697  -8.876  1.00  0.00     0.037 A 
BRANCH  52  66
ATOM     66  C   UNL     1       8.820   8.863  -8.575  1.00  0.00     0.058 A 
ATOM     67  C   UNL     1       8.589   9.977  -7.751  1.00  0.00     0.135 A 
ATOM     68  C   UNL     1       8.264   8.874  -9.863  1.00  0.00     0.135 A 
ATOM     69  F   UNL     1       9.082  10.009  -6.503  1.00  0.00    -0.206 F 
ATOM     70  C   UNL     1       7.803  11.043  -8.173  1.00  0.00     0.059 A 
ATOM     71  C   UNL     1       7.498   9.945 -10.317  1.00  0.00     0.059 A 
ATOM     72  F   UNL     1       8.454   7.835 -10.692  1.00  0.00    -0.206 F 
ATOM     73  C   UNL     1       7.258  11.016  -9.457  1.00  0.00     0.060 A 
BRANCH  73  74
ATOM     74  S   UNL     1       6.234  12.404  -9.988  1.00  0.00     0.124 S 
ATOM     75  O   UNL     1       4.987  12.133  -9.278  1.00  0.00    -0.237 OA
ATOM     76  O   UNL     1       6.995  13.556  -9.512  1.00  0.00    -0.237 OA
ATOM     77  O   UNL     1       6.179  12.249 -11.438  1.00  0.00    -0.744 OA
ENDBRANCH  73  74
ENDBRANCH  52  66
BRANCH  53  78
ATOM     78  C   UNL     1      13.883   0.945  -5.134  1.00  0.00     0.058 A 
ATOM     79  C   UNL     1      15.012   1.114  -4.318  1.00  0.00     0.135 A 
ATOM     80  C   UNL     1      13.512  -0.365  -5.473  1.00  0.00     0.135 A 
ATOM     81  F   UNL     1      15.408   2.348  -3.970  1.00  0.00    -0.206 F 
ATOM     82  C   UNL     1      15.765   0.030  -3.879  1.00  0.00     0.059 A 
ATOM     83  C   UNL     1      14.236  -1.467  -5.027  1.00  0.00     0.059 A 
ATOM     84  F   UNL     1      12.428  -0.582  -6.234  1.00  0.00    -0.206 F 
ATOM     85  C   UNL     1      15.371  -1.258  -4.242  1.00  0.00     0.060 A 
BRANCH  85  86
ATOM     86  S   UNL     1      16.339  -2.663  -3.648  1.00  0.00     0.124 S 
ATOM     87  O   UNL     1      17.500  -2.610  -4.529  1.00  0.00    -0.237 OA
ATOM     88  O   UNL     1      16.579  -2.306  -2.253  1.00  0.00    -0.237 OA
ATOM     89  O   UNL     1      15.442  -3.796  -3.851  1.00  0.00    -0.744 OA
ENDBRANCH  85  86
ENDBRANCH  53  78
BRANCH  65  90
ATOM     90  C   UNL     1      15.351   6.016  -9.678  1.00  0.00     0.058 A 
ATOM     91  C   UNL     1      15.685   5.289 -10.830  1.00  0.00     0.135 A 
ATOM     92  C   UNL     1      16.164   7.104  -9.324  1.00  0.00     0.135 A 
ATOM     93  F   UNL     1      14.941   4.236 -11.204  1.00  0.00    -0.206 F 
ATOM     94  C   UNL     1      16.793   5.624 -11.600  1.00  0.00     0.059 A 
ATOM     95  C   UNL     1      17.264   7.470 -10.092  1.00  0.00     0.059 A 
ATOM     96  F   UNL     1      15.879   7.835  -8.234  1.00  0.00    -0.206 F 
ATOM     97  C   UNL     1      17.575   6.718 -11.224  1.00  0.00     0.060 A 
BRANCH  97  98
ATOM     98  S   UNL     1      18.982   7.176 -12.260  1.00  0.00     0.124 S 
ATOM     99  O   UNL     1      19.963   6.164 -11.885  1.00  0.00    -0.237 OA
ATOM    100  O   UNL     1      18.432   7.057 -13.607  1.00  0.00    -0.237 OA
ATOM    101  O   UNL     1      19.287   8.538 -11.833  1.00  0.00    -0.744 OA
ENDBRANCH  97  98
ENDBRANCH  65  90
ENDBRANCH  39  40
ENDBRANCH  31  34
ENDBRANCH  29  30
ENDBRANCH   1  29
TORSDOF 18
