REMARK SMILES O=C(NCCCNC(=O)[C@H]1CC2(CCN(C(=O)c3cccc(O)c3)CC2)CN1C(=O)C1CC1)c1ccc(-c2c3nc(c(-c4c(F)cc(S(=O)(=O)[O-])cc4F)c4ccc([nH]4)c(-c4c(F)cc(S(=O)(=O)[O-])cc4F)c4nc(c(-c5c(F)cc(S(=O)(=O)[O-])cc5F)c5ccc2[nH]5)C=C4)C=C3)cc1
REMARK SMILES IDX 4 1 3 2 1 3 2 4 34 6 35 7 99 8 36 9 98 10 37 11 38 12 39 13
REMARK SMILES IDX 92 14 40 15 97 16 91 17 93 18 41 19 96 20 90 21 89 22 42 24
REMARK SMILES IDX 76 25 55 26 75 27 56 28 59 29 74 30 94 31 57 32 58 33 73 35
REMARK SMILES IDX 95 36 60 37 43 38 44 39 53 40 45 41 46 42 52 43 54 44 47 45
REMARK SMILES IDX 48 46 49 47 50 48 51 49 77 50 78 51 87 52 79 53 80 54 86 55
REMARK SMILES IDX 88 56 81 57 82 58 83 59 84 60 85 61 61 62 62 63 71 64 63 65
REMARK SMILES IDX 64 66 70 67 72 68 65 69 66 70 67 71 68 72 69 73 5 74 6 75
REMARK SMILES IDX 7 76 8 77 9 79 10 80 11 81 28 82 12 83 27 84 13 85 26 86
REMARK SMILES IDX 14 87 25 88 15 89 16 90 17 91 29 92 30 93 31 94 32 95 33 96
REMARK SMILES IDX 18 97 19 98 24 99 20 100 22 101 21 102 23 103
REMARK H PARENT 3 5 93 23 59 34 7 78 23 104
REMARK Flexibility Score: inf
ROOT
ATOM      1  C   UNL     1      10.983   1.817  -6.985  1.00  0.00     0.118 C 
ENDROOT
BRANCH   1   2
ATOM      2  N   UNL     1      11.825   2.997  -6.983  1.00  0.00    -0.352 N 
ATOM      3  O   UNL     1      13.610   4.269  -7.509  1.00  0.00    -0.269 OA
ATOM      4  C   UNL     1      13.053   3.175  -7.585  1.00  0.00     0.251 C 
ATOM      5  H   UNL     1      11.474   3.772  -6.487  1.00  0.00     0.163 HD
BRANCH   4   6
ATOM      6  C   UNL     1      13.731   2.053  -8.284  1.00  0.00     0.039 A 
ATOM      7  C   UNL     1      13.107   1.338  -9.310  1.00  0.00     0.014 A 
ATOM      8  C   UNL     1      15.046   1.737  -7.923  1.00  0.00     0.014 A 
ATOM      9  C   UNL     1      13.765   0.254  -9.905  1.00  0.00     0.010 A 
ATOM     10  C   UNL     1      15.718   0.680  -8.553  1.00  0.00     0.010 A 
ATOM     11  C   UNL     1      15.080  -0.088  -9.539  1.00  0.00    -0.014 A 
BRANCH  11  12
ATOM     12  C   UNL     1      15.795  -1.200 -10.234  1.00  0.00     0.031 A 
ATOM     13  C   UNL     1      16.200  -2.457  -9.502  1.00  0.00     0.074 A 
ATOM     14  C   UNL     1      16.090  -1.076 -11.544  1.00  0.00     0.049 A 
ATOM     15  N   UNL     1      16.835  -3.510  -9.956  1.00  0.00    -0.248 NA
ATOM     16  C   UNL     1      15.853  -2.540  -8.075  1.00  0.00     0.031 C 
ATOM     17  C   UNL     1      15.788   0.098 -12.366  1.00  0.00     0.029 A 
ATOM     18  N   UNL     1      16.708  -1.939 -12.417  1.00  0.00    -0.354 N 
ATOM     19  C   UNL     1      16.961  -4.381  -8.879  1.00  0.00     0.074 A 
ATOM     20  C   UNL     1      16.372  -3.713  -7.736  1.00  0.00     0.031 C 
ATOM     21  C   UNL     1      16.201  -0.125 -13.623  1.00  0.00     0.029 A 
ATOM     22  C   UNL     1      16.839  -1.437 -13.691  1.00  0.00     0.049 A 
ATOM     23  H   UNL     1      17.027  -2.833 -12.155  1.00  0.00     0.167 HD
ATOM     24  C   UNL     1      17.500  -5.627  -8.846  1.00  0.00     0.037 A 
ATOM     25  C   UNL     1      17.421  -1.957 -14.790  1.00  0.00     0.037 A 
ATOM     26  C   UNL     1      18.092  -6.290  -9.984  1.00  0.00     0.049 A 
ATOM     27  C   UNL     1      18.034  -3.329 -14.722  1.00  0.00     0.074 A 
ATOM     28  C   UNL     1      18.655  -7.555 -10.047  1.00  0.00     0.029 A 
ATOM     29  N   UNL     1      18.201  -5.748 -11.256  1.00  0.00    -0.354 N 
ATOM     30  N   UNL     1      18.111  -4.148 -13.700  1.00  0.00    -0.248 NA
ATOM     31  C   UNL     1      18.633  -3.852 -15.957  1.00  0.00     0.031 C 
ATOM     32  C   UNL     1      19.139  -7.761 -11.344  1.00  0.00     0.029 A 
ATOM     33  C   UNL     1      18.832  -6.646 -12.105  1.00  0.00     0.049 A 
ATOM     34  H   UNL     1      17.878  -4.855 -11.518  1.00  0.00     0.167 HD
ATOM     35  C   UNL     1      18.751  -5.288 -14.175  1.00  0.00     0.074 A 
ATOM     36  C   UNL     1      19.015  -5.064 -15.580  1.00  0.00     0.031 C 
ATOM     37  C   UNL     1      19.092  -6.417 -13.505  1.00  0.00     0.037 A 
BRANCH  24  38
ATOM     38  C   UNL     1      17.473  -6.372  -7.536  1.00  0.00     0.058 A 
ATOM     39  C   UNL     1      16.275  -6.882  -7.007  1.00  0.00     0.135 A 
ATOM     40  C   UNL     1      18.660  -6.645  -6.835  1.00  0.00     0.135 A 
ATOM     41  F   UNL     1      15.109  -6.646  -7.628  1.00  0.00    -0.206 F 
ATOM     42  C   UNL     1      16.253  -7.613  -5.823  1.00  0.00     0.059 A 
ATOM     43  C   UNL     1      18.665  -7.397  -5.663  1.00  0.00     0.059 A 
ATOM     44  F   UNL     1      19.836  -6.189  -7.296  1.00  0.00    -0.206 F 
ATOM     45  C   UNL     1      17.453  -7.867  -5.158  1.00  0.00     0.060 A 
BRANCH  45  46
ATOM     46  S   UNL     1      17.404  -8.828  -3.629  1.00  0.00     0.124 S 
ATOM     47  O   UNL     1      16.790  -7.877  -2.708  1.00  0.00    -0.237 OA
ATOM     48  O   UNL     1      16.577  -9.970  -4.005  1.00  0.00    -0.237 OA
ATOM     49  O   UNL     1      18.808  -9.131  -3.372  1.00  0.00    -0.744 OA
ENDBRANCH  45  46
ENDBRANCH  24  38
BRANCH  25  50
ATOM     50  C   UNL     1      17.467  -1.167 -16.050  1.00  0.00     0.058 A 
ATOM     51  C   UNL     1      16.736  -1.556 -17.183  1.00  0.00     0.135 A 
ATOM     52  C   UNL     1      18.250  -0.005 -16.146  1.00  0.00     0.135 A 
ATOM     53  F   UNL     1      15.979  -2.662 -17.145  1.00  0.00    -0.206 F 
ATOM     54  C   UNL     1      16.799  -0.837 -18.373  1.00  0.00     0.059 A 
ATOM     55  C   UNL     1      18.303   0.748 -17.314  1.00  0.00     0.059 A 
ATOM     56  F   UNL     1      18.955   0.420 -15.086  1.00  0.00    -0.206 F 
ATOM     57  C   UNL     1      17.586   0.315 -18.427  1.00  0.00     0.060 A 
BRANCH  57  58
ATOM     58  S   UNL     1      17.637   1.260 -19.965  1.00  0.00     0.124 S 
ATOM     59  O   UNL     1      18.480   0.414 -20.801  1.00  0.00    -0.237 OA
ATOM     60  O   UNL     1      16.226   1.322 -20.335  1.00  0.00    -0.237 OA
ATOM     61  O   UNL     1      18.225   2.532 -19.556  1.00  0.00    -0.744 OA
ENDBRANCH  57  58
ENDBRANCH  25  50
BRANCH  37  62
ATOM     62  C   UNL     1      19.762  -7.511 -14.294  1.00  0.00     0.058 A 
ATOM     63  C   UNL     1      21.080  -7.385 -14.761  1.00  0.00     0.135 A 
ATOM     64  C   UNL     1      19.081  -8.707 -14.575  1.00  0.00     0.135 A 
ATOM     65  F   UNL     1      21.776  -6.261 -14.527  1.00  0.00    -0.206 F 
ATOM     66  C   UNL     1      21.686  -8.390 -15.510  1.00  0.00     0.059 A 
ATOM     67  C   UNL     1      19.677  -9.736 -15.296  1.00  0.00     0.059 A 
ATOM     68  F   UNL     1      17.822  -8.885 -14.143  1.00  0.00    -0.206 F 
ATOM     69  C   UNL     1      20.975  -9.561 -15.775  1.00  0.00     0.060 A 
BRANCH  69  70
ATOM     70  S   UNL     1      21.773 -10.860 -16.742  1.00  0.00     0.124 S 
ATOM     71  O   UNL     1      21.735 -10.293 -18.086  1.00  0.00    -0.237 OA
ATOM     72  O   UNL     1      23.094 -10.942 -16.127  1.00  0.00    -0.237 OA
ATOM     73  O   UNL     1      20.915 -12.021 -16.526  1.00  0.00    -0.744 OA
ENDBRANCH  69  70
ENDBRANCH  37  62
ENDBRANCH  11  12
ENDBRANCH   4   6
ENDBRANCH   1   2
BRANCH   1  74
ATOM     74  C   UNL     1      10.338   1.452  -5.650  1.00  0.00     0.042 C 
BRANCH  74  75
ATOM     75  C   UNL     1       9.242   2.353  -5.077  1.00  0.00     0.117 C 
BRANCH  75  76
ATOM     76  N   UNL     1       8.181   2.801  -5.968  1.00  0.00    -0.354 N 
ATOM     77  C   UNL     1       6.886   2.360  -6.088  1.00  0.00     0.242 C 
ATOM     78  H   UNL     1       8.430   3.533  -6.577  1.00  0.00     0.163 HD
ATOM     79  O   UNL     1       6.037   3.167  -6.479  1.00  0.00    -0.273 OA
BRANCH  77  80
ATOM     80  C   UNL     1       6.479   0.975  -5.584  1.00  0.00     0.175 C 
ATOM     81  C   UNL     1       5.097   0.368  -5.906  1.00  0.00     0.044 C 
ATOM     82  N   UNL     1       7.292  -0.211  -5.744  1.00  0.00    -0.330 N 
ATOM     83  C   UNL     1       5.139  -0.995  -5.096  1.00  0.00    -0.006 C 
ATOM     84  C   UNL     1       6.679  -1.195  -4.853  1.00  0.00     0.127 C 
ATOM     85  C   UNL     1       4.602  -2.242  -5.848  1.00  0.00     0.030 C 
ATOM     86  C   UNL     1       4.364  -0.838  -3.766  1.00  0.00     0.030 C 
ATOM     87  C   UNL     1       3.080  -2.351  -5.930  1.00  0.00     0.120 C 
ATOM     88  C   UNL     1       2.846  -0.897  -3.965  1.00  0.00     0.120 C 
ATOM     89  N   UNL     1       2.463  -2.139  -4.622  1.00  0.00    -0.339 N 
ATOM     90  C   UNL     1       1.421  -2.890  -4.072  1.00  0.00     0.253 C 
ATOM     91  O   UNL     1       0.737  -2.495  -3.128  1.00  0.00    -0.269 OA
BRANCH  82  92
ATOM     92  C   UNL     1       7.762  -0.711  -6.969  1.00  0.00     0.226 C 
ATOM     93  O   UNL     1       7.910  -1.920  -7.136  1.00  0.00    -0.275 OA
BRANCH  92  94
ATOM     94  C   UNL     1       8.212   0.145  -8.110  1.00  0.00     0.079 C 
ATOM     95  C   UNL     1       7.327   0.122  -9.350  1.00  0.00     0.014 C 
ATOM     96  C   UNL     1       7.719   1.419  -8.745  1.00  0.00     0.014 C 
ENDBRANCH  92  94
ENDBRANCH  82  92
BRANCH  90  97
ATOM     97  C   UNL     1       1.108  -4.239  -4.598  1.00  0.00     0.043 A 
ATOM     98  C   UNL     1       2.086  -5.242  -4.626  1.00  0.00     0.014 A 
ATOM     99  C   UNL     1      -0.217  -4.545  -4.928  1.00  0.00     0.060 A 
ATOM    100  C   UNL     1       1.744  -6.536  -5.030  1.00  0.00     0.005 A 
ATOM    101  C   UNL     1      -0.543  -5.837  -5.328  1.00  0.00     0.116 A 
ATOM    102  C   UNL     1       0.427  -6.835  -5.388  1.00  0.00     0.046 A 
BRANCH 101 103
ATOM    103  O   UNL     1      -1.844  -6.098  -5.647  1.00  0.00    -0.508 OA
ATOM    104  H   UNL     1      -2.096  -6.958  -5.920  1.00  0.00     0.293 HD
ENDBRANCH 101 103
ENDBRANCH  90  97
ENDBRANCH  77  80
ENDBRANCH  75  76
ENDBRANCH  74  75
ENDBRANCH   1  74
TORSDOF 17
