REMARK SMILES Nc1cc(C(=O)NCCCNC(=O)c2ccc(-c3c4nc(c(-c5c(F)cc(S(=O)(=O)[O-])cc5F)c5ccc([nH]5)c(-c5c(F)cc(S(=O)(=O)[O-])cc5F)c5nc(c(-c6c(F)cc(S(=O)(=O)[O-])cc6F)c6ccc3[nH]6)C=C5)C=C4)cc2)nc2ccccc12
REMARK SMILES IDX 10 1 9 2 8 3 7 4 5 5 6 6 4 8 2 9 3 10 86 11 81 12 85 13
REMARK SMILES IDX 80 14 82 15 84 16 83 17 1 18 11 21 12 22 13 24 14 25 15 26
REMARK SMILES IDX 79 27 16 28 78 29 17 30 18 31 19 32 72 33 20 34 77 35 71 36
REMARK SMILES IDX 73 37 21 38 76 39 70 40 69 41 22 43 56 44 35 45 55 46 36 47
REMARK SMILES IDX 39 48 54 49 74 50 37 51 38 52 53 54 75 55 40 56 23 57 24 58
REMARK SMILES IDX 33 59 25 60 26 61 32 62 34 63 27 64 28 65 29 66 30 67 31 68
REMARK SMILES IDX 57 69 58 70 67 71 59 72 60 73 66 74 68 75 61 76 62 77 63 78
REMARK SMILES IDX 64 79 65 80 41 81 42 82 51 83 43 84 44 85 50 86 52 87 45 88
REMARK SMILES IDX 46 89 47 90 48 91 49 92
REMARK H PARENT 7 7 1 19 1 20 11 23 73 42 39 53
REMARK Flexibility Score: inf
ROOT
ATOM      1  C   UNL     1       3.175   2.608  -5.300  1.00  0.00     0.118 C 
ENDROOT
BRANCH   1   2
ATOM      2  C   UNL     1       2.861   2.095  -3.896  1.00  0.00     0.042 C 
BRANCH   2   3
ATOM      3  C   UNL     1       2.865   3.194  -2.835  1.00  0.00     0.118 C 
BRANCH   3   4
ATOM      4  N   UNL     1       1.679   4.025  -2.928  1.00  0.00    -0.351 N 
ATOM      5  C   UNL     1       0.457   4.013  -2.293  1.00  0.00     0.269 C 
ATOM      6  O   UNL     1      -0.304   4.936  -2.599  1.00  0.00    -0.268 OA
ATOM      7  H   UNL     1       1.768   4.754  -3.584  1.00  0.00     0.163 HD
BRANCH   5   8
ATOM      8  C   UNL     1       0.021   2.991  -1.271  1.00  0.00     0.130 A 
ATOM      9  C   UNL     1       0.093   0.873  -0.134  1.00  0.00     0.043 A 
ATOM     10  C   UNL     1       0.590   1.741  -1.110  1.00  0.00     0.060 A 
ATOM     11  C   UNL     1      -0.980   1.299   0.683  1.00  0.00     0.023 A 
ATOM     12  C   UNL     1      -1.525   2.572   0.417  1.00  0.00     0.073 A 
ATOM     13  C   UNL     1      -1.546   0.524   1.725  1.00  0.00     0.012 A 
ATOM     14  N   UNL     1      -1.035   3.394  -0.519  1.00  0.00    -0.242 NA
ATOM     15  C   UNL     1      -2.620   3.005   1.153  1.00  0.00     0.029 A 
ATOM     16  C   UNL     1      -2.643   0.984   2.455  1.00  0.00     0.001 A 
ATOM     17  C   UNL     1      -3.187   2.225   2.162  1.00  0.00     0.002 A 
BRANCH   9  18
ATOM     18  N   UNL     1       0.763  -0.336   0.075  1.00  0.00    -0.398 N 
ATOM     19  H   UNL     1       1.505  -0.596  -0.517  1.00  0.00     0.156 HD
ATOM     20  H   UNL     1       0.492  -0.927   0.814  1.00  0.00     0.156 HD
ENDBRANCH   9  18
ENDBRANCH   5   8
ENDBRANCH   3   4
ENDBRANCH   2   3
ENDBRANCH   1   2
BRANCH   1  21
ATOM     21  N   UNL     1       4.585   2.942  -5.463  1.00  0.00    -0.352 N 
ATOM     22  C   UNL     1       5.522   2.407  -6.319  1.00  0.00     0.251 C 
ATOM     23  H   UNL     1       4.917   3.656  -4.873  1.00  0.00     0.163 HD
ATOM     24  O   UNL     1       6.705   2.682  -6.176  1.00  0.00    -0.269 OA
BRANCH  22  25
ATOM     25  C   UNL     1       5.096   1.478  -7.390  1.00  0.00     0.039 A 
ATOM     26  C   UNL     1       4.002   1.780  -8.204  1.00  0.00     0.014 A 
ATOM     27  C   UNL     1       5.797   0.282  -7.570  1.00  0.00     0.014 A 
ATOM     28  C   UNL     1       3.509   0.819  -9.083  1.00  0.00     0.010 A 
ATOM     29  C   UNL     1       5.338  -0.655  -8.500  1.00  0.00     0.010 A 
ATOM     30  C   UNL     1       4.159  -0.417  -9.224  1.00  0.00    -0.014 A 
BRANCH  30  31
ATOM     31  C   UNL     1       3.564  -1.476 -10.081  1.00  0.00     0.031 A 
ATOM     32  C   UNL     1       3.039  -2.743  -9.454  1.00  0.00     0.074 A 
ATOM     33  C   UNL     1       3.445  -1.283 -11.409  1.00  0.00     0.049 A 
ATOM     34  N   UNL     1       2.557  -3.814 -10.030  1.00  0.00    -0.248 NA
ATOM     35  C   UNL     1       3.060  -2.816  -7.982  1.00  0.00     0.031 C 
ATOM     36  C   UNL     1       3.874  -0.084 -12.131  1.00  0.00     0.029 A 
ATOM     37  N   UNL     1       2.913  -2.086 -12.386  1.00  0.00    -0.354 N 
ATOM     38  C   UNL     1       2.235  -4.691  -9.000  1.00  0.00     0.074 A 
ATOM     39  C   UNL     1       2.598  -4.039  -7.761  1.00  0.00     0.031 C 
ATOM     40  C   UNL     1       3.558  -0.216 -13.430  1.00  0.00     0.029 A 
ATOM     41  C   UNL     1       2.961  -1.530 -13.642  1.00  0.00     0.049 A 
ATOM     42  H   UNL     1       2.533  -2.976 -12.204  1.00  0.00     0.167 HD
ATOM     43  C   UNL     1       1.676  -5.923  -9.080  1.00  0.00     0.037 A 
ATOM     44  C   UNL     1       2.588  -2.034 -14.835  1.00  0.00     0.037 A 
ATOM     45  C   UNL     1       1.289  -6.558 -10.313  1.00  0.00     0.049 A 
ATOM     46  C   UNL     1       2.025  -3.426 -14.899  1.00  0.00     0.074 A 
ATOM     47  C   UNL     1       0.727  -7.810 -10.499  1.00  0.00     0.029 A 
ATOM     48  N   UNL     1       1.408  -5.984 -11.570  1.00  0.00    -0.354 N 
ATOM     49  N   UNL     1       1.782  -4.264 -13.919  1.00  0.00    -0.248 NA
ATOM     50  C   UNL     1       1.700  -3.947 -16.234  1.00  0.00     0.031 C 
ATOM     51  C   UNL     1       0.529  -8.003 -11.870  1.00  0.00     0.029 A 
ATOM     52  C   UNL     1       0.936  -6.858 -12.535  1.00  0.00     0.049 A 
ATOM     53  H   UNL     1       1.773  -5.088 -11.749  1.00  0.00     0.167 HD
ATOM     54  C   UNL     1       1.275  -5.410 -14.520  1.00  0.00     0.074 A 
ATOM     55  C   UNL     1       1.218  -5.147 -15.943  1.00  0.00     0.031 C 
ATOM     56  C   UNL     1       0.899  -6.581 -13.948  1.00  0.00     0.037 A 
BRANCH  43  57
ATOM     57  C   UNL     1       1.445  -6.675  -7.799  1.00  0.00     0.058 A 
ATOM     58  C   UNL     1       0.390  -6.343  -6.935  1.00  0.00     0.135 A 
ATOM     59  C   UNL     1       2.242  -7.782  -7.467  1.00  0.00     0.135 A 
ATOM     60  F   UNL     1      -0.387  -5.280  -7.194  1.00  0.00    -0.206 F 
ATOM     61  C   UNL     1       0.136  -7.081  -5.784  1.00  0.00     0.059 A 
ATOM     62  C   UNL     1       1.994  -8.546  -6.330  1.00  0.00     0.059 A 
ATOM     63  F   UNL     1       3.268  -8.137  -8.257  1.00  0.00    -0.206 F 
ATOM     64  C   UNL     1       0.941  -8.184  -5.492  1.00  0.00     0.060 A 
BRANCH  64  65
ATOM     65  S   UNL     1       0.577  -9.145  -4.007  1.00  0.00     0.124 S 
ATOM     66  O   UNL     1       0.990  -8.220  -2.954  1.00  0.00    -0.237 OA
ATOM     67  O   UNL     1      -0.860  -9.368  -4.125  1.00  0.00    -0.237 OA
ATOM     68  O   UNL     1       1.410 -10.334  -4.157  1.00  0.00    -0.744 OA
ENDBRANCH  64  65
ENDBRANCH  43  57
BRANCH  44  69
ATOM     69  C   UNL     1       2.765  -1.231 -16.073  1.00  0.00     0.058 A 
ATOM     70  C   UNL     1       1.657  -0.734 -16.775  1.00  0.00     0.135 A 
ATOM     71  C   UNL     1       4.042  -0.960 -16.587  1.00  0.00     0.135 A 
ATOM     72  F   UNL     1       0.415  -0.978 -16.328  1.00  0.00    -0.206 F 
ATOM     73  C   UNL     1       1.807  -0.010 -17.953  1.00  0.00     0.059 A 
ATOM     74  C   UNL     1       4.219  -0.216 -17.749  1.00  0.00     0.059 A 
ATOM     75  F   UNL     1       5.134  -1.405 -15.946  1.00  0.00    -0.206 F 
ATOM     76  C   UNL     1       3.094   0.243 -18.432  1.00  0.00     0.060 A 
BRANCH  76  77
ATOM     77  S   UNL     1       3.282   1.212 -19.945  1.00  0.00     0.124 S 
ATOM     78  O   UNL     1       2.910   0.237 -20.964  1.00  0.00    -0.237 OA
ATOM     79  O   UNL     1       2.339   2.304 -19.730  1.00  0.00    -0.237 OA
ATOM     80  O   UNL     1       4.691   1.596 -19.921  1.00  0.00    -0.744 OA
ENDBRANCH  76  77
ENDBRANCH  44  69
BRANCH  56  81
ATOM     81  C   UNL     1       0.392  -7.654 -14.867  1.00  0.00     0.058 A 
ATOM     82  C   UNL     1       1.265  -8.382 -15.689  1.00  0.00     0.135 A 
ATOM     83  C   UNL     1      -0.976  -7.965 -14.919  1.00  0.00     0.135 A 
ATOM     84  F   UNL     1       2.581  -8.118 -15.679  1.00  0.00    -0.206 F 
ATOM     85  C   UNL     1       0.796  -9.360 -16.559  1.00  0.00     0.059 A 
ATOM     86  C   UNL     1      -1.465  -8.955 -15.765  1.00  0.00     0.059 A 
ATOM     87  F   UNL     1      -1.850  -7.304 -14.143  1.00  0.00    -0.206 F 
ATOM     88  C   UNL     1      -0.573  -9.634 -16.595  1.00  0.00     0.060 A 
BRANCH  88  89
ATOM     89  S   UNL     1      -1.172 -10.904 -17.729  1.00  0.00     0.124 S 
ATOM     90  O   UNL     1      -1.116 -10.204 -19.008  1.00  0.00    -0.237 OA
ATOM     91  O   UNL     1      -0.195 -11.974 -17.549  1.00  0.00    -0.237 OA
ATOM     92  O   UNL     1      -2.512 -11.198 -17.231  1.00  0.00    -0.744 OA
ENDBRANCH  88  89
ENDBRANCH  56  81
ENDBRANCH  30  31
ENDBRANCH  22  25
ENDBRANCH   1  21
TORSDOF 14
