REMARK SMILES O=C(CC1(C(=O)NCCCNC(=O)c2ccc(-c3c4nc(c(-c5c(F)cc(S(=O)(=O)[O-])cc5F)c5ccc([nH]5)c(-c5c(F)cc(S(=O)(=O)[O-])cc5F)c5nc(c(-c6c(F)cc(S(=O)(=O)[O-])cc6F)c6ccc3[nH]6)C=C5)C=C4)cc2)CCCCC1)Nc1ccc(N2CCOC2=O)cc1
REMARK SMILES IDX 8 1 7 2 5 3 6 4 4 6 80 7 84 8 81 9 83 10 82 11 3 12 2 13
REMARK SMILES IDX 1 14 85 15 86 17 87 18 97 19 88 20 96 21 89 22 90 23 91 24
REMARK SMILES IDX 94 25 92 26 93 27 95 28 9 29 10 30 11 31 12 32 13 34 14 35
REMARK SMILES IDX 15 36 79 37 16 38 78 39 17 40 18 41 19 42 72 43 20 44 77 45
REMARK SMILES IDX 71 46 73 47 21 48 76 49 70 50 69 51 22 53 56 54 35 55 55 56
REMARK SMILES IDX 36 57 39 58 54 59 74 60 37 61 38 62 53 64 75 65 40 66 23 67
REMARK SMILES IDX 24 68 33 69 25 70 26 71 32 72 34 73 27 74 28 75 29 76 30 77
REMARK SMILES IDX 31 78 57 79 58 80 67 81 59 82 60 83 66 84 68 85 61 86 62 87
REMARK SMILES IDX 63 88 64 89 65 90 41 91 42 92 51 93 43 94 44 95 50 96 52 97
REMARK SMILES IDX 45 98 46 99 47 100 48 101 49 102
REMARK H PARENT 7 5 85 16 11 33 73 52 39 63
REMARK Flexibility Score: inf
ROOT
ATOM      1  C   UNL     1       4.979  -2.189  -3.769  1.00  0.00     0.117 C 
ENDROOT
BRANCH   1   2
ATOM      2  N   UNL     1       3.721  -1.727  -3.238  1.00  0.00    -0.356 N 
ATOM      3  C   UNL     1       3.246  -1.566  -1.985  1.00  0.00     0.226 C 
ATOM      4  O   UNL     1       2.031  -1.339  -1.949  1.00  0.00    -0.274 OA
ATOM      5  H   UNL     1       3.073  -1.476  -3.936  1.00  0.00     0.163 HD
BRANCH   3   6
ATOM      6  C   UNL     1       4.075  -1.649  -0.670  1.00  0.00     0.058 C 
ATOM      7  C   UNL     1       5.404  -0.847  -0.628  1.00  0.00     0.017 C 
ATOM      8  C   UNL     1       4.297  -3.126  -0.255  1.00  0.00     0.017 C 
ATOM      9  C   UNL     1       6.724  -1.548  -0.959  1.00  0.00     0.001 C 
ATOM     10  C   UNL     1       5.509  -3.828  -0.838  1.00  0.00     0.001 C 
ATOM     11  C   UNL     1       6.803  -3.045  -0.683  1.00  0.00     0.000 C 
BRANCH   6  12
ATOM     12  C   UNL     1       3.135  -1.063   0.463  1.00  0.00     0.117 C 
BRANCH  12  13
ATOM     13  C   UNL     1       2.340   0.244   0.322  1.00  0.00     0.225 C 
ATOM     14  O   UNL     1       1.363   0.410   1.056  1.00  0.00    -0.275 OA
ATOM     15  N   UNL     1       2.815   1.176  -0.574  1.00  0.00    -0.326 N 
ATOM     16  H   UNL     1       3.643   0.945  -1.053  1.00  0.00     0.169 HD
BRANCH  15  17
ATOM     17  C   UNL     1       2.239   2.429  -0.878  1.00  0.00     0.041 A 
ATOM     18  C   UNL     1       2.659   3.053  -2.057  1.00  0.00     0.028 A 
ATOM     19  C   UNL     1       1.262   3.053  -0.101  1.00  0.00     0.028 A 
ATOM     20  C   UNL     1       2.038   4.224  -2.504  1.00  0.00     0.028 A 
ATOM     21  C   UNL     1       0.691   4.263  -0.511  1.00  0.00     0.028 A 
ATOM     22  C   UNL     1       1.042   4.833  -1.736  1.00  0.00     0.047 A 
BRANCH  22  23
ATOM     23  N   UNL     1       0.351   5.955  -2.219  1.00  0.00    -0.274 N 
ATOM     24  C   UNL     1      -0.048   6.094  -3.582  1.00  0.00     0.171 C 
ATOM     25  C   UNL     1      -0.085   7.033  -1.480  1.00  0.00     0.414 C 
ATOM     26  C   UNL     1      -1.115   7.157  -3.486  1.00  0.00     0.257 C 
ATOM     27  O   UNL     1      -0.822   7.868  -2.280  1.00  0.00    -0.447 OA
ATOM     28  O   UNL     1       0.154   7.291  -0.305  1.00  0.00    -0.224 OA
ENDBRANCH  22  23
ENDBRANCH  15  17
ENDBRANCH  12  13
ENDBRANCH   6  12
ENDBRANCH   3   6
ENDBRANCH   1   2
BRANCH   1  29
ATOM     29  C   UNL     1       4.860  -3.558  -4.416  1.00  0.00     0.042 C 
BRANCH  29  30
ATOM     30  C   UNL     1       4.361  -3.487  -5.844  1.00  0.00     0.118 C 
BRANCH  30  31
ATOM     31  N   UNL     1       5.342  -2.875  -6.735  1.00  0.00    -0.352 N 
ATOM     32  C   UNL     1       6.111  -3.441  -7.724  1.00  0.00     0.251 C 
ATOM     33  H   UNL     1       5.473  -1.907  -6.608  1.00  0.00     0.163 HD
ATOM     34  O   UNL     1       7.049  -2.809  -8.200  1.00  0.00    -0.269 OA
BRANCH  32  35
ATOM     35  C   UNL     1       5.813  -4.811  -8.192  1.00  0.00     0.039 A 
ATOM     36  C   UNL     1       6.859  -5.690  -8.484  1.00  0.00     0.014 A 
ATOM     37  C   UNL     1       4.490  -5.229  -8.330  1.00  0.00     0.014 A 
ATOM     38  C   UNL     1       6.570  -7.010  -8.841  1.00  0.00     0.010 A 
ATOM     39  C   UNL     1       4.210  -6.568  -8.549  1.00  0.00     0.010 A 
ATOM     40  C   UNL     1       5.244  -7.470  -8.836  1.00  0.00    -0.014 A 
BRANCH  40  41
ATOM     41  C   UNL     1       4.880  -8.865  -9.189  1.00  0.00     0.031 A 
ATOM     42  C   UNL     1       3.934  -9.103 -10.340  1.00  0.00     0.074 A 
ATOM     43  C   UNL     1       5.312  -9.894  -8.434  1.00  0.00     0.049 A 
ATOM     44  N   UNL     1       3.342 -10.208 -10.710  1.00  0.00    -0.248 NA
ATOM     45  C   UNL     1       3.568  -7.929 -11.153  1.00  0.00     0.031 C 
ATOM     46  C   UNL     1       6.196  -9.785  -7.271  1.00  0.00     0.029 A 
ATOM     47  N   UNL     1       5.049 -11.238  -8.522  1.00  0.00    -0.354 N 
ATOM     48  C   UNL     1       2.520  -9.855 -11.775  1.00  0.00     0.074 A 
ATOM     49  C   UNL     1       2.629  -8.425 -11.944  1.00  0.00     0.031 C 
ATOM     50  C   UNL     1       6.421 -11.011  -6.770  1.00  0.00     0.029 A 
ATOM     51  C   UNL     1       5.658 -11.988  -7.542  1.00  0.00     0.049 A 
ATOM     52  H   UNL     1       4.478 -11.630  -9.221  1.00  0.00     0.167 HD
ATOM     53  C   UNL     1       1.768 -10.655 -12.565  1.00  0.00     0.037 A 
ATOM     54  C   UNL     1       5.595 -13.309  -7.288  1.00  0.00     0.037 A 
ATOM     55  C   UNL     1       1.706 -12.084 -12.420  1.00  0.00     0.049 A 
ATOM     56  C   UNL     1       4.748 -14.180  -8.181  1.00  0.00     0.074 A 
ATOM     57  C   UNL     1       1.015 -12.998 -13.195  1.00  0.00     0.029 A 
ATOM     58  N   UNL     1       2.373 -12.808 -11.442  1.00  0.00    -0.354 N 
ATOM     59  N   UNL     1       4.008 -13.835  -9.208  1.00  0.00    -0.248 NA
ATOM     60  C   UNL     1       4.730 -15.619  -7.886  1.00  0.00     0.031 C 
ATOM     61  C   UNL     1       1.231 -14.271 -12.661  1.00  0.00     0.029 A 
ATOM     62  C   UNL     1       2.103 -14.156 -11.589  1.00  0.00     0.049 A 
ATOM     63  H   UNL     1       2.951 -12.419 -10.747  1.00  0.00     0.167 HD
ATOM     64  C   UNL     1       3.476 -15.019  -9.709  1.00  0.00     0.074 A 
ATOM     65  C   UNL     1       3.979 -16.088  -8.873  1.00  0.00     0.031 C 
ATOM     66  C   UNL     1       2.648 -15.206 -10.766  1.00  0.00     0.037 A 
BRANCH  53  67
ATOM     67  C   UNL     1       0.978 -10.011 -13.671  1.00  0.00     0.058 A 
ATOM     68  C   UNL     1       1.607  -9.435 -14.786  1.00  0.00     0.135 A 
ATOM     69  C   UNL     1      -0.426 -10.009 -13.639  1.00  0.00     0.135 A 
ATOM     70  F   UNL     1       2.947  -9.389 -14.858  1.00  0.00    -0.206 F 
ATOM     71  C   UNL     1       0.876  -8.861 -15.819  1.00  0.00     0.059 A 
ATOM     72  C   UNL     1      -1.179  -9.469 -14.678  1.00  0.00     0.059 A 
ATOM     73  F   UNL     1      -1.081 -10.540 -12.595  1.00  0.00    -0.206 F 
ATOM     74  C   UNL     1      -0.518  -8.888 -15.759  1.00  0.00     0.060 A 
BRANCH  74  75
ATOM     75  S   UNL     1      -1.450  -8.165 -17.125  1.00  0.00     0.124 S 
ATOM     76  O   UNL     1      -1.200  -6.740 -16.926  1.00  0.00    -0.237 OA
ATOM     77  O   UNL     1      -0.806  -8.763 -18.291  1.00  0.00    -0.237 OA
ATOM     78  O   UNL     1      -2.819  -8.603 -16.874  1.00  0.00    -0.744 OA
ENDBRANCH  74  75
ENDBRANCH  53  67
BRANCH  54  79
ATOM     79  C   UNL     1       6.364 -13.900  -6.158  1.00  0.00     0.058 A 
ATOM     80  C   UNL     1       7.439 -14.771  -6.396  1.00  0.00     0.135 A 
ATOM     81  C   UNL     1       6.032 -13.627  -4.822  1.00  0.00     0.135 A 
ATOM     82  F   UNL     1       7.795 -15.067  -7.656  1.00  0.00    -0.206 F 
ATOM     83  C   UNL     1       8.132 -15.379  -5.354  1.00  0.00     0.059 A 
ATOM     84  C   UNL     1       6.731 -14.198  -3.762  1.00  0.00     0.059 A 
ATOM     85  F   UNL     1       5.027 -12.784  -4.536  1.00  0.00    -0.206 F 
ATOM     86  C   UNL     1       7.768 -15.088  -4.039  1.00  0.00     0.060 A 
BRANCH  86  87
ATOM     87  S   UNL     1       8.682 -15.873  -2.694  1.00  0.00     0.124 S 
ATOM     88  O   UNL     1       8.204 -17.248  -2.779  1.00  0.00    -0.237 OA
ATOM     89  O   UNL     1      10.068 -15.652  -3.096  1.00  0.00    -0.237 OA
ATOM     90  O   UNL     1       8.252 -15.126  -1.516  1.00  0.00    -0.744 OA
ENDBRANCH  86  87
ENDBRANCH  54  79
BRANCH  66  91
ATOM     91  C   UNL     1       2.292 -16.619 -11.133  1.00  0.00     0.058 A 
ATOM     92  C   UNL     1       1.407 -17.387 -10.364  1.00  0.00     0.135 A 
ATOM     93  C   UNL     1       2.786 -17.179 -12.324  1.00  0.00     0.135 A 
ATOM     94  F   UNL     1       0.912 -16.900  -9.215  1.00  0.00    -0.206 F 
ATOM     95  C   UNL     1       1.035 -18.670 -10.753  1.00  0.00     0.059 A 
ATOM     96  C   UNL     1       2.403 -18.446 -12.748  1.00  0.00     0.059 A 
ATOM     97  F   UNL     1       3.627 -16.480 -13.102  1.00  0.00    -0.206 F 
ATOM     98  C   UNL     1       1.533 -19.188 -11.951  1.00  0.00     0.060 A 
BRANCH  98  99
ATOM     99  S   UNL     1       0.997 -20.831 -12.471  1.00  0.00     0.124 S 
ATOM    100  O   UNL     1       1.714 -21.685 -11.531  1.00  0.00    -0.237 OA
ATOM    101  O   UNL     1      -0.449 -20.759 -12.286  1.00  0.00    -0.237 OA
ATOM    102  O   UNL     1       1.442 -20.911 -13.859  1.00  0.00    -0.744 OA
ENDBRANCH  98  99
ENDBRANCH  66  91
ENDBRANCH  40  41
ENDBRANCH  32  35
ENDBRANCH  30  31
ENDBRANCH  29  30
ENDBRANCH   1  29
TORSDOF 17
