REMARK SMILES C[C@H](Sc1ccnc(C(=O)NCCCNC(=O)c2ccc(-c3c4nc(c(-c5c(F)cc(S(=O)(=O)[O-])cc5F)c5ccc([nH]5)c(-c5c(F)cc(S(=O)(=O)[O-])cc5F)c5nc(c(-c6c(F)cc(S(=O)(=O)[O-])cc6F)c6ccc3[nH]6)C=C5)C=C4)cc2)c1)[C@@H](C)O
REMARK SMILES IDX 12 1 11 2 9 3 10 4 8 6 4 7 5 8 84 9 6 10 7 11 3 12 2 13 1 14
REMARK SMILES IDX 85 15 86 16 87 17 13 19 14 20 15 21 16 22 17 24 18 25 19 26
REMARK SMILES IDX 83 27 20 28 82 29 21 30 22 31 23 32 76 33 24 34 81 35 75 36
REMARK SMILES IDX 77 37 25 38 80 39 74 40 73 41 26 43 60 44 39 45 59 46 40 47
REMARK SMILES IDX 43 48 58 49 78 50 41 51 42 52 57 54 79 55 44 56 27 57 28 58
REMARK SMILES IDX 37 59 29 60 30 61 36 62 38 63 31 64 32 65 33 66 34 67 35 68
REMARK SMILES IDX 61 69 62 70 71 71 63 72 64 73 70 74 72 75 65 76 66 77 67 78
REMARK SMILES IDX 68 79 69 80 45 81 46 82 55 83 47 84 48 85 54 86 56 87 49 88
REMARK SMILES IDX 50 89 51 90 52 91 53 92
REMARK H PARENT 11 5 87 18 15 23 77 42 43 53
REMARK Flexibility Score: inf
ROOT
ATOM      1  C   UNL     1       1.826  -4.833   1.565  1.00  0.00     0.118 C 
ENDROOT
BRANCH   1   2
ATOM      2  N   UNL     1       0.825  -5.618   0.868  1.00  0.00    -0.351 N 
ATOM      3  C   UNL     1      -0.069  -5.335  -0.141  1.00  0.00     0.269 C 
ATOM      4  O   UNL     1      -0.768  -6.279  -0.519  1.00  0.00    -0.268 OA
ATOM      5  H   UNL     1       0.773  -6.550   1.182  1.00  0.00     0.163 HD
BRANCH   3   6
ATOM      6  C   UNL     1      -0.201  -3.991  -0.811  1.00  0.00     0.129 A 
ATOM      7  C   UNL     1       0.153  -1.611  -1.012  1.00  0.00     0.011 A 
ATOM      8  C   UNL     1      -0.436  -1.667  -2.266  1.00  0.00     0.035 A 
ATOM      9  C   UNL     1       0.220  -2.791  -0.259  1.00  0.00     0.049 A 
ATOM     10  C   UNL     1      -0.897  -2.888  -2.725  1.00  0.00     0.113 A 
ATOM     11  N   UNL     1      -0.774  -4.040  -2.042  1.00  0.00    -0.251 NA
BRANCH   7  12
ATOM     12  S   UNL     1       0.968  -0.198  -0.278  1.00  0.00    -0.120 SA
BRANCH  12  13
ATOM     13  C   UNL     1       0.289   1.327  -1.062  1.00  0.00     0.077 C 
ATOM     14  C   UNL     1       0.889   1.571  -2.449  1.00  0.00     0.022 C 
BRANCH  13  15
ATOM     15  C   UNL     1      -1.245   1.478  -0.987  1.00  0.00     0.124 C 
ATOM     16  C   UNL     1      -1.781   1.499   0.444  1.00  0.00     0.039 C 
BRANCH  15  17
ATOM     17  O   UNL     1      -1.644   2.697  -1.627  1.00  0.00    -0.392 OA
ATOM     18  H   UNL     1      -1.257   3.451  -1.156  1.00  0.00     0.210 HD
ENDBRANCH  15  17
ENDBRANCH  13  15
ENDBRANCH  12  13
ENDBRANCH   7  12
ENDBRANCH   3   6
ENDBRANCH   1   2
BRANCH   1  19
ATOM     19  C   UNL     1       1.286  -4.299   2.893  1.00  0.00     0.042 C 
BRANCH  19  20
ATOM     20  C   UNL     1       1.194  -5.366   3.984  1.00  0.00     0.118 C 
BRANCH  20  21
ATOM     21  N   UNL     1       2.510  -5.829   4.395  1.00  0.00    -0.352 N 
ATOM     22  C   UNL     1       3.095  -5.871   5.634  1.00  0.00     0.251 C 
ATOM     23  H   UNL     1       3.075  -6.167   3.663  1.00  0.00     0.163 HD
ATOM     24  O   UNL     1       4.305  -6.073   5.706  1.00  0.00    -0.269 OA
BRANCH  22  25
ATOM     25  C   UNL     1       2.304  -5.682   6.872  1.00  0.00     0.039 A 
ATOM     26  C   UNL     1       2.909  -5.029   7.951  1.00  0.00     0.014 A 
ATOM     27  C   UNL     1       1.018  -6.212   7.016  1.00  0.00     0.014 A 
ATOM     28  C   UNL     1       2.220  -4.886   9.157  1.00  0.00     0.010 A 
ATOM     29  C   UNL     1       0.306  -6.010   8.199  1.00  0.00     0.010 A 
ATOM     30  C   UNL     1       0.906  -5.361   9.287  1.00  0.00    -0.014 A 
BRANCH  30  31
ATOM     31  C   UNL     1       0.165  -5.191  10.564  1.00  0.00     0.031 A 
ATOM     32  C   UNL     1      -0.222  -6.389  11.390  1.00  0.00     0.074 A 
ATOM     33  C   UNL     1      -0.180  -3.952  10.965  1.00  0.00     0.049 A 
ATOM     34  N   UNL     1      -0.862  -6.433  12.531  1.00  0.00    -0.248 NA
ATOM     35  C   UNL     1       0.136  -7.712  10.854  1.00  0.00     0.031 C 
ATOM     36  C   UNL     1       0.087  -2.719  10.222  1.00  0.00     0.029 A 
ATOM     37  N   UNL     1      -0.828  -3.524  12.095  1.00  0.00    -0.354 N 
ATOM     38  C   UNL     1      -0.994  -7.782  12.842  1.00  0.00     0.074 A 
ATOM     39  C   UNL     1      -0.413  -8.525  11.745  1.00  0.00     0.031 C 
ATOM     40  C   UNL     1      -0.365  -1.671  10.930  1.00  0.00     0.029 A 
ATOM     41  C   UNL     1      -0.975  -2.158  12.163  1.00  0.00     0.049 A 
ATOM     42  H   UNL     1      -1.158  -4.136  12.793  1.00  0.00     0.167 HD
ATOM     43  C   UNL     1      -1.530  -8.349  13.951  1.00  0.00     0.037 A 
ATOM     44  C   UNL     1      -1.530  -1.385  13.116  1.00  0.00     0.037 A 
ATOM     45  C   UNL     1      -2.083  -7.602  15.052  1.00  0.00     0.049 A 
ATOM     46  C   UNL     1      -2.079  -2.035  14.355  1.00  0.00     0.074 A 
ATOM     47  C   UNL     1      -2.604  -8.078  16.243  1.00  0.00     0.029 A 
ATOM     48  N   UNL     1      -2.183  -6.219  15.098  1.00  0.00    -0.354 N 
ATOM     49  N   UNL     1      -2.143  -3.309  14.659  1.00  0.00    -0.248 NA
ATOM     50  C   UNL     1      -2.616  -1.140  15.389  1.00  0.00     0.031 C 
ATOM     51  C   UNL     1      -3.047  -6.984  16.996  1.00  0.00     0.029 A 
ATOM     52  C   UNL     1      -2.764  -5.824  16.292  1.00  0.00     0.049 A 
ATOM     53  H   UNL     1      -1.885  -5.607  14.386  1.00  0.00     0.167 HD
ATOM     54  C   UNL     1      -2.707  -3.369  15.928  1.00  0.00     0.074 A 
ATOM     55  C   UNL     1      -2.947  -2.001  16.341  1.00  0.00     0.031 C 
ATOM     56  C   UNL     1      -2.999  -4.457  16.684  1.00  0.00     0.037 A 
BRANCH  43  57
ATOM     57  C   UNL     1      -1.533  -9.852  14.031  1.00  0.00     0.058 A 
ATOM     58  C   UNL     1      -0.347 -10.582  14.214  1.00  0.00     0.135 A 
ATOM     59  C   UNL     1      -2.736 -10.572  13.948  1.00  0.00     0.135 A 
ATOM     60  F   UNL     1       0.833  -9.947  14.284  1.00  0.00    -0.206 F 
ATOM     61  C   UNL     1      -0.350 -11.972  14.280  1.00  0.00     0.059 A 
ATOM     62  C   UNL     1      -2.765 -11.962  14.039  1.00  0.00     0.059 A 
ATOM     63  F   UNL     1      -3.900  -9.926  13.775  1.00  0.00    -0.206 F 
ATOM     64  C   UNL     1      -1.564 -12.654  14.188  1.00  0.00     0.060 A 
BRANCH  64  65
ATOM     65  S   UNL     1      -1.551 -14.457  14.274  1.00  0.00     0.124 S 
ATOM     66  O   UNL     1      -1.036 -14.807  12.953  1.00  0.00    -0.237 OA
ATOM     67  O   UNL     1      -0.649 -14.712  15.392  1.00  0.00    -0.237 OA
ATOM     68  O   UNL     1      -2.951 -14.796  14.512  1.00  0.00    -0.744 OA
ENDBRANCH  64  65
ENDBRANCH  43  57
BRANCH  44  69
ATOM     69  C   UNL     1      -1.550   0.092  12.951  1.00  0.00     0.058 A 
ATOM     70  C   UNL     1      -0.714   0.914  13.722  1.00  0.00     0.135 A 
ATOM     71  C   UNL     1      -2.385   0.709  12.008  1.00  0.00     0.135 A 
ATOM     72  F   UNL     1       0.101   0.370  14.639  1.00  0.00    -0.206 F 
ATOM     73  C   UNL     1      -0.716   2.297  13.575  1.00  0.00     0.059 A 
ATOM     74  C   UNL     1      -2.389   2.088  11.827  1.00  0.00     0.059 A 
ATOM     75  F   UNL     1      -3.189  -0.036  11.232  1.00  0.00    -0.206 F 
ATOM     76  C   UNL     1      -1.557   2.875  12.623  1.00  0.00     0.060 A 
BRANCH  76  77
ATOM     77  S   UNL     1      -1.512   4.667  12.399  1.00  0.00     0.124 S 
ATOM     78  O   UNL     1      -2.254   5.127  13.567  1.00  0.00    -0.237 OA
ATOM     79  O   UNL     1      -0.079   4.943  12.402  1.00  0.00    -0.237 OA
ATOM     80  O   UNL     1      -2.176   4.859  11.112  1.00  0.00    -0.744 OA
ENDBRANCH  76  77
ENDBRANCH  44  69
BRANCH  56  81
ATOM     81  C   UNL     1      -3.587  -4.201  18.044  1.00  0.00     0.058 A 
ATOM     82  C   UNL     1      -4.906  -3.748  18.204  1.00  0.00     0.135 A 
ATOM     83  C   UNL     1      -2.821  -4.415  19.201  1.00  0.00     0.135 A 
ATOM     84  F   UNL     1      -5.678  -3.524  17.129  1.00  0.00    -0.206 F 
ATOM     85  C   UNL     1      -5.431  -3.473  19.462  1.00  0.00     0.059 A 
ATOM     86  C   UNL     1      -3.335  -4.172  20.470  1.00  0.00     0.059 A 
ATOM     87  F   UNL     1      -1.558  -4.860  19.104  1.00  0.00    -0.206 F 
ATOM     88  C   UNL     1      -4.634  -3.681  20.589  1.00  0.00     0.060 A 
BRANCH  88  89
ATOM     89  S   UNL     1      -5.319  -3.311  22.218  1.00  0.00     0.124 S 
ATOM     90  O   UNL     1      -5.216  -1.856  22.255  1.00  0.00    -0.237 OA
ATOM     91  O   UNL     1      -6.673  -3.848  22.121  1.00  0.00    -0.237 OA
ATOM     92  O   UNL     1      -4.432  -4.028  23.129  1.00  0.00    -0.744 OA
ENDBRANCH  88  89
ENDBRANCH  56  81
ENDBRANCH  30  31
ENDBRANCH  22  25
ENDBRANCH  20  21
ENDBRANCH  19  20
ENDBRANCH   1  19
TORSDOF 17
