REMARK SMILES C[C@@H](CCC(=O)NCCCNC(=O)c1ccc(-c2c3nc(c(-c4c(F)cc(S(=O)(=O)[O-])cc4F)c4ccc([nH]4)c(-c4c(F)cc(S(=O)(=O)[O-])cc4F)c4nc(c(-c5c(F)cc(S(=O)(=O)[O-])cc5F)c5ccc2[nH]5)C=C4)C=C3)cc1)NC(=O)Nc1ccc(Cl)c(Br)c1
REMARK SMILES IDX 8 1 7 2 5 3 6 4 4 6 3 7 2 8 1 9 80 10 81 11 82 13 83 14
REMARK SMILES IDX 84 16 85 17 91 18 86 19 89 20 87 21 90 22 88 23 9 24 10 25
REMARK SMILES IDX 11 26 12 27 13 29 14 30 15 31 79 32 16 33 78 34 17 35 18 36
REMARK SMILES IDX 19 37 72 38 20 39 77 40 71 41 73 42 21 43 76 44 70 45 69 46
REMARK SMILES IDX 22 48 56 49 35 50 55 51 36 52 39 53 54 54 74 55 37 56 38 57
REMARK SMILES IDX 53 59 75 60 40 61 23 62 24 63 33 64 25 65 26 66 32 67 34 68
REMARK SMILES IDX 27 69 28 70 29 71 30 72 31 73 57 74 58 75 67 76 59 77 60 78
REMARK SMILES IDX 66 79 68 80 61 81 62 82 63 83 64 84 65 85 41 86 42 87 51 88
REMARK SMILES IDX 43 89 44 90 50 91 52 92 45 93 46 94 47 95 48 96 49 97
REMARK H PARENT 7 5 80 12 83 15 11 28 73 47 39 58
REMARK Flexibility Score: inf
ROOT
ATOM      1  C   UNL     1      -1.898  -1.218  -0.324  1.00  0.00     0.117 C 
ENDROOT
BRANCH   1   2
ATOM      2  N   UNL     1      -2.155  -0.639  -1.634  1.00  0.00    -0.356 N 
ATOM      3  C   UNL     1      -1.337  -0.427  -2.698  1.00  0.00     0.220 C 
ATOM      4  O   UNL     1      -1.832   0.030  -3.730  1.00  0.00    -0.275 OA
ATOM      5  H   UNL     1      -3.085  -0.350  -1.774  1.00  0.00     0.163 HD
BRANCH   3   6
ATOM      6  C   UNL     1       0.152  -0.664  -2.607  1.00  0.00     0.102 C 
BRANCH   6   7
ATOM      7  C   UNL     1       0.944   0.648  -2.665  1.00  0.00     0.034 C 
BRANCH   7   8
ATOM      8  C   UNL     1       0.850   1.578  -1.437  1.00  0.00     0.081 C 
ATOM      9  C   UNL     1       1.330   0.886  -0.158  1.00  0.00     0.031 C 
BRANCH   8  10
ATOM     10  N   UNL     1      -0.474   2.209  -1.342  1.00  0.00    -0.335 N 
ATOM     11  C   UNL     1      -1.042   3.143  -0.553  1.00  0.00     0.319 C 
ATOM     12  H   UNL     1      -1.099   1.865  -2.021  1.00  0.00     0.165 HD
ATOM     13  O   UNL     1      -2.274   3.220  -0.576  1.00  0.00    -0.248 OA
ATOM     14  N   UNL     1      -0.361   3.881   0.346  1.00  0.00    -0.308 N 
ATOM     15  H   UNL     1      -0.912   4.211   1.093  1.00  0.00     0.171 HD
BRANCH  14  16
ATOM     16  C   UNL     1       0.980   4.264   0.414  1.00  0.00     0.044 A 
ATOM     17  C   UNL     1       1.557   4.387   1.677  1.00  0.00     0.028 A 
ATOM     18  C   UNL     1       1.746   4.509  -0.723  1.00  0.00     0.043 A 
ATOM     19  C   UNL     1       2.937   4.568   1.794  1.00  0.00     0.024 A 
ATOM     20  C   UNL     1       3.130   4.678  -0.613  1.00  0.00     0.038 A 
ATOM     21  C   UNL     1       3.732   4.673   0.649  1.00  0.00     0.055 A 
ATOM     22  Br  UNL     1       4.119   4.821  -2.228  1.00  0.00    -0.049 Br
ATOM     23  Cl  UNL     1       5.443   4.755   0.864  1.00  0.00    -0.083 Cl
ENDBRANCH  14  16
ENDBRANCH   8  10
ENDBRANCH   7   8
ENDBRANCH   6   7
ENDBRANCH   3   6
ENDBRANCH   1   2
BRANCH   1  24
ATOM     24  C   UNL     1      -1.882  -0.193   0.810  1.00  0.00     0.042 C 
BRANCH  24  25
ATOM     25  C   UNL     1      -3.205   0.524   1.057  1.00  0.00     0.118 C 
BRANCH  25  26
ATOM     26  N   UNL     1      -4.081  -0.271   1.896  1.00  0.00    -0.352 N 
ATOM     27  C   UNL     1      -4.662   0.052   3.097  1.00  0.00     0.251 C 
ATOM     28  H   UNL     1      -4.288  -1.171   1.556  1.00  0.00     0.163 HD
ATOM     29  O   UNL     1      -5.112  -0.858   3.792  1.00  0.00    -0.269 OA
BRANCH  27  30
ATOM     30  C   UNL     1      -4.765   1.459   3.569  1.00  0.00     0.039 A 
ATOM     31  C   UNL     1      -4.699   1.696   4.947  1.00  0.00     0.014 A 
ATOM     32  C   UNL     1      -5.038   2.525   2.704  1.00  0.00     0.014 A 
ATOM     33  C   UNL     1      -4.910   2.983   5.454  1.00  0.00     0.010 A 
ATOM     34  C   UNL     1      -5.200   3.822   3.208  1.00  0.00     0.010 A 
ATOM     35  C   UNL     1      -5.166   4.060   4.590  1.00  0.00    -0.014 A 
BRANCH  35  36
ATOM     36  C   UNL     1      -5.428   5.416   5.147  1.00  0.00     0.031 A 
ATOM     37  C   UNL     1      -6.803   6.029   5.069  1.00  0.00     0.074 A 
ATOM     38  C   UNL     1      -4.428   6.096   5.742  1.00  0.00     0.049 A 
ATOM     39  N   UNL     1      -7.230   7.163   5.567  1.00  0.00    -0.248 NA
ATOM     40  C   UNL     1      -7.827   5.279   4.326  1.00  0.00     0.031 C 
ATOM     41  C   UNL     1      -3.042   5.636   5.847  1.00  0.00     0.029 A 
ATOM     42  N   UNL     1      -4.424   7.312   6.377  1.00  0.00    -0.354 N 
ATOM     43  C   UNL     1      -8.568   7.263   5.199  1.00  0.00     0.074 A 
ATOM     44  C   UNL     1      -8.868   6.097   4.396  1.00  0.00     0.031 C 
ATOM     45  C   UNL     1      -2.329   6.546   6.530  1.00  0.00     0.029 A 
ATOM     46  C   UNL     1      -3.200   7.660   6.897  1.00  0.00     0.049 A 
ATOM     47  H   UNL     1      -5.223   7.883   6.453  1.00  0.00     0.167 HD
ATOM     48  C   UNL     1      -9.470   8.224   5.518  1.00  0.00     0.037 A 
ATOM     49  C   UNL     1      -2.822   8.745   7.601  1.00  0.00     0.037 A 
ATOM     50  C   UNL     1      -9.176   9.379   6.329  1.00  0.00     0.049 A 
ATOM     51  C   UNL     1      -3.844   9.787   7.963  1.00  0.00     0.074 A 
ATOM     52  C   UNL     1     -10.035  10.383   6.744  1.00  0.00     0.029 A 
ATOM     53  N   UNL     1      -7.927   9.688   6.846  1.00  0.00    -0.354 N 
ATOM     54  N   UNL     1      -5.120   9.829   7.663  1.00  0.00    -0.248 NA
ATOM     55  C   UNL     1      -3.379  10.919   8.774  1.00  0.00     0.031 C 
ATOM     56  C   UNL     1      -9.298  11.316   7.483  1.00  0.00     0.029 A 
ATOM     57  C   UNL     1      -7.989  10.873   7.564  1.00  0.00     0.049 A 
ATOM     58  H   UNL     1      -7.115   9.146   6.721  1.00  0.00     0.167 HD
ATOM     59  C   UNL     1      -5.615  10.979   8.268  1.00  0.00     0.074 A 
ATOM     60  C   UNL     1      -4.504  11.594   8.965  1.00  0.00     0.031 C 
ATOM     61  C   UNL     1      -6.876  11.479   8.250  1.00  0.00     0.037 A 
BRANCH  48  62
ATOM     62  C   UNL     1     -10.871   8.067   4.990  1.00  0.00     0.058 A 
ATOM     63  C   UNL     1     -11.743   7.091   5.501  1.00  0.00     0.135 A 
ATOM     64  C   UNL     1     -11.364   8.925   3.994  1.00  0.00     0.135 A 
ATOM     65  F   UNL     1     -11.322   6.236   6.446  1.00  0.00    -0.206 F 
ATOM     66  C   UNL     1     -13.043   6.954   5.023  1.00  0.00     0.059 A 
ATOM     67  C   UNL     1     -12.669   8.823   3.519  1.00  0.00     0.059 A 
ATOM     68  F   UNL     1     -10.575   9.878   3.473  1.00  0.00    -0.206 F 
ATOM     69  C   UNL     1     -13.496   7.823   4.030  1.00  0.00     0.060 A 
BRANCH  69  70
ATOM     70  S   UNL     1     -15.187   7.639   3.421  1.00  0.00     0.124 S 
ATOM     71  O   UNL     1     -15.067   6.442   2.592  1.00  0.00    -0.237 OA
ATOM     72  O   UNL     1     -15.948   7.474   4.659  1.00  0.00    -0.237 OA
ATOM     73  O   UNL     1     -15.428   8.880   2.702  1.00  0.00    -0.744 OA
ENDBRANCH  69  70
ENDBRANCH  48  62
BRANCH  49  74
ATOM     74  C   UNL     1      -1.410   8.878   8.047  1.00  0.00     0.058 A 
ATOM     75  C   UNL     1      -1.059   8.717   9.396  1.00  0.00     0.135 A 
ATOM     76  C   UNL     1      -0.383   9.148   7.130  1.00  0.00     0.135 A 
ATOM     77  F   UNL     1      -2.008   8.463  10.310  1.00  0.00    -0.206 F 
ATOM     78  C   UNL     1       0.259   8.831   9.824  1.00  0.00     0.059 A 
ATOM     79  C   UNL     1       0.946   9.244   7.530  1.00  0.00     0.059 A 
ATOM     80  F   UNL     1      -0.665   9.291   5.826  1.00  0.00    -0.206 F 
ATOM     81  C   UNL     1       1.256   9.091   8.882  1.00  0.00     0.060 A 
BRANCH  81  82
ATOM     82  S   UNL     1       2.974   9.169   9.432  1.00  0.00     0.124 S 
ATOM     83  O   UNL     1       3.023  10.485  10.057  1.00  0.00    -0.237 OA
ATOM     84  O   UNL     1       3.059   8.027  10.337  1.00  0.00    -0.237 OA
ATOM     85  O   UNL     1       3.727   9.028   8.189  1.00  0.00    -0.744 OA
ENDBRANCH  81  82
ENDBRANCH  49  74
BRANCH  61  86
ATOM     86  C   UNL     1      -7.123  12.742   9.029  1.00  0.00     0.058 A 
ATOM     87  C   UNL     1      -6.639  13.985   8.592  1.00  0.00     0.135 A 
ATOM     88  C   UNL     1      -7.859  12.709  10.225  1.00  0.00     0.135 A 
ATOM     89  F   UNL     1      -5.926  14.072   7.458  1.00  0.00    -0.206 F 
ATOM     90  C   UNL     1      -6.840  15.145   9.334  1.00  0.00     0.059 A 
ATOM     91  C   UNL     1      -8.094  13.861  10.970  1.00  0.00     0.059 A 
ATOM     92  F   UNL     1      -8.356  11.548  10.681  1.00  0.00    -0.206 F 
ATOM     93  C   UNL     1      -7.562  15.071  10.527  1.00  0.00     0.060 A 
BRANCH  93  94
ATOM     94  S   UNL     1      -7.811  16.579  11.488  1.00  0.00     0.124 S 
ATOM     95  O   UNL     1      -6.511  16.731  12.135  1.00  0.00    -0.237 OA
ATOM     96  O   UNL     1      -8.125  17.564  10.458  1.00  0.00    -0.237 OA
ATOM     97  O   UNL     1      -8.918  16.235  12.376  1.00  0.00    -0.744 OA
ENDBRANCH  93  94
ENDBRANCH  61  86
ENDBRANCH  35  36
ENDBRANCH  27  30
ENDBRANCH  25  26
ENDBRANCH  24  25
ENDBRANCH   1  24
TORSDOF 17
