REMARK SMILES O=C(NCCCNC(=O)c1ccc(-c2c3nc(c(-c4c(F)cc(S(=O)(=O)[O-])cc4F)c4ccc([nH]4)c(-c4c(F)cc(S(=O)(=O)[O-])cc4F)c4nc(c(-c5c(F)cc(S(=O)(=O)[O-])cc5F)c5ccc2[nH]5)C=C4)C=C3)cc1)C1=Cc2c(Cl)cc(Cl)cc2O[C@@H]1C(F)(F)F
REMARK SMILES IDX 6 1 5 2 4 3 3 4 1 5 2 6 76 8 77 9 87 10 78 11 86 12 79 13
REMARK SMILES IDX 85 14 80 15 81 16 84 17 82 18 83 19 88 20 89 21 90 22 91 23
REMARK SMILES IDX 7 24 8 25 9 27 10 28 11 29 75 30 12 31 74 32 13 33 14 34
REMARK SMILES IDX 15 35 68 36 16 37 73 38 67 39 69 40 17 41 72 42 66 43 65 44
REMARK SMILES IDX 18 46 52 47 31 48 51 49 32 50 35 51 50 52 70 53 33 54 34 55
REMARK SMILES IDX 49 57 71 58 36 59 19 60 20 61 29 62 21 63 22 64 28 65 30 66
REMARK SMILES IDX 23 67 24 68 25 69 26 70 27 71 53 72 54 73 63 74 55 75 56 76
REMARK SMILES IDX 62 77 64 78 57 79 58 80 59 81 60 82 61 83 37 84 38 85 47 86
REMARK SMILES IDX 39 87 40 88 46 89 48 90 41 91 42 92 43 93 44 94 45 95
REMARK H PARENT 3 7 7 26 69 45 35 56
REMARK Flexibility Score: inf
ROOT
ATOM      1  C   UNL     1       4.086  -4.014   1.006  1.00  0.00     0.118 C 
ENDROOT
BRANCH   1   2
ATOM      2  C   UNL     1       4.195  -2.509   1.223  1.00  0.00     0.042 C 
BRANCH   2   3
ATOM      3  C   UNL     1       3.407  -1.709   0.192  1.00  0.00     0.118 C 
BRANCH   3   4
ATOM      4  N   UNL     1       2.392  -0.833   0.780  1.00  0.00    -0.352 N 
ATOM      5  O   UNL     1       1.191   1.073   1.044  1.00  0.00    -0.270 OA
ATOM      6  C   UNL     1       2.225   0.528   0.684  1.00  0.00     0.251 C 
ATOM      7  H   UNL     1       1.720  -1.294   1.333  1.00  0.00     0.163 HD
BRANCH   6   8
ATOM      8  C   UNL     1       3.311   1.297   0.049  1.00  0.00     0.067 C 
ATOM      9  C   UNL     1       4.471   1.404   0.709  1.00  0.00     0.027 C 
ATOM     10  C   UNL     1       3.186   1.571  -1.412  1.00  0.00     0.314 C 
ATOM     11  C   UNL     1       5.634   1.000  -0.106  1.00  0.00     0.036 A 
ATOM     12  O   UNL     1       4.286   1.017  -2.171  1.00  0.00    -0.475 OA
ATOM     13  C   UNL     1       6.797   0.505   0.517  1.00  0.00     0.053 A 
ATOM     14  C   UNL     1       5.433   0.713  -1.475  1.00  0.00     0.130 A 
ATOM     15  Cl  UNL     1       7.130   0.764   2.196  1.00  0.00    -0.083 Cl
ATOM     16  C   UNL     1       7.668  -0.338  -0.177  1.00  0.00     0.042 A 
ATOM     17  C   UNL     1       6.322  -0.108  -2.171  1.00  0.00     0.067 A 
ATOM     18  C   UNL     1       7.411  -0.660  -1.506  1.00  0.00     0.046 A 
ATOM     19  Cl  UNL     1       8.399  -1.815  -2.309  1.00  0.00    -0.084 Cl
BRANCH  10  20
ATOM     20  C   UNL     1       3.051   3.079  -1.673  1.00  0.00     0.429 C 
ATOM     21  F   UNL     1       2.772   3.325  -2.977  1.00  0.00    -0.167 F 
ATOM     22  F   UNL     1       2.051   3.634  -0.950  1.00  0.00    -0.167 F 
ATOM     23  F   UNL     1       4.187   3.755  -1.375  1.00  0.00    -0.167 F 
ENDBRANCH  10  20
ENDBRANCH   6   8
ENDBRANCH   3   4
ENDBRANCH   2   3
ENDBRANCH   1   2
BRANCH   1  24
ATOM     24  N   UNL     1       4.661  -4.476  -0.252  1.00  0.00    -0.352 N 
ATOM     25  C   UNL     1       5.480  -5.557  -0.521  1.00  0.00     0.251 C 
ATOM     26  H   UNL     1       4.427  -3.930  -1.037  1.00  0.00     0.163 HD
ATOM     27  O   UNL     1       5.893  -5.725  -1.655  1.00  0.00    -0.269 OA
BRANCH  25  28
ATOM     28  C   UNL     1       5.886  -6.481   0.569  1.00  0.00     0.039 A 
ATOM     29  C   UNL     1       7.189  -6.987   0.577  1.00  0.00     0.014 A 
ATOM     30  C   UNL     1       5.001  -6.837   1.585  1.00  0.00     0.014 A 
ATOM     31  C   UNL     1       7.618  -7.782   1.644  1.00  0.00     0.010 A 
ATOM     32  C   UNL     1       5.467  -7.510   2.707  1.00  0.00     0.010 A 
ATOM     33  C   UNL     1       6.773  -8.015   2.742  1.00  0.00    -0.014 A 
BRANCH  33  34
ATOM     34  C   UNL     1       7.214  -8.814   3.915  1.00  0.00     0.031 A 
ATOM     35  C   UNL     1       6.444 -10.050   4.315  1.00  0.00     0.074 A 
ATOM     36  C   UNL     1       8.257  -8.395   4.660  1.00  0.00     0.049 A 
ATOM     37  N   UNL     1       6.621 -10.840   5.342  1.00  0.00    -0.248 NA
ATOM     38  C   UNL     1       5.290 -10.418   3.477  1.00  0.00     0.031 C 
ATOM     39  C   UNL     1       9.028  -7.170   4.430  1.00  0.00     0.029 A 
ATOM     40  N   UNL     1       8.849  -8.951   5.765  1.00  0.00    -0.354 N 
ATOM     41  C   UNL     1       5.588 -11.769   5.288  1.00  0.00     0.074 A 
ATOM     42  C   UNL     1       4.744 -11.400   4.176  1.00  0.00     0.031 C 
ATOM     43  C   UNL     1      10.017  -7.092   5.335  1.00  0.00     0.029 A 
ATOM     44  C   UNL     1       9.932  -8.242   6.229  1.00  0.00     0.049 A 
ATOM     45  H   UNL     1       8.529  -9.781   6.187  1.00  0.00     0.167 HD
ATOM     46  C   UNL     1       5.380 -12.858   6.067  1.00  0.00     0.037 A 
ATOM     47  C   UNL     1      10.769  -8.497   7.253  1.00  0.00     0.037 A 
ATOM     48  C   UNL     1       6.262 -13.254   7.133  1.00  0.00     0.049 A 
ATOM     49  C   UNL     1      10.565  -9.752   8.058  1.00  0.00     0.074 A 
ATOM     50  C   UNL     1       6.195 -14.377   7.937  1.00  0.00     0.029 A 
ATOM     51  N   UNL     1       7.385 -12.542   7.531  1.00  0.00    -0.354 N 
ATOM     52  N   UNL     1       9.620 -10.657   7.950  1.00  0.00    -0.248 NA
ATOM     53  C   UNL     1      11.551 -10.032   9.109  1.00  0.00     0.031 C 
ATOM     54  C   UNL     1       7.261 -14.329   8.843  1.00  0.00     0.029 A 
ATOM     55  C   UNL     1       8.017 -13.199   8.573  1.00  0.00     0.049 A 
ATOM     56  H   UNL     1       7.688 -11.695   7.131  1.00  0.00     0.167 HD
ATOM     57  C   UNL     1       9.911 -11.626   8.904  1.00  0.00     0.074 A 
ATOM     58  C   UNL     1      11.132 -11.206   9.561  1.00  0.00     0.031 C 
ATOM     59  C   UNL     1       9.232 -12.759   9.211  1.00  0.00     0.037 A 
BRANCH  46  60
ATOM     60  C   UNL     1       4.170 -13.704   5.775  1.00  0.00     0.058 A 
ATOM     61  C   UNL     1       4.067 -14.463   4.596  1.00  0.00     0.135 A 
ATOM     62  C   UNL     1       3.104 -13.770   6.687  1.00  0.00     0.135 A 
ATOM     63  F   UNL     1       5.046 -14.425   3.679  1.00  0.00    -0.206 F 
ATOM     64  C   UNL     1       2.937 -15.224   4.315  1.00  0.00     0.059 A 
ATOM     65  C   UNL     1       1.977 -14.550   6.441  1.00  0.00     0.059 A 
ATOM     66  F   UNL     1       3.146 -13.065   7.828  1.00  0.00    -0.206 F 
ATOM     67  C   UNL     1       1.896 -15.260   5.243  1.00  0.00     0.060 A 
BRANCH  67  68
ATOM     68  S   UNL     1       0.438 -16.255   4.864  1.00  0.00     0.124 S 
ATOM     69  O   UNL     1      -0.216 -15.437   3.848  1.00  0.00    -0.237 OA
ATOM     70  O   UNL     1       1.027 -17.503   4.389  1.00  0.00    -0.237 OA
ATOM     71  O   UNL     1      -0.257 -16.340   6.145  1.00  0.00    -0.744 OA
ENDBRANCH  67  68
ENDBRANCH  46  60
BRANCH  47  72
ATOM     72  C   UNL     1      11.905  -7.579   7.537  1.00  0.00     0.058 A 
ATOM     73  C   UNL     1      13.227  -7.964   7.263  1.00  0.00     0.135 A 
ATOM     74  C   UNL     1      11.696  -6.298   8.068  1.00  0.00     0.135 A 
ATOM     75  F   UNL     1      13.479  -9.180   6.756  1.00  0.00    -0.206 F 
ATOM     76  C   UNL     1      14.303  -7.122   7.526  1.00  0.00     0.059 A 
ATOM     77  C   UNL     1      12.754  -5.427   8.316  1.00  0.00     0.059 A 
ATOM     78  F   UNL     1      10.450  -5.872   8.328  1.00  0.00    -0.206 F 
ATOM     79  C   UNL     1      14.055  -5.853   8.051  1.00  0.00     0.060 A 
BRANCH  79  80
ATOM     80  S   UNL     1      15.454  -4.748   8.343  1.00  0.00     0.124 S 
ATOM     81  O   UNL     1      16.053  -5.340   9.533  1.00  0.00    -0.237 OA
ATOM     82  O   UNL     1      16.218  -4.887   7.106  1.00  0.00    -0.237 OA
ATOM     83  O   UNL     1      14.819  -3.447   8.534  1.00  0.00    -0.744 OA
ENDBRANCH  79  80
ENDBRANCH  47  72
BRANCH  59  84
ATOM     84  C   UNL     1       9.819 -13.634  10.282  1.00  0.00     0.058 A 
ATOM     85  C   UNL     1       9.808 -13.255  11.633  1.00  0.00     0.135 A 
ATOM     86  C   UNL     1      10.395 -14.871   9.950  1.00  0.00     0.135 A 
ATOM     87  F   UNL     1       9.270 -12.081  12.002  1.00  0.00    -0.206 F 
ATOM     88  C   UNL     1      10.393 -14.049  12.614  1.00  0.00     0.059 A 
ATOM     89  C   UNL     1      10.958 -15.695  10.918  1.00  0.00     0.059 A 
ATOM     90  F   UNL     1      10.415 -15.289   8.675  1.00  0.00    -0.206 F 
ATOM     91  C   UNL     1      10.973 -15.264  12.244  1.00  0.00     0.060 A 
BRANCH  91  92
ATOM     92  S   UNL     1      11.746 -16.279  13.520  1.00  0.00     0.124 S 
ATOM     93  O   UNL     1      13.002 -15.570  13.737  1.00  0.00    -0.237 OA
ATOM     94  O   UNL     1      10.778 -16.204  14.611  1.00  0.00    -0.237 OA
ATOM     95  O   UNL     1      11.864 -17.588  12.886  1.00  0.00    -0.744 OA
ENDBRANCH  91  92
ENDBRANCH  59  84
ENDBRANCH  33  34
ENDBRANCH  25  28
ENDBRANCH   1  24
TORSDOF 14
