REMARK SMILES CCCn1cc(S(=O)(=O)N[C@H]2C=C[C@@H](C(=O)NCCCNC(=O)c3ccc(-c4c5nc(c(-c6c(F)cc(S(=O)(=O)[O-])cc6F)c6ccc([nH]6)c(-c6c(F)cc(S(=O)(=O)[O-])cc6F)c6nc(c(-c7c(F)cc(S(=O)(=O)[O-])cc7F)c7ccc4[nH]7)C=C6)C=C5)cc3)C2)nc1C
REMARK SMILES IDX 18 1 17 2 15 3 16 4 14 6 11 7 12 8 90 9 13 10 10 11 7 13
REMARK SMILES IDX 8 14 9 15 6 16 4 17 5 18 92 19 91 20 93 21 3 22 2 23 1 24
REMARK SMILES IDX 19 25 20 26 21 27 22 28 23 30 24 31 25 32 89 33 26 34 88 35
REMARK SMILES IDX 27 36 28 37 29 38 82 39 30 40 87 41 81 42 83 43 31 44 86 45
REMARK SMILES IDX 80 46 79 47 32 49 66 50 45 51 65 52 46 53 49 54 64 55 84 56
REMARK SMILES IDX 47 57 48 58 63 60 85 61 50 62 33 63 34 64 43 65 35 66 36 67
REMARK SMILES IDX 42 68 44 69 37 70 38 71 39 72 40 73 41 74 67 75 68 76 77 77
REMARK SMILES IDX 69 78 70 79 76 80 78 81 71 82 72 83 73 84 74 85 75 86 51 87
REMARK SMILES IDX 52 88 61 89 53 90 54 91 60 92 62 93 55 94 56 95 57 96 58 97
REMARK SMILES IDX 59 98
REMARK H PARENT 17 5 10 12 21 29 83 48 49 59
REMARK Flexibility Score: inf
ROOT
ATOM      1  C   UNL     1      -0.340  -5.011   9.362  1.00  0.00     0.117 C 
ENDROOT
BRANCH   1   2
ATOM      2  N   UNL     1       0.358  -6.286   9.326  1.00  0.00    -0.356 N 
ATOM      3  C   UNL     1       1.235  -6.818   8.430  1.00  0.00     0.226 C 
ATOM      4  O   UNL     1       1.776  -7.884   8.739  1.00  0.00    -0.274 OA
ATOM      5  H   UNL     1       0.160  -6.874  10.090  1.00  0.00     0.163 HD
BRANCH   3   6
ATOM      6  C   UNL     1       1.581  -6.155   7.094  1.00  0.00     0.103 C 
ATOM      7  C   UNL     1       0.467  -4.452   5.695  1.00  0.00     0.093 C 
ATOM      8  C   UNL     1       1.575  -3.883   6.511  1.00  0.00    -0.011 C 
ATOM      9  C   UNL     1       0.398  -5.925   6.149  1.00  0.00     0.042 C 
ATOM     10  C   UNL     1       2.196  -4.804   7.253  1.00  0.00    -0.016 C 
BRANCH   7  11
ATOM     11  N   UNL     1      -0.836  -3.819   5.915  1.00  0.00    -0.203 NA
ATOM     12  H   UNL     1      -1.484  -4.259   5.262  1.00  0.00     0.142 HD
BRANCH  11  13
ATOM     13  S   UNL     1      -1.045  -2.153   5.743  1.00  0.00     0.260 S 
ATOM     14  O   UNL     1      -0.296  -1.513   6.798  1.00  0.00    -0.205 OA
ATOM     15  O   UNL     1      -2.472  -1.938   5.595  1.00  0.00    -0.205 OA
BRANCH  13  16
ATOM     16  C   UNL     1      -0.345  -1.616   4.244  1.00  0.00     0.188 A 
ATOM     17  N   UNL     1       0.489  -1.593   2.221  1.00  0.00    -0.334 N 
ATOM     18  C   UNL     1      -0.283  -2.342   3.073  1.00  0.00     0.129 A 
ATOM     19  C   UNL     1       0.799  -0.415   2.867  1.00  0.00     0.107 A 
ATOM     20  N   UNL     1       0.305  -0.410   4.089  1.00  0.00    -0.221 NA
ATOM     21  C   UNL     1       1.593   0.701   2.297  1.00  0.00     0.088 C 
BRANCH  17  22
ATOM     22  C   UNL     1       1.029  -2.096   0.973  1.00  0.00     0.123 C 
BRANCH  22  23
ATOM     23  C   UNL     1       0.279  -1.679  -0.291  1.00  0.00     0.018 C 
ATOM     24  C   UNL     1       0.586  -0.262  -0.747  1.00  0.00     0.006 C 
ENDBRANCH  22  23
ENDBRANCH  17  22
ENDBRANCH  13  16
ENDBRANCH  11  13
ENDBRANCH   7  11
ENDBRANCH   3   6
ENDBRANCH   1   2
BRANCH   1  25
ATOM     25  C   UNL     1      -1.838  -5.133   9.072  1.00  0.00     0.042 C 
BRANCH  25  26
ATOM     26  C   UNL     1      -2.612  -5.737  10.227  1.00  0.00     0.118 C 
BRANCH  26  27
ATOM     27  N   UNL     1      -2.685  -4.846  11.386  1.00  0.00    -0.352 N 
ATOM     28  C   UNL     1      -3.284  -5.093  12.607  1.00  0.00     0.251 C 
ATOM     29  H   UNL     1      -2.255  -3.966  11.284  1.00  0.00     0.163 HD
ATOM     30  O   UNL     1      -3.579  -4.172  13.359  1.00  0.00    -0.269 OA
BRANCH  28  31
ATOM     31  C   UNL     1      -3.573  -6.490  12.973  1.00  0.00     0.039 A 
ATOM     32  C   UNL     1      -4.787  -6.856  13.555  1.00  0.00     0.014 A 
ATOM     33  C   UNL     1      -2.622  -7.450  12.643  1.00  0.00     0.014 A 
ATOM     34  C   UNL     1      -5.068  -8.211  13.715  1.00  0.00     0.010 A 
ATOM     35  C   UNL     1      -2.981  -8.772  12.618  1.00  0.00     0.010 A 
ATOM     36  C   UNL     1      -4.170  -9.169  13.215  1.00  0.00    -0.014 A 
BRANCH  36  37
ATOM     37  C   UNL     1      -4.509 -10.590  13.224  1.00  0.00     0.031 A 
ATOM     38  C   UNL     1      -5.850 -10.918  12.663  1.00  0.00     0.074 A 
ATOM     39  C   UNL     1      -3.616 -11.563  13.512  1.00  0.00     0.049 A 
ATOM     40  N   UNL     1      -6.881 -11.374  13.293  1.00  0.00    -0.248 NA
ATOM     41  C   UNL     1      -6.123 -10.564  11.259  1.00  0.00     0.031 C 
ATOM     42  C   UNL     1      -2.175 -11.447  13.767  1.00  0.00     0.029 A 
ATOM     43  N   UNL     1      -3.803 -12.910  13.526  1.00  0.00    -0.354 N 
ATOM     44  C   UNL     1      -7.857 -11.591  12.325  1.00  0.00     0.074 A 
ATOM     45  C   UNL     1      -7.409 -10.901  11.142  1.00  0.00     0.031 C 
ATOM     46  C   UNL     1      -1.592 -12.660  13.652  1.00  0.00     0.029 A 
ATOM     47  C   UNL     1      -2.632 -13.659  13.505  1.00  0.00     0.049 A 
ATOM     48  H   UNL     1      -4.697 -13.322  13.549  1.00  0.00     0.167 HD
ATOM     49  C   UNL     1      -8.836 -12.523  12.497  1.00  0.00     0.037 A 
ATOM     50  C   UNL     1      -2.529 -15.003  13.349  1.00  0.00     0.037 A 
ATOM     51  C   UNL     1      -8.962 -12.906  13.881  1.00  0.00     0.049 A 
ATOM     52  C   UNL     1      -3.854 -15.575  13.713  1.00  0.00     0.074 A 
ATOM     53  C   UNL     1      -9.177 -12.206  15.055  1.00  0.00     0.029 A 
ATOM     54  N   UNL     1      -8.446 -14.119  14.272  1.00  0.00    -0.354 N 
ATOM     55  N   UNL     1      -4.358 -15.532  14.918  1.00  0.00    -0.248 NA
ATOM     56  C   UNL     1      -4.819 -15.763  12.641  1.00  0.00     0.031 C 
ATOM     57  C   UNL     1      -8.293 -12.803  16.003  1.00  0.00     0.029 A 
ATOM     58  C   UNL     1      -7.665 -13.881  15.378  1.00  0.00     0.049 A 
ATOM     59  H   UNL     1      -8.605 -14.991  13.842  1.00  0.00     0.167 HD
ATOM     60  C   UNL     1      -5.705 -15.256  14.732  1.00  0.00     0.074 A 
ATOM     61  C   UNL     1      -5.943 -15.486  13.307  1.00  0.00     0.031 C 
ATOM     62  C   UNL     1      -6.441 -14.596  15.675  1.00  0.00     0.037 A 
BRANCH  49  63
ATOM     63  C   UNL     1      -9.433 -13.329  11.368  1.00  0.00     0.058 A 
ATOM     64  C   UNL     1     -10.591 -14.100  11.588  1.00  0.00     0.135 A 
ATOM     65  C   UNL     1      -8.763 -13.573  10.147  1.00  0.00     0.135 A 
ATOM     66  F   UNL     1     -11.288 -13.975  12.729  1.00  0.00    -0.206 F 
ATOM     67  C   UNL     1     -11.027 -15.069  10.681  1.00  0.00     0.059 A 
ATOM     68  C   UNL     1      -9.212 -14.490   9.205  1.00  0.00     0.059 A 
ATOM     69  F   UNL     1      -7.587 -13.006   9.853  1.00  0.00    -0.206 F 
ATOM     70  C   UNL     1     -10.325 -15.260   9.495  1.00  0.00     0.060 A 
BRANCH  70  71
ATOM     71  S   UNL     1     -10.839 -16.556   8.355  1.00  0.00     0.124 S 
ATOM     72  O   UNL     1     -10.471 -17.757   9.096  1.00  0.00    -0.237 OA
ATOM     73  O   UNL     1     -12.269 -16.296   8.225  1.00  0.00    -0.237 OA
ATOM     74  O   UNL     1     -10.048 -16.283   7.158  1.00  0.00    -0.744 OA
ENDBRANCH  70  71
ENDBRANCH  49  63
BRANCH  50  75
ATOM     75  C   UNL     1      -1.510 -15.756  12.566  1.00  0.00     0.058 A 
ATOM     76  C   UNL     1      -1.456 -17.161  12.616  1.00  0.00     0.135 A 
ATOM     77  C   UNL     1      -0.765 -15.147  11.534  1.00  0.00     0.135 A 
ATOM     78  F   UNL     1      -2.141 -17.828  13.558  1.00  0.00    -0.206 F 
ATOM     79  C   UNL     1      -0.767 -17.919  11.661  1.00  0.00     0.059 A 
ATOM     80  C   UNL     1      -0.060 -15.881  10.579  1.00  0.00     0.059 A 
ATOM     81  F   UNL     1      -0.774 -13.818  11.361  1.00  0.00    -0.206 F 
ATOM     82  C   UNL     1      -0.093 -17.268  10.629  1.00  0.00     0.060 A 
BRANCH  82  83
ATOM     83  S   UNL     1       0.619 -18.240   9.279  1.00  0.00     0.124 S 
ATOM     84  O   UNL     1       1.754 -18.880   9.934  1.00  0.00    -0.237 OA
ATOM     85  O   UNL     1      -0.486 -19.119   8.914  1.00  0.00    -0.237 OA
ATOM     86  O   UNL     1       0.963 -17.231   8.280  1.00  0.00    -0.744 OA
ENDBRANCH  82  83
ENDBRANCH  50  75
BRANCH  62  87
ATOM     87  C   UNL     1      -5.856 -14.394  17.054  1.00  0.00     0.058 A 
ATOM     88  C   UNL     1      -4.683 -13.667  17.332  1.00  0.00     0.135 A 
ATOM     89  C   UNL     1      -6.613 -14.818  18.158  1.00  0.00     0.135 A 
ATOM     90  F   UNL     1      -3.952 -13.131  16.346  1.00  0.00    -0.206 F 
ATOM     91  C   UNL     1      -4.264 -13.412  18.641  1.00  0.00     0.059 A 
ATOM     92  C   UNL     1      -6.232 -14.547  19.470  1.00  0.00     0.059 A 
ATOM     93  F   UNL     1      -7.775 -15.465  17.967  1.00  0.00    -0.206 F 
ATOM     94  C   UNL     1      -5.048 -13.854  19.706  1.00  0.00     0.060 A 
BRANCH  94  95
ATOM     95  S   UNL     1      -4.544 -13.465  21.396  1.00  0.00     0.124 S 
ATOM     96  O   UNL     1      -3.371 -14.316  21.571  1.00  0.00    -0.237 OA
ATOM     97  O   UNL     1      -4.282 -12.030  21.328  1.00  0.00    -0.237 OA
ATOM     98  O   UNL     1      -5.709 -13.839  22.195  1.00  0.00    -0.744 OA
ENDBRANCH  94  95
ENDBRANCH  62  87
ENDBRANCH  36  37
ENDBRANCH  28  31
ENDBRANCH  26  27
ENDBRANCH  25  26
ENDBRANCH   1  25
TORSDOF 18
