REMARK SMILES O=C(CSc1ccc2ccccc2c1)NCCCNC(=O)c1ccc(-c2c3nc(c(-c4c(F)cc(S(=O)(=O)[O-])cc4F)c4ccc([nH]4)c(-c4c(F)cc(S(=O)(=O)[O-])cc4F)c4nc(c(-c5c(F)cc(S(=O)(=O)[O-])cc5F)c5ccc2[nH]5)C=C4)C=C3)cc1
REMARK SMILES IDX 17 1 16 2 15 3 1 4 2 5 3 7 4 8 5 9 6 10 14 11 7 12 13 13
REMARK SMILES IDX 8 14 12 15 9 16 11 17 10 18 18 19 19 20 20 21 21 23 22 24
REMARK SMILES IDX 23 25 87 26 24 27 86 28 25 29 26 30 27 31 80 32 28 33 85 34
REMARK SMILES IDX 79 35 81 36 29 37 84 38 78 39 77 40 30 42 64 43 43 44 63 45
REMARK SMILES IDX 44 46 47 47 62 48 82 49 45 50 46 51 61 53 83 54 48 55 31 56
REMARK SMILES IDX 32 57 41 58 33 59 34 60 40 61 42 62 35 63 36 64 37 65 38 66
REMARK SMILES IDX 39 67 65 68 66 69 75 70 67 71 68 72 74 73 76 74 69 75 70 76
REMARK SMILES IDX 71 77 72 78 73 79 49 80 50 81 59 82 51 83 52 84 58 85 60 86
REMARK SMILES IDX 53 87 54 88 55 89 56 90 57 91
REMARK H PARENT 15 6 19 22 81 41 47 52
REMARK Flexibility Score: inf
ROOT
ATOM      1  C   UNL     1       2.369   0.371   3.471  1.00  0.00     0.042 C 
ENDROOT
BRANCH   1   2
ATOM      2  C   UNL     1       2.086   1.163   2.198  1.00  0.00     0.117 C 
BRANCH   2   3
ATOM      3  N   UNL     1       2.739   0.606   1.031  1.00  0.00    -0.355 N 
ATOM      4  O   UNL     1       0.826  -0.132  -0.010  1.00  0.00    -0.274 OA
ATOM      5  C   UNL     1       2.044   0.029  -0.012  1.00  0.00     0.230 C 
ATOM      6  H   UNL     1       3.721   0.640   0.980  1.00  0.00     0.163 HD
BRANCH   5   7
ATOM      7  C   UNL     1       2.911  -0.489  -1.147  1.00  0.00     0.174 C 
BRANCH   7   8
ATOM      8  S   UNL     1       4.112   0.754  -1.735  1.00  0.00    -0.116 SA
BRANCH   8   9
ATOM      9  C   UNL     1       3.061   2.092  -2.286  1.00  0.00     0.008 A 
ATOM     10  C   UNL     1       3.508   3.398  -2.065  1.00  0.00     0.016 A 
ATOM     11  C   UNL     1       1.859   1.897  -2.974  1.00  0.00     0.023 A 
ATOM     12  C   UNL     1       2.762   4.493  -2.509  1.00  0.00     0.010 A 
ATOM     13  C   UNL     1       1.096   2.990  -3.431  1.00  0.00    -0.017 A 
ATOM     14  C   UNL     1       1.556   4.305  -3.197  1.00  0.00    -0.018 A 
ATOM     15  C   UNL     1      -0.112   2.803  -4.123  1.00  0.00     0.009 A 
ATOM     16  C   UNL     1       0.801   5.394  -3.662  1.00  0.00     0.009 A 
ATOM     17  C   UNL     1      -0.852   3.895  -4.581  1.00  0.00     0.001 A 
ATOM     18  C   UNL     1      -0.395   5.189  -4.351  1.00  0.00     0.001 A 
ENDBRANCH   8   9
ENDBRANCH   7   8
ENDBRANCH   5   7
ENDBRANCH   2   3
ENDBRANCH   1   2
BRANCH   1  19
ATOM     19  C   UNL     1       3.837   0.319   3.892  1.00  0.00     0.118 C 
BRANCH  19  20
ATOM     20  N   UNL     1       4.407   1.629   4.167  1.00  0.00    -0.352 N 
ATOM     21  C   UNL     1       5.148   2.083   5.230  1.00  0.00     0.251 C 
ATOM     22  H   UNL     1       4.231   2.305   3.473  1.00  0.00     0.163 HD
ATOM     23  O   UNL     1       5.420   3.283   5.284  1.00  0.00    -0.269 OA
BRANCH  21  24
ATOM     24  C   UNL     1       5.601   1.179   6.315  1.00  0.00     0.039 A 
ATOM     25  C   UNL     1       5.609   1.675   7.624  1.00  0.00     0.014 A 
ATOM     26  C   UNL     1       6.064  -0.117   6.071  1.00  0.00     0.014 A 
ATOM     27  C   UNL     1       6.024   0.861   8.683  1.00  0.00     0.010 A 
ATOM     28  C   UNL     1       6.412  -0.952   7.136  1.00  0.00     0.010 A 
ATOM     29  C   UNL     1       6.398  -0.473   8.454  1.00  0.00    -0.014 A 
BRANCH  29  30
ATOM     30  C   UNL     1       6.752  -1.364   9.594  1.00  0.00     0.031 A 
ATOM     31  C   UNL     1       8.142  -1.923   9.743  1.00  0.00     0.074 A 
ATOM     32  C   UNL     1       5.801  -1.695  10.492  1.00  0.00     0.049 A 
ATOM     33  N   UNL     1       8.627  -2.692  10.686  1.00  0.00    -0.248 NA
ATOM     34  C   UNL     1       9.109  -1.596   8.684  1.00  0.00     0.031 C 
ATOM     35  C   UNL     1       4.398  -1.277  10.429  1.00  0.00     0.029 A 
ATOM     36  N   UNL     1       5.867  -2.455  11.633  1.00  0.00    -0.354 N 
ATOM     37  C   UNL     1       9.947  -2.947  10.333  1.00  0.00     0.074 A 
ATOM     38  C   UNL     1      10.173  -2.293   9.061  1.00  0.00     0.031 C 
ATOM     39  C   UNL     1       3.747  -1.756  11.500  1.00  0.00     0.029 A 
ATOM     40  C   UNL     1       4.675  -2.536  12.313  1.00  0.00     0.049 A 
ATOM     41  H   UNL     1       6.691  -2.901  11.935  1.00  0.00     0.167 HD
ATOM     42  C   UNL     1      10.892  -3.641  11.014  1.00  0.00     0.037 A 
ATOM     43  C   UNL     1       4.363  -3.158  13.467  1.00  0.00     0.037 A 
ATOM     44  C   UNL     1      10.672  -4.273  12.291  1.00  0.00     0.049 A 
ATOM     45  C   UNL     1       5.437  -3.888  14.223  1.00  0.00     0.074 A 
ATOM     46  C   UNL     1      11.582  -4.951  13.085  1.00  0.00     0.029 A 
ATOM     47  N   UNL     1       9.459  -4.306  12.962  1.00  0.00    -0.354 N 
ATOM     48  N   UNL     1       6.699  -4.058  13.907  1.00  0.00    -0.248 NA
ATOM     49  C   UNL     1       5.049  -4.495  15.504  1.00  0.00     0.031 C 
ATOM     50  C   UNL     1      10.911  -5.424  14.219  1.00  0.00     0.029 A 
ATOM     51  C   UNL     1       9.593  -5.002  14.154  1.00  0.00     0.049 A 
ATOM     52  H   UNL     1       8.624  -3.896  12.639  1.00  0.00     0.167 HD
ATOM     53  C   UNL     1       7.261  -4.772  14.960  1.00  0.00     0.074 A 
ATOM     54  C   UNL     1       6.206  -4.984  15.930  1.00  0.00     0.031 C 
ATOM     55  C   UNL     1       8.535  -5.211  15.110  1.00  0.00     0.037 A 
BRANCH  42  56
ATOM     56  C   UNL     1      12.260  -3.745  10.395  1.00  0.00     0.058 A 
ATOM     57  C   UNL     1      13.117  -2.635  10.315  1.00  0.00     0.135 A 
ATOM     58  C   UNL     1      12.736  -4.973   9.909  1.00  0.00     0.135 A 
ATOM     59  F   UNL     1      12.710  -1.433  10.752  1.00  0.00    -0.206 F 
ATOM     60  C   UNL     1      14.384  -2.732   9.747  1.00  0.00     0.059 A 
ATOM     61  C   UNL     1      14.011  -5.100   9.362  1.00  0.00     0.059 A 
ATOM     62  F   UNL     1      11.961  -6.068   9.963  1.00  0.00    -0.206 F 
ATOM     63  C   UNL     1      14.821  -3.968   9.270  1.00  0.00     0.060 A 
BRANCH  63  64
ATOM     64  S   UNL     1      16.467  -4.080   8.536  1.00  0.00     0.124 S 
ATOM     65  O   UNL     1      16.252  -3.432   7.245  1.00  0.00    -0.237 OA
ATOM     66  O   UNL     1      17.286  -3.334   9.489  1.00  0.00    -0.237 OA
ATOM     67  O   UNL     1      16.721  -5.514   8.484  1.00  0.00    -0.744 OA
ENDBRANCH  63  64
ENDBRANCH  42  56
BRANCH  43  68
ATOM     68  C   UNL     1       2.977  -3.076  14.000  1.00  0.00     0.058 A 
ATOM     69  C   UNL     1       2.685  -2.301  15.132  1.00  0.00     0.135 A 
ATOM     70  C   UNL     1       1.918  -3.760  13.383  1.00  0.00     0.135 A 
ATOM     71  F   UNL     1       3.666  -1.634  15.759  1.00  0.00    -0.206 F 
ATOM     72  C   UNL     1       1.395  -2.218  15.645  1.00  0.00     0.059 A 
ATOM     73  C   UNL     1       0.615  -3.673  13.863  1.00  0.00     0.059 A 
ATOM     74  F   UNL     1       2.144  -4.500  12.287  1.00  0.00    -0.206 F 
ATOM     75  C   UNL     1       0.366  -2.907  15.002  1.00  0.00     0.060 A 
BRANCH  75  76
ATOM     76  S   UNL     1      -1.315  -2.753  15.645  1.00  0.00     0.124 S 
ATOM     77  O   UNL     1      -1.256  -3.605  16.827  1.00  0.00    -0.237 OA
ATOM     78  O   UNL     1      -1.419  -1.319  15.894  1.00  0.00    -0.237 OA
ATOM     79  O   UNL     1      -2.139  -3.251  14.547  1.00  0.00    -0.744 OA
ENDBRANCH  75  76
ENDBRANCH  43  68
BRANCH  55  80
ATOM     80  C   UNL     1       8.861  -5.938  16.386  1.00  0.00     0.058 A 
ATOM     81  C   UNL     1       8.385  -7.234  16.641  1.00  0.00     0.135 A 
ATOM     82  C   UNL     1       9.659  -5.329  17.368  1.00  0.00     0.135 A 
ATOM     83  F   UNL     1       7.615  -7.861  15.737  1.00  0.00    -0.206 F 
ATOM     84  C   UNL     1       8.650  -7.883  17.843  1.00  0.00     0.059 A 
ATOM     85  C   UNL     1       9.960  -5.970  18.566  1.00  0.00     0.059 A 
ATOM     86  F   UNL     1      10.152  -4.096  17.170  1.00  0.00    -0.206 F 
ATOM     87  C   UNL     1       9.432  -7.238  18.803  1.00  0.00     0.060 A 
BRANCH  87  88
ATOM     88  S   UNL     1       9.759  -8.080  20.366  1.00  0.00     0.124 S 
ATOM     89  O   UNL     1       8.496  -7.891  21.071  1.00  0.00    -0.237 OA
ATOM     90  O   UNL     1      10.046  -9.445  19.936  1.00  0.00    -0.237 OA
ATOM     91  O   UNL     1      10.900  -7.350  20.912  1.00  0.00    -0.744 OA
ENDBRANCH  87  88
ENDBRANCH  55  80
ENDBRANCH  29  30
ENDBRANCH  21  24
ENDBRANCH  19  20
ENDBRANCH   1  19
TORSDOF 15
