REMARK SMILES CCCSc1nc2n(n1)[C@@H](c1ccccc1C(=O)NCCCNC(=O)c1ccc(-c3c4nc(c(-c5c(F)cc(S(=O)(=O)[O-])cc5F)c5ccc([nH]5)c(-c5c(F)cc(S(=O)(=O)[O-])cc5F)c5nc(c(-c6c(F)cc(S(=O)(=O)[O-])cc6F)c6ccc3[nH]6)C=C5)C=C4)cc1)C(C(=O)Nc1cccc(C)c1C)=C(C)N2
REMARK SMILES IDX 20 1 19 2 17 3 18 4 16 6 11 7 12 8 13 9 15 10 14 11 10 12
REMARK SMILES IDX 5 13 6 14 9 15 7 16 8 17 106 18 104 19 92 21 105 22 4 23
REMARK SMILES IDX 3 24 2 25 1 26 93 27 94 28 95 29 96 31 97 32 102 33 98 34
REMARK SMILES IDX 100 35 103 36 99 37 101 38 21 39 22 40 23 41 24 42 25 44
REMARK SMILES IDX 26 45 27 46 91 47 28 48 90 49 29 50 30 51 31 52 84 53 32 54
REMARK SMILES IDX 89 55 83 56 85 57 33 58 88 59 82 60 81 61 34 63 68 64 47 65
REMARK SMILES IDX 67 66 48 67 51 68 66 69 86 70 49 71 50 72 65 74 87 75 52 76
REMARK SMILES IDX 35 77 36 78 45 79 37 80 38 81 44 82 46 83 39 84 40 85 41 86
REMARK SMILES IDX 42 87 43 88 69 89 70 90 79 91 71 92 72 93 78 94 80 95 73 96
REMARK SMILES IDX 74 97 75 98 76 99 77 100 53 101 54 102 63 103 55 104 56 105
REMARK SMILES IDX 62 106 64 107 57 108 58 109 59 110 60 111 61 112
REMARK H PARENT 19 5 106 20 95 30 23 43 85 62 51 73
REMARK Flexibility Score: inf
ROOT
ATOM      1  C   UNL     1       0.628  -5.316  -1.134  1.00  0.00     0.118 C 
ENDROOT
BRANCH   1   2
ATOM      2  N   UNL     1      -0.682  -5.522  -1.753  1.00  0.00    -0.352 N 
ATOM      3  C   UNL     1      -1.059  -5.731  -3.057  1.00  0.00     0.251 C 
ATOM      4  O   UNL     1      -1.562  -6.837  -3.277  1.00  0.00    -0.269 OA
ATOM      5  H   UNL     1      -1.432  -5.509  -1.115  1.00  0.00     0.163 HD
BRANCH   3   6
ATOM      6  C   UNL     1      -1.228  -4.643  -4.098  1.00  0.00     0.045 A 
ATOM      7  C   UNL     1      -0.416  -3.526  -4.411  1.00  0.00    -0.006 A 
ATOM      8  C   UNL     1      -0.815  -2.683  -5.492  1.00  0.00     0.007 A 
ATOM      9  C   UNL     1      -1.951  -2.928  -6.258  1.00  0.00     0.000 A 
ATOM     10  C   UNL     1      -2.364  -4.875  -4.923  1.00  0.00     0.014 A 
ATOM     11  C   UNL     1      -2.719  -4.041  -5.985  1.00  0.00     0.001 A 
BRANCH   7  12
ATOM     12  C   UNL     1       0.944  -3.243  -3.780  1.00  0.00     0.180 C 
ATOM     13  C   UNL     1       0.957   0.196  -3.053  1.00  0.00     0.210 A 
ATOM     14  N   UNL     1       2.108   0.169  -3.800  1.00  0.00    -0.185 NA
ATOM     15  N   UNL     1       0.354  -0.986  -2.879  1.00  0.00    -0.141 NA
ATOM     16  C   UNL     1       2.200  -1.091  -4.144  1.00  0.00     0.227 A 
ATOM     17  N   UNL     1       1.163  -1.793  -3.594  1.00  0.00    -0.218 N 
ATOM     18  N   UNL     1       3.084  -1.735  -4.926  1.00  0.00    -0.328 N 
ATOM     19  C   UNL     1       3.052  -3.107  -5.155  1.00  0.00     0.026 C 
ATOM     20  H   UNL     1       3.792  -1.207  -5.362  1.00  0.00     0.169 HD
ATOM     21  C   UNL     1       2.119  -3.874  -4.542  1.00  0.00     0.065 C 
ATOM     22  C   UNL     1       4.089  -3.626  -6.116  1.00  0.00     0.065 C 
BRANCH  13  23
ATOM     23  S   UNL     1       0.235   1.667  -2.473  1.00  0.00    -0.084 SA
BRANCH  23  24
ATOM     24  C   UNL     1       1.189   1.968  -0.960  1.00  0.00     0.078 C 
BRANCH  24  25
ATOM     25  C   UNL     1       0.631   1.256   0.274  1.00  0.00     0.008 C 
ATOM     26  C   UNL     1       1.070  -0.194   0.403  1.00  0.00     0.005 C 
ENDBRANCH  24  25
ENDBRANCH  23  24
ENDBRANCH  13  23
BRANCH  21  27
ATOM     27  C   UNL     1       2.091  -5.354  -4.610  1.00  0.00     0.255 C 
ATOM     28  O   UNL     1       1.179  -5.912  -5.217  1.00  0.00    -0.269 OA
ATOM     29  N   UNL     1       2.991  -6.143  -3.939  1.00  0.00    -0.322 N 
ATOM     30  H   UNL     1       2.619  -6.892  -3.421  1.00  0.00     0.170 HD
BRANCH  29  31
ATOM     31  C   UNL     1       4.395  -5.996  -3.914  1.00  0.00     0.044 A 
ATOM     32  C   UNL     1       5.089  -6.975  -4.643  1.00  0.00     0.026 A 
ATOM     33  C   UNL     1       5.107  -4.967  -3.272  1.00  0.00    -0.025 A 
ATOM     34  C   UNL     1       6.458  -6.873  -4.854  1.00  0.00     0.002 A 
ATOM     35  C   UNL     1       6.504  -4.859  -3.500  1.00  0.00    -0.046 A 
ATOM     36  C   UNL     1       4.464  -4.040  -2.281  1.00  0.00     0.047 C 
ATOM     37  C   UNL     1       7.155  -5.802  -4.313  1.00  0.00     0.004 A 
ATOM     38  C   UNL     1       7.332  -3.718  -2.966  1.00  0.00     0.044 C 
ENDBRANCH  29  31
ENDBRANCH  21  27
ENDBRANCH   7  12
ENDBRANCH   3   6
ENDBRANCH   1   2
BRANCH   1  39
ATOM     39  C   UNL     1       0.589  -4.122  -0.176  1.00  0.00     0.042 C 
BRANCH  39  40
ATOM     40  C   UNL     1       1.537  -4.218   1.016  1.00  0.00     0.118 C 
BRANCH  40  41
ATOM     41  N   UNL     1       2.947  -4.012   0.689  1.00  0.00    -0.352 N 
ATOM     42  C   UNL     1       4.047  -4.551   1.350  1.00  0.00     0.251 C 
ATOM     43  H   UNL     1       3.140  -3.430  -0.082  1.00  0.00     0.163 HD
ATOM     44  O   UNL     1       5.135  -4.009   1.327  1.00  0.00    -0.269 OA
BRANCH  42  45
ATOM     45  C   UNL     1       3.839  -5.824   2.062  1.00  0.00     0.039 A 
ATOM     46  C   UNL     1       4.116  -5.950   3.424  1.00  0.00     0.014 A 
ATOM     47  C   UNL     1       3.156  -6.812   1.363  1.00  0.00     0.014 A 
ATOM     48  C   UNL     1       3.543  -7.013   4.121  1.00  0.00     0.010 A 
ATOM     49  C   UNL     1       2.486  -7.776   2.079  1.00  0.00     0.010 A 
ATOM     50  C   UNL     1       2.658  -7.883   3.461  1.00  0.00    -0.014 A 
BRANCH  50  51
ATOM     51  C   UNL     1       1.756  -8.742   4.240  1.00  0.00     0.031 A 
ATOM     52  C   UNL     1       1.060  -8.090   5.397  1.00  0.00     0.074 A 
ATOM     53  C   UNL     1       1.304  -9.946   3.829  1.00  0.00     0.049 A 
ATOM     54  N   UNL     1       1.183  -8.354   6.658  1.00  0.00    -0.248 NA
ATOM     55  C   UNL     1       0.177  -6.946   5.120  1.00  0.00     0.031 C 
ATOM     56  C   UNL     1       1.568 -10.649   2.569  1.00  0.00     0.029 A 
ATOM     57  N   UNL     1       0.382 -10.747   4.431  1.00  0.00    -0.354 N 
ATOM     58  C   UNL     1       0.256  -7.551   7.324  1.00  0.00     0.074 A 
ATOM     59  C   UNL     1      -0.216  -6.601   6.349  1.00  0.00     0.031 C 
ATOM     60  C   UNL     1       0.648 -11.621   2.393  1.00  0.00     0.029 A 
ATOM     61  C   UNL     1      -0.127 -11.742   3.613  1.00  0.00     0.049 A 
ATOM     62  H   UNL     1       0.101 -10.629   5.368  1.00  0.00     0.167 HD
ATOM     63  C   UNL     1      -0.198  -7.851   8.577  1.00  0.00     0.037 A 
ATOM     64  C   UNL     1      -1.119 -12.612   3.906  1.00  0.00     0.037 A 
ATOM     65  C   UNL     1       0.611  -8.870   9.198  1.00  0.00     0.049 A 
ATOM     66  C   UNL     1      -1.199 -12.697   5.386  1.00  0.00     0.074 A 
ATOM     67  C   UNL     1       1.947  -8.991   9.527  1.00  0.00     0.029 A 
ATOM     68  N   UNL     1       0.103 -10.146   9.247  1.00  0.00    -0.354 N 
ATOM     69  N   UNL     1      -0.245 -13.176   6.140  1.00  0.00    -0.248 NA
ATOM     70  C   UNL     1      -2.176 -11.871   6.076  1.00  0.00     0.031 C 
ATOM     71  C   UNL     1       2.270 -10.353   9.250  1.00  0.00     0.029 A 
ATOM     72  C   UNL     1       1.101 -10.988   8.824  1.00  0.00     0.049 A 
ATOM     73  H   UNL     1      -0.802 -10.407   9.531  1.00  0.00     0.167 HD
ATOM     74  C   UNL     1      -0.257 -12.384   7.279  1.00  0.00     0.074 A 
ATOM     75  C   UNL     1      -1.539 -11.687   7.236  1.00  0.00     0.031 C 
ATOM     76  C   UNL     1       0.881 -12.161   8.003  1.00  0.00     0.037 A 
BRANCH  63  77
ATOM     77  C   UNL     1      -1.556  -7.477   9.134  1.00  0.00     0.058 A 
ATOM     78  C   UNL     1      -1.826  -7.673  10.507  1.00  0.00     0.135 A 
ATOM     79  C   UNL     1      -2.684  -7.206   8.330  1.00  0.00     0.135 A 
ATOM     80  F   UNL     1      -0.830  -7.938  11.368  1.00  0.00    -0.206 F 
ATOM     81  C   UNL     1      -3.123  -7.684  11.025  1.00  0.00     0.059 A 
ATOM     82  C   UNL     1      -3.981  -7.157   8.835  1.00  0.00     0.059 A 
ATOM     83  F   UNL     1      -2.596  -7.078   7.001  1.00  0.00    -0.206 F 
ATOM     84  C   UNL     1      -4.197  -7.448  10.173  1.00  0.00     0.060 A 
BRANCH  84  85
ATOM     85  S   UNL     1      -5.880  -7.603  10.800  1.00  0.00     0.124 S 
ATOM     86  O   UNL     1      -6.000  -9.049  10.943  1.00  0.00    -0.237 OA
ATOM     87  O   UNL     1      -5.817  -6.840  12.042  1.00  0.00    -0.237 OA
ATOM     88  O   UNL     1      -6.686  -7.002   9.742  1.00  0.00    -0.744 OA
ENDBRANCH  84  85
ENDBRANCH  63  77
BRANCH  64  89
ATOM     89  C   UNL     1      -2.139 -13.162   2.983  1.00  0.00     0.058 A 
ATOM     90  C   UNL     1      -2.908 -14.283   3.330  1.00  0.00     0.135 A 
ATOM     91  C   UNL     1      -2.559 -12.441   1.845  1.00  0.00     0.135 A 
ATOM     92  F   UNL     1      -2.588 -15.012   4.409  1.00  0.00    -0.206 F 
ATOM     93  C   UNL     1      -4.056 -14.643   2.618  1.00  0.00     0.059 A 
ATOM     94  C   UNL     1      -3.691 -12.788   1.112  1.00  0.00     0.059 A 
ATOM     95  F   UNL     1      -1.928 -11.319   1.464  1.00  0.00    -0.206 F 
ATOM     96  C   UNL     1      -4.452 -13.876   1.522  1.00  0.00     0.060 A 
BRANCH  96  97
ATOM     97  S   UNL     1      -6.035 -14.227   0.724  1.00  0.00     0.124 S 
ATOM     98  O   UNL     1      -5.758 -15.492   0.052  1.00  0.00    -0.237 OA
ATOM     99  O   UNL     1      -6.944 -14.295   1.863  1.00  0.00    -0.237 OA
ATOM    100  O   UNL     1      -6.232 -13.080  -0.159  1.00  0.00    -0.744 OA
ENDBRANCH  96  97
ENDBRANCH  64  89
BRANCH  76 101
ATOM    101  C   UNL     1       2.085 -13.033   7.741  1.00  0.00     0.058 A 
ATOM    102  C   UNL     1       2.789 -13.067   6.524  1.00  0.00     0.135 A 
ATOM    103  C   UNL     1       2.647 -13.735   8.818  1.00  0.00     0.135 A 
ATOM    104  F   UNL     1       2.389 -12.341   5.474  1.00  0.00    -0.206 F 
ATOM    105  C   UNL     1       3.970 -13.796   6.373  1.00  0.00     0.059 A 
ATOM    106  C   UNL     1       3.841 -14.444   8.700  1.00  0.00     0.059 A 
ATOM    107  F   UNL     1       2.062 -13.691  10.027  1.00  0.00    -0.206 F 
ATOM    108  C   UNL     1       4.492 -14.480   7.469  1.00  0.00     0.060 A 
BRANCH 108 109
ATOM    109  S   UNL     1       6.068 -15.344   7.293  1.00  0.00     0.124 S 
ATOM    110  O   UNL     1       5.691 -16.514   6.507  1.00  0.00    -0.237 OA
ATOM    111  O   UNL     1       6.898 -14.359   6.605  1.00  0.00    -0.237 OA
ATOM    112  O   UNL     1       6.461 -15.619   8.673  1.00  0.00    -0.744 OA
ENDBRANCH 108 109
ENDBRANCH  76 101
ENDBRANCH  50  51
ENDBRANCH  42  45
ENDBRANCH  40  41
ENDBRANCH  39  40
ENDBRANCH   1  39
TORSDOF 19
