REMARK SMILES C[C@H](NC(=O)c1c(C(=O)NCCCNC(=O)c2ccc(-c3c4nc(c(-c5c(F)cc(S(=O)(=O)[O-])cc5F)c5ccc([nH]5)c(-c5c(F)cc(S(=O)(=O)[O-])cc5F)c5nc(c(-c6c(F)cc(S(=O)(=O)[O-])cc6F)c6ccc3[nH]6)C=C5)C=C4)cc2)cnn1C)[C@]12C[C@H]3C[C@H](C[C@H](C3)C1)C2
REMARK SMILES IDX 12 1 11 2 10 3 8 4 9 5 7 7 6 8 85 9 83 10 84 11 86 12 4 13
REMARK SMILES IDX 3 14 5 16 2 17 1 18 87 19 88 20 95 21 96 22 89 23 93 24
REMARK SMILES IDX 91 25 90 26 94 27 92 28 13 29 14 30 15 31 16 33 17 34 18 35
REMARK SMILES IDX 82 36 19 37 81 38 20 39 21 40 22 41 75 42 23 43 80 44 74 45
REMARK SMILES IDX 76 46 24 47 79 48 73 49 72 50 25 52 59 53 38 54 58 55 39 56
REMARK SMILES IDX 42 57 57 58 77 59 40 60 41 61 56 63 78 64 43 65 26 66 27 67
REMARK SMILES IDX 36 68 28 69 29 70 35 71 37 72 30 73 31 74 32 75 33 76 34 77
REMARK SMILES IDX 60 78 61 79 70 80 62 81 63 82 69 83 71 84 64 85 65 86 66 87
REMARK SMILES IDX 67 88 68 89 44 90 45 91 54 92 46 93 47 94 53 95 55 96 48 97
REMARK SMILES IDX 49 98 50 99 51 100 52 101
REMARK H PARENT 10 6 3 15 14 32 76 51 42 62
REMARK Flexibility Score: inf
ROOT
ATOM      1  C   UNL     1      -0.385   0.249   2.914  1.00  0.00     0.042 C 
ENDROOT
BRANCH   1   2
ATOM      2  C   UNL     1       0.622  -0.889   3.078  1.00  0.00     0.118 C 
BRANCH   2   3
ATOM      3  N   UNL     1      -0.033  -2.174   2.928  1.00  0.00    -0.352 N 
ATOM      4  C   UNL     1       0.084  -3.247   2.094  1.00  0.00     0.255 C 
ATOM      5  O   UNL     1      -0.693  -4.172   2.356  1.00  0.00    -0.269 OA
ATOM      6  H   UNL     1      -0.742  -2.305   3.599  1.00  0.00     0.163 HD
BRANCH   4   7
ATOM      7  C   UNL     1       1.060  -3.421   1.026  1.00  0.00     0.090 A 
ATOM      8  C   UNL     1       1.826  -2.606   0.189  1.00  0.00     0.138 A 
ATOM      9  N   UNL     1       2.668  -3.474  -0.479  1.00  0.00    -0.262 N 
ATOM     10  C   UNL     1       1.382  -4.737   0.575  1.00  0.00     0.149 A 
ATOM     11  N   UNL     1       2.342  -4.768  -0.342  1.00  0.00    -0.180 NA
ATOM     12  C   UNL     1       3.818  -3.161  -1.298  1.00  0.00     0.174 C 
BRANCH   8  13
ATOM     13  C   UNL     1       1.967  -1.187   0.051  1.00  0.00     0.270 C 
ATOM     14  N   UNL     1       1.216  -0.472  -0.845  1.00  0.00    -0.348 N 
ATOM     15  H   UNL     1       1.266   0.498  -0.686  1.00  0.00     0.164 HD
ATOM     16  O   UNL     1       2.839  -0.566   0.659  1.00  0.00    -0.267 OA
BRANCH  14  17
ATOM     17  C   UNL     1       0.353  -0.810  -1.989  1.00  0.00     0.085 C 
ATOM     18  C   UNL     1       0.822  -2.034  -2.775  1.00  0.00     0.031 C 
BRANCH  17  19
ATOM     19  C   UNL     1      -1.182  -0.735  -1.706  1.00  0.00    -0.009 C 
ATOM     20  C   UNL     1      -1.653  -1.727  -0.619  1.00  0.00     0.012 C 
ATOM     21  C   UNL     1      -1.982  -1.040  -3.008  1.00  0.00     0.012 C 
ATOM     22  C   UNL     1      -1.572   0.699  -1.239  1.00  0.00     0.012 C 
ATOM     23  C   UNL     1      -3.174  -1.616  -0.387  1.00  0.00    -0.010 C 
ATOM     24  C   UNL     1      -3.495  -0.921  -2.782  1.00  0.00    -0.010 C 
ATOM     25  C   UNL     1      -3.090   0.820  -1.016  1.00  0.00    -0.010 C 
ATOM     26  C   UNL     1      -3.530  -0.187   0.056  1.00  0.00     0.007 C 
ATOM     27  C   UNL     1      -3.914  -1.925  -1.697  1.00  0.00     0.007 C 
ATOM     28  C   UNL     1      -3.825   0.507  -2.329  1.00  0.00     0.007 C 
ENDBRANCH  17  19
ENDBRANCH  14  17
ENDBRANCH   8  13
ENDBRANCH   4   7
ENDBRANCH   2   3
ENDBRANCH   1   2
BRANCH   1  29
ATOM     29  C   UNL     1      -1.269   0.434   4.150  1.00  0.00     0.118 C 
BRANCH  29  30
ATOM     30  N   UNL     1      -0.619   1.264   5.153  1.00  0.00    -0.352 N 
ATOM     31  C   UNL     1      -0.811   2.586   5.474  1.00  0.00     0.251 C 
ATOM     32  H   UNL     1       0.068   0.805   5.687  1.00  0.00     0.163 HD
ATOM     33  O   UNL     1       0.036   3.158   6.157  1.00  0.00    -0.269 OA
BRANCH  31  34
ATOM     34  C   UNL     1      -2.006   3.336   5.014  1.00  0.00     0.039 A 
ATOM     35  C   UNL     1      -1.860   4.686   4.674  1.00  0.00     0.014 A 
ATOM     36  C   UNL     1      -3.280   2.762   5.010  1.00  0.00     0.014 A 
ATOM     37  C   UNL     1      -2.976   5.446   4.307  1.00  0.00     0.010 A 
ATOM     38  C   UNL     1      -4.383   3.501   4.575  1.00  0.00     0.010 A 
ATOM     39  C   UNL     1      -4.248   4.858   4.243  1.00  0.00    -0.014 A 
BRANCH  39  40
ATOM     40  C   UNL     1      -5.457   5.657   3.904  1.00  0.00     0.031 A 
ATOM     41  C   UNL     1      -6.554   5.831   4.923  1.00  0.00     0.074 A 
ATOM     42  C   UNL     1      -5.608   6.179   2.672  1.00  0.00     0.049 A 
ATOM     43  N   UNL     1      -7.739   6.369   4.781  1.00  0.00    -0.248 NA
ATOM     44  C   UNL     1      -6.295   5.295   6.269  1.00  0.00     0.031 C 
ATOM     45  C   UNL     1      -4.652   6.049   1.571  1.00  0.00     0.029 A 
ATOM     46  N   UNL     1      -6.635   6.916   2.137  1.00  0.00    -0.354 N 
ATOM     47  C   UNL     1      -8.391   6.173   5.993  1.00  0.00     0.074 A 
ATOM     48  C   UNL     1      -7.469   5.467   6.858  1.00  0.00     0.031 C 
ATOM     49  C   UNL     1      -5.130   6.700   0.497  1.00  0.00     0.029 A 
ATOM     50  C   UNL     1      -6.434   7.272   0.826  1.00  0.00     0.049 A 
ATOM     51  H   UNL     1      -7.440   7.166   2.645  1.00  0.00     0.167 HD
ATOM     52  C   UNL     1      -9.642   6.548   6.357  1.00  0.00     0.037 A 
ATOM     53  C   UNL     1      -7.210   7.979  -0.019  1.00  0.00     0.037 A 
ATOM     54  C   UNL     1     -10.532   7.322   5.535  1.00  0.00     0.049 A 
ATOM     55  C   UNL     1      -8.527   8.520   0.456  1.00  0.00     0.074 A 
ATOM     56  C   UNL     1     -11.798   7.794   5.835  1.00  0.00     0.029 A 
ATOM     57  N   UNL     1     -10.234   7.765   4.255  1.00  0.00    -0.354 N 
ATOM     58  N   UNL     1      -9.124   8.332   1.607  1.00  0.00    -0.248 NA
ATOM     59  C   UNL     1      -9.269   9.379  -0.477  1.00  0.00     0.031 C 
ATOM     60  C   UNL     1     -12.263   8.530   4.737  1.00  0.00     0.029 A 
ATOM     61  C   UNL     1     -11.282   8.521   3.759  1.00  0.00     0.049 A 
ATOM     62  H   UNL     1      -9.399   7.570   3.771  1.00  0.00     0.167 HD
ATOM     63  C   UNL     1     -10.311   9.051   1.540  1.00  0.00     0.074 A 
ATOM     64  C   UNL     1     -10.341   9.691   0.240  1.00  0.00     0.031 C 
ATOM     65  C   UNL     1     -11.290   9.164   2.470  1.00  0.00     0.037 A 
BRANCH  52  66
ATOM     66  C   UNL     1     -10.112   6.102   7.710  1.00  0.00     0.058 A 
ATOM     67  C   UNL     1      -9.666   6.723   8.887  1.00  0.00     0.135 A 
ATOM     68  C   UNL     1     -10.986   5.010   7.830  1.00  0.00     0.135 A 
ATOM     69  F   UNL     1      -8.814   7.758   8.823  1.00  0.00    -0.206 F 
ATOM     70  C   UNL     1     -10.032   6.246  10.142  1.00  0.00     0.059 A 
ATOM     71  C   UNL     1     -11.380   4.528   9.074  1.00  0.00     0.059 A 
ATOM     72  F   UNL     1     -11.441   4.382   6.734  1.00  0.00    -0.206 F 
ATOM     73  C   UNL     1     -10.876   5.136  10.224  1.00  0.00     0.060 A 
BRANCH  73  74
ATOM     74  S   UNL     1     -11.309   4.474  11.847  1.00  0.00     0.124 S 
ATOM     75  O   UNL     1     -10.215   3.536  12.076  1.00  0.00    -0.237 OA
ATOM     76  O   UNL     1     -11.310   5.663  12.694  1.00  0.00    -0.237 OA
ATOM     77  O   UNL     1     -12.620   3.873  11.619  1.00  0.00    -0.744 OA
ENDBRANCH  73  74
ENDBRANCH  52  66
BRANCH  53  78
ATOM     78  C   UNL     1      -6.727   8.243  -1.395  1.00  0.00     0.058 A 
ATOM     79  C   UNL     1      -6.125   9.467  -1.719  1.00  0.00     0.135 A 
ATOM     80  C   UNL     1      -6.797   7.257  -2.390  1.00  0.00     0.135 A 
ATOM     81  F   UNL     1      -6.042  10.437  -0.796  1.00  0.00    -0.206 F 
ATOM     82  C   UNL     1      -5.600   9.706  -2.983  1.00  0.00     0.059 A 
ATOM     83  C   UNL     1      -6.269   7.469  -3.659  1.00  0.00     0.059 A 
ATOM     84  F   UNL     1      -7.351   6.066  -2.118  1.00  0.00    -0.206 F 
ATOM     85  C   UNL     1      -5.672   8.697  -3.946  1.00  0.00     0.060 A 
BRANCH  85  86
ATOM     86  S   UNL     1      -4.897   8.966  -5.556  1.00  0.00     0.124 S 
ATOM     87  O   UNL     1      -5.946   9.682  -6.271  1.00  0.00    -0.237 OA
ATOM     88  O   UNL     1      -3.712   9.746  -5.209  1.00  0.00    -0.237 OA
ATOM     89  O   UNL     1      -4.625   7.608  -6.019  1.00  0.00    -0.744 OA
ENDBRANCH  85  86
ENDBRANCH  53  78
BRANCH  65  90
ATOM     90  C   UNL     1     -12.466  10.026   2.125  1.00  0.00     0.058 A 
ATOM     91  C   UNL     1     -13.517   9.539   1.333  1.00  0.00     0.135 A 
ATOM     92  C   UNL     1     -12.562  11.335   2.621  1.00  0.00     0.135 A 
ATOM     93  F   UNL     1     -13.466   8.295   0.833  1.00  0.00    -0.206 F 
ATOM     94  C   UNL     1     -14.622  10.328   1.032  1.00  0.00     0.059 A 
ATOM     95  C   UNL     1     -13.662  12.138   2.341  1.00  0.00     0.059 A 
ATOM     96  F   UNL     1     -11.582  11.841   3.386  1.00  0.00    -0.206 F 
ATOM     97  C   UNL     1     -14.683  11.629   1.537  1.00  0.00     0.060 A 
BRANCH  97  98
ATOM     98  S   UNL     1     -16.131  12.645   1.173  1.00  0.00     0.124 S 
ATOM     99  O   UNL     1     -15.780  13.198  -0.131  1.00  0.00    -0.237 OA
ATOM    100  O   UNL     1     -17.218  11.670   1.175  1.00  0.00    -0.237 OA
ATOM    101  O   UNL     1     -16.155  13.600   2.277  1.00  0.00    -0.744 OA
ENDBRANCH  97  98
ENDBRANCH  65  90
ENDBRANCH  39  40
ENDBRANCH  31  34
ENDBRANCH  29  30
ENDBRANCH   1  29
TORSDOF 16
