REMARK SMILES O=C(NCCCNC(=O)c1ccc(-c2c3nc(c(-c4c(F)cc(S(=O)(=O)[O-])cc4F)c4ccc([nH]4)c(-c4c(F)cc(S(=O)(=O)[O-])cc4F)c4nc(c(-c5c(F)cc(S(=O)(=O)[O-])cc5F)c5ccc2[nH]5)C=C4)C=C3)cc1)C1=Cc2cc(Cl)cc(C#Cc3ccccc3)c2O[C@@H]1C(F)(F)F
REMARK SMILES IDX 5 1 4 2 3 3 1 4 2 5 76 7 77 8 94 9 78 10 93 11 79 12 92 13
REMARK SMILES IDX 80 14 83 15 81 16 82 17 95 18 96 19 97 20 98 21 84 22 85 23
REMARK SMILES IDX 86 24 87 25 91 26 88 27 90 28 89 29 6 30 7 31 8 32 9 34
REMARK SMILES IDX 10 35 11 36 75 37 12 38 74 39 13 40 14 41 15 42 68 43 16 44
REMARK SMILES IDX 73 45 67 46 69 47 17 48 72 49 66 50 65 51 18 53 52 54 31 55
REMARK SMILES IDX 51 56 32 57 35 58 50 59 70 60 33 61 34 62 49 64 71 65 36 66
REMARK SMILES IDX 19 67 20 68 29 69 21 70 22 71 28 72 30 73 23 74 24 75 25 76
REMARK SMILES IDX 26 77 27 78 53 79 54 80 63 81 55 82 56 83 62 84 64 85 57 86
REMARK SMILES IDX 58 87 59 88 60 89 61 90 37 91 38 92 47 93 39 94 40 95 46 96
REMARK SMILES IDX 48 97 41 98 42 99 43 100 44 101 45 102
REMARK H PARENT 3 6 7 33 69 52 35 63
REMARK Flexibility Score: inf
ROOT
ATOM      1  C   UNL     1       4.262  -0.883   2.804  1.00  0.00     0.042 C 
ENDROOT
BRANCH   1   2
ATOM      2  C   UNL     1       3.642  -0.897   1.425  1.00  0.00     0.118 C 
BRANCH   2   3
ATOM      3  N   UNL     1       2.534   0.023   1.230  1.00  0.00    -0.352 N 
ATOM      4  O   UNL     1       1.163   1.349   0.024  1.00  0.00    -0.270 OA
ATOM      5  C   UNL     1       2.275   0.852   0.161  1.00  0.00     0.251 C 
ATOM      6  H   UNL     1       1.879   0.060   1.964  1.00  0.00     0.163 HD
BRANCH   5   7
ATOM      7  C   UNL     1       3.292   0.946  -0.921  1.00  0.00     0.067 C 
ATOM      8  C   UNL     1       4.532   1.453  -0.806  1.00  0.00     0.025 C 
ATOM      9  C   UNL     1       3.040   0.064  -2.100  1.00  0.00     0.314 C 
ATOM     10  C   UNL     1       5.574   0.410  -1.004  1.00  0.00     0.020 A 
ATOM     11  O   UNL     1       3.955  -1.058  -2.114  1.00  0.00    -0.474 OA
ATOM     12  C   UNL     1       6.782   0.535  -0.294  1.00  0.00     0.032 A 
ATOM     13  C   UNL     1       5.176  -0.863  -1.496  1.00  0.00     0.143 A 
ATOM     14  C   UNL     1       7.540  -0.603  -0.011  1.00  0.00     0.043 A 
ATOM     15  C   UNL     1       5.915  -2.007  -1.138  1.00  0.00     0.069 A 
ATOM     16  Cl  UNL     1       8.931  -0.473   0.996  1.00  0.00    -0.084 Cl
ATOM     17  C   UNL     1       7.103  -1.865  -0.407  1.00  0.00     0.041 A 
BRANCH   9  18
ATOM     18  C   UNL     1       3.091   0.917  -3.389  1.00  0.00     0.429 C 
ATOM     19  F   UNL     1       2.729   0.198  -4.477  1.00  0.00    -0.167 F 
ATOM     20  F   UNL     1       2.241   1.974  -3.322  1.00  0.00    -0.167 F 
ATOM     21  F   UNL     1       4.322   1.426  -3.641  1.00  0.00    -0.167 F 
ENDBRANCH   9  18
BRANCH  15  22
ATOM     22  C   UNL     1       5.371  -3.340  -1.223  1.00  0.00    -0.058 C 
ATOM     23  C   UNL     1       5.002  -4.473  -1.085  1.00  0.00    -0.062 C 
BRANCH  23  24
ATOM     24  C   UNL     1       4.682  -5.847  -0.803  1.00  0.00     0.025 A 
ATOM     25  C   UNL     1       3.356  -6.281  -0.727  1.00  0.00     0.017 A 
ATOM     26  C   UNL     1       5.717  -6.759  -0.577  1.00  0.00     0.017 A 
ATOM     27  C   UNL     1       3.073  -7.625  -0.459  1.00  0.00     0.001 A 
ATOM     28  C   UNL     1       5.434  -8.102  -0.313  1.00  0.00     0.001 A 
ATOM     29  C   UNL     1       4.111  -8.536  -0.262  1.00  0.00     0.000 A 
ENDBRANCH  23  24
ENDBRANCH  15  22
ENDBRANCH   5   7
ENDBRANCH   2   3
ENDBRANCH   1   2
BRANCH   1  30
ATOM     30  C   UNL     1       4.103  -2.213   3.511  1.00  0.00     0.118 C 
BRANCH  30  31
ATOM     31  N   UNL     1       4.772  -3.330   2.838  1.00  0.00    -0.352 N 
ATOM     32  C   UNL     1       5.692  -4.237   3.319  1.00  0.00     0.251 C 
ATOM     33  H   UNL     1       4.526  -3.452   1.893  1.00  0.00     0.163 HD
ATOM     34  O   UNL     1       6.232  -5.027   2.549  1.00  0.00    -0.269 OA
BRANCH  32  35
ATOM     35  C   UNL     1       6.065  -4.219   4.749  1.00  0.00     0.039 A 
ATOM     36  C   UNL     1       7.391  -4.446   5.120  1.00  0.00     0.014 A 
ATOM     37  C   UNL     1       5.117  -3.904   5.720  1.00  0.00     0.014 A 
ATOM     38  C   UNL     1       7.774  -4.250   6.449  1.00  0.00     0.010 A 
ATOM     39  C   UNL     1       5.533  -3.527   6.984  1.00  0.00     0.010 A 
ATOM     40  C   UNL     1       6.859  -3.730   7.378  1.00  0.00    -0.014 A 
BRANCH  40  41
ATOM     41  C   UNL     1       7.240  -3.429   8.781  1.00  0.00     0.031 A 
ATOM     42  C   UNL     1       6.469  -4.065   9.912  1.00  0.00     0.074 A 
ATOM     43  C   UNL     1       8.214  -2.532   9.034  1.00  0.00     0.049 A 
ATOM     44  N   UNL     1       6.582  -3.871  11.199  1.00  0.00    -0.248 NA
ATOM     45  C   UNL     1       5.391  -5.003   9.546  1.00  0.00     0.031 C 
ATOM     46  C   UNL     1       8.970  -1.789   8.022  1.00  0.00     0.029 A 
ATOM     47  N   UNL     1       8.733  -2.086  10.223  1.00  0.00    -0.354 N 
ATOM     48  C   UNL     1       5.577  -4.635  11.784  1.00  0.00     0.074 A 
ATOM     49  C   UNL     1       4.809  -5.222  10.713  1.00  0.00     0.031 C 
ATOM     50  C   UNL     1       9.885  -1.018   8.631  1.00  0.00     0.029 A 
ATOM     51  C   UNL     1       9.750  -1.173  10.075  1.00  0.00     0.049 A 
ATOM     52  H   UNL     1       8.407  -2.392  11.100  1.00  0.00     0.167 HD
ATOM     53  C   UNL     1       5.341  -4.862  13.097  1.00  0.00     0.037 A 
ATOM     54  C   UNL     1      10.488  -0.532  11.002  1.00  0.00     0.037 A 
ATOM     55  C   UNL     1       6.147  -4.312  14.151  1.00  0.00     0.049 A 
ATOM     56  C   UNL     1      10.233  -0.826  12.455  1.00  0.00     0.074 A 
ATOM     57  C   UNL     1       6.055  -4.538  15.511  1.00  0.00     0.029 A 
ATOM     58  N   UNL     1       7.198  -3.425  13.959  1.00  0.00    -0.354 N 
ATOM     59  N   UNL     1       9.333  -1.618  12.990  1.00  0.00    -0.248 NA
ATOM     60  C   UNL     1      11.097  -0.151  13.431  1.00  0.00     0.031 C 
ATOM     61  C   UNL     1       7.013  -3.743  16.148  1.00  0.00     0.029 A 
ATOM     62  C   UNL     1       7.746  -3.073  15.180  1.00  0.00     0.049 A 
ATOM     63  H   UNL     1       7.507  -3.096  13.085  1.00  0.00     0.167 HD
ATOM     64  C   UNL     1       9.541  -1.558  14.363  1.00  0.00     0.074 A 
ATOM     65  C   UNL     1      10.662  -0.665  14.573  1.00  0.00     0.031 C 
ATOM     66  C   UNL     1       8.867  -2.184  15.361  1.00  0.00     0.037 A 
BRANCH  53  67
ATOM     67  C   UNL     1       4.178  -5.749  13.457  1.00  0.00     0.058 A 
ATOM     68  C   UNL     1       4.161  -7.119  13.145  1.00  0.00     0.135 A 
ATOM     69  C   UNL     1       3.069  -5.224  14.140  1.00  0.00     0.135 A 
ATOM     70  F   UNL     1       5.184  -7.674  12.473  1.00  0.00    -0.206 F 
ATOM     71  C   UNL     1       3.075  -7.927  13.464  1.00  0.00     0.059 A 
ATOM     72  C   UNL     1       1.987  -6.022  14.503  1.00  0.00     0.059 A 
ATOM     73  F   UNL     1       3.026  -3.921  14.460  1.00  0.00    -0.206 F 
ATOM     74  C   UNL     1       1.993  -7.369  14.146  1.00  0.00     0.060 A 
BRANCH  74  75
ATOM     75  S   UNL     1       0.598  -8.436  14.563  1.00  0.00     0.124 S 
ATOM     76  O   UNL     1       0.001  -8.660  13.250  1.00  0.00    -0.237 OA
ATOM     77  O   UNL     1       1.259  -9.590  15.164  1.00  0.00    -0.237 OA
ATOM     78  O   UNL     1      -0.192  -7.620  15.480  1.00  0.00    -0.744 OA
ENDBRANCH  74  75
ENDBRANCH  53  67
BRANCH  54  79
ATOM     79  C   UNL     1      11.554   0.418  10.579  1.00  0.00     0.058 A 
ATOM     80  C   UNL     1      12.911   0.113  10.759  1.00  0.00     0.135 A 
ATOM     81  C   UNL     1      11.238   1.639   9.961  1.00  0.00     0.135 A 
ATOM     82  F   UNL     1      13.267  -1.040  11.347  1.00  0.00    -0.206 F 
ATOM     83  C   UNL     1      13.917   0.990  10.362  1.00  0.00     0.059 A 
ATOM     84  C   UNL     1      12.226   2.519   9.528  1.00  0.00     0.059 A 
ATOM     85  F   UNL     1       9.956   1.972   9.746  1.00  0.00    -0.206 F 
ATOM     86  C   UNL     1      13.563   2.189   9.742  1.00  0.00     0.060 A 
BRANCH  86  87
ATOM     87  S   UNL     1      14.877   3.296   9.185  1.00  0.00     0.124 S 
ATOM     88  O   UNL     1      15.397   3.797  10.452  1.00  0.00    -0.237 OA
ATOM     89  O   UNL     1      15.751   2.386   8.450  1.00  0.00    -0.237 OA
ATOM     90  O   UNL     1      14.168   4.272   8.363  1.00  0.00    -0.744 OA
ENDBRANCH  86  87
ENDBRANCH  54  79
BRANCH  66  91
ATOM     91  C   UNL     1       9.349  -1.956  16.767  1.00  0.00     0.058 A 
ATOM     92  C   UNL     1       9.179  -0.725  17.418  1.00  0.00     0.135 A 
ATOM     93  C   UNL     1       9.942  -3.005  17.489  1.00  0.00     0.135 A 
ATOM     94  F   UNL     1       8.620   0.311  16.772  1.00  0.00    -0.206 F 
ATOM     95  C   UNL     1       9.611  -0.531  18.725  1.00  0.00     0.059 A 
ATOM     96  C   UNL     1      10.348  -2.844  18.809  1.00  0.00     0.059 A 
ATOM     97  F   UNL     1      10.114  -4.208  16.918  1.00  0.00    -0.206 F 
ATOM     98  C   UNL     1      10.192  -1.598  19.413  1.00  0.00     0.060 A 
BRANCH  98  99
ATOM     99  S   UNL     1      10.726  -1.338  21.117  1.00  0.00     0.124 S 
ATOM    100  O   UNL     1      11.904  -0.497  20.930  1.00  0.00    -0.237 OA
ATOM    101  O   UNL     1       9.565  -0.682  21.710  1.00  0.00    -0.237 OA
ATOM    102  O   UNL     1      10.990  -2.690  21.601  1.00  0.00    -0.744 OA
ENDBRANCH  98  99
ENDBRANCH  66  91
ENDBRANCH  40  41
ENDBRANCH  32  35
ENDBRANCH  30  31
ENDBRANCH   1  30
TORSDOF 16
