REMARK SMILES O=C(/C=C/c1c(Cl)cccc1Cl)NCC(=O)NCCCNC(=O)c1ccc(-c2c3nc(c(-c4c(F)cc(S(=O)(=O)[O-])cc4F)c4ccc([nH]4)c(-c4c(F)cc(S(=O)(=O)[O-])cc4F)c4nc(c(-c5c(F)cc(S(=O)(=O)[O-])cc5F)c5ccc2[nH]5)C=C4)C=C3)cc1
REMARK SMILES IDX 19 1 18 2 17 3 15 4 16 5 14 7 13 8 1 9 2 10 3 12 4 13 5 14
REMARK SMILES IDX 6 15 11 16 7 17 8 18 10 19 12 20 9 21 20 22 21 23 22 24
REMARK SMILES IDX 23 26 24 27 25 28 89 29 26 30 88 31 27 32 28 33 29 34 82 35
REMARK SMILES IDX 30 36 87 37 81 38 83 39 31 40 86 41 80 42 79 43 32 45 66 46
REMARK SMILES IDX 45 47 65 48 46 49 49 50 64 51 84 52 47 53 48 54 63 56 85 57
REMARK SMILES IDX 50 58 33 59 34 60 43 61 35 62 36 63 42 64 44 65 37 66 38 67
REMARK SMILES IDX 39 68 40 69 41 70 67 71 68 72 77 73 69 74 70 75 76 76 78 77
REMARK SMILES IDX 71 78 72 79 73 80 74 81 75 82 51 83 52 84 61 85 53 86 54 87
REMARK SMILES IDX 60 88 62 89 55 90 56 91 57 92 58 93 59 94
REMARK H PARENT 17 6 13 11 21 25 83 44 49 55
REMARK Flexibility Score: inf
ROOT
ATOM      1  C   UNL     1       2.453   2.485   2.392  1.00  0.00     0.042 C 
ENDROOT
BRANCH   1   2
ATOM      2  C   UNL     1       1.571   2.970   1.244  1.00  0.00     0.117 C 
BRANCH   2   3
ATOM      3  N   UNL     1       2.318   3.738   0.264  1.00  0.00    -0.355 N 
ATOM      4  C   UNL     1       2.741   3.358  -0.978  1.00  0.00     0.239 C 
ATOM      5  O   UNL     1       3.306   4.193  -1.687  1.00  0.00    -0.273 OA
ATOM      6  H   UNL     1       2.551   4.657   0.531  1.00  0.00     0.163 HD
BRANCH   4   7
ATOM      7  C   UNL     1       2.454   1.945  -1.489  1.00  0.00     0.216 C 
BRANCH   7   8
ATOM      8  N   UNL     1       3.106   0.926  -0.683  1.00  0.00    -0.343 N 
ATOM      9  O   UNL     1       1.203  -0.289  -0.304  1.00  0.00    -0.270 OA
ATOM     10  C   UNL     1       2.413  -0.128  -0.160  1.00  0.00     0.244 C 
ATOM     11  H   UNL     1       4.073   0.998  -0.510  1.00  0.00     0.164 HD
BRANCH  10  12
ATOM     12  C   UNL     1       3.175  -1.068   0.694  1.00  0.00     0.072 C 
ATOM     13  C   UNL     1       4.496  -1.295   0.630  1.00  0.00     0.017 C 
BRANCH  13  14
ATOM     14  C   UNL     1       5.153  -2.294   1.501  1.00  0.00     0.012 A 
ATOM     15  C   UNL     1       4.867  -3.671   1.407  1.00  0.00     0.049 A 
ATOM     16  C   UNL     1       6.110  -1.886   2.452  1.00  0.00     0.049 A 
ATOM     17  Cl  UNL     1       3.765  -4.310   0.230  1.00  0.00    -0.084 Cl
ATOM     18  C   UNL     1       5.490  -4.596   2.253  1.00  0.00     0.021 A 
ATOM     19  C   UNL     1       6.739  -2.816   3.288  1.00  0.00     0.021 A 
ATOM     20  Cl  UNL     1       6.553  -0.220   2.640  1.00  0.00    -0.084 Cl
ATOM     21  C   UNL     1       6.423  -4.170   3.194  1.00  0.00     0.003 A 
ENDBRANCH  13  14
ENDBRANCH  10  12
ENDBRANCH   7   8
ENDBRANCH   4   7
ENDBRANCH   2   3
ENDBRANCH   1   2
BRANCH   1  22
ATOM     22  C   UNL     1       2.971   3.603   3.296  1.00  0.00     0.118 C 
BRANCH  22  23
ATOM     23  N   UNL     1       1.900   4.305   3.990  1.00  0.00    -0.352 N 
ATOM     24  C   UNL     1       1.713   4.544   5.328  1.00  0.00     0.251 C 
ATOM     25  H   UNL     1       1.196   4.666   3.405  1.00  0.00     0.163 HD
ATOM     26  O   UNL     1       0.638   5.009   5.706  1.00  0.00    -0.269 OA
BRANCH  24  27
ATOM     27  C   UNL     1       2.771   4.240   6.317  1.00  0.00     0.039 A 
ATOM     28  C   UNL     1       2.398   3.692   7.548  1.00  0.00     0.014 A 
ATOM     29  C   UNL     1       4.115   4.531   6.065  1.00  0.00     0.014 A 
ATOM     30  C   UNL     1       3.374   3.383   8.499  1.00  0.00     0.010 A 
ATOM     31  C   UNL     1       5.093   4.160   6.987  1.00  0.00     0.010 A 
ATOM     32  C   UNL     1       4.734   3.585   8.214  1.00  0.00    -0.014 A 
BRANCH  32  33
ATOM     33  C   UNL     1       5.787   3.188   9.185  1.00  0.00     0.031 A 
ATOM     34  C   UNL     1       6.678   4.226   9.813  1.00  0.00     0.074 A 
ATOM     35  C   UNL     1       5.977   1.881   9.458  1.00  0.00     0.049 A 
ATOM     36  N   UNL     1       7.683   4.063  10.635  1.00  0.00    -0.248 NA
ATOM     37  C   UNL     1       6.422   5.629   9.451  1.00  0.00     0.031 C 
ATOM     38  C   UNL     1       5.211   0.776   8.877  1.00  0.00     0.029 A 
ATOM     39  N   UNL     1       6.879   1.259  10.285  1.00  0.00    -0.354 N 
ATOM     40  C   UNL     1       8.187   5.335  10.878  1.00  0.00     0.074 A 
ATOM     41  C   UNL     1       7.407   6.256  10.079  1.00  0.00     0.031 C 
ATOM     42  C   UNL     1       5.660  -0.384   9.381  1.00  0.00     0.029 A 
ATOM     43  C   UNL     1       6.769  -0.111  10.290  1.00  0.00     0.049 A 
ATOM     44  H   UNL     1       7.542   1.748  10.824  1.00  0.00     0.167 HD
ATOM     45  C   UNL     1       9.193   5.706  11.707  1.00  0.00     0.037 A 
ATOM     46  C   UNL     1       7.486  -1.045  10.945  1.00  0.00     0.037 A 
ATOM     47  C   UNL     1       9.950   4.787  12.518  1.00  0.00     0.049 A 
ATOM     48  C   UNL     1       8.594  -0.610  11.864  1.00  0.00     0.074 A 
ATOM     49  C   UNL     1      10.950   5.070  13.434  1.00  0.00     0.029 A 
ATOM     50  N   UNL     1       9.795   3.409  12.512  1.00  0.00    -0.354 N 
ATOM     51  N   UNL     1       9.016   0.604  12.129  1.00  0.00    -0.248 NA
ATOM     52  C   UNL     1       9.319  -1.668  12.580  1.00  0.00     0.031 C 
ATOM     53  C   UNL     1      11.428   3.860  13.949  1.00  0.00     0.029 A 
ATOM     54  C   UNL     1      10.694   2.826  13.391  1.00  0.00     0.049 A 
ATOM     55  H   UNL     1       9.143   2.917  11.963  1.00  0.00     0.167 HD
ATOM     56  C   UNL     1      10.038   0.457  13.059  1.00  0.00     0.074 A 
ATOM     57  C   UNL     1      10.161  -0.963  13.322  1.00  0.00     0.031 C 
ATOM     58  C   UNL     1      10.804   1.411  13.645  1.00  0.00     0.037 A 
BRANCH  45  59
ATOM     59  C   UNL     1       9.533   7.170  11.782  1.00  0.00     0.058 A 
ATOM     60  C   UNL     1       8.671   8.096  12.392  1.00  0.00     0.135 A 
ATOM     61  C   UNL     1      10.750   7.649  11.271  1.00  0.00     0.135 A 
ATOM     62  F   UNL     1       7.489   7.697  12.886  1.00  0.00    -0.206 F 
ATOM     63  C   UNL     1       8.990   9.448  12.466  1.00  0.00     0.059 A 
ATOM     64  C   UNL     1      11.103   8.993  11.359  1.00  0.00     0.059 A 
ATOM     65  F   UNL     1      11.613   6.808  10.679  1.00  0.00    -0.206 F 
ATOM     66  C   UNL     1      10.209   9.888  11.945  1.00  0.00     0.060 A 
BRANCH  66  67
ATOM     67  S   UNL     1      10.609  11.645  12.052  1.00  0.00     0.124 S 
ATOM     68  O   UNL     1       9.720  12.207  11.039  1.00  0.00    -0.237 OA
ATOM     69  O   UNL     1      10.271  11.960  13.436  1.00  0.00    -0.237 OA
ATOM     70  O   UNL     1      12.032  11.690  11.731  1.00  0.00    -0.744 OA
ENDBRANCH  66  67
ENDBRANCH  45  59
BRANCH  46  71
ATOM     71  C   UNL     1       7.161  -2.486  10.769  1.00  0.00     0.058 A 
ATOM     72  C   UNL     1       6.569  -3.225  11.803  1.00  0.00     0.135 A 
ATOM     73  C   UNL     1       7.421  -3.147   9.558  1.00  0.00     0.135 A 
ATOM     74  F   UNL     1       6.306  -2.638  12.981  1.00  0.00    -0.206 F 
ATOM     75  C   UNL     1       6.258  -4.573  11.651  1.00  0.00     0.059 A 
ATOM     76  C   UNL     1       7.098  -4.487   9.373  1.00  0.00     0.059 A 
ATOM     77  F   UNL     1       7.970  -2.480   8.530  1.00  0.00    -0.206 F 
ATOM     78  C   UNL     1       6.525  -5.194  10.430  1.00  0.00     0.060 A 
BRANCH  78  79
ATOM     79  S   UNL     1       6.073  -6.930  10.220  1.00  0.00     0.124 S 
ATOM     80  O   UNL     1       7.102  -7.598  11.007  1.00  0.00    -0.237 OA
ATOM     81  O   UNL     1       4.722  -6.964  10.770  1.00  0.00    -0.237 OA
ATOM     82  O   UNL     1       6.157  -7.123   8.775  1.00  0.00    -0.744 OA
ENDBRANCH  78  79
ENDBRANCH  46  71
BRANCH  58  83
ATOM     83  C   UNL     1      11.825   0.955  14.650  1.00  0.00     0.058 A 
ATOM     84  C   UNL     1      12.996   0.286  14.262  1.00  0.00     0.135 A 
ATOM     85  C   UNL     1      11.648   1.226  16.017  1.00  0.00     0.135 A 
ATOM     86  F   UNL     1      13.212  -0.004  12.969  1.00  0.00    -0.206 F 
ATOM     87  C   UNL     1      13.943  -0.122  15.196  1.00  0.00     0.059 A 
ATOM     88  C   UNL     1      12.594   0.852  16.965  1.00  0.00     0.059 A 
ATOM     89  F   UNL     1      10.550   1.872  16.441  1.00  0.00    -0.206 F 
ATOM     90  C   UNL     1      13.733   0.165  16.546  1.00  0.00     0.060 A 
BRANCH  90  91
ATOM     91  S   UNL     1      14.980  -0.349  17.745  1.00  0.00     0.124 S 
ATOM     92  O   UNL     1      14.741  -1.786  17.820  1.00  0.00    -0.237 OA
ATOM     93  O   UNL     1      16.224   0.054  17.096  1.00  0.00    -0.237 OA
ATOM     94  O   UNL     1      14.632   0.409  18.943  1.00  0.00    -0.744 OA
ENDBRANCH  90  91
ENDBRANCH  58  83
ENDBRANCH  32  33
ENDBRANCH  24  27
ENDBRANCH  22  23
ENDBRANCH   1  22
TORSDOF 16
