REMARK SMILES Cc1cc(F)cc(N[C@](C)(C(=O)NCCCNC(=O)c2ccc(-c3c4nc(c(-c5c(F)cc(S(=O)(=O)[O-])cc5F)c5ccc([nH]5)c(-c5c(F)cc(S(=O)(=O)[O-])cc5F)c5nc(c(-c6c(F)cc(S(=O)(=O)[O-])cc6F)c6ccc3[nH]6)C=C5)C=C4)cc2)c2cccc(F)c2)c1
REMARK SMILES IDX 15 1 14 2 13 3 11 4 12 5 9 7 10 8 8 9 7 11 1 12 2 13 3 14
REMARK SMILES IDX 93 15 4 16 5 17 6 18 86 19 87 20 92 21 88 22 90 23 89 24
REMARK SMILES IDX 91 25 16 26 17 27 18 28 19 30 20 31 21 32 85 33 22 34 84 35
REMARK SMILES IDX 23 36 24 37 25 38 78 39 26 40 83 41 77 42 79 43 27 44 82 45
REMARK SMILES IDX 76 46 75 47 28 49 62 50 41 51 61 52 42 53 45 54 60 55 80 56
REMARK SMILES IDX 43 57 44 58 59 60 81 61 46 62 29 63 30 64 39 65 31 66 32 67
REMARK SMILES IDX 38 68 40 69 33 70 34 71 35 72 36 73 37 74 63 75 64 76 73 77
REMARK SMILES IDX 65 78 66 79 72 80 74 81 67 82 68 83 69 84 70 85 71 86 47 87
REMARK SMILES IDX 48 88 57 89 49 90 50 91 56 92 58 93 51 94 52 95 53 96 54 97
REMARK SMILES IDX 55 98
REMARK H PARENT 13 6 8 10 17 29 79 48 45 59
REMARK Flexibility Score: inf
ROOT
ATOM      1  C   UNL     1      -3.938  -6.402   1.262  1.00  0.00     0.042 C 
ENDROOT
BRANCH   1   2
ATOM      2  C   UNL     1      -3.845  -4.958   0.775  1.00  0.00     0.117 C 
BRANCH   2   3
ATOM      3  N   UNL     1      -2.827  -4.226   1.498  1.00  0.00    -0.354 N 
ATOM      4  C   UNL     1      -1.509  -4.000   1.249  1.00  0.00     0.250 C 
ATOM      5  O   UNL     1      -0.855  -3.654   2.247  1.00  0.00    -0.272 OA
ATOM      6  H   UNL     1      -3.150  -3.813   2.331  1.00  0.00     0.163 HD
BRANCH   4   7
ATOM      7  C   UNL     1      -0.800  -4.157  -0.170  1.00  0.00     0.139 C 
ATOM      8  C   UNL     1      -1.641  -3.862  -1.436  1.00  0.00     0.051 C 
BRANCH   7   9
ATOM      9  N   UNL     1       0.314  -3.148  -0.190  1.00  0.00    -0.368 N 
ATOM     10  H   UNL     1       1.226  -3.506  -0.284  1.00  0.00     0.161 HD
BRANCH   9  11
ATOM     11  C   UNL     1       0.203  -1.760  -0.090  1.00  0.00     0.038 A 
ATOM     12  C   UNL     1       2.684   1.168  -0.077  1.00  0.00     0.044 C 
ATOM     13  C   UNL     1       1.400   0.396  -0.056  1.00  0.00    -0.046 A 
ATOM     14  C   UNL     1       0.185   1.069   0.064  1.00  0.00     0.042 A 
ATOM     15  C   UNL     1       1.393  -1.007  -0.149  1.00  0.00     0.029 A 
ATOM     16  C   UNL     1      -0.994   0.341   0.102  1.00  0.00     0.125 A 
ATOM     17  F   UNL     1      -2.162   0.989   0.223  1.00  0.00    -0.207 F 
ATOM     18  C   UNL     1      -0.992  -1.051   0.027  1.00  0.00     0.065 A 
ENDBRANCH   9  11
ENDBRANCH   7   9
BRANCH   7  19
ATOM     19  C   UNL     1      -0.222  -5.609  -0.245  1.00  0.00    -0.011 A 
ATOM     20  C   UNL     1       1.091  -5.951   0.140  1.00  0.00     0.007 A 
ATOM     21  C   UNL     1      -1.054  -6.687  -0.617  1.00  0.00     0.046 A 
ATOM     22  C   UNL     1       1.536  -7.284   0.159  1.00  0.00     0.003 A 
ATOM     23  C   UNL     1      -0.613  -8.009  -0.575  1.00  0.00     0.123 A 
ATOM     24  C   UNL     1       0.676  -8.319  -0.188  1.00  0.00     0.039 A 
ATOM     25  F   UNL     1      -1.467  -8.990  -0.892  1.00  0.00    -0.207 F 
ENDBRANCH   7  19
ENDBRANCH   4   7
ENDBRANCH   2   3
ENDBRANCH   1   2
BRANCH   1  26
ATOM     26  C   UNL     1      -4.633  -6.556   2.609  1.00  0.00     0.118 C 
BRANCH  26  27
ATOM     27  N   UNL     1      -6.058  -6.282   2.522  1.00  0.00    -0.352 N 
ATOM     28  C   UNL     1      -7.135  -7.099   2.759  1.00  0.00     0.251 C 
ATOM     29  H   UNL     1      -6.287  -5.364   2.249  1.00  0.00     0.163 HD
ATOM     30  O   UNL     1      -8.248  -6.729   2.394  1.00  0.00    -0.269 OA
BRANCH  28  31
ATOM     31  C   UNL     1      -6.976  -8.408   3.437  1.00  0.00     0.039 A 
ATOM     32  C   UNL     1      -7.800  -9.468   3.046  1.00  0.00     0.014 A 
ATOM     33  C   UNL     1      -6.079  -8.585   4.494  1.00  0.00     0.014 A 
ATOM     34  C   UNL     1      -7.701 -10.705   3.689  1.00  0.00     0.010 A 
ATOM     35  C   UNL     1      -5.920  -9.842   5.076  1.00  0.00     0.010 A 
ATOM     36  C   UNL     1      -6.746 -10.909   4.698  1.00  0.00    -0.014 A 
BRANCH  36  37
ATOM     37  C   UNL     1      -6.628 -12.220   5.387  1.00  0.00     0.031 A 
ATOM     38  C   UNL     1      -6.926 -12.333   6.859  1.00  0.00     0.074 A 
ATOM     39  C   UNL     1      -6.216 -13.302   4.698  1.00  0.00     0.049 A 
ATOM     40  N   UNL     1      -6.870 -13.384   7.637  1.00  0.00    -0.248 NA
ATOM     41  C   UNL     1      -7.309 -11.095   7.556  1.00  0.00     0.031 C 
ATOM     42  C   UNL     1      -5.848 -13.310   3.281  1.00  0.00     0.029 A 
ATOM     43  N   UNL     1      -6.039 -14.603   5.095  1.00  0.00    -0.354 N 
ATOM     44  C   UNL     1      -7.190 -12.932   8.912  1.00  0.00     0.074 A 
ATOM     45  C   UNL     1      -7.382 -11.502   8.814  1.00  0.00     0.031 C 
ATOM     46  C   UNL     1      -5.529 -14.562   2.918  1.00  0.00     0.029 A 
ATOM     47  C   UNL     1      -5.639 -15.439   4.080  1.00  0.00     0.049 A 
ATOM     48  H   UNL     1      -6.185 -14.909   6.019  1.00  0.00     0.167 HD
ATOM     49  C   UNL     1      -7.336 -13.645  10.056  1.00  0.00     0.037 A 
ATOM     50  C   UNL     1      -5.398 -16.764   4.083  1.00  0.00     0.037 A 
ATOM     51  C   UNL     1      -7.173 -15.072  10.139  1.00  0.00     0.049 A 
ATOM     52  C   UNL     1      -5.584 -17.541   5.356  1.00  0.00     0.074 A 
ATOM     53  C   UNL     1      -7.362 -15.900  11.232  1.00  0.00     0.029 A 
ATOM     54  N   UNL     1      -6.777 -15.885   9.086  1.00  0.00    -0.354 N 
ATOM     55  N   UNL     1      -5.953 -17.109   6.538  1.00  0.00    -0.248 NA
ATOM     56  C   UNL     1      -5.328 -18.986   5.295  1.00  0.00     0.031 C 
ATOM     57  C   UNL     1      -7.045 -17.208  10.849  1.00  0.00     0.029 A 
ATOM     58  C   UNL     1      -6.699 -17.202   9.506  1.00  0.00     0.049 A 
ATOM     59  H   UNL     1      -6.582 -15.571   8.174  1.00  0.00     0.167 HD
ATOM     60  C   UNL     1      -5.999 -18.232   7.357  1.00  0.00     0.074 A 
ATOM     61  C   UNL     1      -5.626 -19.363   6.532  1.00  0.00     0.031 C 
ATOM     62  C   UNL     1      -6.325 -18.317   8.671  1.00  0.00     0.037 A 
BRANCH  49  63
ATOM     63  C   UNL     1      -7.688 -12.879  11.303  1.00  0.00     0.058 A 
ATOM     64  C   UNL     1      -8.945 -12.272  11.468  1.00  0.00     0.135 A 
ATOM     65  C   UNL     1      -6.753 -12.732  12.340  1.00  0.00     0.135 A 
ATOM     66  F   UNL     1      -9.874 -12.370  10.504  1.00  0.00    -0.206 F 
ATOM     67  C   UNL     1      -9.241 -11.502  12.588  1.00  0.00     0.059 A 
ATOM     68  C   UNL     1      -7.039 -11.991  13.484  1.00  0.00     0.059 A 
ATOM     69  F   UNL     1      -5.538 -13.295  12.240  1.00  0.00    -0.206 F 
ATOM     70  C   UNL     1      -8.277 -11.357  13.585  1.00  0.00     0.060 A 
BRANCH  70  71
ATOM     71  S   UNL     1      -8.656 -10.318  15.012  1.00  0.00     0.124 S 
ATOM     72  O   UNL     1      -8.502  -8.982  14.445  1.00  0.00    -0.237 OA
ATOM     73  O   UNL     1     -10.022 -10.713  15.337  1.00  0.00    -0.237 OA
ATOM     74  O   UNL     1      -7.645 -10.705  15.992  1.00  0.00    -0.744 OA
ENDBRANCH  70  71
ENDBRANCH  49  63
BRANCH  50  75
ATOM     75  C   UNL     1      -5.018 -17.441   2.815  1.00  0.00     0.058 A 
ATOM     76  C   UNL     1      -5.940 -18.246   2.131  1.00  0.00     0.135 A 
ATOM     77  C   UNL     1      -3.756 -17.251   2.233  1.00  0.00     0.135 A 
ATOM     78  F   UNL     1      -7.158 -18.461   2.652  1.00  0.00    -0.206 F 
ATOM     79  C   UNL     1      -5.628 -18.837   0.912  1.00  0.00     0.059 A 
ATOM     80  C   UNL     1      -3.426 -17.815   1.004  1.00  0.00     0.059 A 
ATOM     81  F   UNL     1      -2.844 -16.476   2.842  1.00  0.00    -0.206 F 
ATOM     82  C   UNL     1      -4.370 -18.609   0.352  1.00  0.00     0.060 A 
BRANCH  82  83
ATOM     83  S   UNL     1      -4.007 -19.311  -1.272  1.00  0.00     0.124 S 
ATOM     84  O   UNL     1      -3.837 -20.723  -0.951  1.00  0.00    -0.237 OA
ATOM     85  O   UNL     1      -5.206 -18.968  -2.030  1.00  0.00    -0.237 OA
ATOM     86  O   UNL     1      -2.795 -18.605  -1.679  1.00  0.00    -0.744 OA
ENDBRANCH  82  83
ENDBRANCH  50  75
BRANCH  62  87
ATOM     87  C   UNL     1      -6.318 -19.685   9.295  1.00  0.00     0.058 A 
ATOM     88  C   UNL     1      -5.120 -20.348   9.602  1.00  0.00     0.135 A 
ATOM     89  C   UNL     1      -7.525 -20.315   9.637  1.00  0.00     0.135 A 
ATOM     90  F   UNL     1      -3.940 -19.791   9.289  1.00  0.00    -0.206 F 
ATOM     91  C   UNL     1      -5.119 -21.599  10.210  1.00  0.00     0.059 A 
ATOM     92  C   UNL     1      -7.547 -21.555  10.268  1.00  0.00     0.059 A 
ATOM     93  F   UNL     1      -8.698 -19.719   9.373  1.00  0.00    -0.206 F 
ATOM     94  C   UNL     1      -6.338 -22.194  10.541  1.00  0.00     0.060 A 
BRANCH  94  95
ATOM     95  S   UNL     1      -6.324 -23.801  11.363  1.00  0.00     0.124 S 
ATOM     96  O   UNL     1      -5.998 -24.695  10.257  1.00  0.00    -0.237 OA
ATOM     97  O   UNL     1      -5.279 -23.630  12.368  1.00  0.00    -0.237 OA
ATOM     98  O   UNL     1      -7.679 -23.924  11.892  1.00  0.00    -0.744 OA
ENDBRANCH  94  95
ENDBRANCH  62  87
ENDBRANCH  36  37
ENDBRANCH  28  31
ENDBRANCH  26  27
ENDBRANCH   1  26
TORSDOF 16
