REMARK SMILES Cc1cc(Cl)ccc1Oc1cc(C)c(N)c(C(=O)NCCCNC(=O)c2ccc(-c3c4nc(c(-c5c(F)cc(S(=O)(=O)[O-])cc5F)c5ccc([nH]5)c(-c5c(F)cc(S(=O)(=O)[O-])cc5F)c5nc(c(-c6c(F)cc(S(=O)(=O)[O-])cc6F)c6ccc3[nH]6)C=C5)C=C4)cc2)c1
REMARK SMILES IDX 21 1 20 2 19 3 17 4 18 5 16 7 10 8 11 9 92 10 12 11 13 12
REMARK SMILES IDX 14 13 9 14 8 15 1 16 2 17 3 18 4 19 7 20 5 21 6 22 15 23
REMARK SMILES IDX 22 26 23 27 24 28 25 30 26 31 27 32 91 33 28 34 90 35 29 36
REMARK SMILES IDX 30 37 31 38 84 39 32 40 89 41 83 42 85 43 33 44 88 45 82 46
REMARK SMILES IDX 81 47 34 49 68 50 47 51 67 52 48 53 51 54 66 55 86 56 49 57
REMARK SMILES IDX 50 58 65 60 87 61 52 62 35 63 36 64 45 65 37 66 38 67 44 68
REMARK SMILES IDX 46 69 39 70 40 71 41 72 42 73 43 74 69 75 70 76 79 77 71 78
REMARK SMILES IDX 72 79 78 80 80 81 73 82 74 83 75 84 76 85 77 86 53 87 54 88
REMARK SMILES IDX 63 89 55 90 56 91 62 92 64 93 57 94 58 95 59 96 60 97 61 98
REMARK H PARENT 19 6 15 24 15 25 23 29 85 48 51 59
REMARK Flexibility Score: inf
ROOT
ATOM      1  C   UNL     1      -5.526  -1.451   4.259  1.00  0.00     0.042 C 
ENDROOT
BRANCH   1   2
ATOM      2  C   UNL     1      -6.651  -1.456   3.221  1.00  0.00     0.118 C 
BRANCH   2   3
ATOM      3  N   UNL     1      -7.245  -0.137   3.089  1.00  0.00    -0.352 N 
ATOM      4  C   UNL     1      -7.113   0.882   2.178  1.00  0.00     0.253 C 
ATOM      5  O   UNL     1      -7.800   1.886   2.389  1.00  0.00    -0.269 OA
ATOM      6  H   UNL     1      -7.881   0.073   3.811  1.00  0.00     0.163 HD
BRANCH   4   7
ATOM      7  C   UNL     1      -6.235   0.829   0.962  1.00  0.00     0.066 A 
ATOM      8  C   UNL     1      -4.303  -0.021  -0.229  1.00  0.00     0.128 A 
ATOM      9  C   UNL     1      -4.647   0.702  -1.363  1.00  0.00     0.052 A 
ATOM     10  C   UNL     1      -5.082   0.041   0.923  1.00  0.00     0.063 A 
ATOM     11  C   UNL     1      -5.732   1.586  -1.321  1.00  0.00    -0.024 A 
ATOM     12  C   UNL     1      -5.988   2.469  -2.513  1.00  0.00     0.047 C 
ATOM     13  C   UNL     1      -6.530   1.667  -0.154  1.00  0.00     0.048 A 
BRANCH   8  14
ATOM     14  O   UNL     1      -3.265  -0.906  -0.251  1.00  0.00    -0.457 OA
BRANCH  14  15
ATOM     15  C   UNL     1      -1.957  -0.490  -0.122  1.00  0.00     0.130 A 
ATOM     16  C   UNL     1      -2.233   2.056   0.279  1.00  0.00     0.048 C 
ATOM     17  C   UNL     1      -1.433   0.795   0.110  1.00  0.00    -0.007 A 
ATOM     18  C   UNL     1      -0.028   0.940   0.173  1.00  0.00     0.027 A 
ATOM     19  C   UNL     1       0.826  -0.154   0.048  1.00  0.00     0.041 A 
ATOM     20  C   UNL     1      -1.075  -1.585  -0.232  1.00  0.00     0.049 A 
ATOM     21  Cl  UNL     1       2.528   0.075   0.124  1.00  0.00    -0.084 Cl
ATOM     22  C   UNL     1       0.306  -1.424  -0.143  1.00  0.00     0.024 A 
ENDBRANCH  14  15
ENDBRANCH   8  14
BRANCH  13  23
ATOM     23  N   UNL     1      -7.684   2.462  -0.175  1.00  0.00    -0.398 N 
ATOM     24  H   UNL     1      -7.873   3.035  -0.954  1.00  0.00     0.156 HD
ATOM     25  H   UNL     1      -8.306   2.448   0.588  1.00  0.00     0.156 HD
ENDBRANCH  13  23
ENDBRANCH   4   7
ENDBRANCH   2   3
ENDBRANCH   1   2
BRANCH   1  26
ATOM     26  C   UNL     1      -6.027  -1.353   5.701  1.00  0.00     0.118 C 
BRANCH  26  27
ATOM     27  N   UNL     1      -6.727  -2.559   6.114  1.00  0.00    -0.352 N 
ATOM     28  C   UNL     1      -6.493  -3.401   7.172  1.00  0.00     0.251 C 
ATOM     29  H   UNL     1      -7.489  -2.811   5.545  1.00  0.00     0.163 HD
ATOM     30  O   UNL     1      -7.055  -4.493   7.198  1.00  0.00    -0.269 OA
BRANCH  28  31
ATOM     31  C   UNL     1      -5.581  -3.014   8.272  1.00  0.00     0.039 A 
ATOM     32  C   UNL     1      -4.762  -3.997   8.839  1.00  0.00     0.014 A 
ATOM     33  C   UNL     1      -5.581  -1.720   8.800  1.00  0.00     0.014 A 
ATOM     34  C   UNL     1      -3.921  -3.675   9.908  1.00  0.00     0.010 A 
ATOM     35  C   UNL     1      -4.697  -1.385   9.827  1.00  0.00     0.010 A 
ATOM     36  C   UNL     1      -3.869  -2.361  10.400  1.00  0.00    -0.014 A 
BRANCH  36  37
ATOM     37  C   UNL     1      -2.968  -2.000  11.524  1.00  0.00     0.031 A 
ATOM     38  C   UNL     1      -3.542  -1.564  12.846  1.00  0.00     0.074 A 
ATOM     39  C   UNL     1      -1.633  -2.016  11.339  1.00  0.00     0.049 A 
ATOM     40  N   UNL     1      -2.921  -1.155  13.923  1.00  0.00    -0.248 NA
ATOM     41  C   UNL     1      -5.008  -1.564  12.964  1.00  0.00     0.031 C 
ATOM     42  C   UNL     1      -0.958  -2.377  10.091  1.00  0.00     0.029 A 
ATOM     43  N   UNL     1      -0.606  -1.713  12.196  1.00  0.00    -0.354 N 
ATOM     44  C   UNL     1      -3.917  -0.833  14.838  1.00  0.00     0.074 A 
ATOM     45  C   UNL     1      -5.184  -1.050  14.174  1.00  0.00     0.031 C 
ATOM     46  C   UNL     1       0.370  -2.293  10.269  1.00  0.00     0.029 A 
ATOM     47  C   UNL     1       0.641  -1.843  11.631  1.00  0.00     0.049 A 
ATOM     48  H   UNL     1      -0.747  -1.429  13.128  1.00  0.00     0.167 HD
ATOM     49  C   UNL     1      -3.788  -0.414  16.120  1.00  0.00     0.037 A 
ATOM     50  C   UNL     1       1.864  -1.623  12.151  1.00  0.00     0.037 A 
ATOM     51  C   UNL     1      -2.523  -0.229  16.784  1.00  0.00     0.049 A 
ATOM     52  C   UNL     1       1.983  -1.180  13.583  1.00  0.00     0.074 A 
ATOM     53  C   UNL     1      -2.285   0.141  18.097  1.00  0.00     0.029 A 
ATOM     54  N   UNL     1      -1.283  -0.403  16.188  1.00  0.00    -0.354 N 
ATOM     55  N   UNL     1       1.030  -0.930  14.450  1.00  0.00    -0.248 NA
ATOM     56  C   UNL     1       3.342  -0.999  14.111  1.00  0.00     0.031 C 
ATOM     57  C   UNL     1      -0.901   0.221  18.285  1.00  0.00     0.029 A 
ATOM     58  C   UNL     1      -0.276  -0.139  17.101  1.00  0.00     0.049 A 
ATOM     59  H   UNL     1      -1.139  -0.675  15.253  1.00  0.00     0.167 HD
ATOM     60  C   UNL     1       1.674  -0.587  15.633  1.00  0.00     0.074 A 
ATOM     61  C   UNL     1       3.097  -0.672  15.373  1.00  0.00     0.031 C 
ATOM     62  C   UNL     1       1.136  -0.235  16.827  1.00  0.00     0.037 A 
BRANCH  49  63
ATOM     63  C   UNL     1      -5.050  -0.131  16.889  1.00  0.00     0.058 A 
ATOM     64  C   UNL     1      -5.906  -1.164  17.304  1.00  0.00     0.135 A 
ATOM     65  C   UNL     1      -5.398   1.184  17.236  1.00  0.00     0.135 A 
ATOM     66  F   UNL     1      -5.629  -2.439  16.988  1.00  0.00    -0.206 F 
ATOM     67  C   UNL     1      -7.079  -0.901  18.005  1.00  0.00     0.059 A 
ATOM     68  C   UNL     1      -6.553   1.469  17.960  1.00  0.00     0.059 A 
ATOM     69  F   UNL     1      -4.615   2.211  16.867  1.00  0.00    -0.206 F 
ATOM     70  C   UNL     1      -7.396   0.420  18.324  1.00  0.00     0.060 A 
BRANCH  70  71
ATOM     71  S   UNL     1      -8.925   0.747  19.227  1.00  0.00     0.124 S 
ATOM     72  O   UNL     1      -9.925   0.564  18.179  1.00  0.00    -0.237 OA
ATOM     73  O   UNL     1      -8.903  -0.279  20.265  1.00  0.00    -0.237 OA
ATOM     74  O   UNL     1      -8.754   2.117  19.700  1.00  0.00    -0.744 OA
ENDBRANCH  70  71
ENDBRANCH  49  63
BRANCH  50  75
ATOM     75  C   UNL     1       3.074  -1.853  11.318  1.00  0.00     0.058 A 
ATOM     76  C   UNL     1       3.909  -2.955  11.554  1.00  0.00     0.135 A 
ATOM     77  C   UNL     1       3.405  -0.995  10.259  1.00  0.00     0.135 A 
ATOM     78  F   UNL     1       3.635  -3.801  12.558  1.00  0.00    -0.206 F 
ATOM     79  C   UNL     1       5.039  -3.192  10.778  1.00  0.00     0.059 A 
ATOM     80  C   UNL     1       4.517  -1.223   9.454  1.00  0.00     0.059 A 
ATOM     81  F   UNL     1       2.627   0.063   9.982  1.00  0.00    -0.206 F 
ATOM     82  C   UNL     1       5.333  -2.320   9.727  1.00  0.00     0.060 A 
BRANCH  82  83
ATOM     83  S   UNL     1       6.771  -2.668   8.691  1.00  0.00     0.124 S 
ATOM     84  O   UNL     1       7.867  -2.268   9.566  1.00  0.00    -0.237 OA
ATOM     85  O   UNL     1       6.636  -4.101   8.448  1.00  0.00    -0.237 OA
ATOM     86  O   UNL     1       6.553  -1.820   7.522  1.00  0.00    -0.744 OA
ENDBRANCH  82  83
ENDBRANCH  50  75
BRANCH  62  87
ATOM     87  C   UNL     1       2.089   0.051  17.953  1.00  0.00     0.058 A 
ATOM     88  C   UNL     1       2.844   1.233  17.998  1.00  0.00     0.135 A 
ATOM     89  C   UNL     1       2.217  -0.852  19.021  1.00  0.00     0.135 A 
ATOM     90  F   UNL     1       2.762   2.125  16.999  1.00  0.00    -0.206 F 
ATOM     91  C   UNL     1       3.712   1.499  19.052  1.00  0.00     0.059 A 
ATOM     92  C   UNL     1       3.061  -0.595  20.097  1.00  0.00     0.059 A 
ATOM     93  F   UNL     1       1.510  -1.993  19.031  1.00  0.00    -0.206 F 
ATOM     94  C   UNL     1       3.814   0.578  20.096  1.00  0.00     0.060 A 
BRANCH  94  95
ATOM     95  S   UNL     1       4.925   0.946  21.472  1.00  0.00     0.124 S 
ATOM     96  O   UNL     1       6.227   0.653  20.884  1.00  0.00    -0.237 OA
ATOM     97  O   UNL     1       4.648   2.356  21.731  1.00  0.00    -0.237 OA
ATOM     98  O   UNL     1       4.486   0.026  22.517  1.00  0.00    -0.744 OA
ENDBRANCH  94  95
ENDBRANCH  62  87
ENDBRANCH  36  37
ENDBRANCH  28  31
ENDBRANCH  26  27
ENDBRANCH   1  26
TORSDOF 16
