REMARK SMILES CCOc1cc(/C=N/O)cc(Cl)c1OCc1ccc(C(=O)NCCCNC(=O)c2ccc(-c3c4nc(c(-c5c(F)cc(S(=O)(=O)[O-])cc5F)c5ccc([nH]5)c(-c5c(F)cc(S(=O)(=O)[O-])cc5F)c5nc(c(-c6c(F)cc(S(=O)(=O)[O-])cc6F)c6ccc3[nH]6)C=C5)C=C4)cc2)cc1
REMARK SMILES IDX 23 1 22 2 20 3 21 4 19 6 16 7 17 8 96 9 18 10 95 11 15 12
REMARK SMILES IDX 14 13 13 14 4 15 5 16 6 17 11 18 10 19 12 20 3 21 2 22 1 23
REMARK SMILES IDX 7 24 8 25 9 26 24 28 25 29 26 30 27 31 28 33 29 34 30 35
REMARK SMILES IDX 94 36 31 37 93 38 32 39 33 40 34 41 87 42 35 43 92 44 86 45
REMARK SMILES IDX 88 46 36 47 91 48 85 49 84 50 37 52 71 53 50 54 70 55 51 56
REMARK SMILES IDX 54 57 69 58 89 59 52 60 53 61 68 63 90 64 55 65 38 66 39 67
REMARK SMILES IDX 48 68 40 69 41 70 47 71 49 72 42 73 43 74 44 75 45 76 46 77
REMARK SMILES IDX 72 78 73 79 82 80 74 81 75 82 81 83 83 84 76 85 77 86 78 87
REMARK SMILES IDX 79 88 80 89 56 90 57 91 66 92 58 93 59 94 65 95 67 96 60 97
REMARK SMILES IDX 61 98 62 99 63 100 64 101
REMARK H PARENT 22 5 9 27 26 32 88 51 54 62
REMARK Flexibility Score: inf
ROOT
ATOM      1  C   UNL     1       4.560   3.529  -7.686  1.00  0.00     0.118 C 
ENDROOT
BRANCH   1   2
ATOM      2  N   UNL     1       5.853   2.871  -7.664  1.00  0.00    -0.352 N 
ATOM      3  C   UNL     1       6.193   1.570  -7.399  1.00  0.00     0.251 C 
ATOM      4  O   UNL     1       7.359   1.222  -7.579  1.00  0.00    -0.269 OA
ATOM      5  H   UNL     1       6.615   3.458  -7.875  1.00  0.00     0.163 HD
BRANCH   3   6
ATOM      6  C   UNL     1       5.200   0.562  -6.945  1.00  0.00     0.039 A 
ATOM      7  C   UNL     1       3.493  -1.491  -6.037  1.00  0.00    -0.011 A 
ATOM      8  C   UNL     1       4.521  -1.768  -6.951  1.00  0.00     0.008 A 
ATOM      9  C   UNL     1       3.299  -0.170  -5.623  1.00  0.00     0.008 A 
ATOM     10  C   UNL     1       5.374  -0.753  -7.391  1.00  0.00     0.014 A 
ATOM     11  C   UNL     1       4.167   0.841  -6.046  1.00  0.00     0.014 A 
BRANCH   7  12
ATOM     12  C   UNL     1       2.623  -2.616  -5.516  1.00  0.00     0.265 C 
BRANCH  12  13
ATOM     13  O   UNL     1       2.245  -2.561  -4.135  1.00  0.00    -0.483 OA
BRANCH  13  14
ATOM     14  C   UNL     1       3.158  -2.288  -3.148  1.00  0.00     0.180 A 
ATOM     15  C   UNL     1       2.621  -1.593  -2.040  1.00  0.00     0.163 A 
ATOM     16  C   UNL     1       3.429  -1.239  -0.959  1.00  0.00     0.060 A 
ATOM     17  C   UNL     1       4.790  -1.532  -0.981  1.00  0.00     0.001 A 
ATOM     18  C   UNL     1       4.517  -2.645  -3.115  1.00  0.00     0.087 A 
ATOM     19  C   UNL     1       5.337  -2.227  -2.055  1.00  0.00     0.034 A 
ATOM     20  Cl  UNL     1       5.271  -3.727  -4.234  1.00  0.00    -0.080 Cl
BRANCH  15  21
ATOM     21  O   UNL     1       1.260  -1.400  -1.989  1.00  0.00    -0.490 OA
BRANCH  21  22
ATOM     22  C   UNL     1       0.829  -0.059  -1.725  1.00  0.00     0.226 C 
ATOM     23  C   UNL     1       0.537   0.179  -0.250  1.00  0.00     0.049 C 
ENDBRANCH  21  22
ENDBRANCH  15  21
BRANCH  17  24
ATOM     24  C   UNL     1       5.648  -1.188   0.168  1.00  0.00     0.162 C 
ATOM     25  N   UNL     1       5.154  -0.715   1.267  1.00  0.00    -0.097 NA
BRANCH  25  26
ATOM     26  O   UNL     1       6.190  -0.508   2.183  1.00  0.00    -0.411 OA
ATOM     27  H   UNL     1       6.002  -0.167   3.034  1.00  0.00     0.330 HD
ENDBRANCH  25  26
ENDBRANCH  17  24
ENDBRANCH  13  14
ENDBRANCH  12  13
ENDBRANCH   7  12
ENDBRANCH   3   6
ENDBRANCH   1   2
BRANCH   1  28
ATOM     28  C   UNL     1       4.366   4.428  -6.467  1.00  0.00     0.042 C 
BRANCH  28  29
ATOM     29  C   UNL     1       5.190   5.711  -6.513  1.00  0.00     0.118 C 
BRANCH  29  30
ATOM     30  N   UNL     1       4.730   6.610  -7.558  1.00  0.00    -0.352 N 
ATOM     31  C   UNL     1       4.285   7.904  -7.482  1.00  0.00     0.251 C 
ATOM     32  H   UNL     1       4.740   6.228  -8.466  1.00  0.00     0.163 HD
ATOM     33  O   UNL     1       3.710   8.386  -8.455  1.00  0.00    -0.269 OA
BRANCH  31  34
ATOM     34  C   UNL     1       4.486   8.721  -6.263  1.00  0.00     0.039 A 
ATOM     35  C   UNL     1       3.502   9.653  -5.920  1.00  0.00     0.014 A 
ATOM     36  C   UNL     1       5.662   8.648  -5.509  1.00  0.00     0.014 A 
ATOM     37  C   UNL     1       3.688  10.496  -4.823  1.00  0.00     0.010 A 
ATOM     38  C   UNL     1       5.817   9.441  -4.372  1.00  0.00     0.010 A 
ATOM     39  C   UNL     1       4.845  10.392  -4.033  1.00  0.00    -0.014 A 
BRANCH  39  40
ATOM     40  C   UNL     1       5.057  11.306  -2.882  1.00  0.00     0.031 A 
ATOM     41  C   UNL     1       6.176  12.316  -2.912  1.00  0.00     0.074 A 
ATOM     42  C   UNL     1       4.256  11.215  -1.804  1.00  0.00     0.049 A 
ATOM     43  N   UNL     1       6.514  13.200  -2.009  1.00  0.00    -0.248 NA
ATOM     44  C   UNL     1       7.044  12.315  -4.101  1.00  0.00     0.031 C 
ATOM     45  C   UNL     1       3.176  10.240  -1.633  1.00  0.00     0.029 A 
ATOM     46  N   UNL     1       4.224  11.951  -0.646  1.00  0.00    -0.354 N 
ATOM     47  C   UNL     1       7.638  13.847  -2.511  1.00  0.00     0.074 A 
ATOM     48  C   UNL     1       7.954  13.222  -3.776  1.00  0.00     0.031 C 
ATOM     49  C   UNL     1       2.573  10.454  -0.452  1.00  0.00     0.029 A 
ATOM     50  C   UNL     1       3.235  11.564   0.226  1.00  0.00     0.049 A 
ATOM     51  H   UNL     1       4.851  12.687  -0.459  1.00  0.00     0.167 HD
ATOM     52  C   UNL     1       8.328  14.885  -1.979  1.00  0.00     0.037 A 
ATOM     53  C   UNL     1       2.896  12.053   1.435  1.00  0.00     0.037 A 
ATOM     54  C   UNL     1       7.984  15.529  -0.738  1.00  0.00     0.049 A 
ATOM     55  C   UNL     1       3.648  13.235   1.982  1.00  0.00     0.074 A 
ATOM     56  C   UNL     1       8.576  16.631  -0.146  1.00  0.00     0.029 A 
ATOM     57  N   UNL     1       6.953  15.132   0.101  1.00  0.00    -0.354 N 
ATOM     58  N   UNL     1       4.664  13.880   1.459  1.00  0.00    -0.248 NA
ATOM     59  C   UNL     1       3.199  13.766   3.276  1.00  0.00     0.031 C 
ATOM     60  C   UNL     1       7.924  16.880   1.068  1.00  0.00     0.029 A 
ATOM     61  C   UNL     1       6.900  15.957   1.212  1.00  0.00     0.049 A 
ATOM     62  H   UNL     1       6.348  14.374  -0.069  1.00  0.00     0.167 HD
ATOM     63  C   UNL     1       4.963  14.904   2.351  1.00  0.00     0.074 A 
ATOM     64  C   UNL     1       4.007  14.805   3.435  1.00  0.00     0.031 C 
ATOM     65  C   UNL     1       5.942  15.841   2.282  1.00  0.00     0.037 A 
BRANCH  52  66
ATOM     66  C   UNL     1       9.518  15.398  -2.744  1.00  0.00     0.058 A 
ATOM     67  C   UNL     1       9.370  16.114  -3.942  1.00  0.00     0.135 A 
ATOM     68  C   UNL     1      10.820  15.204  -2.254  1.00  0.00     0.135 A 
ATOM     69  F   UNL     1       8.150  16.314  -4.464  1.00  0.00    -0.206 F 
ATOM     70  C   UNL     1      10.471  16.596  -4.643  1.00  0.00     0.059 A 
ATOM     71  C   UNL     1      11.934  15.701  -2.925  1.00  0.00     0.059 A 
ATOM     72  F   UNL     1      11.019  14.526  -1.113  1.00  0.00    -0.206 F 
ATOM     73  C   UNL     1      11.750  16.384  -4.126  1.00  0.00     0.060 A 
BRANCH  73  74
ATOM     74  S   UNL     1      13.168  17.026  -5.041  1.00  0.00     0.124 S 
ATOM     75  O   UNL     1      13.248  16.082  -6.152  1.00  0.00    -0.237 OA
ATOM     76  O   UNL     1      12.735  18.375  -5.386  1.00  0.00    -0.237 OA
ATOM     77  O   UNL     1      14.259  16.950  -4.074  1.00  0.00    -0.744 OA
ENDBRANCH  73  74
ENDBRANCH  52  66
BRANCH  53  78
ATOM     78  C   UNL     1       1.770  11.447   2.192  1.00  0.00     0.058 A 
ATOM     79  C   UNL     1       0.551  12.124   2.341  1.00  0.00     0.135 A 
ATOM     80  C   UNL     1       1.888  10.175   2.773  1.00  0.00     0.135 A 
ATOM     81  F   UNL     1       0.392  13.344   1.806  1.00  0.00    -0.206 F 
ATOM     82  C   UNL     1      -0.506  11.571   3.057  1.00  0.00     0.059 A 
ATOM     83  C   UNL     1       0.837   9.591   3.473  1.00  0.00     0.059 A 
ATOM     84  F   UNL     1       3.028   9.478   2.642  1.00  0.00    -0.206 F 
ATOM     85  C   UNL     1      -0.353  10.303   3.619  1.00  0.00     0.060 A 
BRANCH  85  86
ATOM     86  S   UNL     1      -1.746   9.572   4.506  1.00  0.00     0.124 S 
ATOM     87  O   UNL     1      -1.709  10.306   5.766  1.00  0.00    -0.237 OA
ATOM     88  O   UNL     1      -2.868   9.874   3.622  1.00  0.00    -0.237 OA
ATOM     89  O   UNL     1      -1.386   8.159   4.586  1.00  0.00    -0.744 OA
ENDBRANCH  85  86
ENDBRANCH  53  78
BRANCH  65  90
ATOM     90  C   UNL     1       6.009  16.841   3.401  1.00  0.00     0.058 A 
ATOM     91  C   UNL     1       6.466  16.485   4.679  1.00  0.00     0.135 A 
ATOM     92  C   UNL     1       5.627  18.175   3.188  1.00  0.00     0.135 A 
ATOM     93  F   UNL     1       6.839  15.220   4.935  1.00  0.00    -0.206 F 
ATOM     94  C   UNL     1       6.507  17.407   5.719  1.00  0.00     0.059 A 
ATOM     95  C   UNL     1       5.685  19.121   4.206  1.00  0.00     0.059 A 
ATOM     96  F   UNL     1       5.195  18.571   1.980  1.00  0.00    -0.206 F 
ATOM     97  C   UNL     1       6.108  18.723   5.474  1.00  0.00     0.060 A 
BRANCH  97  98
ATOM     98  S   UNL     1       6.164  19.914   6.829  1.00  0.00     0.124 S 
ATOM     99  O   UNL     1       4.971  19.551   7.586  1.00  0.00    -0.237 OA
ATOM    100  O   UNL     1       7.439  19.605   7.468  1.00  0.00    -0.237 OA
ATOM    101  O   UNL     1       6.109  21.204   6.147  1.00  0.00    -0.744 OA
ENDBRANCH  97  98
ENDBRANCH  65  90
ENDBRANCH  39  40
ENDBRANCH  31  34
ENDBRANCH  29  30
ENDBRANCH  28  29
ENDBRANCH   1  28
TORSDOF 20
