REMARK SMILES CC(C)CN(C)c1cc2c(cc1Cl)C=C(C(=O)NCCCNC(=O)c1ccc(-c3c4nc(c(-c5c(F)cc(S(=O)(=O)[O-])cc5F)c5ccc([nH]5)c(-c5c(F)cc(S(=O)(=O)[O-])cc5F)c5nc(c(-c6c(F)cc(S(=O)(=O)[O-])cc6F)c6ccc3[nH]6)C=C5)C=C4)cc1)[C@@H](C(F)(F)F)O2
REMARK SMILES IDX 20 1 19 2 18 3 16 4 17 5 15 7 7 8 8 9 12 10 9 11 11 12 13 13
REMARK SMILES IDX 10 14 96 15 14 16 91 17 5 18 6 19 4 20 2 21 1 22 3 23 92 24
REMARK SMILES IDX 93 25 94 26 95 27 21 28 22 29 23 30 24 32 25 33 26 34 90 35
REMARK SMILES IDX 27 36 89 37 28 38 29 39 30 40 83 41 31 42 88 43 82 44 84 45
REMARK SMILES IDX 32 46 87 47 81 48 80 49 33 51 67 52 46 53 66 54 47 55 50 56
REMARK SMILES IDX 65 57 85 58 48 59 49 60 64 62 86 63 51 64 34 65 35 66 44 67
REMARK SMILES IDX 36 68 37 69 43 70 45 71 38 72 39 73 40 74 41 75 42 76 68 77
REMARK SMILES IDX 69 78 78 79 70 80 71 81 77 82 79 83 72 84 73 85 74 86 75 87
REMARK SMILES IDX 76 88 52 89 53 90 62 91 54 92 55 93 61 94 63 95 56 96 57 97
REMARK SMILES IDX 58 98 59 99 60 100
REMARK H PARENT 18 6 22 31 84 50 50 61
REMARK Flexibility Score: inf
ROOT
ATOM      1  C   UNL     1      -3.863  -0.668  -8.935  1.00  0.00     0.042 C 
ENDROOT
BRANCH   1   2
ATOM      2  C   UNL     1      -2.921  -1.762  -8.462  1.00  0.00     0.118 C 
BRANCH   2   3
ATOM      3  N   UNL     1      -1.558  -1.273  -8.330  1.00  0.00    -0.352 N 
ATOM      4  C   UNL     1      -0.690  -1.031  -7.324  1.00  0.00     0.251 C 
ATOM      5  O   UNL     1       0.418  -0.609  -7.673  1.00  0.00    -0.270 OA
ATOM      6  H   UNL     1      -1.163  -1.062  -9.207  1.00  0.00     0.163 HD
BRANCH   4   7
ATOM      7  C   UNL     1      -0.975  -1.247  -5.882  1.00  0.00     0.067 C 
ATOM      8  C   UNL     1      -0.677  -1.620  -0.866  1.00  0.00     0.059 A 
ATOM      9  C   UNL     1      -1.706  -1.299  -1.767  1.00  0.00     0.074 A 
ATOM     10  C   UNL     1       0.602  -1.895  -1.406  1.00  0.00     0.065 A 
ATOM     11  C   UNL     1      -1.452  -1.225  -3.134  1.00  0.00     0.130 A 
ATOM     12  C   UNL     1       0.874  -1.708  -2.766  1.00  0.00     0.034 A 
ATOM     13  Cl  UNL     1       1.897  -2.517  -0.439  1.00  0.00    -0.082 Cl
ATOM     14  C   UNL     1      -0.156  -1.357  -3.631  1.00  0.00     0.019 A 
ATOM     15  O   UNL     1      -2.521  -1.030  -3.970  1.00  0.00    -0.475 OA
ATOM     16  C   UNL     1       0.078  -1.135  -5.052  1.00  0.00     0.025 C 
ATOM     17  C   UNL     1      -2.321  -1.590  -5.305  1.00  0.00     0.314 C 
BRANCH   8  18
ATOM     18  N   UNL     1      -0.923  -1.629   0.518  1.00  0.00    -0.373 N 
ATOM     19  C   UNL     1      -2.007  -2.511   0.949  1.00  0.00     0.143 C 
BRANCH  18  20
ATOM     20  C   UNL     1      -0.845  -0.314   1.194  1.00  0.00     0.119 C 
BRANCH  20  21
ATOM     21  C   UNL     1       0.608   0.146   1.434  1.00  0.00     0.002 C 
ATOM     22  C   UNL     1       1.119   1.066   0.320  1.00  0.00     0.009 C 
ATOM     23  C   UNL     1       0.747   0.872   2.775  1.00  0.00     0.009 C 
ENDBRANCH  20  21
ENDBRANCH  18  20
ENDBRANCH   8  18
BRANCH  17  24
ATOM     24  C   UNL     1      -2.573  -3.118  -5.307  1.00  0.00     0.429 C 
ATOM     25  F   UNL     1      -3.896  -3.387  -5.186  1.00  0.00    -0.167 F 
ATOM     26  F   UNL     1      -2.165  -3.703  -6.461  1.00  0.00    -0.167 F 
ATOM     27  F   UNL     1      -1.936  -3.769  -4.308  1.00  0.00    -0.167 F 
ENDBRANCH  17  24
ENDBRANCH   4   7
ENDBRANCH   2   3
ENDBRANCH   1   2
BRANCH   1  28
ATOM     28  C   UNL     1      -3.688  -0.357 -10.415  1.00  0.00     0.118 C 
BRANCH  28  29
ATOM     29  N   UNL     1      -4.118  -1.467 -11.264  1.00  0.00    -0.352 N 
ATOM     30  C   UNL     1      -5.231  -1.592 -12.062  1.00  0.00     0.251 C 
ATOM     31  H   UNL     1      -3.517  -2.247 -11.264  1.00  0.00     0.163 HD
ATOM     32  O   UNL     1      -5.539  -2.693 -12.511  1.00  0.00    -0.269 OA
BRANCH  30  33
ATOM     33  C   UNL     1      -6.059  -0.406 -12.354  1.00  0.00     0.039 A 
ATOM     34  C   UNL     1      -5.450   0.816 -12.637  1.00  0.00     0.014 A 
ATOM     35  C   UNL     1      -7.453  -0.504 -12.323  1.00  0.00     0.014 A 
ATOM     36  C   UNL     1      -6.215   1.971 -12.666  1.00  0.00     0.010 A 
ATOM     37  C   UNL     1      -8.230   0.648 -12.476  1.00  0.00     0.010 A 
ATOM     38  C   UNL     1      -7.615   1.905 -12.589  1.00  0.00    -0.014 A 
BRANCH  38  39
ATOM     39  C   UNL     1      -8.399   3.167 -12.620  1.00  0.00     0.031 A 
ATOM     40  C   UNL     1      -9.255   3.570 -11.447  1.00  0.00     0.074 A 
ATOM     41  C   UNL     1      -8.269   3.990 -13.680  1.00  0.00     0.049 A 
ATOM     42  N   UNL     1      -9.998   4.637 -11.300  1.00  0.00    -0.248 NA
ATOM     43  C   UNL     1      -9.285   2.661 -10.289  1.00  0.00     0.031 C 
ATOM     44  C   UNL     1      -7.449   3.716 -14.865  1.00  0.00     0.029 A 
ATOM     45  N   UNL     1      -8.788   5.236 -13.922  1.00  0.00    -0.354 N 
ATOM     46  C   UNL     1     -10.598   4.519 -10.052  1.00  0.00     0.074 A 
ATOM     47  C   UNL     1     -10.156   3.262  -9.489  1.00  0.00     0.031 C 
ATOM     48  C   UNL     1      -7.464   4.788 -15.670  1.00  0.00     0.029 A 
ATOM     49  C   UNL     1      -8.358   5.791 -15.105  1.00  0.00     0.049 A 
ATOM     50  H   UNL     1      -9.410   5.690 -13.309  1.00  0.00     0.167 HD
ATOM     51  C   UNL     1     -11.429   5.387  -9.427  1.00  0.00     0.037 A 
ATOM     52  C   UNL     1      -8.662   6.968 -15.683  1.00  0.00     0.037 A 
ATOM     53  C   UNL     1     -11.838   6.651  -9.982  1.00  0.00     0.049 A 
ATOM     54  C   UNL     1      -9.626   7.887 -14.991  1.00  0.00     0.074 A 
ATOM     55  C   UNL     1     -12.675   7.604  -9.426  1.00  0.00     0.029 A 
ATOM     56  N   UNL     1     -11.434   7.145 -11.213  1.00  0.00    -0.354 N 
ATOM     57  N   UNL     1     -10.202   7.744 -13.821  1.00  0.00    -0.248 NA
ATOM     58  C   UNL     1      -9.995   9.118 -15.701  1.00  0.00     0.031 C 
ATOM     59  C   UNL     1     -12.806   8.656 -10.337  1.00  0.00     0.029 A 
ATOM     60  C   UNL     1     -12.016   8.381 -11.442  1.00  0.00     0.049 A 
ATOM     61  H   UNL     1     -10.823   6.686 -11.834  1.00  0.00     0.167 HD
ATOM     62  C   UNL     1     -10.998   8.870 -13.652  1.00  0.00     0.074 A 
ATOM     63  C   UNL     1     -10.809   9.695 -14.828  1.00  0.00     0.031 C 
ATOM     64  C   UNL     1     -11.815   9.188 -12.619  1.00  0.00     0.037 A 
BRANCH  51  65
ATOM     65  C   UNL     1     -11.960   5.008  -8.071  1.00  0.00     0.058 A 
ATOM     66  C   UNL     1     -11.148   5.040  -6.927  1.00  0.00     0.135 A 
ATOM     67  C   UNL     1     -13.315   4.678  -7.902  1.00  0.00     0.135 A 
ATOM     68  F   UNL     1      -9.841   5.329  -7.033  1.00  0.00    -0.206 F 
ATOM     69  C   UNL     1     -11.658   4.752  -5.664  1.00  0.00     0.059 A 
ATOM     70  C   UNL     1     -13.852   4.409  -6.646  1.00  0.00     0.059 A 
ATOM     71  F   UNL     1     -14.135   4.630  -8.963  1.00  0.00    -0.206 F 
ATOM     72  C   UNL     1     -13.013   4.442  -5.533  1.00  0.00     0.060 A 
BRANCH  72  73
ATOM     73  S   UNL     1     -13.660   4.098  -3.883  1.00  0.00     0.124 S 
ATOM     74  O   UNL     1     -13.035   2.812  -3.588  1.00  0.00    -0.237 OA
ATOM     75  O   UNL     1     -13.164   5.233  -3.112  1.00  0.00    -0.237 OA
ATOM     76  O   UNL     1     -15.105   4.061  -4.083  1.00  0.00    -0.744 OA
ENDBRANCH  72  73
ENDBRANCH  51  65
BRANCH  52  77
ATOM     77  C   UNL     1      -8.060   7.327 -16.994  1.00  0.00     0.058 A 
ATOM     78  C   UNL     1      -7.128   8.368 -17.100  1.00  0.00     0.135 A 
ATOM     79  C   UNL     1      -8.385   6.618 -18.162  1.00  0.00     0.135 A 
ATOM     80  F   UNL     1      -6.790   9.079 -16.014  1.00  0.00    -0.206 F 
ATOM     81  C   UNL     1      -6.544   8.701 -18.318  1.00  0.00     0.059 A 
ATOM     82  C   UNL     1      -7.794   6.912 -19.386  1.00  0.00     0.059 A 
ATOM     83  F   UNL     1      -9.261   5.602 -18.111  1.00  0.00    -0.206 F 
ATOM     84  C   UNL     1      -6.881   7.963 -19.455  1.00  0.00     0.060 A 
BRANCH  84  85
ATOM     85  S   UNL     1      -6.079   8.370 -21.021  1.00  0.00     0.124 S 
ATOM     86  O   UNL     1      -6.724   9.633 -21.360  1.00  0.00    -0.237 OA
ATOM     87  O   UNL     1      -4.675   8.453 -20.633  1.00  0.00    -0.237 OA
ATOM     88  O   UNL     1      -6.420   7.237 -21.877  1.00  0.00    -0.744 OA
ENDBRANCH  84  85
ENDBRANCH  52  77
BRANCH  64  89
ATOM     89  C   UNL     1     -12.560  10.489 -12.706  1.00  0.00     0.058 A 
ATOM     90  C   UNL     1     -13.662  10.645 -13.561  1.00  0.00     0.135 A 
ATOM     91  C   UNL     1     -12.207  11.569 -11.881  1.00  0.00     0.135 A 
ATOM     92  F   UNL     1     -14.032   9.644 -14.375  1.00  0.00    -0.206 F 
ATOM     93  C   UNL     1     -14.381  11.833 -13.606  1.00  0.00     0.059 A 
ATOM     94  C   UNL     1     -12.928  12.758 -11.891  1.00  0.00     0.059 A 
ATOM     95  F   UNL     1     -11.166  11.466 -11.040  1.00  0.00    -0.206 F 
ATOM     96  C   UNL     1     -14.009  12.883 -12.763  1.00  0.00     0.060 A 
BRANCH  96  97
ATOM     97  S   UNL     1     -14.981  14.403 -12.801  1.00  0.00     0.124 S 
ATOM     98  O   UNL     1     -14.589  14.971 -14.087  1.00  0.00    -0.237 OA
ATOM     99  O   UNL     1     -16.349  13.900 -12.722  1.00  0.00    -0.237 OA
ATOM    100  O   UNL     1     -14.518  15.133 -11.625  1.00  0.00    -0.744 OA
ENDBRANCH  96  97
ENDBRANCH  64  89
ENDBRANCH  38  39
ENDBRANCH  30  33
ENDBRANCH  28  29
ENDBRANCH   1  28
TORSDOF 17
