REMARK SMILES COC(=O)c1ccc2c(c1)=N[C@H](c1cn(CCC(=O)NCCCNC(=O)c3ccc(-c4c5nc(c(-c6c(F)cc(S(=O)(=O)[O-])cc6F)c6ccc([nH]6)c(-c6c(F)cc(S(=O)(=O)[O-])cc6F)c6nc(c(-c7c(F)cc(S(=O)(=O)[O-])cc7F)c7ccc4[nH]7)C=C6)C=C5)cc3)c3ccccc13)N=2
REMARK SMILES IDX 21 1 20 2 18 3 19 4 17 6 16 7 15 8 13 9 14 10 98 11 93 12
REMARK SMILES IDX 97 13 94 14 96 15 95 16 12 17 5 18 6 19 10 20 7 21 9 22 8 23
REMARK SMILES IDX 11 24 99 25 3 26 4 27 2 28 1 29 22 30 23 31 24 32 25 33
REMARK SMILES IDX 26 35 27 36 28 37 92 38 29 39 91 40 30 41 31 42 32 43 85 44
REMARK SMILES IDX 33 45 90 46 84 47 86 48 34 49 89 50 83 51 82 52 35 54 69 55
REMARK SMILES IDX 48 56 68 57 49 58 52 59 67 60 87 61 50 62 51 63 66 65 88 66
REMARK SMILES IDX 53 67 36 68 37 69 46 70 38 71 39 72 45 73 47 74 40 75 41 76
REMARK SMILES IDX 42 77 43 78 44 79 70 80 71 81 80 82 72 83 73 84 79 85 81 86
REMARK SMILES IDX 74 87 75 88 76 89 77 90 78 91 54 92 55 93 64 94 56 95 57 96
REMARK SMILES IDX 63 97 65 98 58 99 59 100 60 101 61 102 62 103
REMARK H PARENT 20 5 24 34 86 53 52 64
REMARK Flexibility Score: inf
ROOT
ATOM      1  C   UNL     1      -1.912 -11.599  -3.959  1.00  0.00     0.117 C 
ENDROOT
BRANCH   1   2
ATOM      2  N   UNL     1      -1.944 -11.433  -5.415  1.00  0.00    -0.356 N 
ATOM      3  C   UNL     1      -0.994 -11.492  -6.400  1.00  0.00     0.221 C 
ATOM      4  O   UNL     1      -1.406 -11.529  -7.566  1.00  0.00    -0.275 OA
ATOM      5  H   UNL     1      -2.845 -11.235  -5.760  1.00  0.00     0.163 HD
BRANCH   3   6
ATOM      6  C   UNL     1       0.499 -11.584  -6.131  1.00  0.00     0.122 C 
BRANCH   6   7
ATOM      7  C   UNL     1       1.325 -10.567  -6.978  1.00  0.00     0.132 C 
BRANCH   7   8
ATOM      8  N   UNL     1       1.483  -9.234  -6.367  1.00  0.00    -0.347 N 
ATOM      9  C   UNL     1       0.759  -8.681  -4.356  1.00  0.00     0.024 A 
ATOM     10  C   UNL     1       1.867  -9.174  -5.053  1.00  0.00     0.094 A 
ATOM     11  C   UNL     1      -0.263  -8.503  -5.368  1.00  0.00     0.007 A 
ATOM     12  C   UNL     1       0.538  -8.232  -6.472  1.00  0.00     0.048 A 
ATOM     13  C   UNL     1      -1.573  -8.031  -5.494  1.00  0.00     0.011 A 
ATOM     14  C   UNL     1       0.416  -6.985  -7.106  1.00  0.00     0.027 A 
ATOM     15  C   UNL     1      -1.847  -6.912  -6.269  1.00  0.00     0.001 A 
ATOM     16  C   UNL     1      -0.799  -6.298  -6.928  1.00  0.00     0.002 A 
BRANCH   9  17
ATOM     17  C   UNL     1       0.905  -8.281  -2.916  1.00  0.00     0.255 C 
ATOM     18  C   UNL     1       1.216  -3.926  -1.928  1.00  0.00     0.062 A 
ATOM     19  C   UNL     1       0.091  -4.295  -1.078  1.00  0.00     0.018 A 
ATOM     20  C   UNL     1       1.984  -4.867  -2.504  1.00  0.00     0.046 A 
ATOM     21  C   UNL     1      -0.417  -5.533  -1.021  1.00  0.00     0.031 A 
ATOM     22  C   UNL     1       1.496  -6.246  -2.458  1.00  0.00     0.087 A 
ATOM     23  C   UNL     1       0.164  -6.535  -1.904  1.00  0.00     0.086 A 
ATOM     24  N   UNL     1       2.040  -7.304  -2.930  1.00  0.00    -0.252 NA
ATOM     25  N   UNL     1      -0.294  -7.679  -2.280  1.00  0.00    -0.252 NA
BRANCH  18  26
ATOM     26  C   UNL     1       1.618  -2.508  -2.143  1.00  0.00     0.337 C 
ATOM     27  O   UNL     1       2.693  -2.165  -2.649  1.00  0.00    -0.246 OA
BRANCH  26  28
ATOM     28  O   UNL     1       0.638  -1.660  -1.756  1.00  0.00    -0.465 OA
ATOM     29  C   UNL     1       0.996  -0.274  -1.716  1.00  0.00     0.282 C 
ENDBRANCH  26  28
ENDBRANCH  18  26
ENDBRANCH   9  17
ENDBRANCH   7   8
ENDBRANCH   6   7
ENDBRANCH   3   6
ENDBRANCH   1   2
BRANCH   1  30
ATOM     30  C   UNL     1      -2.335 -10.405  -3.060  1.00  0.00     0.042 C 
BRANCH  30  31
ATOM     31  C   UNL     1      -3.473  -9.459  -3.475  1.00  0.00     0.118 C 
BRANCH  31  32
ATOM     32  N   UNL     1      -4.765  -9.598  -2.838  1.00  0.00    -0.352 N 
ATOM     33  C   UNL     1      -5.571  -8.601  -2.328  1.00  0.00     0.251 C 
ATOM     34  H   UNL     1      -5.111 -10.517  -2.758  1.00  0.00     0.163 HD
ATOM     35  O   UNL     1      -6.789  -8.690  -2.488  1.00  0.00    -0.269 OA
BRANCH  33  36
ATOM     36  C   UNL     1      -5.061  -7.558  -1.406  1.00  0.00     0.039 A 
ATOM     37  C   UNL     1      -4.148  -6.560  -1.726  1.00  0.00     0.014 A 
ATOM     38  C   UNL     1      -5.651  -7.550  -0.134  1.00  0.00     0.014 A 
ATOM     39  C   UNL     1      -3.723  -5.677  -0.720  1.00  0.00     0.010 A 
ATOM     40  C   UNL     1      -5.212  -6.676   0.860  1.00  0.00     0.010 A 
ATOM     41  C   UNL     1      -4.150  -5.811   0.615  1.00  0.00    -0.014 A 
BRANCH  41  42
ATOM     42  C   UNL     1      -3.463  -5.071   1.712  1.00  0.00     0.031 A 
ATOM     43  C   UNL     1      -3.084  -3.654   1.430  1.00  0.00     0.074 A 
ATOM     44  C   UNL     1      -3.164  -5.595   2.934  1.00  0.00     0.049 A 
ATOM     45  N   UNL     1      -1.891  -3.152   1.480  1.00  0.00    -0.248 NA
ATOM     46  C   UNL     1      -4.099  -2.706   0.948  1.00  0.00     0.031 C 
ATOM     47  C   UNL     1      -3.559  -6.911   3.453  1.00  0.00     0.029 A 
ATOM     48  N   UNL     1      -2.517  -5.048   4.023  1.00  0.00    -0.354 N 
ATOM     49  C   UNL     1      -2.021  -1.787   1.230  1.00  0.00     0.074 A 
ATOM     50  C   UNL     1      -3.375  -1.595   0.780  1.00  0.00     0.031 C 
ATOM     51  C   UNL     1      -3.413  -6.942   4.795  1.00  0.00     0.029 A 
ATOM     52  C   UNL     1      -2.753  -5.725   5.223  1.00  0.00     0.049 A 
ATOM     53  H   UNL     1      -1.941  -4.252   3.961  1.00  0.00     0.167 HD
ATOM     54  C   UNL     1      -1.056  -0.906   1.623  1.00  0.00     0.037 A 
ATOM     55  C   UNL     1      -2.437  -5.354   6.492  1.00  0.00     0.037 A 
ATOM     56  C   UNL     1       0.181  -1.561   1.965  1.00  0.00     0.049 A 
ATOM     57  C   UNL     1      -1.252  -4.479   6.431  1.00  0.00     0.074 A 
ATOM     58  C   UNL     1       1.419  -1.796   1.412  1.00  0.00     0.029 A 
ATOM     59  N   UNL     1       0.134  -2.271   3.127  1.00  0.00    -0.354 N 
ATOM     60  N   UNL     1      -0.066  -4.906   6.097  1.00  0.00    -0.248 NA
ATOM     61  C   UNL     1      -1.423  -3.030   6.477  1.00  0.00     0.031 C 
ATOM     62  C   UNL     1       2.058  -2.779   2.211  1.00  0.00     0.029 A 
ATOM     63  C   UNL     1       1.264  -3.013   3.319  1.00  0.00     0.049 A 
ATOM     64  H   UNL     1      -0.625  -2.252   3.754  1.00  0.00     0.167 HD
ATOM     65  C   UNL     1       0.503  -3.817   5.485  1.00  0.00     0.074 A 
ATOM     66  C   UNL     1      -0.281  -2.659   5.897  1.00  0.00     0.031 C 
ATOM     67  C   UNL     1       1.299  -3.965   4.394  1.00  0.00     0.037 A 
BRANCH  54  68
ATOM     68  C   UNL     1      -1.322   0.498   2.133  1.00  0.00     0.058 A 
ATOM     69  C   UNL     1      -0.232   1.352   2.416  1.00  0.00     0.135 A 
ATOM     70  C   UNL     1      -2.563   0.904   2.669  1.00  0.00     0.135 A 
ATOM     71  F   UNL     1       0.993   1.084   1.935  1.00  0.00    -0.206 F 
ATOM     72  C   UNL     1      -0.348   2.466   3.248  1.00  0.00     0.059 A 
ATOM     73  C   UNL     1      -2.711   2.041   3.458  1.00  0.00     0.059 A 
ATOM     74  F   UNL     1      -3.671   0.165   2.536  1.00  0.00    -0.206 F 
ATOM     75  C   UNL     1      -1.591   2.791   3.780  1.00  0.00     0.060 A 
BRANCH  75  76
ATOM     76  S   UNL     1      -1.722   4.159   4.947  1.00  0.00     0.124 S 
ATOM     77  O   UNL     1      -0.894   3.686   6.051  1.00  0.00    -0.237 OA
ATOM     78  O   UNL     1      -1.179   5.267   4.168  1.00  0.00    -0.237 OA
ATOM     79  O   UNL     1      -3.154   4.232   5.218  1.00  0.00    -0.744 OA
ENDBRANCH  75  76
ENDBRANCH  54  68
BRANCH  55  80
ATOM     80  C   UNL     1      -3.215  -5.509   7.755  1.00  0.00     0.058 A 
ATOM     81  C   UNL     1      -2.656  -5.152   9.001  1.00  0.00     0.135 A 
ATOM     82  C   UNL     1      -4.610  -5.686   7.733  1.00  0.00     0.135 A 
ATOM     83  F   UNL     1      -1.333  -4.965   9.124  1.00  0.00    -0.206 F 
ATOM     84  C   UNL     1      -3.442  -4.889  10.127  1.00  0.00     0.059 A 
ATOM     85  C   UNL     1      -5.413  -5.442   8.847  1.00  0.00     0.059 A 
ATOM     86  F   UNL     1      -5.248  -6.006   6.598  1.00  0.00    -0.206 F 
ATOM     87  C   UNL     1      -4.826  -5.004  10.030  1.00  0.00     0.060 A 
BRANCH  87  88
ATOM     88  S   UNL     1      -5.859  -4.457  11.410  1.00  0.00     0.124 S 
ATOM     89  O   UNL     1      -5.533  -5.437  12.440  1.00  0.00    -0.237 OA
ATOM     90  O   UNL     1      -5.370  -3.102  11.639  1.00  0.00    -0.237 OA
ATOM     91  O   UNL     1      -7.215  -4.544  10.872  1.00  0.00    -0.744 OA
ENDBRANCH  87  88
ENDBRANCH  55  80
BRANCH  67  92
ATOM     92  C   UNL     1       2.124  -5.195   4.229  1.00  0.00     0.058 A 
ATOM     93  C   UNL     1       1.624  -6.474   3.945  1.00  0.00     0.135 A 
ATOM     94  C   UNL     1       3.518  -5.021   4.216  1.00  0.00     0.135 A 
ATOM     95  F   UNL     1       0.304  -6.701   3.877  1.00  0.00    -0.206 F 
ATOM     96  C   UNL     1       2.484  -7.536   3.656  1.00  0.00     0.059 A 
ATOM     97  C   UNL     1       4.388  -6.052   3.896  1.00  0.00     0.059 A 
ATOM     98  F   UNL     1       4.046  -3.807   4.449  1.00  0.00    -0.206 F 
ATOM     99  C   UNL     1       3.863  -7.310   3.620  1.00  0.00     0.060 A 
BRANCH  99 100
ATOM    100  S   UNL     1       4.969  -8.651   3.134  1.00  0.00     0.124 S 
ATOM    101  O   UNL     1       4.895  -9.540   4.287  1.00  0.00    -0.237 OA
ATOM    102  O   UNL     1       4.344  -9.144   1.910  1.00  0.00    -0.237 OA
ATOM    103  O   UNL     1       6.253  -7.981   2.942  1.00  0.00    -0.744 OA
ENDBRANCH  99 100
ENDBRANCH  67  92
ENDBRANCH  41  42
ENDBRANCH  33  36
ENDBRANCH  31  32
ENDBRANCH  30  31
ENDBRANCH   1  30
TORSDOF 18
