REMARK SMILES O=C(NCCCNC(=O)[C@H]1C=C[C@H](NC(=O)c2cc(F)c(Cl)cc2Cl)C1)c1ccc(-c2c3nc(c(-c4c(F)cc(S(=O)(=O)[O-])cc4F)c4ccc([nH]4)c(-c4c(F)cc(S(=O)(=O)[O-])cc4F)c4nc(c(-c5c(F)cc(S(=O)(=O)[O-])cc5F)c5ccc2[nH]5)C=C4)C=C3)cc1
REMARK SMILES IDX 4 1 3 2 1 3 2 4 27 6 28 7 92 8 29 9 91 10 30 11 31 12 32 13
REMARK SMILES IDX 85 14 33 15 90 16 84 17 86 18 34 19 89 20 83 21 82 22 35 24
REMARK SMILES IDX 69 25 48 26 68 27 49 28 52 29 67 30 87 31 50 32 51 33 66 35
REMARK SMILES IDX 88 36 53 37 36 38 37 39 46 40 38 41 39 42 45 43 47 44 40 45
REMARK SMILES IDX 41 46 42 47 43 48 44 49 70 50 71 51 80 52 72 53 73 54 79 55
REMARK SMILES IDX 81 56 74 57 75 58 76 59 77 60 78 61 54 62 55 63 64 64 56 65
REMARK SMILES IDX 57 66 63 67 65 68 58 69 59 70 60 71 61 72 62 73 5 74 6 75
REMARK SMILES IDX 7 76 8 77 9 79 10 80 11 81 26 82 12 83 13 84 14 85 15 86
REMARK SMILES IDX 16 88 17 89 18 90 24 91 19 92 23 93 25 94 20 95 21 96 22 97
REMARK H PARENT 3 5 86 23 52 34 7 78 14 87
REMARK Flexibility Score: inf
ROOT
ATOM      1  C   UNL     1       4.224   0.669  -1.288  1.00  0.00     0.118 C 
ENDROOT
BRANCH   1   2
ATOM      2  N   UNL     1       2.843   0.684  -0.832  1.00  0.00    -0.352 N 
ATOM      3  O   UNL     1       1.023  -0.056   0.260  1.00  0.00    -0.269 OA
ATOM      4  C   UNL     1       2.249  -0.035   0.176  1.00  0.00     0.251 C 
ATOM      5  H   UNL     1       2.247   1.300  -1.317  1.00  0.00     0.163 HD
BRANCH   4   6
ATOM      6  C   UNL     1       3.078  -0.784   1.148  1.00  0.00     0.039 A 
ATOM      7  C   UNL     1       4.273  -0.245   1.625  1.00  0.00     0.014 A 
ATOM      8  C   UNL     1       2.639  -2.026   1.619  1.00  0.00     0.014 A 
ATOM      9  C   UNL     1       5.098  -1.004   2.442  1.00  0.00     0.010 A 
ATOM     10  C   UNL     1       3.418  -2.741   2.536  1.00  0.00     0.010 A 
ATOM     11  C   UNL     1       4.665  -2.244   2.940  1.00  0.00    -0.014 A 
BRANCH  11  12
ATOM     12  C   UNL     1       5.509  -2.927   3.955  1.00  0.00     0.031 A 
ATOM     13  C   UNL     1       6.134  -4.267   3.689  1.00  0.00     0.074 A 
ATOM     14  C   UNL     1       5.758  -2.274   5.109  1.00  0.00     0.049 A 
ATOM     15  N   UNL     1       6.955  -4.951   4.444  1.00  0.00    -0.248 NA
ATOM     16  C   UNL     1       5.791  -4.932   2.423  1.00  0.00     0.031 C 
ATOM     17  C   UNL     1       5.176  -0.980   5.484  1.00  0.00     0.029 A 
ATOM     18  N   UNL     1       6.580  -2.579   6.161  1.00  0.00    -0.354 N 
ATOM     19  C   UNL     1       7.230  -6.123   3.750  1.00  0.00     0.074 A 
ATOM     20  C   UNL     1       6.454  -6.077   2.529  1.00  0.00     0.031 C 
ATOM     21  C   UNL     1       5.706  -0.575   6.645  1.00  0.00     0.029 A 
ATOM     22  C   UNL     1       6.608  -1.609   7.135  1.00  0.00     0.049 A 
ATOM     23  H   UNL     1       7.102  -3.413   6.214  1.00  0.00     0.167 HD
ATOM     24  C   UNL     1       8.063  -7.134   4.097  1.00  0.00     0.037 A 
ATOM     25  C   UNL     1       7.271  -1.560   8.305  1.00  0.00     0.037 A 
ATOM     26  C   UNL     1       8.827  -7.168   5.321  1.00  0.00     0.049 A 
ATOM     27  C   UNL     1       8.176  -2.701   8.667  1.00  0.00     0.074 A 
ATOM     28  C   UNL     1       9.699  -8.146   5.766  1.00  0.00     0.029 A 
ATOM     29  N   UNL     1       8.811  -6.178   6.295  1.00  0.00    -0.354 N 
ATOM     30  N   UNL     1       8.438  -3.791   7.985  1.00  0.00    -0.248 NA
ATOM     31  C   UNL     1       8.877  -2.607   9.953  1.00  0.00     0.031 C 
ATOM     32  C   UNL     1      10.178  -7.769   7.025  1.00  0.00     0.029 A 
ATOM     33  C   UNL     1       9.647  -6.530   7.343  1.00  0.00     0.049 A 
ATOM     34  H   UNL     1       8.283  -5.349   6.248  1.00  0.00     0.167 HD
ATOM     35  C   UNL     1       9.340  -4.512   8.757  1.00  0.00     0.074 A 
ATOM     36  C   UNL     1       9.605  -3.715   9.939  1.00  0.00     0.031 C 
ATOM     37  C   UNL     1       9.892  -5.727   8.516  1.00  0.00     0.037 A 
BRANCH  24  38
ATOM     38  C   UNL     1       8.196  -8.293   3.145  1.00  0.00     0.058 A 
ATOM     39  C   UNL     1       8.871  -8.165   1.920  1.00  0.00     0.135 A 
ATOM     40  C   UNL     1       7.697  -9.562   3.484  1.00  0.00     0.135 A 
ATOM     41  F   UNL     1       9.353  -6.972   1.535  1.00  0.00    -0.206 F 
ATOM     42  C   UNL     1       9.032  -9.247   1.059  1.00  0.00     0.059 A 
ATOM     43  C   UNL     1       7.868 -10.664   2.649  1.00  0.00     0.059 A 
ATOM     44  F   UNL     1       7.041  -9.743   4.641  1.00  0.00    -0.206 F 
ATOM     45  C   UNL     1       8.529 -10.494   1.434  1.00  0.00     0.060 A 
BRANCH  45  46
ATOM     46  S   UNL     1       8.760 -11.888   0.310  1.00  0.00     0.124 S 
ATOM     47  O   UNL     1       7.850 -11.539  -0.777  1.00  0.00    -0.237 OA
ATOM     48  O   UNL     1      10.182 -11.804  -0.003  1.00  0.00    -0.237 OA
ATOM     49  O   UNL     1       8.364 -13.042   1.112  1.00  0.00    -0.744 OA
ENDBRANCH  45  46
ENDBRANCH  24  38
BRANCH  25  50
ATOM     50  C   UNL     1       7.075  -0.404   9.220  1.00  0.00     0.058 A 
ATOM     51  C   UNL     1       8.110   0.503   9.489  1.00  0.00     0.135 A 
ATOM     52  C   UNL     1       5.833  -0.179   9.836  1.00  0.00     0.135 A 
ATOM     53  F   UNL     1       9.315   0.333   8.925  1.00  0.00    -0.206 F 
ATOM     54  C   UNL     1       7.929   1.577  10.356  1.00  0.00     0.059 A 
ATOM     55  C   UNL     1       5.618   0.905  10.678  1.00  0.00     0.059 A 
ATOM     56  F   UNL     1       4.802  -1.005   9.595  1.00  0.00    -0.206 F 
ATOM     57  C   UNL     1       6.678   1.769  10.946  1.00  0.00     0.060 A 
BRANCH  57  58
ATOM     58  S   UNL     1       6.441   3.179  12.047  1.00  0.00     0.124 S 
ATOM     59  O   UNL     1       7.147   2.737  13.244  1.00  0.00    -0.237 OA
ATOM     60  O   UNL     1       7.070   4.263  11.298  1.00  0.00    -0.237 OA
ATOM     61  O   UNL     1       4.989   3.271  12.166  1.00  0.00    -0.744 OA
ENDBRANCH  57  58
ENDBRANCH  25  50
BRANCH  37  62
ATOM     62  C   UNL     1      10.850  -6.251   9.549  1.00  0.00     0.058 A 
ATOM     63  C   UNL     1      10.411  -6.683  10.810  1.00  0.00     0.135 A 
ATOM     64  C   UNL     1      12.224  -6.327   9.271  1.00  0.00     0.135 A 
ATOM     65  F   UNL     1       9.108  -6.624  11.129  1.00  0.00    -0.206 F 
ATOM     66  C   UNL     1      11.305  -7.132  11.776  1.00  0.00     0.059 A 
ATOM     67  C   UNL     1      13.133  -6.803  10.210  1.00  0.00     0.059 A 
ATOM     68  F   UNL     1      12.696  -5.937   8.076  1.00  0.00    -0.206 F 
ATOM     69  C   UNL     1      12.665  -7.184  11.467  1.00  0.00     0.060 A 
BRANCH  69  70
ATOM     70  S   UNL     1      13.816  -7.768  12.729  1.00  0.00     0.124 S 
ATOM     71  O   UNL     1      13.863  -6.626  13.635  1.00  0.00    -0.237 OA
ATOM     72  O   UNL     1      13.142  -8.957  13.241  1.00  0.00    -0.237 OA
ATOM     73  O   UNL     1      15.041  -8.025  11.978  1.00  0.00    -0.744 OA
ENDBRANCH  69  70
ENDBRANCH  37  62
ENDBRANCH  11  12
ENDBRANCH   4   6
ENDBRANCH   1   2
BRANCH   1  74
ATOM     74  C   UNL     1       4.345   0.203  -2.729  1.00  0.00     0.042 C 
BRANCH  74  75
ATOM     75  C   UNL     1       3.864   1.240  -3.743  1.00  0.00     0.117 C 
BRANCH  75  76
ATOM     76  N   UNL     1       4.833   2.309  -3.889  1.00  0.00    -0.356 N 
ATOM     77  C   UNL     1       5.900   2.469  -4.715  1.00  0.00     0.227 C 
ATOM     78  H   UNL     1       4.691   3.062  -3.271  1.00  0.00     0.163 HD
ATOM     79  O   UNL     1       6.580   3.482  -4.514  1.00  0.00    -0.274 OA
BRANCH  77  80
ATOM     80  C   UNL     1       6.186   1.556  -5.925  1.00  0.00     0.103 C 
ATOM     81  C   UNL     1       7.662   1.543  -6.231  1.00  0.00    -0.016 C 
ATOM     82  C   UNL     1       5.857   0.061  -5.859  1.00  0.00     0.047 C 
ATOM     83  C   UNL     1       8.151   0.312  -6.409  1.00  0.00    -0.006 C 
ATOM     84  C   UNL     1       7.118  -0.730  -6.211  1.00  0.00     0.106 C 
BRANCH  84  85
ATOM     85  N   UNL     1       6.934  -1.485  -7.429  1.00  0.00    -0.346 N 
ATOM     86  C   UNL     1       7.180  -2.812  -7.662  1.00  0.00     0.253 C 
ATOM     87  H   UNL     1       6.584  -0.976  -8.196  1.00  0.00     0.164 HD
ATOM     88  O   UNL     1       6.931  -3.319  -8.750  1.00  0.00    -0.269 OA
BRANCH  86  89
ATOM     89  C   UNL     1       7.874  -3.607  -6.636  1.00  0.00     0.061 A 
ATOM     90  C   UNL     1       9.209  -3.922  -6.910  1.00  0.00     0.056 A 
ATOM     91  C   UNL     1       7.277  -4.019  -5.437  1.00  0.00     0.055 A 
ATOM     92  C   UNL     1       9.960  -4.592  -5.954  1.00  0.00     0.142 A 
ATOM     93  C   UNL     1       8.048  -4.681  -4.475  1.00  0.00     0.045 A 
ATOM     94  Cl  UNL     1       5.614  -3.716  -5.083  1.00  0.00    -0.083 Cl
ATOM     95  F   UNL     1      11.246  -4.858  -6.223  1.00  0.00    -0.205 F 
ATOM     96  C   UNL     1       9.393  -4.955  -4.733  1.00  0.00     0.078 A 
ATOM     97  Cl  UNL     1      10.347  -5.725  -3.527  1.00  0.00    -0.081 Cl
ENDBRANCH  86  89
ENDBRANCH  84  85
ENDBRANCH  77  80
ENDBRANCH  75  76
ENDBRANCH  74  75
ENDBRANCH   1  74
TORSDOF 15
