REMARK SMILES Cc1cc(C(=O)N[C@@H]2C(=O)N3C(C(=O)NCCCNC(=O)c4ccc(-c5c6nc(c(-c7c(F)cc(S(=O)(=O)[O-])cc7F)c7ccc([nH]7)c(-c7c(F)cc(S(=O)(=O)[O-])cc7F)c7nc(c(-c8c(F)cc(S(=O)(=O)[O-])cc8F)c8ccc5[nH]8)C=C7)C=C6)cc4)=C(CSc4nnc(C)s4)CS[C@H]23)n(C)n1
REMARK SMILES IDX 17 1 16 2 15 3 13 4 14 5 12 7 8 8 9 9 99 10 10 11 11 12
REMARK SMILES IDX 98 13 97 14 88 15 7 16 5 17 6 18 4 20 1 21 2 22 3 23 102 24
REMARK SMILES IDX 100 25 101 26 89 27 90 28 91 29 92 30 96 31 93 32 94 33
REMARK SMILES IDX 95 34 18 35 19 36 20 37 21 39 22 40 23 41 87 42 24 43 86 44
REMARK SMILES IDX 25 45 26 46 27 47 80 48 28 49 85 50 79 51 81 52 29 53 84 54
REMARK SMILES IDX 78 55 77 56 30 58 64 59 43 60 63 61 44 62 47 63 62 64 82 65
REMARK SMILES IDX 45 66 46 67 61 69 83 70 48 71 31 72 32 73 41 74 33 75 34 76
REMARK SMILES IDX 40 77 42 78 35 79 36 80 37 81 38 82 39 83 65 84 66 85 75 86
REMARK SMILES IDX 67 87 68 88 74 89 76 90 69 91 70 92 71 93 72 94 73 95 49 96
REMARK SMILES IDX 50 97 59 98 51 99 52 100 58 101 60 102 53 103 54 104 55 105
REMARK SMILES IDX 56 106 57 107
REMARK H PARENT 15 6 7 19 19 38 81 57 47 68
REMARK Flexibility Score: inf
ROOT
ATOM      1  C   UNL     1      -5.667  -0.537  -4.292  1.00  0.00     0.042 C 
ENDROOT
BRANCH   1   2
ATOM      2  C   UNL     1      -4.172  -0.645  -4.584  1.00  0.00     0.118 C 
BRANCH   2   3
ATOM      3  N   UNL     1      -3.382  -0.416  -3.389  1.00  0.00    -0.351 N 
ATOM      4  C   UNL     1      -2.671  -1.163  -2.505  1.00  0.00     0.268 C 
ATOM      5  O   UNL     1      -1.957  -0.469  -1.770  1.00  0.00    -0.268 OA
ATOM      6  H   UNL     1      -3.353   0.540  -3.155  1.00  0.00     0.163 HD
BRANCH   4   7
ATOM      7  C   UNL     1      -2.524  -2.697  -2.474  1.00  0.00     0.111 C 
ATOM      8  C   UNL     1      -0.145  -4.041  -0.363  1.00  0.00     0.206 C 
ATOM      9  C   UNL     1      -1.108  -2.817  -0.393  1.00  0.00     0.253 C 
ATOM     10  C   UNL     1      -0.939  -4.458  -1.629  1.00  0.00     0.181 C 
ATOM     11  O   UNL     1      -1.479  -2.014   0.441  1.00  0.00    -0.272 OA
ATOM     12  N   UNL     1      -1.449  -3.105  -1.690  1.00  0.00    -0.290 N 
ATOM     13  S   UNL     1      -2.326  -5.607  -1.382  1.00  0.00    -0.129 SA
ATOM     14  C   UNL     1      -2.974  -5.146  -2.986  1.00  0.00     0.106 C 
ATOM     15  C   UNL     1      -3.356  -3.675  -2.959  1.00  0.00    -0.020 C 
BRANCH   8  16
ATOM     16  N   UNL     1      -0.144  -4.932   0.831  1.00  0.00    -0.336 N 
ATOM     17  C   UNL     1       0.182  -6.276   0.927  1.00  0.00     0.270 C 
ATOM     18  O   UNL     1       0.134  -6.795   2.041  1.00  0.00    -0.268 OA
ATOM     19  H   UNL     1      -0.415  -4.504   1.675  1.00  0.00     0.164 HD
BRANCH  17  20
ATOM     20  C   UNL     1       0.488  -7.017  -0.280  1.00  0.00     0.126 A 
ATOM     21  C   UNL     1       0.554  -7.358  -3.900  1.00  0.00     0.069 C 
ATOM     22  C   UNL     1       0.627  -7.538  -2.430  1.00  0.00     0.060 A 
ATOM     23  C   UNL     1       1.107  -6.630  -1.460  1.00  0.00     0.059 A 
ATOM     24  N   UNL     1       0.099  -8.617  -1.852  1.00  0.00    -0.178 NA
ATOM     25  N   UNL     1       0.114  -8.320  -0.531  1.00  0.00    -0.263 N 
ATOM     26  C   UNL     1      -0.304  -9.354   0.386  1.00  0.00     0.174 C 
ENDBRANCH  17  20
ENDBRANCH   8  16
BRANCH  15  27
ATOM     27  C   UNL     1      -4.844  -3.543  -3.190  1.00  0.00     0.111 C 
BRANCH  27  28
ATOM     28  S   UNL     1      -5.527  -2.674  -1.777  1.00  0.00    -0.089 SA
BRANCH  28  29
ATOM     29  C   UNL     1      -6.886  -3.596  -1.271  1.00  0.00     0.174 A 
ATOM     30  N   UNL     1      -6.784  -4.831  -0.838  1.00  0.00    -0.132 NA
ATOM     31  S   UNL     1      -8.296  -2.777  -0.753  1.00  0.00    -0.091 S 
ATOM     32  N   UNL     1      -7.623  -5.024   0.249  1.00  0.00    -0.143 NA
ATOM     33  C   UNL     1      -8.316  -3.932   0.516  1.00  0.00     0.115 A 
ATOM     34  C   UNL     1      -8.926  -3.582   1.817  1.00  0.00     0.081 C 
ENDBRANCH  28  29
ENDBRANCH  27  28
ENDBRANCH  15  27
ENDBRANCH   4   7
ENDBRANCH   2   3
ENDBRANCH   1   2
BRANCH   1  35
ATOM     35  C   UNL     1      -6.310   0.813  -4.527  1.00  0.00     0.118 C 
BRANCH  35  36
ATOM     36  N   UNL     1      -6.550   1.065  -5.932  1.00  0.00    -0.352 N 
ATOM     37  C   UNL     1      -7.732   1.137  -6.631  1.00  0.00     0.251 C 
ATOM     38  H   UNL     1      -5.739   1.207  -6.472  1.00  0.00     0.163 HD
ATOM     39  O   UNL     1      -7.685   1.120  -7.859  1.00  0.00    -0.269 OA
BRANCH  37  40
ATOM     40  C   UNL     1      -9.046   1.211  -5.940  1.00  0.00     0.039 A 
ATOM     41  C   UNL     1     -10.158   0.625  -6.554  1.00  0.00     0.014 A 
ATOM     42  C   UNL     1      -9.216   1.889  -4.731  1.00  0.00     0.014 A 
ATOM     43  C   UNL     1     -11.413   0.686  -5.940  1.00  0.00     0.010 A 
ATOM     44  C   UNL     1     -10.439   1.847  -4.063  1.00  0.00     0.010 A 
ATOM     45  C   UNL     1     -11.561   1.271  -4.673  1.00  0.00    -0.014 A 
BRANCH  45  46
ATOM     46  C   UNL     1     -12.883   1.331  -3.994  1.00  0.00     0.031 A 
ATOM     47  C   UNL     1     -13.497   2.666  -3.651  1.00  0.00     0.074 A 
ATOM     48  C   UNL     1     -13.516   0.190  -3.656  1.00  0.00     0.049 A 
ATOM     49  N   UNL     1     -14.614   2.925  -3.019  1.00  0.00    -0.248 NA
ATOM     50  C   UNL     1     -12.746   3.869  -4.046  1.00  0.00     0.031 C 
ATOM     51  C   UNL     1     -13.008  -1.162  -3.898  1.00  0.00     0.029 A 
ATOM     52  N   UNL     1     -14.725  -0.018  -3.039  1.00  0.00    -0.354 N 
ATOM     53  C   UNL     1     -14.692   4.311  -2.937  1.00  0.00     0.074 A 
ATOM     54  C   UNL     1     -13.478   4.838  -3.516  1.00  0.00     0.031 C 
ATOM     55  C   UNL     1     -13.915  -2.056  -3.475  1.00  0.00     0.029 A 
ATOM     56  C   UNL     1     -15.047  -1.347  -2.888  1.00  0.00     0.049 A 
ATOM     57  H   UNL     1     -15.306   0.715  -2.734  1.00  0.00     0.167 HD
ATOM     58  C   UNL     1     -15.699   5.078  -2.454  1.00  0.00     0.037 A 
ATOM     59  C   UNL     1     -16.130  -1.929  -2.337  1.00  0.00     0.037 A 
ATOM     60  C   UNL     1     -16.916   4.546  -1.899  1.00  0.00     0.049 A 
ATOM     61  C   UNL     1     -17.226  -1.058  -1.786  1.00  0.00     0.074 A 
ATOM     62  C   UNL     1     -18.012   5.236  -1.411  1.00  0.00     0.029 A 
ATOM     63  N   UNL     1     -17.200   3.195  -1.760  1.00  0.00    -0.354 N 
ATOM     64  N   UNL     1     -17.297   0.252  -1.750  1.00  0.00    -0.248 NA
ATOM     65  C   UNL     1     -18.390  -1.741  -1.208  1.00  0.00     0.031 C 
ATOM     66  C   UNL     1     -18.936   4.304  -0.931  1.00  0.00     0.029 A 
ATOM     67  C   UNL     1     -18.446   3.031  -1.177  1.00  0.00     0.049 A 
ATOM     68  H   UNL     1     -16.604   2.461  -2.035  1.00  0.00     0.167 HD
ATOM     69  C   UNL     1     -18.527   0.550  -1.172  1.00  0.00     0.074 A 
ATOM     70  C   UNL     1     -19.169  -0.717  -0.886  1.00  0.00     0.031 C 
ATOM     71  C   UNL     1     -19.074   1.762  -0.904  1.00  0.00     0.037 A 
BRANCH  58  72
ATOM     72  C   UNL     1     -15.535   6.574  -2.520  1.00  0.00     0.058 A 
ATOM     73  C   UNL     1     -15.543   7.262  -3.744  1.00  0.00     0.135 A 
ATOM     74  C   UNL     1     -15.416   7.335  -1.345  1.00  0.00     0.135 A 
ATOM     75  F   UNL     1     -15.635   6.586  -4.901  1.00  0.00    -0.206 F 
ATOM     76  C   UNL     1     -15.415   8.646  -3.804  1.00  0.00     0.059 A 
ATOM     77  C   UNL     1     -15.320   8.724  -1.380  1.00  0.00     0.059 A 
ATOM     78  F   UNL     1     -15.399   6.731  -0.147  1.00  0.00    -0.206 F 
ATOM     79  C   UNL     1     -15.309   9.369  -2.615  1.00  0.00     0.060 A 
BRANCH  79  80
ATOM     80  S   UNL     1     -15.169  11.166  -2.714  1.00  0.00     0.124 S 
ATOM     81  O   UNL     1     -13.827  11.324  -3.267  1.00  0.00    -0.237 OA
ATOM     82  O   UNL     1     -16.268  11.514  -3.608  1.00  0.00    -0.237 OA
ATOM     83  O   UNL     1     -15.329  11.597  -1.329  1.00  0.00    -0.744 OA
ENDBRANCH  79  80
ENDBRANCH  58  72
BRANCH  59  84
ATOM     84  C   UNL     1     -16.242  -3.413  -2.314  1.00  0.00     0.058 A 
ATOM     85  C   UNL     1     -17.183  -4.077  -3.115  1.00  0.00     0.135 A 
ATOM     86  C   UNL     1     -15.392  -4.198  -1.519  1.00  0.00     0.135 A 
ATOM     87  F   UNL     1     -18.023  -3.371  -3.888  1.00  0.00    -0.206 F 
ATOM     88  C   UNL     1     -17.285  -5.464  -3.124  1.00  0.00     0.059 A 
ATOM     89  C   UNL     1     -15.455  -5.588  -1.532  1.00  0.00     0.059 A 
ATOM     90  F   UNL     1     -14.464  -3.614  -0.746  1.00  0.00    -0.206 F 
ATOM     91  C   UNL     1     -16.410  -6.212  -2.335  1.00  0.00     0.060 A 
BRANCH  91  92
ATOM     92  S   UNL     1     -16.508  -8.014  -2.407  1.00  0.00     0.124 S 
ATOM     93  O   UNL     1     -17.778  -8.266  -1.736  1.00  0.00    -0.237 OA
ATOM     94  O   UNL     1     -16.485  -8.261  -3.846  1.00  0.00    -0.237 OA
ATOM     95  O   UNL     1     -15.315  -8.444  -1.685  1.00  0.00    -0.744 OA
ENDBRANCH  91  92
ENDBRANCH  59  84
BRANCH  71  96
ATOM     96  C   UNL     1     -20.454   1.784  -0.303  1.00  0.00     0.058 A 
ATOM     97  C   UNL     1     -20.691   1.389   1.022  1.00  0.00     0.135 A 
ATOM     98  C   UNL     1     -21.543   2.264  -1.050  1.00  0.00     0.135 A 
ATOM     99  F   UNL     1     -19.687   0.918   1.778  1.00  0.00    -0.206 F 
ATOM    100  C   UNL     1     -21.965   1.445   1.579  1.00  0.00     0.059 A 
ATOM    101  C   UNL     1     -22.818   2.360  -0.503  1.00  0.00     0.059 A 
ATOM    102  F   UNL     1     -21.369   2.666  -2.319  1.00  0.00    -0.206 F 
ATOM    103  C   UNL     1     -23.021   1.936   0.809  1.00  0.00     0.060 A 
BRANCH 103 104
ATOM    104  S   UNL     1     -24.661   2.034   1.558  1.00  0.00     0.124 S 
ATOM    105  O   UNL     1     -25.034   0.626   1.635  1.00  0.00    -0.237 OA
ATOM    106  O   UNL     1     -24.381   2.688   2.833  1.00  0.00    -0.237 OA
ATOM    107  O   UNL     1     -25.424   2.834   0.604  1.00  0.00    -0.744 OA
ENDBRANCH 103 104
ENDBRANCH  71  96
ENDBRANCH  45  46
ENDBRANCH  37  40
ENDBRANCH  35  36
ENDBRANCH   1  35
TORSDOF 18
