REMARK SMILES CCC[C@@]1(C(=O)NCCCNC(=O)c2ccc(-c3c4nc(c(-c5c(F)cc(S(=O)(=O)[O-])cc5F)c5ccc([nH]5)c(-c5c(F)cc(S(=O)(=O)[O-])cc5F)c5nc(c(-c6c(F)cc(S(=O)(=O)[O-])cc6F)c6ccc3[nH]6)C=C5)C=C4)cc2)CCN(C(=O)NC[C@]2(C)CCCO2)C1
REMARK SMILES IDX 9 1 8 2 7 3 5 4 6 5 4 7 80 8 93 9 81 10 82 11 3 12 2 13 1 14
REMARK SMILES IDX 83 15 84 16 85 17 86 19 87 20 89 21 92 22 88 23 90 24 91 25
REMARK SMILES IDX 10 26 11 27 12 28 13 30 14 31 15 32 79 33 16 34 78 35 17 36
REMARK SMILES IDX 18 37 19 38 72 39 20 40 77 41 71 42 73 43 21 44 76 45 70 46
REMARK SMILES IDX 69 47 22 49 56 50 35 51 55 52 36 53 39 54 54 55 74 56 37 57
REMARK SMILES IDX 38 58 53 60 75 61 40 62 23 63 24 64 33 65 25 66 26 67 32 68
REMARK SMILES IDX 34 69 27 70 28 71 29 72 30 73 31 74 57 75 58 76 67 77 59 78
REMARK SMILES IDX 60 79 66 80 68 81 61 82 62 83 63 84 64 85 65 86 41 87 42 88
REMARK SMILES IDX 51 89 43 90 44 91 50 92 52 93 45 94 46 95 47 96 48 97 49 98
REMARK H PARENT 7 6 85 18 11 29 73 48 39 59
REMARK Flexibility Score: inf
ROOT
ATOM      1  C   UNL     1      -8.105   5.369  -1.708  1.00  0.00     0.042 C 
ENDROOT
BRANCH   1   2
ATOM      2  C   UNL     1      -9.213   4.887  -2.633  1.00  0.00     0.117 C 
BRANCH   2   3
ATOM      3  N   UNL     1      -8.754   4.656  -3.993  1.00  0.00    -0.355 N 
ATOM      4  C   UNL     1      -8.589   3.510  -4.718  1.00  0.00     0.228 C 
ATOM      5  O   UNL     1      -8.412   3.656  -5.931  1.00  0.00    -0.274 OA
ATOM      6  H   UNL     1      -8.518   5.477  -4.482  1.00  0.00     0.163 HD
BRANCH   4   7
ATOM      7  C   UNL     1      -8.678   2.111  -4.083  1.00  0.00     0.068 C 
ATOM      8  C   UNL     1      -7.948   2.018  -2.733  1.00  0.00     0.040 C 
ATOM      9  C   UNL     1      -7.756   1.123  -4.904  1.00  0.00     0.138 C 
ATOM     10  C   UNL     1      -6.496   2.087  -3.166  1.00  0.00     0.122 C 
ATOM     11  N   UNL     1      -6.455   1.120  -4.222  1.00  0.00    -0.324 N 
BRANCH   7  12
ATOM     12  C   UNL     1     -10.119   1.536  -4.083  1.00  0.00     0.018 C 
BRANCH  12  13
ATOM     13  C   UNL     1     -11.323   2.376  -3.637  1.00  0.00    -0.002 C 
ATOM     14  C   UNL     1     -11.805   3.406  -4.651  1.00  0.00     0.004 C 
ENDBRANCH  12  13
ENDBRANCH   7  12
BRANCH  11  15
ATOM     15  C   UNL     1      -5.625   0.039  -4.262  1.00  0.00     0.317 C 
ATOM     16  O   UNL     1      -5.918  -0.990  -4.875  1.00  0.00    -0.249 OA
ATOM     17  N   UNL     1      -4.460   0.034  -3.567  1.00  0.00    -0.335 N 
ATOM     18  H   UNL     1      -4.164  -0.862  -3.286  1.00  0.00     0.165 HD
BRANCH  17  19
ATOM     19  C   UNL     1      -3.558   1.116  -3.155  1.00  0.00     0.152 C 
BRANCH  19  20
ATOM     20  C   UNL     1      -3.300   1.290  -1.619  1.00  0.00     0.083 C 
ATOM     21  C   UNL     1      -3.713   0.113  -0.724  1.00  0.00     0.039 C 
ATOM     22  O   UNL     1      -4.053   2.436  -1.141  1.00  0.00    -0.373 OA
ATOM     23  C   UNL     1      -1.821   1.636  -1.395  1.00  0.00     0.044 C 
ATOM     24  C   UNL     1      -5.051   0.536  -0.168  1.00  0.00     0.031 C 
ATOM     25  C   UNL     1      -4.873   2.032  -0.035  1.00  0.00     0.161 C 
ENDBRANCH  19  20
ENDBRANCH  17  19
ENDBRANCH  11  15
ENDBRANCH   4   7
ENDBRANCH   2   3
ENDBRANCH   1   2
BRANCH   1  26
ATOM     26  C   UNL     1      -7.841   6.858  -1.839  1.00  0.00     0.118 C 
BRANCH  26  27
ATOM     27  N   UNL     1      -8.951   7.650  -1.324  1.00  0.00    -0.352 N 
ATOM     28  C   UNL     1      -8.979   8.567  -0.302  1.00  0.00     0.251 C 
ATOM     29  H   UNL     1      -9.813   7.506  -1.778  1.00  0.00     0.163 HD
ATOM     30  O   UNL     1     -10.059   8.955   0.130  1.00  0.00    -0.269 OA
BRANCH  28  31
ATOM     31  C   UNL     1      -7.716   9.070   0.280  1.00  0.00     0.039 A 
ATOM     32  C   UNL     1      -7.644   9.289   1.658  1.00  0.00     0.014 A 
ATOM     33  C   UNL     1      -6.611   9.344  -0.530  1.00  0.00     0.014 A 
ATOM     34  C   UNL     1      -6.447   9.729   2.226  1.00  0.00     0.010 A 
ATOM     35  C   UNL     1      -5.394   9.685   0.047  1.00  0.00     0.010 A 
ATOM     36  C   UNL     1      -5.303   9.900   1.429  1.00  0.00    -0.014 A 
BRANCH  36  37
ATOM     37  C   UNL     1      -4.008  10.326   2.014  1.00  0.00     0.031 A 
ATOM     38  C   UNL     1      -3.382  11.626   1.583  1.00  0.00     0.074 A 
ATOM     39  C   UNL     1      -3.366   9.514   2.876  1.00  0.00     0.049 A 
ATOM     40  N   UNL     1      -2.227  12.138   1.921  1.00  0.00    -0.248 NA
ATOM     41  C   UNL     1      -4.140  12.443   0.621  1.00  0.00     0.031 C 
ATOM     42  C   UNL     1      -3.848   8.205   3.324  1.00  0.00     0.029 A 
ATOM     43  N   UNL     1      -2.166   9.664   3.522  1.00  0.00    -0.354 N 
ATOM     44  C   UNL     1      -2.112  13.321   1.200  1.00  0.00     0.074 A 
ATOM     45  C   UNL     1      -3.286  13.422   0.363  1.00  0.00     0.031 C 
ATOM     46  C   UNL     1      -2.964   7.684   4.190  1.00  0.00     0.029 A 
ATOM     47  C   UNL     1      -1.836   8.600   4.328  1.00  0.00     0.049 A 
ATOM     48  H   UNL     1      -1.594  10.459   3.418  1.00  0.00     0.167 HD
ATOM     49  C   UNL     1      -1.129  14.252   1.251  1.00  0.00     0.037 A 
ATOM     50  C   UNL     1      -0.744   8.384   5.087  1.00  0.00     0.037 A 
ATOM     51  C   UNL     1       0.022  14.155   2.110  1.00  0.00     0.049 A 
ATOM     52  C   UNL     1       0.330   9.436   5.137  1.00  0.00     0.074 A 
ATOM     53  C   UNL     1       1.042  15.073   2.288  1.00  0.00     0.029 A 
ATOM     54  N   UNL     1       0.307  13.075   2.933  1.00  0.00    -0.354 N 
ATOM     55  N   UNL     1       0.390  10.583   4.502  1.00  0.00    -0.248 NA
ATOM     56  C   UNL     1       1.481   9.169   6.010  1.00  0.00     0.031 C 
ATOM     57  C   UNL     1       1.968  14.527   3.183  1.00  0.00     0.029 A 
ATOM     58  C   UNL     1       1.499  13.292   3.604  1.00  0.00     0.049 A 
ATOM     59  H   UNL     1      -0.255  12.271   3.025  1.00  0.00     0.167 HD
ATOM     60  C   UNL     1       1.571  11.186   4.918  1.00  0.00     0.074 A 
ATOM     61  C   UNL     1       2.188  10.282   5.868  1.00  0.00     0.031 C 
ATOM     62  C   UNL     1       2.097  12.381   4.549  1.00  0.00     0.037 A 
BRANCH  49  63
ATOM     63  C   UNL     1      -1.262  15.453   0.354  1.00  0.00     0.058 A 
ATOM     64  C   UNL     1      -2.251  16.428   0.565  1.00  0.00     0.135 A 
ATOM     65  C   UNL     1      -0.378  15.643  -0.720  1.00  0.00     0.135 A 
ATOM     66  F   UNL     1      -3.133  16.291   1.568  1.00  0.00    -0.206 F 
ATOM     67  C   UNL     1      -2.383  17.526  -0.279  1.00  0.00     0.059 A 
ATOM     68  C   UNL     1      -0.472  16.750  -1.559  1.00  0.00     0.059 A 
ATOM     69  F   UNL     1       0.587  14.743  -0.969  1.00  0.00    -0.206 F 
ATOM     70  C   UNL     1      -1.490  17.677  -1.340  1.00  0.00     0.060 A 
BRANCH  70  71
ATOM     71  S   UNL     1      -1.681  19.103  -2.430  1.00  0.00     0.124 S 
ATOM     72  O   UNL     1      -2.873  18.732  -3.187  1.00  0.00    -0.237 OA
ATOM     73  O   UNL     1      -1.849  20.200  -1.483  1.00  0.00    -0.237 OA
ATOM     74  O   UNL     1      -0.435  19.119  -3.191  1.00  0.00    -0.744 OA
ENDBRANCH  70  71
ENDBRANCH  49  63
BRANCH  50  75
ATOM     75  C   UNL     1      -0.633   7.131   5.880  1.00  0.00     0.058 A 
ATOM     76  C   UNL     1      -0.752   7.149   7.278  1.00  0.00     0.135 A 
ATOM     77  C   UNL     1      -0.440   5.889   5.257  1.00  0.00     0.135 A 
ATOM     78  F   UNL     1      -0.932   8.313   7.920  1.00  0.00    -0.206 F 
ATOM     79  C   UNL     1      -0.675   5.982   8.031  1.00  0.00     0.059 A 
ATOM     80  C   UNL     1      -0.385   4.705   5.986  1.00  0.00     0.059 A 
ATOM     81  F   UNL     1      -0.339   5.815   3.920  1.00  0.00    -0.206 F 
ATOM     82  C   UNL     1      -0.497   4.763   7.375  1.00  0.00     0.060 A 
BRANCH  82  83
ATOM     83  S   UNL     1      -0.466   3.247   8.355  1.00  0.00     0.124 S 
ATOM     84  O   UNL     1       0.838   3.341   9.001  1.00  0.00    -0.237 OA
ATOM     85  O   UNL     1      -1.625   3.422   9.226  1.00  0.00    -0.237 OA
ATOM     86  O   UNL     1      -0.600   2.196   7.351  1.00  0.00    -0.744 OA
ENDBRANCH  82  83
ENDBRANCH  50  75
BRANCH  62  87
ATOM     87  C   UNL     1       3.389  12.797   5.195  1.00  0.00     0.058 A 
ATOM     88  C   UNL     1       4.610  12.189   4.864  1.00  0.00     0.135 A 
ATOM     89  C   UNL     1       3.413  13.856   6.117  1.00  0.00     0.135 A 
ATOM     90  F   UNL     1       4.642  11.167   3.993  1.00  0.00    -0.206 F 
ATOM     91  C   UNL     1       5.806  12.601   5.441  1.00  0.00     0.059 A 
ATOM     92  C   UNL     1       4.601  14.304   6.685  1.00  0.00     0.059 A 
ATOM     93  F   UNL     1       2.274  14.480   6.460  1.00  0.00    -0.206 F 
ATOM     94  C   UNL     1       5.791  13.661   6.349  1.00  0.00     0.060 A 
BRANCH  94  95
ATOM     95  S   UNL     1       7.355  14.209   7.066  1.00  0.00     0.124 S 
ATOM     96  O   UNL     1       7.639  13.132   8.009  1.00  0.00    -0.237 OA
ATOM     97  O   UNL     1       8.228  14.275   5.897  1.00  0.00    -0.237 OA
ATOM     98  O   UNL     1       7.022  15.498   7.665  1.00  0.00    -0.744 OA
ENDBRANCH  94  95
ENDBRANCH  62  87
ENDBRANCH  36  37
ENDBRANCH  28  31
ENDBRANCH  26  27
ENDBRANCH   1  26
TORSDOF 18
