REMARK SMILES O=C(CN(CC(F)(F)F)C(=O)Nc1ccccc1Cl)NCCCNC(=O)c1ccc(-c2c3nc(c(-c4c(F)cc(S(=O)(=O)[O-])cc4F)c4ccc([nH]4)c(-c4c(F)cc(S(=O)(=O)[O-])cc4F)c4nc(c(-c5c(F)cc(S(=O)(=O)[O-])cc5F)c5ccc2[nH]5)C=C4)C=C3)cc1
REMARK SMILES IDX 22 1 21 2 20 3 1 4 2 5 3 7 4 8 5 9 6 10 7 11 8 12 9 13 10 14
REMARK SMILES IDX 11 15 12 16 13 18 14 19 18 20 15 21 17 22 19 23 16 24 23 25
REMARK SMILES IDX 24 26 25 27 26 29 27 30 28 31 92 32 29 33 91 34 30 35 31 36
REMARK SMILES IDX 32 37 85 38 33 39 90 40 84 41 86 42 34 43 89 44 83 45 82 46
REMARK SMILES IDX 35 48 69 49 48 50 68 51 49 52 52 53 67 54 87 55 50 56 51 57
REMARK SMILES IDX 66 59 88 60 53 61 36 62 37 63 46 64 38 65 39 66 45 67 47 68
REMARK SMILES IDX 40 69 41 70 42 71 43 72 44 73 70 74 71 75 80 76 72 77 73 78
REMARK SMILES IDX 79 79 81 80 74 81 75 82 76 83 77 84 78 85 54 86 55 87 64 88
REMARK SMILES IDX 56 89 57 90 63 91 65 92 58 93 59 94 60 95 61 96 62 97
REMARK H PARENT 20 6 12 17 24 28 86 47 52 58
REMARK Flexibility Score: inf
ROOT
ATOM      1  C   UNL     1       2.474   0.105   3.252  1.00  0.00     0.042 C 
ENDROOT
BRANCH   1   2
ATOM      2  C   UNL     1       2.167   0.994   2.050  1.00  0.00     0.117 C 
BRANCH   2   3
ATOM      3  N   UNL     1       2.786   0.562   0.810  1.00  0.00    -0.354 N 
ATOM      4  O   UNL     1       1.049  -0.781   0.157  1.00  0.00    -0.273 OA
ATOM      5  C   UNL     1       2.105  -0.210  -0.112  1.00  0.00     0.239 C 
ATOM      6  H   UNL     1       3.716   0.826   0.621  1.00  0.00     0.163 HD
BRANCH   5   7
ATOM      7  C   UNL     1       2.822  -0.444  -1.461  1.00  0.00     0.221 C 
BRANCH   7   8
ATOM      8  N   UNL     1       3.887   0.525  -1.793  1.00  0.00    -0.306 N 
BRANCH   8   9
ATOM      9  C   UNL     1       5.276   0.019  -1.636  1.00  0.00     0.237 C 
BRANCH   9  10
ATOM     10  C   UNL     1       5.753  -1.057  -2.635  1.00  0.00     0.406 C 
ATOM     11  F   UNL     1       5.888  -0.596  -3.891  1.00  0.00    -0.169 F 
ATOM     12  F   UNL     1       6.967  -1.527  -2.258  1.00  0.00    -0.169 F 
ATOM     13  F   UNL     1       4.917  -2.117  -2.681  1.00  0.00    -0.169 F 
ENDBRANCH   9  10
ENDBRANCH   8   9
BRANCH   8  14
ATOM     14  C   UNL     1       3.433   1.790  -2.115  1.00  0.00     0.322 C 
ATOM     15  O   UNL     1       2.226   2.051  -2.104  1.00  0.00    -0.248 OA
ATOM     16  N   UNL     1       4.268   2.850  -2.233  1.00  0.00    -0.306 N 
ATOM     17  H   UNL     1       3.874   3.702  -1.934  1.00  0.00     0.171 HD
BRANCH  16  18
ATOM     18  C   UNL     1       5.581   2.967  -2.697  1.00  0.00     0.061 A 
ATOM     19  C   UNL     1       6.455   3.725  -1.911  1.00  0.00     0.028 A 
ATOM     20  C   UNL     1       6.048   2.376  -3.878  1.00  0.00     0.064 A 
ATOM     21  C   UNL     1       7.818   3.737  -2.201  1.00  0.00     0.002 A 
ATOM     22  C   UNL     1       7.416   2.376  -4.158  1.00  0.00     0.023 A 
ATOM     23  Cl  UNL     1       4.959   1.782  -5.083  1.00  0.00    -0.082 Cl
ATOM     24  C   UNL     1       8.304   3.029  -3.300  1.00  0.00     0.002 A 
ENDBRANCH  16  18
ENDBRANCH   8  14
ENDBRANCH   7   8
ENDBRANCH   5   7
ENDBRANCH   2   3
ENDBRANCH   1   2
BRANCH   1  25
ATOM     25  C   UNL     1       3.935   0.082   3.696  1.00  0.00     0.118 C 
BRANCH  25  26
ATOM     26  N   UNL     1       4.445   1.389   4.086  1.00  0.00    -0.352 N 
ATOM     27  C   UNL     1       5.140   1.795   5.197  1.00  0.00     0.251 C 
ATOM     28  H   UNL     1       4.259   2.107   3.439  1.00  0.00     0.163 HD
ATOM     29  O   UNL     1       5.368   3.001   5.331  1.00  0.00    -0.269 OA
BRANCH  27  30
ATOM     30  C   UNL     1       5.601   0.845   6.239  1.00  0.00     0.039 A 
ATOM     31  C   UNL     1       5.582   1.267   7.573  1.00  0.00     0.014 A 
ATOM     32  C   UNL     1       6.097  -0.425   5.933  1.00  0.00     0.014 A 
ATOM     33  C   UNL     1       6.004   0.406   8.591  1.00  0.00     0.010 A 
ATOM     34  C   UNL     1       6.445  -1.312   6.957  1.00  0.00     0.010 A 
ATOM     35  C   UNL     1       6.407  -0.907   8.299  1.00  0.00    -0.014 A 
BRANCH  35  36
ATOM     36  C   UNL     1       6.760  -1.852   9.396  1.00  0.00     0.031 A 
ATOM     37  C   UNL     1       8.150  -2.423   9.517  1.00  0.00     0.074 A 
ATOM     38  C   UNL     1       5.810  -2.220  10.280  1.00  0.00     0.049 A 
ATOM     39  N   UNL     1       8.635  -3.229  10.429  1.00  0.00    -0.248 NA
ATOM     40  C   UNL     1       9.115  -2.061   8.468  1.00  0.00     0.031 C 
ATOM     41  C   UNL     1       4.408  -1.795  10.237  1.00  0.00     0.029 A 
ATOM     42  N   UNL     1       5.875  -3.027  11.388  1.00  0.00    -0.354 N 
ATOM     43  C   UNL     1       9.954  -3.473  10.064  1.00  0.00     0.074 A 
ATOM     44  C   UNL     1      10.177  -2.776   8.815  1.00  0.00     0.031 C 
ATOM     45  C   UNL     1       3.758  -2.311  11.292  1.00  0.00     0.029 A 
ATOM     46  C   UNL     1       4.683  -3.131  12.068  1.00  0.00     0.049 A 
ATOM     47  H   UNL     1       6.697  -3.489  11.671  1.00  0.00     0.167 HD
ATOM     48  C   UNL     1      10.902  -4.189  10.719  1.00  0.00     0.037 A 
ATOM     49  C   UNL     1       4.368  -3.803  13.193  1.00  0.00     0.037 A 
ATOM     50  C   UNL     1      10.680  -4.872  11.970  1.00  0.00     0.049 A 
ATOM     51  C   UNL     1       5.440  -4.574  13.912  1.00  0.00     0.074 A 
ATOM     52  C   UNL     1      11.590  -5.578  12.739  1.00  0.00     0.029 A 
ATOM     53  N   UNL     1       9.464  -4.940  12.635  1.00  0.00    -0.354 N 
ATOM     54  N   UNL     1       6.702  -4.730  13.589  1.00  0.00    -0.248 NA
ATOM     55  C   UNL     1       5.049  -5.247  15.157  1.00  0.00     0.031 C 
ATOM     56  C   UNL     1      10.914  -6.114  13.841  1.00  0.00     0.029 A 
ATOM     57  C   UNL     1       9.595  -5.691  13.793  1.00  0.00     0.049 A 
ATOM     58  H   UNL     1       8.629  -4.516  12.329  1.00  0.00     0.167 HD
ATOM     59  C   UNL     1       7.262  -5.496  14.607  1.00  0.00     0.074 A 
ATOM     60  C   UNL     1       6.205  -5.750  15.565  1.00  0.00     0.031 C 
ATOM     61  C   UNL     1       8.536  -5.946  14.737  1.00  0.00     0.037 A 
BRANCH  48  62
ATOM     62  C   UNL     1      12.273  -4.268  10.099  1.00  0.00     0.058 A 
ATOM     63  C   UNL     1      13.118  -3.148  10.029  1.00  0.00     0.135 A 
ATOM     64  C   UNL     1      12.768  -5.488   9.607  1.00  0.00     0.135 A 
ATOM     65  F   UNL     1      12.695  -1.953  10.471  1.00  0.00    -0.206 F 
ATOM     66  C   UNL     1      14.388  -3.225   9.466  1.00  0.00     0.059 A 
ATOM     67  C   UNL     1      14.048  -5.595   9.068  1.00  0.00     0.059 A 
ATOM     68  F   UNL     1      12.008  -6.593   9.650  1.00  0.00    -0.206 F 
ATOM     69  C   UNL     1      14.845  -4.454   8.988  1.00  0.00     0.060 A 
BRANCH  69  70
ATOM     70  S   UNL     1      16.496  -4.537   8.263  1.00  0.00     0.124 S 
ATOM     71  O   UNL     1      16.296  -3.831   7.001  1.00  0.00    -0.237 OA
ATOM     72  O   UNL     1      17.308  -3.839   9.256  1.00  0.00    -0.237 OA
ATOM     73  O   UNL     1      16.747  -5.969   8.147  1.00  0.00    -0.744 OA
ENDBRANCH  69  70
ENDBRANCH  48  62
BRANCH  49  74
ATOM     74  C   UNL     1       2.981  -3.744  13.729  1.00  0.00     0.058 A 
ATOM     75  C   UNL     1       2.693  -3.060  14.921  1.00  0.00     0.135 A 
ATOM     76  C   UNL     1       1.914  -4.361  13.058  1.00  0.00     0.135 A 
ATOM     77  F   UNL     1       3.680  -2.458  15.603  1.00  0.00    -0.206 F 
ATOM     78  C   UNL     1       1.404  -3.007  15.439  1.00  0.00     0.059 A 
ATOM     79  C   UNL     1       0.610  -4.297  13.540  1.00  0.00     0.059 A 
ATOM     80  F   UNL     1       2.131  -5.012  11.905  1.00  0.00    -0.206 F 
ATOM     81  C   UNL     1       0.367  -3.627  14.739  1.00  0.00     0.060 A 
BRANCH  81  82
ATOM     82  S   UNL     1      -1.311  -3.512  15.395  1.00  0.00     0.124 S 
ATOM     83  O   UNL     1      -1.242  -4.414  16.539  1.00  0.00    -0.237 OA
ATOM     84  O   UNL     1      -1.421  -2.090  15.708  1.00  0.00    -0.237 OA
ATOM     85  O   UNL     1      -2.138  -3.966  14.282  1.00  0.00    -0.744 OA
ENDBRANCH  81  82
ENDBRANCH  49  74
BRANCH  61  86
ATOM     86  C   UNL     1       8.861  -6.731  15.981  1.00  0.00     0.058 A 
ATOM     87  C   UNL     1       8.344  -8.018  16.205  1.00  0.00     0.135 A 
ATOM     88  C   UNL     1       9.700  -6.184  16.967  1.00  0.00     0.135 A 
ATOM     89  F   UNL     1       7.536  -8.589  15.297  1.00  0.00    -0.206 F 
ATOM     90  C   UNL     1       8.601  -8.710  17.384  1.00  0.00     0.059 A 
ATOM     91  C   UNL     1       9.998  -6.874  18.138  1.00  0.00     0.059 A 
ATOM     92  F   UNL     1      10.236  -4.965  16.799  1.00  0.00    -0.206 F 
ATOM     93  C   UNL     1       9.423  -8.126  18.349  1.00  0.00     0.060 A 
BRANCH  93  94
ATOM     94  S   UNL     1       9.732  -9.023  19.885  1.00  0.00     0.124 S 
ATOM     95  O   UNL     1       8.463  -8.853  20.584  1.00  0.00    -0.237 OA
ATOM     96  O   UNL     1      10.018 -10.372  19.408  1.00  0.00    -0.237 OA
ATOM     97  O   UNL     1      10.870  -8.317  20.468  1.00  0.00    -0.744 OA
ENDBRANCH  93  94
ENDBRANCH  61  86
ENDBRANCH  35  36
ENDBRANCH  27  30
ENDBRANCH  25  26
ENDBRANCH   1  25
TORSDOF 18
