REMARK SMILES O=C(NCCCNC(=O)c1ccc2c(c1)[C@@H]1C=CC[C@@H]1[C@H](c1ccncc1)N2)c1ccc(-c2c3nc(c(-c4c(F)cc(S(=O)(=O)[O-])cc4F)c4ccc([nH]4)c(-c4c(F)cc(S(=O)(=O)[O-])cc4F)c4nc(c(-c5c(F)cc(S(=O)(=O)[O-])cc5F)c5ccc2[nH]5)C=C4)C=C3)cc1
REMARK SMILES IDX 4 1 3 2 1 3 2 4 29 6 30 7 94 8 31 9 93 10 32 11 33 12 34 13
REMARK SMILES IDX 87 14 35 15 92 16 86 17 88 18 36 19 91 20 85 21 84 22 37 24
REMARK SMILES IDX 71 25 50 26 70 27 51 28 54 29 69 30 89 31 52 32 53 33 68 35
REMARK SMILES IDX 90 36 55 37 38 38 39 39 48 40 40 41 41 42 47 43 49 44 42 45
REMARK SMILES IDX 43 46 44 47 45 48 46 49 72 50 73 51 82 52 74 53 75 54 81 55
REMARK SMILES IDX 83 56 76 57 77 58 78 59 79 60 80 61 56 62 57 63 66 64 58 65
REMARK SMILES IDX 59 66 65 67 67 68 60 69 61 70 62 71 63 72 64 73 5 74 6 75
REMARK SMILES IDX 7 76 8 77 9 79 10 80 11 81 15 82 12 83 14 84 13 85 16 86
REMARK SMILES IDX 28 87 17 88 20 89 21 90 18 92 19 93 22 94 23 95 27 96 24 97
REMARK SMILES IDX 26 98 25 99
REMARK H PARENT 3 5 88 23 54 34 7 78 28 91
REMARK Flexibility Score: inf
ROOT
ATOM      1  C   UNL     1       4.509  -0.900  -1.051  1.00  0.00     0.118 C 
ENDROOT
BRANCH   1   2
ATOM      2  N   UNL     1       3.079  -0.625  -0.958  1.00  0.00    -0.352 N 
ATOM      3  O   UNL     1       1.129   0.040  -0.059  1.00  0.00    -0.269 OA
ATOM      4  C   UNL     1       2.357   0.073  -0.018  1.00  0.00     0.251 C 
ATOM      5  H   UNL     1       2.541  -1.003  -1.691  1.00  0.00     0.163 HD
BRANCH   4   6
ATOM      6  C   UNL     1       3.042   0.830   1.054  1.00  0.00     0.039 A 
ATOM      7  C   UNL     1       4.197   1.565   0.791  1.00  0.00     0.014 A 
ATOM      8  C   UNL     1       2.514   0.813   2.350  1.00  0.00     0.014 A 
ATOM      9  C   UNL     1       4.932   2.099   1.842  1.00  0.00     0.010 A 
ATOM     10  C   UNL     1       3.196   1.454   3.392  1.00  0.00     0.010 A 
ATOM     11  C   UNL     1       4.440   2.058   3.157  1.00  0.00    -0.014 A 
BRANCH  11  12
ATOM     12  C   UNL     1       5.243   2.675   4.247  1.00  0.00     0.031 A 
ATOM     13  C   UNL     1       5.782   1.848   5.385  1.00  0.00     0.074 A 
ATOM     14  C   UNL     1       5.540   3.989   4.170  1.00  0.00     0.049 A 
ATOM     15  N   UNL     1       6.555   2.217   6.376  1.00  0.00    -0.248 NA
ATOM     16  C   UNL     1       5.398   0.428   5.427  1.00  0.00     0.031 C 
ATOM     17  C   UNL     1       5.061   4.900   3.126  1.00  0.00     0.029 A 
ATOM     18  N   UNL     1       6.339   4.779   4.956  1.00  0.00    -0.354 N 
ATOM     19  C   UNL     1       6.724   1.090   7.173  1.00  0.00     0.074 A 
ATOM     20  C   UNL     1       5.956   0.027   6.561  1.00  0.00     0.031 C 
ATOM     21  C   UNL     1       5.631   6.102   3.295  1.00  0.00     0.029 A 
ATOM     22  C   UNL     1       6.465   6.066   4.491  1.00  0.00     0.049 A 
ATOM     23  H   UNL     1       6.779   4.455   5.775  1.00  0.00     0.167 HD
ATOM     24  C   UNL     1       7.457   0.953   8.304  1.00  0.00     0.037 A 
ATOM     25  C   UNL     1       7.171   7.107   4.970  1.00  0.00     0.037 A 
ATOM     26  C   UNL     1       8.250   2.005   8.889  1.00  0.00     0.049 A 
ATOM     27  C   UNL     1       7.993   6.922   6.212  1.00  0.00     0.074 A 
ATOM     28  C   UNL     1       9.063   1.950  10.008  1.00  0.00     0.029 A 
ATOM     29  N   UNL     1       8.335   3.300   8.399  1.00  0.00    -0.354 N 
ATOM     30  N   UNL     1       8.160   5.840   6.934  1.00  0.00    -0.248 NA
ATOM     31  C   UNL     1       8.719   8.098   6.707  1.00  0.00     0.031 C 
ATOM     32  C   UNL     1       9.611   3.221  10.216  1.00  0.00     0.029 A 
ATOM     33  C   UNL     1       9.172   4.058   9.202  1.00  0.00     0.049 A 
ATOM     34  H   UNL     1       7.867   3.633   7.599  1.00  0.00     0.167 HD
ATOM     35  C   UNL     1       9.023   6.201   7.961  1.00  0.00     0.074 A 
ATOM     36  C   UNL     1       9.357   7.596   7.756  1.00  0.00     0.031 C 
ATOM     37  C   UNL     1       9.495   5.445   8.983  1.00  0.00     0.037 A 
BRANCH  24  38
ATOM     38  C   UNL     1       7.424  -0.380   9.002  1.00  0.00     0.058 A 
ATOM     39  C   UNL     1       8.088  -1.504   8.486  1.00  0.00     0.135 A 
ATOM     40  C   UNL     1       6.747  -0.525  10.224  1.00  0.00     0.135 A 
ATOM     41  F   UNL     1       8.739  -1.427   7.314  1.00  0.00    -0.206 F 
ATOM     42  C   UNL     1       8.059  -2.731   9.143  1.00  0.00     0.059 A 
ATOM     43  C   UNL     1       6.724  -1.736  10.909  1.00  0.00     0.059 A 
ATOM     44  F   UNL     1       6.097   0.519  10.764  1.00  0.00    -0.206 F 
ATOM     45  C   UNL     1       7.370  -2.838  10.352  1.00  0.00     0.060 A 
BRANCH  45  46
ATOM     46  S   UNL     1       7.335  -4.437  11.191  1.00  0.00     0.124 S 
ATOM     47  O   UNL     1       6.372  -5.171  10.376  1.00  0.00    -0.237 OA
ATOM     48  O   UNL     1       8.722  -4.879  11.084  1.00  0.00    -0.237 OA
ATOM     49  O   UNL     1       6.890  -4.103  12.541  1.00  0.00    -0.744 OA
ENDBRANCH  45  46
ENDBRANCH  24  38
BRANCH  25  50
ATOM     50  C   UNL     1       7.139   8.411   4.258  1.00  0.00     0.058 A 
ATOM     51  C   UNL     1       8.258   8.876   3.554  1.00  0.00     0.135 A 
ATOM     52  C   UNL     1       5.978   9.199   4.240  1.00  0.00     0.135 A 
ATOM     53  F   UNL     1       9.391   8.158   3.545  1.00  0.00    -0.206 F 
ATOM     54  C   UNL     1       8.233  10.083   2.864  1.00  0.00     0.059 A 
ATOM     55  C   UNL     1       5.920  10.397   3.536  1.00  0.00     0.059 A 
ATOM     56  F   UNL     1       4.875   8.786   4.883  1.00  0.00    -0.206 F 
ATOM     57  C   UNL     1       7.056  10.835   2.859  1.00  0.00     0.060 A 
BRANCH  57  58
ATOM     58  S   UNL     1       7.010  12.372   1.912  1.00  0.00     0.124 S 
ATOM     59  O   UNL     1       7.743  13.278   2.789  1.00  0.00    -0.237 OA
ATOM     60  O   UNL     1       7.686  11.994   0.675  1.00  0.00    -0.237 OA
ATOM     61  O   UNL     1       5.581  12.639   1.779  1.00  0.00    -0.744 OA
ENDBRANCH  57  58
ENDBRANCH  25  50
BRANCH  37  62
ATOM     62  C   UNL     1      10.447   6.108   9.937  1.00  0.00     0.058 A 
ATOM     63  C   UNL     1      10.005   7.040  10.888  1.00  0.00     0.135 A 
ATOM     64  C   UNL     1      11.814   5.791   9.911  1.00  0.00     0.135 A 
ATOM     65  F   UNL     1       8.708   7.382  10.947  1.00  0.00    -0.206 F 
ATOM     66  C   UNL     1      10.892   7.661  11.762  1.00  0.00     0.059 A 
ATOM     67  C   UNL     1      12.715   6.382  10.791  1.00  0.00     0.059 A 
ATOM     68  F   UNL     1      12.285   4.898   9.027  1.00  0.00    -0.206 F 
ATOM     69  C   UNL     1      12.246   7.328  11.703  1.00  0.00     0.060 A 
BRANCH  69  70
ATOM     70  S   UNL     1      13.389   8.128  12.848  1.00  0.00     0.124 S 
ATOM     71  O   UNL     1      13.559   9.437  12.225  1.00  0.00    -0.237 OA
ATOM     72  O   UNL     1      12.642   8.114  14.102  1.00  0.00    -0.237 OA
ATOM     73  O   UNL     1      14.562   7.260  12.816  1.00  0.00    -0.744 OA
ENDBRANCH  69  70
ENDBRANCH  37  62
ENDBRANCH  11  12
ENDBRANCH   4   6
ENDBRANCH   1   2
BRANCH   1  74
ATOM     74  C   UNL     1       4.853  -2.362  -0.817  1.00  0.00     0.042 C 
BRANCH  74  75
ATOM     75  C   UNL     1       4.304  -3.307  -1.873  1.00  0.00     0.118 C 
BRANCH  75  76
ATOM     76  N   UNL     1       4.827  -3.030  -3.206  1.00  0.00    -0.352 N 
ATOM     77  C   UNL     1       5.668  -3.765  -4.003  1.00  0.00     0.251 C 
ATOM     78  H   UNL     1       4.528  -2.177  -3.597  1.00  0.00     0.163 HD
ATOM     79  O   UNL     1       6.135  -3.266  -5.024  1.00  0.00    -0.269 OA
BRANCH  77  80
ATOM     80  C   UNL     1       6.018  -5.156  -3.647  1.00  0.00     0.040 A 
ATOM     81  C   UNL     1       7.339  -5.583  -3.772  1.00  0.00     0.016 A 
ATOM     82  C   UNL     1       5.043  -6.047  -3.202  1.00  0.00     0.020 A 
ATOM     83  C   UNL     1       7.680  -6.892  -3.418  1.00  0.00     0.027 A 
ATOM     84  C   UNL     1       5.399  -7.325  -2.749  1.00  0.00    -0.017 A 
ATOM     85  C   UNL     1       6.714  -7.782  -2.927  1.00  0.00     0.038 A 
ATOM     86  C   UNL     1       4.363  -8.169  -2.043  1.00  0.00     0.049 C 
ATOM     87  N   UNL     1       7.091  -9.066  -2.551  1.00  0.00    -0.378 N 
ATOM     88  C   UNL     1       3.821  -7.496  -0.804  1.00  0.00    -0.023 C 
ATOM     89  C   UNL     1       4.930  -9.462  -1.435  1.00  0.00     0.031 C 
ATOM     90  C   UNL     1       6.049 -10.052  -2.294  1.00  0.00     0.114 C 
ATOM     91  H   UNL     1       8.041  -9.305  -2.461  1.00  0.00     0.161 HD
ATOM     92  C   UNL     1       4.346  -8.005   0.317  1.00  0.00    -0.030 C 
ATOM     93  C   UNL     1       5.309  -9.107   0.014  1.00  0.00     0.034 C 
BRANCH  90  94
ATOM     94  C   UNL     1       6.597 -11.338  -1.699  1.00  0.00    -0.022 A 
ATOM     95  C   UNL     1       5.791 -12.487  -1.704  1.00  0.00     0.026 A 
ATOM     96  C   UNL     1       7.860 -11.435  -1.105  1.00  0.00     0.026 A 
ATOM     97  C   UNL     1       6.276 -13.656  -1.139  1.00  0.00     0.111 A 
ATOM     98  C   UNL     1       8.262 -12.654  -0.579  1.00  0.00     0.111 A 
ATOM     99  N   UNL     1       7.500 -13.768  -0.588  1.00  0.00    -0.265 NA
ENDBRANCH  90  94
ENDBRANCH  77  80
ENDBRANCH  75  76
ENDBRANCH  74  75
ENDBRANCH   1  74
TORSDOF 14
