REMARK SMILES COc1ccc(C(=O)Nc2cc(C(=O)NCCCNC(=O)c3ccc(-c4c5nc(c(-c6c(F)cc(S(=O)(=O)[O-])cc6F)c6ccc([nH]6)c(-c6c(F)cc(S(=O)(=O)[O-])cc6F)c6nc(c(-c7c(F)cc(S(=O)(=O)[O-])cc7F)c7ccc4[nH]7)C=C6)C=C5)cc3)c(Cl)cc2Cl)cc1Cl
REMARK SMILES IDX 17 1 16 2 15 3 13 4 14 5 12 7 10 8 11 9 91 10 90 11 92 12
REMARK SMILES IDX 88 13 89 14 9 15 7 16 8 17 6 19 3 20 4 21 94 22 5 23 93 24
REMARK SMILES IDX 95 25 2 26 1 27 18 28 19 29 20 30 21 32 22 33 23 34 87 35
REMARK SMILES IDX 24 36 86 37 25 38 26 39 27 40 80 41 28 42 85 43 79 44 81 45
REMARK SMILES IDX 29 46 84 47 78 48 77 49 30 51 64 52 43 53 63 54 44 55 47 56
REMARK SMILES IDX 62 57 82 58 45 59 46 60 61 62 83 63 48 64 31 65 32 66 41 67
REMARK SMILES IDX 33 68 34 69 40 70 42 71 35 72 36 73 37 74 38 75 39 76 65 77
REMARK SMILES IDX 66 78 75 79 67 80 68 81 74 82 76 83 69 84 70 85 71 86 72 87
REMARK SMILES IDX 73 88 49 89 50 90 59 91 51 92 52 93 58 94 60 95 53 96 54 97
REMARK SMILES IDX 55 98 56 99 57 100
REMARK H PARENT 15 6 9 18 19 31 81 50 47 61
REMARK Flexibility Score: inf
ROOT
ATOM      1  C   UNL     1       7.699  -0.784  -0.404  1.00  0.00     0.042 C 
ENDROOT
BRANCH   1   2
ATOM      2  C   UNL     1       7.874  -2.302  -0.510  1.00  0.00     0.118 C 
BRANCH   2   3
ATOM      3  N   UNL     1       6.619  -2.993  -0.327  1.00  0.00    -0.352 N 
ATOM      4  C   UNL     1       5.663  -3.554  -1.116  1.00  0.00     0.252 C 
ATOM      5  O   UNL     1       4.774  -4.116  -0.459  1.00  0.00    -0.269 OA
ATOM      6  H   UNL     1       6.394  -3.082   0.628  1.00  0.00     0.163 HD
BRANCH   4   7
ATOM      7  C   UNL     1       5.549  -3.615  -2.617  1.00  0.00     0.060 A 
ATOM      8  C   UNL     1       4.027  -4.508  -4.360  1.00  0.00     0.061 A 
ATOM      9  C   UNL     1       4.452  -4.422  -3.031  1.00  0.00     0.043 A 
ATOM     10  C   UNL     1       4.853  -4.007  -5.359  1.00  0.00     0.066 A 
ATOM     11  C   UNL     1       5.939  -3.220  -5.001  1.00  0.00     0.044 A 
ATOM     12  Cl  UNL     1       4.461  -4.174  -7.032  1.00  0.00    -0.082 Cl
ATOM     13  C   UNL     1       6.235  -2.952  -3.646  1.00  0.00     0.055 A 
ATOM     14  Cl  UNL     1       7.344  -1.651  -3.484  1.00  0.00    -0.083 Cl
BRANCH   8  15
ATOM     15  N   UNL     1       2.752  -4.993  -4.702  1.00  0.00    -0.321 N 
ATOM     16  C   UNL     1       1.526  -4.853  -4.078  1.00  0.00     0.255 C 
ATOM     17  O   UNL     1       0.582  -5.520  -4.507  1.00  0.00    -0.269 OA
ATOM     18  H   UNL     1       2.728  -5.524  -5.531  1.00  0.00     0.170 HD
BRANCH  16  19
ATOM     19  C   UNL     1       1.254  -3.865  -2.982  1.00  0.00     0.041 A 
ATOM     20  C   UNL     1       0.669  -2.111  -0.833  1.00  0.00     0.137 A 
ATOM     21  C   UNL     1      -0.156  -3.207  -1.114  1.00  0.00     0.049 A 
ATOM     22  C   UNL     1       1.779  -1.885  -1.650  1.00  0.00     0.083 A 
ATOM     23  C   UNL     1       0.137  -4.080  -2.168  1.00  0.00     0.018 A 
ATOM     24  C   UNL     1       2.010  -2.709  -2.762  1.00  0.00     0.038 A 
ATOM     25  Cl  UNL     1       2.990  -0.691  -1.333  1.00  0.00    -0.080 Cl
BRANCH  20  26
ATOM     26  O   UNL     1       0.296  -1.414   0.284  1.00  0.00    -0.495 OA
ATOM     27  C   UNL     1       0.409   0.005   0.217  1.00  0.00     0.278 C 
ENDBRANCH  20  26
ENDBRANCH  16  19
ENDBRANCH   8  15
ENDBRANCH   4   7
ENDBRANCH   2   3
ENDBRANCH   1   2
BRANCH   1  28
ATOM     28  C   UNL     1       7.790  -0.257   1.029  1.00  0.00     0.118 C 
BRANCH  28  29
ATOM     29  N   UNL     1       9.123  -0.453   1.587  1.00  0.00    -0.352 N 
ATOM     30  C   UNL     1      10.073   0.454   1.973  1.00  0.00     0.251 C 
ATOM     31  H   UNL     1       9.383  -1.394   1.707  1.00  0.00     0.163 HD
ATOM     32  O   UNL     1      11.232   0.062   2.137  1.00  0.00    -0.269 OA
BRANCH  30  33
ATOM     33  C   UNL     1       9.739   1.875   2.203  1.00  0.00     0.039 A 
ATOM     34  C   UNL     1      10.688   2.850   1.877  1.00  0.00     0.014 A 
ATOM     35  C   UNL     1       8.538   2.251   2.812  1.00  0.00     0.014 A 
ATOM     36  C   UNL     1      10.415   4.198   2.119  1.00  0.00     0.010 A 
ATOM     37  C   UNL     1       8.237   3.600   2.987  1.00  0.00     0.010 A 
ATOM     38  C   UNL     1       9.175   4.587   2.651  1.00  0.00    -0.014 A 
BRANCH  38  39
ATOM     39  C   UNL     1       8.846   6.021   2.851  1.00  0.00     0.031 A 
ATOM     40  C   UNL     1       8.606   6.565   4.233  1.00  0.00     0.074 A 
ATOM     41  C   UNL     1       8.708   6.819   1.774  1.00  0.00     0.049 A 
ATOM     42  N   UNL     1       8.265   7.774   4.597  1.00  0.00    -0.248 NA
ATOM     43  C   UNL     1       8.740   5.619   5.353  1.00  0.00     0.031 C 
ATOM     44  C   UNL     1       8.858   6.390   0.382  1.00  0.00     0.029 A 
ATOM     45  N   UNL     1       8.402   8.153   1.678  1.00  0.00    -0.354 N 
ATOM     46  C   UNL     1       8.131   7.733   5.980  1.00  0.00     0.074 A 
ATOM     47  C   UNL     1       8.376   6.365   6.385  1.00  0.00     0.031 C 
ATOM     48  C   UNL     1       8.669   7.445  -0.427  1.00  0.00     0.029 A 
ATOM     49  C   UNL     1       8.351   8.615   0.385  1.00  0.00     0.049 A 
ATOM     50  H   UNL     1       8.236   8.725   2.462  1.00  0.00     0.167 HD
ATOM     51  C   UNL     1       7.852   8.746   6.835  1.00  0.00     0.037 A 
ATOM     52  C   UNL     1       8.074   9.842  -0.095  1.00  0.00     0.037 A 
ATOM     53  C   UNL     1       7.633  10.109   6.422  1.00  0.00     0.049 A 
ATOM     54  C   UNL     1       7.788  10.956   0.873  1.00  0.00     0.074 A 
ATOM     55  C   UNL     1       7.401  11.222   7.211  1.00  0.00     0.029 A 
ATOM     56  N   UNL     1       7.617  10.544   5.104  1.00  0.00    -0.354 N 
ATOM     57  N   UNL     1       7.728  10.912   2.183  1.00  0.00    -0.248 NA
ATOM     58  C   UNL     1       7.541  12.286   0.301  1.00  0.00     0.031 C 
ATOM     59  C   UNL     1       7.206  12.323   6.369  1.00  0.00     0.029 A 
ATOM     60  C   UNL     1       7.362  11.905   5.057  1.00  0.00     0.049 A 
ATOM     61  H   UNL     1       7.764   9.970   4.319  1.00  0.00     0.167 HD
ATOM     62  C   UNL     1       7.457  12.212   2.594  1.00  0.00     0.074 A 
ATOM     63  C   UNL     1       7.380  13.021   1.393  1.00  0.00     0.031 C 
ATOM     64  C   UNL     1       7.287  12.693   3.851  1.00  0.00     0.037 A 
BRANCH  51  65
ATOM     65  C   UNL     1       7.774   8.418   8.302  1.00  0.00     0.058 A 
ATOM     66  C   UNL     1       8.918   8.072   9.041  1.00  0.00     0.135 A 
ATOM     67  C   UNL     1       6.548   8.469   8.985  1.00  0.00     0.135 A 
ATOM     68  F   UNL     1      10.115   7.994   8.438  1.00  0.00    -0.206 F 
ATOM     69  C   UNL     1       8.843   7.752  10.393  1.00  0.00     0.059 A 
ATOM     70  C   UNL     1       6.454   8.182  10.345  1.00  0.00     0.059 A 
ATOM     71  F   UNL     1       5.423   8.796   8.331  1.00  0.00    -0.206 F 
ATOM     72  C   UNL     1       7.606   7.806  11.036  1.00  0.00     0.060 A 
BRANCH  72  73
ATOM     73  S   UNL     1       7.522   7.381  12.789  1.00  0.00     0.124 S 
ATOM     74  O   UNL     1       7.673   5.929  12.742  1.00  0.00    -0.237 OA
ATOM     75  O   UNL     1       8.657   8.115  13.343  1.00  0.00    -0.237 OA
ATOM     76  O   UNL     1       6.209   7.864  13.195  1.00  0.00    -0.744 OA
ENDBRANCH  72  73
ENDBRANCH  51  65
BRANCH  52  77
ATOM     77  C   UNL     1       8.091  10.080  -1.563  1.00  0.00     0.058 A 
ATOM     78  C   UNL     1       9.124  10.814  -2.162  1.00  0.00     0.135 A 
ATOM     79  C   UNL     1       7.099   9.544  -2.398  1.00  0.00     0.135 A 
ATOM     80  F   UNL     1      10.094  11.349  -1.405  1.00  0.00    -0.206 F 
ATOM     81  C   UNL     1       9.171  11.016  -3.538  1.00  0.00     0.059 A 
ATOM     82  C   UNL     1       7.137   9.712  -3.779  1.00  0.00     0.059 A 
ATOM     83  F   UNL     1       6.099   8.817  -1.875  1.00  0.00    -0.206 F 
ATOM     84  C   UNL     1       8.175  10.456  -4.339  1.00  0.00     0.060 A 
BRANCH  84  85
ATOM     85  S   UNL     1       8.281  10.667  -6.130  1.00  0.00     0.124 S 
ATOM     86  O   UNL     1       7.896  12.065  -6.284  1.00  0.00    -0.237 OA
ATOM     87  O   UNL     1       9.683  10.358  -6.392  1.00  0.00    -0.237 OA
ATOM     88  O   UNL     1       7.326   9.688  -6.639  1.00  0.00    -0.744 OA
ENDBRANCH  84  85
ENDBRANCH  52  77
BRANCH  64  89
ATOM     89  C   UNL     1       7.022  14.166   3.992  1.00  0.00     0.058 A 
ATOM     90  C   UNL     1       5.786  14.729   3.639  1.00  0.00     0.135 A 
ATOM     91  C   UNL     1       8.004  15.017   4.525  1.00  0.00     0.135 A 
ATOM     92  F   UNL     1       4.816  13.959   3.119  1.00  0.00    -0.206 F 
ATOM     93  C   UNL     1       5.541  16.090   3.785  1.00  0.00     0.059 A 
ATOM     94  C   UNL     1       7.771  16.376   4.705  1.00  0.00     0.059 A 
ATOM     95  F   UNL     1       9.200  14.526   4.888  1.00  0.00    -0.206 F 
ATOM     96  C   UNL     1       6.540  16.906   4.319  1.00  0.00     0.060 A 
BRANCH  96  97
ATOM     97  S   UNL     1       6.201  18.667   4.527  1.00  0.00     0.124 S 
ATOM     98  O   UNL     1       6.290  19.147   3.152  1.00  0.00    -0.237 OA
ATOM     99  O   UNL     1       4.864  18.662   5.112  1.00  0.00    -0.237 OA
ATOM    100  O   UNL     1       7.267  19.114   5.420  1.00  0.00    -0.744 OA
ENDBRANCH  96  97
ENDBRANCH  64  89
ENDBRANCH  38  39
ENDBRANCH  30  33
ENDBRANCH  28  29
ENDBRANCH   1  28
TORSDOF 16
