REMARK SMILES Cc1cccc(C(=O)Nc2cc(C(=O)NCCCNC(=O)c3ccc(-c4c5nc(c(-c6c(F)cc(S(=O)(=O)[O-])cc6F)c6ccc([nH]6)c(-c6c(F)cc(S(=O)(=O)[O-])cc6F)c6nc(c(-c7c(F)cc(S(=O)(=O)[O-])cc7F)c7ccc4[nH]7)C=C6)C=C5)cc3)ccc2N2CC[NH+](CC(=O)NC(C)(C)C)CC2)c1
REMARK SMILES IDX 16 1 15 2 13 3 14 4 12 6 10 7 11 8 90 9 89 10 88 11 9 12
REMARK SMILES IDX 7 13 8 14 6 16 1 17 2 18 3 19 105 20 4 21 5 22 91 23 92 24
REMARK SMILES IDX 104 25 93 26 103 27 94 28 95 30 96 31 97 32 98 33 99 35
REMARK SMILES IDX 100 36 101 37 102 38 17 39 18 40 19 41 20 42 21 44 22 45
REMARK SMILES IDX 23 46 87 47 24 48 86 49 25 50 26 51 27 52 80 53 28 54 85 55
REMARK SMILES IDX 79 56 81 57 29 58 84 59 78 60 77 61 30 63 64 64 43 65 63 66
REMARK SMILES IDX 44 67 47 68 62 69 82 70 45 71 46 72 61 74 83 75 48 76 31 77
REMARK SMILES IDX 32 78 41 79 33 80 34 81 40 82 42 83 35 84 36 85 37 86 38 87
REMARK SMILES IDX 39 88 65 89 66 90 75 91 67 92 68 93 74 94 76 95 69 96 70 97
REMARK SMILES IDX 71 98 72 99 73 100 49 101 50 102 59 103 51 104 52 105 58 106
REMARK SMILES IDX 60 107 53 108 54 109 55 110 56 111 57 112
REMARK H PARENT 15 5 9 15 94 29 98 34 19 43 81 62 47 73
REMARK Flexibility Score: inf
ROOT
ATOM      1  C   UNL     1       0.954   0.613  -2.223  1.00  0.00     0.118 C 
ENDROOT
BRANCH   1   2
ATOM      2  N   UNL     1       2.287   1.206  -2.574  1.00  0.00    -0.352 N 
ATOM      3  C   UNL     1       3.096   2.235  -2.119  1.00  0.00     0.251 C 
ATOM      4  O   UNL     1       4.305   2.279  -2.338  1.00  0.00    -0.269 OA
ATOM      5  H   UNL     1       2.699   0.737  -3.335  1.00  0.00     0.163 HD
BRANCH   3   6
ATOM      6  C   UNL     1       2.494   3.342  -1.356  1.00  0.00     0.042 A 
ATOM      7  C   UNL     1       0.451   4.245  -0.586  1.00  0.00     0.065 A 
ATOM      8  C   UNL     1       1.137   3.508  -1.503  1.00  0.00     0.042 A 
ATOM      9  C   UNL     1       1.113   5.226   0.191  1.00  0.00     0.061 A 
ATOM     10  C   UNL     1       2.514   5.193   0.211  1.00  0.00     0.029 A 
ATOM     11  C   UNL     1       3.207   4.201  -0.507  1.00  0.00     0.016 A 
BRANCH   7  12
ATOM     12  N   UNL     1      -0.926   4.006  -0.464  1.00  0.00    -0.320 N 
ATOM     13  C   UNL     1      -1.591   2.887   0.037  1.00  0.00     0.255 C 
ATOM     14  O   UNL     1      -2.803   3.012   0.250  1.00  0.00    -0.269 OA
ATOM     15  H   UNL     1      -1.509   4.735  -0.778  1.00  0.00     0.170 HD
BRANCH  13  16
ATOM     16  C   UNL     1      -0.980   1.557   0.409  1.00  0.00     0.040 A 
ATOM     17  C   UNL     1       2.328  -0.229   1.110  1.00  0.00     0.044 C 
ATOM     18  C   UNL     1       0.847   0.018   0.963  1.00  0.00    -0.050 A 
ATOM     19  C   UNL     1       0.027  -1.079   0.655  1.00  0.00     0.003 A 
ATOM     20  C   UNL     1       0.314   1.334   0.917  1.00  0.00     0.017 A 
ATOM     21  C   UNL     1      -1.294  -0.875   0.273  1.00  0.00     0.001 A 
ATOM     22  C   UNL     1      -1.788   0.429   0.150  1.00  0.00     0.014 A 
ENDBRANCH  13  16
ENDBRANCH   7  12
BRANCH   9  23
ATOM     23  N   UNL     1       0.371   6.093   0.968  1.00  0.00    -0.359 N 
ATOM     24  C   UNL     1       0.720   7.472   1.325  1.00  0.00     0.178 C 
ATOM     25  C   UNL     1      -0.460   5.442   1.958  1.00  0.00     0.178 C 
ATOM     26  C   UNL     1      -0.573   8.257   1.758  1.00  0.00     0.284 C 
ATOM     27  C   UNL     1      -1.791   6.196   2.038  1.00  0.00     0.284 C 
ATOM     28  N   UNL     1      -1.623   7.558   2.548  1.00  0.00    -0.324 N 
ATOM     29  H   UNL     1      -2.474   8.098   2.396  1.00  0.00     0.348 HD
BRANCH  28  30
ATOM     30  C   UNL     1      -1.524   7.620   4.019  1.00  0.00     0.363 C 
BRANCH  30  31
ATOM     31  C   UNL     1      -0.416   6.799   4.674  1.00  0.00     0.275 C 
ATOM     32  O   UNL     1       0.720   7.284   4.774  1.00  0.00    -0.268 OA
ATOM     33  N   UNL     1      -0.564   5.536   5.173  1.00  0.00    -0.347 N 
ATOM     34  H   UNL     1       0.263   5.262   5.631  1.00  0.00     0.164 HD
BRANCH  33  35
ATOM     35  C   UNL     1      -1.572   4.433   5.251  1.00  0.00     0.032 C 
ATOM     36  C   UNL     1      -1.420   3.398   4.115  1.00  0.00     0.034 C 
ATOM     37  C   UNL     1      -1.245   3.655   6.545  1.00  0.00     0.034 C 
ATOM     38  C   UNL     1      -3.027   4.895   5.340  1.00  0.00     0.034 C 
ENDBRANCH  33  35
ENDBRANCH  30  31
ENDBRANCH  28  30
ENDBRANCH   9  23
ENDBRANCH   3   6
ENDBRANCH   1   2
BRANCH   1  39
ATOM     39  C   UNL     1      -0.384   0.596  -3.160  1.00  0.00     0.042 C 
BRANCH  39  40
ATOM     40  C   UNL     1      -0.795  -0.860  -3.723  1.00  0.00     0.118 C 
BRANCH  40  41
ATOM     41  N   UNL     1      -1.851  -1.262  -4.829  1.00  0.00    -0.352 N 
ATOM     42  C   UNL     1      -1.938  -2.023  -6.077  1.00  0.00     0.251 C 
ATOM     43  H   UNL     1      -2.730  -0.879  -4.608  1.00  0.00     0.163 HD
ATOM     44  O   UNL     1      -2.839  -2.884  -6.058  1.00  0.00    -0.269 OA
BRANCH  42  45
ATOM     45  C   UNL     1      -1.138  -2.006  -7.444  1.00  0.00     0.039 A 
ATOM     46  C   UNL     1      -0.653  -3.193  -8.068  1.00  0.00     0.014 A 
ATOM     47  C   UNL     1      -0.796  -0.878  -8.157  1.00  0.00     0.014 A 
ATOM     48  C   UNL     1       0.615  -3.182  -8.752  1.00  0.00     0.010 A 
ATOM     49  C   UNL     1       0.428  -0.860  -8.880  1.00  0.00     0.010 A 
ATOM     50  C   UNL     1       1.281  -1.974  -8.939  1.00  0.00    -0.014 A 
BRANCH  50  51
ATOM     51  C   UNL     1       2.791  -1.807  -9.072  1.00  0.00     0.031 A 
ATOM     52  C   UNL     1       3.371  -1.453 -10.363  1.00  0.00     0.074 A 
ATOM     53  C   UNL     1       3.747  -1.764  -8.088  1.00  0.00     0.049 A 
ATOM     54  N   UNL     1       4.431  -1.993 -10.868  1.00  0.00    -0.248 NA
ATOM     55  C   UNL     1       2.809  -0.379 -11.158  1.00  0.00     0.031 C 
ATOM     56  C   UNL     1       5.193  -1.446  -8.077  1.00  0.00     0.029 A 
ATOM     57  N   UNL     1       3.586  -1.961  -6.732  1.00  0.00    -0.354 N 
ATOM     58  C   UNL     1       4.871  -1.121 -11.840  1.00  0.00     0.074 A 
ATOM     59  C   UNL     1       3.746  -0.248 -12.097  1.00  0.00     0.031 C 
ATOM     60  C   UNL     1       5.754  -1.904  -6.930  1.00  0.00     0.029 A 
ATOM     61  C   UNL     1       4.708  -2.553  -6.171  1.00  0.00     0.049 A 
ATOM     62  H   UNL     1       2.778  -1.713  -6.227  1.00  0.00     0.167 HD
ATOM     63  C   UNL     1       6.196  -1.052 -12.172  1.00  0.00     0.037 A 
ATOM     64  C   UNL     1       4.593  -3.840  -5.724  1.00  0.00     0.037 A 
ATOM     65  C   UNL     1       7.016  -1.860 -11.254  1.00  0.00     0.049 A 
ATOM     66  C   UNL     1       5.362  -4.751  -6.624  1.00  0.00     0.074 A 
ATOM     67  C   UNL     1       7.875  -1.517 -10.217  1.00  0.00     0.029 A 
ATOM     68  N   UNL     1       6.766  -3.223 -11.101  1.00  0.00    -0.354 N 
ATOM     69  N   UNL     1       5.842  -4.348  -7.762  1.00  0.00    -0.248 NA
ATOM     70  C   UNL     1       5.689  -6.141  -6.348  1.00  0.00     0.031 C 
ATOM     71  C   UNL     1       8.056  -2.659  -9.390  1.00  0.00     0.029 A 
ATOM     72  C   UNL     1       7.335  -3.708  -9.935  1.00  0.00     0.049 A 
ATOM     73  H   UNL     1       6.252  -3.769 -11.738  1.00  0.00     0.167 HD
ATOM     74  C   UNL     1       6.556  -5.334  -8.356  1.00  0.00     0.074 A 
ATOM     75  C   UNL     1       6.434  -6.447  -7.429  1.00  0.00     0.031 C 
ATOM     76  C   UNL     1       7.179  -5.111  -9.549  1.00  0.00     0.037 A 
BRANCH  63  77
ATOM     77  C   UNL     1       6.755   0.005 -13.115  1.00  0.00     0.058 A 
ATOM     78  C   UNL     1       8.108   0.403 -13.076  1.00  0.00     0.135 A 
ATOM     79  C   UNL     1       5.995   0.650 -14.117  1.00  0.00     0.135 A 
ATOM     80  F   UNL     1       8.996  -0.203 -12.276  1.00  0.00    -0.206 F 
ATOM     81  C   UNL     1       8.630   1.418 -13.887  1.00  0.00     0.059 A 
ATOM     82  C   UNL     1       6.467   1.722 -14.878  1.00  0.00     0.059 A 
ATOM     83  F   UNL     1       4.781   0.203 -14.469  1.00  0.00    -0.206 F 
ATOM     84  C   UNL     1       7.795   2.093 -14.768  1.00  0.00     0.060 A 
BRANCH  84  85
ATOM     85  S   UNL     1       8.484   3.371 -15.836  1.00  0.00     0.124 S 
ATOM     86  O   UNL     1       9.080   4.295 -14.876  1.00  0.00    -0.237 OA
ATOM     87  O   UNL     1       9.424   2.608 -16.651  1.00  0.00    -0.237 OA
ATOM     88  O   UNL     1       7.318   3.886 -16.550  1.00  0.00    -0.744 OA
ENDBRANCH  84  85
ENDBRANCH  63  77
BRANCH  64  89
ATOM     89  C   UNL     1       3.281  -4.162  -5.004  1.00  0.00     0.058 A 
ATOM     90  C   UNL     1       3.081  -3.326  -3.896  1.00  0.00     0.135 A 
ATOM     91  C   UNL     1       2.148  -4.230  -5.797  1.00  0.00     0.135 A 
ATOM     92  F   UNL     1       3.765  -3.531  -2.765  1.00  0.00    -0.206 F 
ATOM     93  C   UNL     1       2.351  -2.144  -4.029  1.00  0.00     0.059 A 
ATOM     94  C   UNL     1       1.268  -3.139  -5.817  1.00  0.00     0.059 A 
ATOM     95  F   UNL     1       1.916  -5.288  -6.590  1.00  0.00    -0.206 F 
ATOM     96  C   UNL     1       1.592  -1.956  -5.176  1.00  0.00     0.060 A 
BRANCH  96  97
ATOM     97  S   UNL     1       1.388  -0.076  -5.835  1.00  0.00     0.124 S 
ATOM     98  O   UNL     1       2.091   0.598  -4.764  1.00  0.00    -0.237 OA
ATOM     99  O   UNL     1       2.158   0.098  -7.056  1.00  0.00    -0.237 OA
ATOM    100  O   UNL     1      -0.005   0.248  -5.937  1.00  0.00    -0.744 OA
ENDBRANCH  96  97
ENDBRANCH  64  89
BRANCH  76 101
ATOM    101  C   UNL     1       7.795  -6.169 -10.415  1.00  0.00     0.058 A 
ATOM    102  C   UNL     1       7.408  -7.518 -10.405  1.00  0.00     0.135 A 
ATOM    103  C   UNL     1       8.737  -5.806 -11.409  1.00  0.00     0.135 A 
ATOM    104  F   UNL     1       6.433  -7.967  -9.603  1.00  0.00    -0.206 F 
ATOM    105  C   UNL     1       7.978  -8.457 -11.259  1.00  0.00     0.059 A 
ATOM    106  C   UNL     1       9.259  -6.712 -12.320  1.00  0.00     0.059 A 
ATOM    107  F   UNL     1       9.179  -4.546 -11.542  1.00  0.00    -0.206 F 
ATOM    108  C   UNL     1       8.903  -8.045 -12.213  1.00  0.00     0.060 A 
BRANCH 108 109
ATOM    109  S   UNL     1       9.611  -9.254 -13.336  1.00  0.00     0.124 S 
ATOM    110  O   UNL     1      10.688  -9.806 -12.520  1.00  0.00    -0.237 OA
ATOM    111  O   UNL     1       8.487 -10.150 -13.589  1.00  0.00    -0.237 OA
ATOM    112  O   UNL     1      10.032  -8.449 -14.478  1.00  0.00    -0.744 OA
ENDBRANCH 108 109
ENDBRANCH  76 101
ENDBRANCH  50  51
ENDBRANCH  42  45
ENDBRANCH  40  41
ENDBRANCH  39  40
ENDBRANCH   1  39
TORSDOF 19
