REMARK SMILES C[C@@H]1[C@@H](C(=O)NCCCNC(=O)c2ccc(-c3c4nc(c(-c5c(F)cc(S(=O)(=O)[O-])cc5F)c5ccc([nH]5)c(-c5c(F)cc(S(=O)(=O)[O-])cc5F)c5nc(c(-c6c(F)cc(S(=O)(=O)[O-])cc6F)c6ccc3[nH]6)C=C5)C=C4)cc2)CCN1C(=O)c1cc(Cl)ccc1O
REMARK SMILES IDX 8 1 7 2 6 3 4 4 5 5 3 7 1 8 2 9 81 10 79 11 80 12 82 13
REMARK SMILES IDX 83 14 84 15 85 16 90 17 86 18 89 19 87 20 88 21 91 22 9 24
REMARK SMILES IDX 10 25 11 26 12 28 13 29 14 30 78 31 15 32 77 33 16 34 17 35
REMARK SMILES IDX 18 36 71 37 19 38 76 39 70 40 72 41 20 42 75 43 69 44 68 45
REMARK SMILES IDX 21 47 55 48 34 49 54 50 35 51 38 52 53 53 73 54 36 55 37 56
REMARK SMILES IDX 52 58 74 59 39 60 22 61 23 62 32 63 24 64 25 65 31 66 33 67
REMARK SMILES IDX 26 68 27 69 28 70 29 71 30 72 56 73 57 74 66 75 58 76 59 77
REMARK SMILES IDX 65 78 67 79 60 80 61 81 62 82 63 83 64 84 40 85 41 86 50 87
REMARK SMILES IDX 42 88 43 89 49 90 51 91 44 92 45 93 46 94 47 95 48 96
REMARK H PARENT 6 6 91 23 10 27 72 46 38 57
REMARK Flexibility Score: inf
ROOT
ATOM      1  C   UNL     1      -2.959   4.182  -1.204  1.00  0.00     0.042 C 
ENDROOT
BRANCH   1   2
ATOM      2  C   UNL     1      -2.637   2.752  -0.817  1.00  0.00     0.117 C 
BRANCH   2   3
ATOM      3  N   UNL     1      -1.907   2.022  -1.837  1.00  0.00    -0.356 N 
ATOM      4  C   UNL     1      -0.873   1.146  -1.704  1.00  0.00     0.225 C 
ATOM      5  O   UNL     1      -0.450   0.608  -2.727  1.00  0.00    -0.275 OA
ATOM      6  H   UNL     1      -2.202   2.185  -2.761  1.00  0.00     0.163 HD
BRANCH   4   7
ATOM      7  C   UNL     1      -0.232   0.938  -0.338  1.00  0.00     0.102 C 
ATOM      8  C   UNL     1       1.981   0.180   0.573  1.00  0.00     0.032 C 
ATOM      9  C   UNL     1       0.849  -0.173  -0.396  1.00  0.00     0.094 C 
ATOM     10  N   UNL     1       0.107  -1.400  -0.015  1.00  0.00    -0.335 N 
ATOM     11  C   UNL     1      -1.180   0.411   0.745  1.00  0.00     0.037 C 
ATOM     12  C   UNL     1      -1.213  -1.075   0.483  1.00  0.00     0.121 C 
BRANCH  10  13
ATOM     13  C   UNL     1       0.312  -2.710  -0.416  1.00  0.00     0.257 C 
ATOM     14  O   UNL     1      -0.545  -3.585  -0.311  1.00  0.00    -0.269 OA
BRANCH  13  15
ATOM     15  C   UNL     1       1.620  -3.118  -0.937  1.00  0.00     0.083 A 
ATOM     16  C   UNL     1       1.672  -3.653  -2.229  1.00  0.00     0.038 A 
ATOM     17  C   UNL     1       2.748  -3.154  -0.113  1.00  0.00     0.128 A 
ATOM     18  C   UNL     1       2.876  -4.166  -2.704  1.00  0.00     0.042 A 
ATOM     19  C   UNL     1       3.957  -3.632  -0.609  1.00  0.00     0.048 A 
ATOM     20  Cl  UNL     1       2.946  -4.873  -4.271  1.00  0.00    -0.084 Cl
ATOM     21  C   UNL     1       4.022  -4.140  -1.908  1.00  0.00     0.024 A 
BRANCH  17  22
ATOM     22  O   UNL     1       2.735  -2.787   1.204  1.00  0.00    -0.507 OA
ATOM     23  H   UNL     1       1.948  -2.458   1.591  1.00  0.00     0.293 HD
ENDBRANCH  17  22
ENDBRANCH  13  15
ENDBRANCH  10  13
ENDBRANCH   4   7
ENDBRANCH   2   3
ENDBRANCH   1   2
BRANCH   1  24
ATOM     24  C   UNL     1      -3.722   4.333  -2.509  1.00  0.00     0.118 C 
BRANCH  24  25
ATOM     25  N   UNL     1      -5.042   3.720  -2.486  1.00  0.00    -0.352 N 
ATOM     26  C   UNL     1      -6.295   4.294  -2.512  1.00  0.00     0.251 C 
ATOM     27  H   UNL     1      -5.040   2.736  -2.446  1.00  0.00     0.163 HD
ATOM     28  O   UNL     1      -7.284   3.595  -2.340  1.00  0.00    -0.269 OA
BRANCH  26  29
ATOM     29  C   UNL     1      -6.439   5.757  -2.701  1.00  0.00     0.039 A 
ATOM     30  C   UNL     1      -7.362   6.454  -1.918  1.00  0.00     0.014 A 
ATOM     31  C   UNL     1      -5.657   6.444  -3.630  1.00  0.00     0.014 A 
ATOM     32  C   UNL     1      -7.426   7.848  -2.000  1.00  0.00     0.010 A 
ATOM     33  C   UNL     1      -5.636   7.834  -3.623  1.00  0.00     0.010 A 
ATOM     34  C   UNL     1      -6.524   8.555  -2.813  1.00  0.00    -0.014 A 
BRANCH  34  35
ATOM     35  C   UNL     1      -6.496  10.041  -2.843  1.00  0.00     0.031 A 
ATOM     36  C   UNL     1      -6.728  10.772  -4.141  1.00  0.00     0.074 A 
ATOM     37  C   UNL     1      -6.186  10.730  -1.726  1.00  0.00     0.049 A 
ATOM     38  N   UNL     1      -6.650  12.053  -4.393  1.00  0.00    -0.248 NA
ATOM     39  C   UNL     1      -7.056   9.951  -5.319  1.00  0.00     0.031 C 
ATOM     40  C   UNL     1      -5.884  10.138  -0.420  1.00  0.00     0.029 A 
ATOM     41  N   UNL     1      -6.063  12.080  -1.510  1.00  0.00    -0.354 N 
ATOM     42  C   UNL     1      -6.900  12.188  -5.754  1.00  0.00     0.074 A 
ATOM     43  C   UNL     1      -7.065  10.854  -6.287  1.00  0.00     0.031 C 
ATOM     44  C   UNL     1      -5.644  11.119   0.465  1.00  0.00     0.029 A 
ATOM     45  C   UNL     1      -5.728  12.407  -0.216  1.00  0.00     0.049 A 
ATOM     46  H   UNL     1      -6.202  12.753  -2.215  1.00  0.00     0.167 HD
ATOM     47  C   UNL     1      -7.012  13.320  -6.488  1.00  0.00     0.037 A 
ATOM     48  C   UNL     1      -5.507  13.607   0.356  1.00  0.00     0.037 A 
ATOM     49  C   UNL     1      -6.881  14.646  -5.945  1.00  0.00     0.049 A 
ATOM     50  C   UNL     1      -5.639  14.851  -0.480  1.00  0.00     0.074 A 
ATOM     51  C   UNL     1      -7.036  15.859  -6.592  1.00  0.00     0.029 A 
ATOM     52  N   UNL     1      -6.566  14.934  -4.625  1.00  0.00    -0.354 N 
ATOM     53  N   UNL     1      -5.936  14.961  -1.753  1.00  0.00    -0.248 NA
ATOM     54  C   UNL     1      -5.412  16.135   0.198  1.00  0.00     0.031 C 
ATOM     55  C   UNL     1      -6.770  16.880  -5.675  1.00  0.00     0.029 A 
ATOM     56  C   UNL     1      -6.503  16.305  -4.442  1.00  0.00     0.049 A 
ATOM     57  H   UNL     1      -6.411  14.262  -3.922  1.00  0.00     0.167 HD
ATOM     58  C   UNL     1      -5.961  16.325  -2.021  1.00  0.00     0.074 A 
ATOM     59  C   UNL     1      -5.660  17.000  -0.775  1.00  0.00     0.031 C 
ATOM     60  C   UNL     1      -6.212  16.962  -3.192  1.00  0.00     0.037 A 
BRANCH  47  61
ATOM     61  C   UNL     1      -7.303  13.172  -7.958  1.00  0.00     0.058 A 
ATOM     62  C   UNL     1      -8.545  12.705  -8.420  1.00  0.00     0.135 A 
ATOM     63  C   UNL     1      -6.343  13.531  -8.917  1.00  0.00     0.135 A 
ATOM     64  F   UNL     1      -9.495  12.331  -7.547  1.00  0.00    -0.206 F 
ATOM     65  C   UNL     1      -8.812  12.568  -9.778  1.00  0.00     0.059 A 
ATOM     66  C   UNL     1      -6.600  13.433 -10.282  1.00  0.00     0.059 A 
ATOM     67  F   UNL     1      -5.139  13.983  -8.533  1.00  0.00    -0.206 F 
ATOM     68  C   UNL     1      -7.833  12.936 -10.702  1.00  0.00     0.060 A 
BRANCH  68  69
ATOM     69  S   UNL     1      -8.200  12.758 -12.460  1.00  0.00     0.124 S 
ATOM     70  O   UNL     1      -8.155  11.308 -12.621  1.00  0.00    -0.237 OA
ATOM     71  O   UNL     1      -9.523  13.366 -12.565  1.00  0.00    -0.237 OA
ATOM     72  O   UNL     1      -7.121  13.495 -13.109  1.00  0.00    -0.744 OA
ENDBRANCH  68  69
ENDBRANCH  47  61
BRANCH  48  73
ATOM     73  C   UNL     1      -5.164  13.691   1.802  1.00  0.00     0.058 A 
ATOM     74  C   UNL     1      -6.075  14.222   2.728  1.00  0.00     0.135 A 
ATOM     75  C   UNL     1      -3.929  13.236   2.289  1.00  0.00     0.135 A 
ATOM     76  F   UNL     1      -7.267  14.676   2.312  1.00  0.00    -0.206 F 
ATOM     77  C   UNL     1      -5.768  14.316   4.082  1.00  0.00     0.059 A 
ATOM     78  C   UNL     1      -3.610  13.294   3.642  1.00  0.00     0.059 A 
ATOM     79  F   UNL     1      -3.029  12.704   1.448  1.00  0.00    -0.206 F 
ATOM     80  C   UNL     1      -4.532  13.846   4.530  1.00  0.00     0.060 A 
BRANCH  80  81
ATOM     81  S   UNL     1      -4.163  13.928   6.296  1.00  0.00     0.124 S 
ATOM     82  O   UNL     1      -3.947  15.357   6.485  1.00  0.00    -0.237 OA
ATOM     83  O   UNL     1      -5.380  13.381   6.888  1.00  0.00    -0.237 OA
ATOM     84  O   UNL     1      -2.978  13.085   6.430  1.00  0.00    -0.744 OA
ENDBRANCH  80  81
ENDBRANCH  48  73
BRANCH  60  85
ATOM     85  C   UNL     1      -6.214  18.465  -3.178  1.00  0.00     0.058 A 
ATOM     86  C   UNL     1      -5.027  19.205  -3.060  1.00  0.00     0.135 A 
ATOM     87  C   UNL     1      -7.415  19.174  -3.344  1.00  0.00     0.135 A 
ATOM     88  F   UNL     1      -3.853  18.577  -2.894  1.00  0.00    -0.206 F 
ATOM     89  C   UNL     1      -5.034  20.596  -3.082  1.00  0.00     0.059 A 
ATOM     90  C   UNL     1      -7.442  20.564  -3.399  1.00  0.00     0.059 A 
ATOM     91  F   UNL     1      -8.577  18.514  -3.473  1.00  0.00    -0.206 F 
ATOM     92  C   UNL     1      -6.247  21.266  -3.255  1.00  0.00     0.060 A 
BRANCH  92  93
ATOM     93  S   UNL     1      -6.237  23.070  -3.319  1.00  0.00     0.124 S 
ATOM     94  O   UNL     1      -5.998  23.412  -1.921  1.00  0.00    -0.237 OA
ATOM     95  O   UNL     1      -5.135  23.344  -4.236  1.00  0.00    -0.237 OA
ATOM     96  O   UNL     1      -7.565  23.400  -3.828  1.00  0.00    -0.744 OA
ENDBRANCH  92  93
ENDBRANCH  60  85
ENDBRANCH  34  35
ENDBRANCH  26  29
ENDBRANCH  24  25
ENDBRANCH   1  24
TORSDOF 16
