REMARK SMILES O=C1C[C@@H](c2cccc(O)c2)c2c(c(C(=O)NCCCNC(=O)c3ccc(-c4c5nc(c(-c6c(F)cc(S(=O)(=O)[O-])cc6F)c6ccc([nH]6)c(-c6c(F)cc(S(=O)(=O)[O-])cc6F)c6nc(c(-c7c(F)cc(S(=O)(=O)[O-])cc7F)c7ccc4[nH]7)C=C6)C=C5)cc3)cn2-c2cccc(C(F)(F)F)c2)N1
REMARK SMILES IDX 19 1 18 2 17 3 15 4 16 5 14 7 1 8 2 9 3 10 102 11 4 12 13 13
REMARK SMILES IDX 12 15 91 16 90 17 5 18 6 19 11 20 7 21 9 22 8 23 10 24 92 26
REMARK SMILES IDX 93 27 101 28 94 29 96 30 95 31 97 32 98 33 99 34 100 35
REMARK SMILES IDX 20 36 21 37 22 38 23 40 24 41 25 42 89 43 26 44 88 45 27 46
REMARK SMILES IDX 28 47 29 48 82 49 30 50 87 51 81 52 83 53 31 54 86 55 80 56
REMARK SMILES IDX 79 57 32 59 66 60 45 61 65 62 46 63 49 64 64 65 84 66 47 67
REMARK SMILES IDX 48 68 63 70 85 71 50 72 33 73 34 74 43 75 35 76 36 77 42 78
REMARK SMILES IDX 44 79 37 80 38 81 39 82 40 83 41 84 67 85 68 86 77 87 69 88
REMARK SMILES IDX 70 89 76 90 78 91 71 92 72 93 73 94 74 95 75 96 51 97 52 98
REMARK SMILES IDX 61 99 53 100 54 101 60 102 62 103 55 104 56 105 57 106
REMARK SMILES IDX 58 107 59 108
REMARK H PARENT 17 6 102 14 10 25 21 39 83 58 49 69
REMARK Flexibility Score: inf
ROOT
ATOM      1  C   UNL     1       6.938  -3.369   4.577  1.00  0.00     0.042 C 
ENDROOT
BRANCH   1   2
ATOM      2  C   UNL     1       7.181  -3.518   3.066  1.00  0.00     0.118 C 
BRANCH   2   3
ATOM      3  N   UNL     1       5.984  -3.892   2.331  1.00  0.00    -0.352 N 
ATOM      4  C   UNL     1       5.012  -3.132   1.725  1.00  0.00     0.254 C 
ATOM      5  O   UNL     1       4.174  -3.717   1.041  1.00  0.00    -0.269 OA
ATOM      6  H   UNL     1       5.844  -4.864   2.253  1.00  0.00     0.163 HD
BRANCH   4   7
ATOM      7  C   UNL     1       4.976  -1.679   1.860  1.00  0.00     0.081 A 
ATOM      8  O   UNL     1       1.558  -0.339  -1.232  1.00  0.00    -0.275 OA
ATOM      9  C   UNL     1       2.494  -0.081  -0.478  1.00  0.00     0.225 C 
ATOM     10  C   UNL     1       3.070   1.327  -0.387  1.00  0.00     0.115 C 
ATOM     11  N   UNL     1       3.154  -1.068   0.213  1.00  0.00    -0.324 N 
ATOM     12  C   UNL     1       3.653   1.696   0.990  1.00  0.00     0.078 C 
ATOM     13  C   UNL     1       4.121  -0.791   1.153  1.00  0.00     0.076 A 
ATOM     14  H   UNL     1       2.928  -2.008   0.029  1.00  0.00     0.170 HD
ATOM     15  C   UNL     1       4.353   0.504   1.563  1.00  0.00     0.055 A 
ATOM     16  N   UNL     1       5.344   0.466   2.516  1.00  0.00    -0.317 N 
ATOM     17  C   UNL     1       5.706  -0.853   2.692  1.00  0.00     0.107 A 
BRANCH  12  18
ATOM     18  C   UNL     1       2.588   2.259   1.915  1.00  0.00    -0.035 A 
ATOM     19  C   UNL     1       1.560   1.459   2.441  1.00  0.00     0.005 A 
ATOM     20  C   UNL     1       2.672   3.601   2.322  1.00  0.00     0.050 A 
ATOM     21  C   UNL     1       0.673   1.974   3.388  1.00  0.00     0.004 A 
ATOM     22  C   UNL     1       1.804   4.091   3.290  1.00  0.00     0.115 A 
ATOM     23  C   UNL     1       0.803   3.289   3.827  1.00  0.00     0.046 A 
BRANCH  22  24
ATOM     24  O   UNL     1       2.005   5.366   3.731  1.00  0.00    -0.508 OA
ATOM     25  H   UNL     1       1.439   5.731   4.383  1.00  0.00     0.293 HD
ENDBRANCH  22  24
ENDBRANCH  12  18
BRANCH  16  26
ATOM     26  C   UNL     1       5.904   1.493   3.307  1.00  0.00     0.046 A 
ATOM     27  C   UNL     1       7.299   1.593   3.396  1.00  0.00     0.026 A 
ATOM     28  C   UNL     1       5.088   2.249   4.148  1.00  0.00     0.039 A 
ATOM     29  C   UNL     1       7.872   2.498   4.287  1.00  0.00     0.003 A 
ATOM     30  C   UNL     1       5.658   3.153   5.057  1.00  0.00     0.058 A 
ATOM     31  C   UNL     1       7.057   3.278   5.107  1.00  0.00     0.013 A 
BRANCH  30  32
ATOM     32  C   UNL     1       4.796   3.960   5.997  1.00  0.00     0.416 C 
ATOM     33  F   UNL     1       5.201   3.845   7.295  1.00  0.00    -0.166 F 
ATOM     34  F   UNL     1       4.831   5.293   5.721  1.00  0.00    -0.166 F 
ATOM     35  F   UNL     1       3.481   3.609   5.994  1.00  0.00    -0.166 F 
ENDBRANCH  30  32
ENDBRANCH  16  26
ENDBRANCH   4   7
ENDBRANCH   2   3
ENDBRANCH   1   2
BRANCH   1  36
ATOM     36  C   UNL     1       7.091  -4.693   5.301  1.00  0.00     0.118 C 
BRANCH  36  37
ATOM     37  N   UNL     1       8.485  -5.183   5.304  1.00  0.00    -0.352 N 
ATOM     38  C   UNL     1       9.005  -6.405   5.733  1.00  0.00     0.251 C 
ATOM     39  H   UNL     1       9.150  -4.550   4.948  1.00  0.00     0.163 HD
ATOM     40  O   UNL     1      10.191  -6.533   5.967  1.00  0.00    -0.269 OA
BRANCH  38  41
ATOM     41  C   UNL     1       8.070  -7.535   5.886  1.00  0.00     0.039 A 
ATOM     42  C   UNL     1       8.140  -8.511   6.884  1.00  0.00     0.014 A 
ATOM     43  C   UNL     1       7.011  -7.525   5.007  1.00  0.00     0.014 A 
ATOM     44  C   UNL     1       7.090  -9.429   6.968  1.00  0.00     0.010 A 
ATOM     45  C   UNL     1       5.841  -8.043   5.443  1.00  0.00     0.010 A 
ATOM     46  C   UNL     1       5.941  -9.179   6.209  1.00  0.00    -0.014 A 
BRANCH  46  47
ATOM     47  C   UNL     1       4.774 -10.036   6.126  1.00  0.00     0.031 A 
ATOM     48  C   UNL     1       4.053 -10.212   7.401  1.00  0.00     0.074 A 
ATOM     49  C   UNL     1       4.217 -10.350   4.930  1.00  0.00     0.049 A 
ATOM     50  N   UNL     1       4.019 -11.264   8.145  1.00  0.00    -0.248 NA
ATOM     51  C   UNL     1       3.442  -9.021   8.013  1.00  0.00     0.031 C 
ATOM     52  C   UNL     1       4.603  -9.930   3.570  1.00  0.00     0.029 A 
ATOM     53  N   UNL     1       3.078 -11.049   4.697  1.00  0.00    -0.354 N 
ATOM     54  C   UNL     1       3.167 -10.944   9.195  1.00  0.00     0.074 A 
ATOM     55  C   UNL     1       3.047  -9.509   9.191  1.00  0.00     0.031 C 
ATOM     56  C   UNL     1       3.596 -10.186   2.705  1.00  0.00     0.029 A 
ATOM     57  C   UNL     1       2.578 -10.942   3.403  1.00  0.00     0.049 A 
ATOM     58  H   UNL     1       2.638 -11.590   5.392  1.00  0.00     0.167 HD
ATOM     59  C   UNL     1       2.418 -11.897   9.817  1.00  0.00     0.037 A 
ATOM     60  C   UNL     1       1.379 -11.415   2.976  1.00  0.00     0.037 A 
ATOM     61  C   UNL     1       2.843 -13.226   9.440  1.00  0.00     0.049 A 
ATOM     62  C   UNL     1       0.979 -12.470   3.955  1.00  0.00     0.074 A 
ATOM     63  C   UNL     1       4.040 -13.912   9.520  1.00  0.00     0.029 A 
ATOM     64  N   UNL     1       2.102 -13.891   8.488  1.00  0.00    -0.354 N 
ATOM     65  N   UNL     1       1.656 -13.578   4.133  1.00  0.00    -0.248 NA
ATOM     66  C   UNL     1       0.158 -12.059   5.085  1.00  0.00     0.031 C 
ATOM     67  C   UNL     1       4.152 -14.598   8.272  1.00  0.00     0.029 A 
ATOM     68  C   UNL     1       2.984 -14.361   7.544  1.00  0.00     0.049 A 
ATOM     69  H   UNL     1       1.124 -14.007   8.485  1.00  0.00     0.167 HD
ATOM     70  C   UNL     1       1.670 -13.781   5.509  1.00  0.00     0.074 A 
ATOM     71  C   UNL     1       0.681 -12.839   6.037  1.00  0.00     0.031 C 
ATOM     72  C   UNL     1       2.682 -14.465   6.129  1.00  0.00     0.037 A 
BRANCH  59  73
ATOM     73  C   UNL     1       1.090 -11.634  10.476  1.00  0.00     0.058 A 
ATOM     74  C   UNL     1       0.539 -12.609  11.328  1.00  0.00     0.135 A 
ATOM     75  C   UNL     1       0.224 -10.580  10.109  1.00  0.00     0.135 A 
ATOM     76  F   UNL     1       1.273 -13.659  11.729  1.00  0.00    -0.206 F 
ATOM     77  C   UNL     1      -0.795 -12.573  11.735  1.00  0.00     0.059 A 
ATOM     78  C   UNL     1      -1.090 -10.492  10.551  1.00  0.00     0.059 A 
ATOM     79  F   UNL     1       0.576  -9.639   9.224  1.00  0.00    -0.206 F 
ATOM     80  C   UNL     1      -1.605 -11.517  11.327  1.00  0.00     0.060 A 
BRANCH  80  81
ATOM     81  S   UNL     1      -3.354 -11.529  11.752  1.00  0.00     0.124 S 
ATOM     82  O   UNL     1      -3.841 -12.637  10.938  1.00  0.00    -0.237 OA
ATOM     83  O   UNL     1      -3.314 -11.760  13.192  1.00  0.00    -0.237 OA
ATOM     84  O   UNL     1      -3.807 -10.201  11.348  1.00  0.00    -0.744 OA
ENDBRANCH  80  81
ENDBRANCH  59  73
BRANCH  60  85
ATOM     85  C   UNL     1       0.424 -10.702   2.080  1.00  0.00     0.058 A 
ATOM     86  C   UNL     1      -0.684 -11.351   1.509  1.00  0.00     0.135 A 
ATOM     87  C   UNL     1       0.436  -9.294   1.970  1.00  0.00     0.135 A 
ATOM     88  F   UNL     1      -0.793 -12.687   1.585  1.00  0.00    -0.206 F 
ATOM     89  C   UNL     1      -1.733 -10.647   0.899  1.00  0.00     0.059 A 
ATOM     90  C   UNL     1      -0.590  -8.572   1.361  1.00  0.00     0.059 A 
ATOM     91  F   UNL     1       1.410  -8.563   2.534  1.00  0.00    -0.206 F 
ATOM     92  C   UNL     1      -1.685  -9.253   0.847  1.00  0.00     0.060 A 
BRANCH  92  93
ATOM     93  S   UNL     1      -3.107  -8.329   0.214  1.00  0.00     0.124 S 
ATOM     94  O   UNL     1      -3.070  -8.652  -1.207  1.00  0.00    -0.237 OA
ATOM     95  O   UNL     1      -4.212  -8.909   0.971  1.00  0.00    -0.237 OA
ATOM     96  O   UNL     1      -2.788  -6.944   0.549  1.00  0.00    -0.744 OA
ENDBRANCH  92  93
ENDBRANCH  60  85
BRANCH  72  97
ATOM     97  C   UNL     1       3.703 -15.187   5.274  1.00  0.00     0.058 A 
ATOM     98  C   UNL     1       4.603 -14.543   4.402  1.00  0.00     0.135 A 
ATOM     99  C   UNL     1       3.908 -16.558   5.483  1.00  0.00     0.135 A 
ATOM    100  F   UNL     1       4.558 -13.219   4.224  1.00  0.00    -0.206 F 
ATOM    101  C   UNL     1       5.626 -15.230   3.743  1.00  0.00     0.059 A 
ATOM    102  C   UNL     1       4.939 -17.260   4.858  1.00  0.00     0.059 A 
ATOM    103  F   UNL     1       3.134 -17.225   6.354  1.00  0.00    -0.206 F 
ATOM    104  C   UNL     1       5.788 -16.592   3.979  1.00  0.00     0.060 A 
BRANCH 104 105
ATOM    105  S   UNL     1       7.156 -17.464   3.183  1.00  0.00     0.124 S 
ATOM    106  O   UNL     1       6.734 -17.485   1.786  1.00  0.00    -0.237 OA
ATOM    107  O   UNL     1       8.299 -16.607   3.486  1.00  0.00    -0.237 OA
ATOM    108  O   UNL     1       7.168 -18.763   3.851  1.00  0.00    -0.744 OA
ENDBRANCH 104 105
ENDBRANCH  72  97
ENDBRANCH  46  47
ENDBRANCH  38  41
ENDBRANCH  36  37
ENDBRANCH   1  36
TORSDOF 17
