REMARK SMILES CCc1ccc2c(CC(=O)NCCCNC(=O)c3ccc(-c4c5nc(c(-c6c(F)cc(S(=O)(=O)[O-])cc6F)c6ccc([nH]6)c(-c6c(F)cc(S(=O)(=O)[O-])cc6F)c6nc(c(-c7c(F)cc(S(=O)(=O)[O-])cc7F)c7ccc4[nH]7)C=C6)C=C5)cc3)c(C(=O)c3cc(C)ccn3)[nH]c2c1
REMARK SMILES IDX 13 1 12 2 11 3 9 4 10 5 8 7 7 8 3 9 4 10 96 11 5 12 95 13
REMARK SMILES IDX 6 14 94 15 84 16 2 18 1 19 85 20 86 21 87 22 88 23 93 24
REMARK SMILES IDX 89 25 92 26 90 27 91 28 14 29 15 30 16 31 17 33 18 34 19 35
REMARK SMILES IDX 83 36 20 37 82 38 21 39 22 40 23 41 76 42 24 43 81 44 75 45
REMARK SMILES IDX 77 46 25 47 80 48 74 49 73 50 26 52 60 53 39 54 59 55 40 56
REMARK SMILES IDX 43 57 58 58 78 59 41 60 42 61 57 63 79 64 44 65 27 66 28 67
REMARK SMILES IDX 37 68 29 69 30 70 36 71 38 72 31 73 32 74 33 75 34 76 35 77
REMARK SMILES IDX 61 78 62 79 71 80 63 81 64 82 70 83 72 84 65 85 66 86 67 87
REMARK SMILES IDX 68 88 69 89 45 90 46 91 55 92 47 93 48 94 54 95 56 96 49 97
REMARK SMILES IDX 50 98 51 99 52 100 53 101
REMARK H PARENT 11 6 94 17 15 32 77 51 43 62
REMARK Flexibility Score: inf
ROOT
ATOM      1  C   UNL     1       4.687   5.114  -2.460  1.00  0.00     0.042 C 
ENDROOT
BRANCH   1   2
ATOM      2  C   UNL     1       3.857   6.388  -2.572  1.00  0.00     0.117 C 
BRANCH   2   3
ATOM      3  N   UNL     1       3.804   6.913  -3.921  1.00  0.00    -0.356 N 
ATOM      4  C   UNL     1       2.770   6.919  -4.814  1.00  0.00     0.224 C 
ATOM      5  O   UNL     1       2.909   7.619  -5.821  1.00  0.00    -0.275 OA
ATOM      6  H   UNL     1       4.637   7.328  -4.242  1.00  0.00     0.163 HD
BRANCH   4   7
ATOM      7  C   UNL     1       1.457   6.208  -4.511  1.00  0.00     0.138 C 
BRANCH   7   8
ATOM      8  C   UNL     1       1.575   4.728  -4.258  1.00  0.00    -0.002 A 
ATOM      9  C   UNL     1       0.787   2.193  -0.952  1.00  0.00    -0.046 A 
ATOM     10  C   UNL     1       0.468   3.548  -0.785  1.00  0.00     0.004 A 
ATOM     11  C   UNL     1       1.333   1.765  -2.173  1.00  0.00     0.030 A 
ATOM     12  C   UNL     1       0.677   4.483  -1.806  1.00  0.00     0.011 A 
ATOM     13  C   UNL     1       1.534   2.716  -3.185  1.00  0.00     0.046 A 
ATOM     14  C   UNL     1       1.221   4.061  -3.036  1.00  0.00     0.004 A 
ATOM     15  N   UNL     1       2.048   2.562  -4.449  1.00  0.00    -0.352 N 
ATOM     16  C   UNL     1       1.980   3.743  -5.162  1.00  0.00     0.093 A 
ATOM     17  H   UNL     1       2.417   1.720  -4.801  1.00  0.00     0.167 HD
BRANCH   9  18
ATOM     18  C   UNL     1       0.496   1.256   0.202  1.00  0.00     0.032 C 
ATOM     19  C   UNL     1       0.970  -0.185   0.062  1.00  0.00     0.009 C 
ENDBRANCH   9  18
BRANCH  16  20
ATOM     20  C   UNL     1       2.289   3.882  -6.581  1.00  0.00     0.227 C 
ATOM     21  O   UNL     1       2.096   4.916  -7.219  1.00  0.00    -0.285 OA
BRANCH  20  22
ATOM     22  C   UNL     1       2.785   2.696  -7.325  1.00  0.00     0.113 A 
ATOM     23  C   UNL     1       1.914   1.642  -7.590  1.00  0.00     0.036 A 
ATOM     24  N   UNL     1       4.089   2.717  -7.693  1.00  0.00    -0.253 NA
ATOM     25  C   UNL     1       2.411   0.531  -8.274  1.00  0.00    -0.047 A 
ATOM     26  C   UNL     1       4.536   1.643  -8.376  1.00  0.00     0.112 A 
ATOM     27  C   UNL     1       1.541  -0.652  -8.572  1.00  0.00     0.044 C 
ATOM     28  C   UNL     1       3.749   0.542  -8.680  1.00  0.00     0.023 A 
ENDBRANCH  20  22
ENDBRANCH  16  20
ENDBRANCH   7   8
ENDBRANCH   4   7
ENDBRANCH   2   3
ENDBRANCH   1   2
BRANCH   1  29
ATOM     29  C   UNL     1       6.178   5.309  -2.728  1.00  0.00     0.118 C 
BRANCH  29  30
ATOM     30  N   UNL     1       6.811   6.209  -1.773  1.00  0.00    -0.352 N 
ATOM     31  C   UNL     1       7.876   6.011  -0.930  1.00  0.00     0.251 C 
ATOM     32  H   UNL     1       6.409   7.106  -1.724  1.00  0.00     0.163 HD
ATOM     33  O   UNL     1       8.127   6.859  -0.075  1.00  0.00    -0.269 OA
BRANCH  31  34
ATOM     34  C   UNL     1       8.712   4.793  -1.025  1.00  0.00     0.039 A 
ATOM     35  C   UNL     1       9.154   4.190   0.157  1.00  0.00     0.014 A 
ATOM     36  C   UNL     1       9.102   4.268  -2.260  1.00  0.00     0.014 A 
ATOM     37  C   UNL     1       9.930   3.029   0.101  1.00  0.00     0.010 A 
ATOM     38  C   UNL     1       9.817   3.072  -2.314  1.00  0.00     0.010 A 
ATOM     39  C   UNL     1      10.239   2.439  -1.135  1.00  0.00    -0.014 A 
BRANCH  39  40
ATOM     40  C   UNL     1      10.985   1.156  -1.212  1.00  0.00     0.031 A 
ATOM     41  C   UNL     1      12.340   1.099  -1.865  1.00  0.00     0.074 A 
ATOM     42  C   UNL     1      10.409   0.025  -0.755  1.00  0.00     0.049 A 
ATOM     43  N   UNL     1      13.101   0.061  -2.098  1.00  0.00    -0.248 NA
ATOM     44  C   UNL     1      12.902   2.373  -2.342  1.00  0.00     0.031 C 
ATOM     45  C   UNL     1       9.078  -0.059  -0.147  1.00  0.00     0.029 A 
ATOM     46  N   UNL     1      10.858  -1.272  -0.745  1.00  0.00    -0.354 N 
ATOM     47  C   UNL     1      14.219   0.550  -2.764  1.00  0.00     0.074 A 
ATOM     48  C   UNL     1      14.018   1.973  -2.934  1.00  0.00     0.031 C 
ATOM     49  C   UNL     1       8.826  -1.335   0.185  1.00  0.00     0.029 A 
ATOM     50  C   UNL     1       9.956  -2.166  -0.217  1.00  0.00     0.049 A 
ATOM     51  H   UNL     1      11.744  -1.537  -1.083  1.00  0.00     0.167 HD
ATOM     52  C   UNL     1      15.319  -0.123  -3.179  1.00  0.00     0.037 A 
ATOM     53  C   UNL     1      10.024  -3.505  -0.084  1.00  0.00     0.037 A 
ATOM     54  C   UNL     1      15.527  -1.534  -2.977  1.00  0.00     0.049 A 
ATOM     55  C   UNL     1      11.264  -4.226  -0.537  1.00  0.00     0.074 A 
ATOM     56  C   UNL     1      16.640  -2.293  -3.297  1.00  0.00     0.029 A 
ATOM     57  N   UNL     1      14.606  -2.398  -2.404  1.00  0.00    -0.354 N 
ATOM     58  N   UNL     1      12.340  -3.736  -1.104  1.00  0.00    -0.248 NA
ATOM     59  C   UNL     1      11.303  -5.680  -0.327  1.00  0.00     0.031 C 
ATOM     60  C   UNL     1      16.374  -3.624  -2.958  1.00  0.00     0.029 A 
ATOM     61  C   UNL     1      15.116  -3.686  -2.381  1.00  0.00     0.049 A 
ATOM     62  H   UNL     1      13.720  -2.135  -2.064  1.00  0.00     0.167 HD
ATOM     63  C   UNL     1      13.195  -4.816  -1.294  1.00  0.00     0.074 A 
ATOM     64  C   UNL     1      12.515  -5.983  -0.772  1.00  0.00     0.031 C 
ATOM     65  C   UNL     1      14.431  -4.838  -1.851  1.00  0.00     0.037 A 
BRANCH  52  66
ATOM     66  C   UNL     1      16.392   0.655  -3.892  1.00  0.00     0.058 A 
ATOM     67  C   UNL     1      17.215   1.568  -3.213  1.00  0.00     0.135 A 
ATOM     68  C   UNL     1      16.636   0.445  -5.259  1.00  0.00     0.135 A 
ATOM     69  F   UNL     1      17.017   1.817  -1.909  1.00  0.00    -0.206 F 
ATOM     70  C   UNL     1      18.228   2.261  -3.868  1.00  0.00     0.059 A 
ATOM     71  C   UNL     1      17.661   1.107  -5.928  1.00  0.00     0.059 A 
ATOM     72  F   UNL     1      15.879  -0.416  -5.956  1.00  0.00    -0.206 F 
ATOM     73  C   UNL     1      18.445   2.022  -5.226  1.00  0.00     0.060 A 
BRANCH  73  74
ATOM     74  S   UNL     1      19.776   2.915  -6.057  1.00  0.00     0.124 S 
ATOM     75  O   UNL     1      19.209   4.256  -6.156  1.00  0.00    -0.237 OA
ATOM     76  O   UNL     1      20.885   2.763  -5.121  1.00  0.00    -0.237 OA
ATOM     77  O   UNL     1      19.926   2.202  -7.322  1.00  0.00    -0.744 OA
ENDBRANCH  73  74
ENDBRANCH  52  66
BRANCH  53  78
ATOM     78  C   UNL     1       8.884  -4.250   0.514  1.00  0.00     0.058 A 
ATOM     79  C   UNL     1       8.986  -4.830   1.787  1.00  0.00     0.135 A 
ATOM     80  C   UNL     1       7.667  -4.388  -0.172  1.00  0.00     0.135 A 
ATOM     81  F   UNL     1      10.131  -4.729   2.479  1.00  0.00    -0.206 F 
ATOM     82  C   UNL     1       7.930  -5.538   2.352  1.00  0.00     0.059 A 
ATOM     83  C   UNL     1       6.588  -5.069   0.383  1.00  0.00     0.059 A 
ATOM     84  F   UNL     1       7.511  -3.836  -1.386  1.00  0.00    -0.206 F 
ATOM     85  C   UNL     1       6.734  -5.651   1.641  1.00  0.00     0.060 A 
BRANCH  85  86
ATOM     86  S   UNL     1       5.353  -6.534   2.399  1.00  0.00     0.124 S 
ATOM     87  O   UNL     1       5.780  -7.921   2.260  1.00  0.00    -0.237 OA
ATOM     88  O   UNL     1       5.351  -5.997   3.756  1.00  0.00    -0.237 OA
ATOM     89  O   UNL     1       4.213  -6.138   1.577  1.00  0.00    -0.744 OA
ENDBRANCH  85  86
ENDBRANCH  53  78
BRANCH  65  90
ATOM     90  C   UNL     1      15.147  -6.159  -1.895  1.00  0.00     0.058 A 
ATOM     91  C   UNL     1      14.770  -7.174  -2.788  1.00  0.00     0.135 A 
ATOM     92  C   UNL     1      16.259  -6.392  -1.068  1.00  0.00     0.135 A 
ATOM     93  F   UNL     1      13.710  -7.005  -3.594  1.00  0.00    -0.206 F 
ATOM     94  C   UNL     1      15.457  -8.382  -2.845  1.00  0.00     0.059 A 
ATOM     95  C   UNL     1      16.977  -7.582  -1.128  1.00  0.00     0.059 A 
ATOM     96  F   UNL     1      16.667  -5.450  -0.203  1.00  0.00    -0.206 F 
ATOM     97  C   UNL     1      16.560  -8.576  -2.012  1.00  0.00     0.060 A 
BRANCH  97  98
ATOM     98  S   UNL     1      17.464 -10.135  -2.121  1.00  0.00     0.124 S 
ATOM     99  O   UNL     1      16.554 -11.050  -1.440  1.00  0.00    -0.237 OA
ATOM    100  O   UNL     1      17.592 -10.323  -3.563  1.00  0.00    -0.237 OA
ATOM    101  O   UNL     1      18.713  -9.854  -1.419  1.00  0.00    -0.744 OA
ENDBRANCH  97  98
ENDBRANCH  65  90
ENDBRANCH  39  40
ENDBRANCH  31  34
ENDBRANCH  29  30
ENDBRANCH   1  29
TORSDOF 17
