REMARK SMILES CCC(CC)(CC(=O)NNC(=O)c1cc(C)oc1C)C(=O)NCCCNC(=O)c1ccc(-c2c3nc(c(-c4c(F)cc(S(=O)(=O)[O-])cc4F)c4ccc([nH]4)c(-c4c(F)cc(S(=O)(=O)[O-])cc4F)c4nc(c(-c5c(F)cc(S(=O)(=O)[O-])cc5F)c5ccc2[nH]5)C=C4)C=C3)cc1
REMARK SMILES IDX 23 1 22 2 20 3 21 4 3 6 2 7 1 8 4 9 5 10 6 11 7 12 8 13 9 14
REMARK SMILES IDX 10 16 11 17 12 19 13 20 14 21 18 22 15 23 17 24 19 25 16 26
REMARK SMILES IDX 24 27 25 28 26 29 27 30 28 32 29 33 30 34 94 35 31 36 93 37
REMARK SMILES IDX 32 38 33 39 34 40 87 41 35 42 92 43 86 44 88 45 36 46 91 47
REMARK SMILES IDX 85 48 84 49 37 51 71 52 50 53 70 54 51 55 54 56 69 57 89 58
REMARK SMILES IDX 52 59 53 60 68 62 90 63 55 64 38 65 39 66 48 67 40 68 41 69
REMARK SMILES IDX 47 70 49 71 42 72 43 73 44 74 45 75 46 76 72 77 73 78 82 79
REMARK SMILES IDX 74 80 75 81 81 82 83 83 76 84 77 85 78 86 79 87 80 88 56 89
REMARK SMILES IDX 57 90 66 91 58 92 59 93 65 94 67 95 60 96 61 97 62 98 63 99
REMARK SMILES IDX 64 100
REMARK H PARENT 22 5 9 15 10 18 26 31 88 50 54 61
REMARK Flexibility Score: inf
ROOT
ATOM      1  C   UNL     1       2.353   0.434   4.985  1.00  0.00     0.117 C 
ENDROOT
BRANCH   1   2
ATOM      2  N   UNL     1       2.886   0.017   3.700  1.00  0.00    -0.356 N 
ATOM      3  C   UNL     1       2.341  -0.265   2.490  1.00  0.00     0.226 C 
ATOM      4  O   UNL     1       3.148  -0.596   1.614  1.00  0.00    -0.274 OA
ATOM      5  H   UNL     1       3.866  -0.083   3.708  1.00  0.00     0.163 HD
BRANCH   3   6
ATOM      6  C   UNL     1       0.820  -0.188   2.185  1.00  0.00     0.057 C 
BRANCH   6   7
ATOM      7  C   UNL     1       0.594  -0.587   0.681  1.00  0.00     0.014 C 
ATOM      8  C   UNL     1       1.050   0.424  -0.370  1.00  0.00     0.005 C 
ENDBRANCH   6   7
BRANCH   6   9
ATOM      9  C   UNL     1       0.302   1.263   2.426  1.00  0.00     0.014 C 
ATOM     10  C   UNL     1      -1.185   1.486   2.162  1.00  0.00     0.005 C 
ENDBRANCH   6   9
BRANCH   6  11
ATOM     11  C   UNL     1       0.050  -1.214   3.062  1.00  0.00     0.118 C 
BRANCH  11  12
ATOM     12  C   UNL     1       0.645  -2.617   3.069  1.00  0.00     0.239 C 
ATOM     13  O   UNL     1       1.600  -2.898   3.793  1.00  0.00    -0.273 OA
ATOM     14  N   UNL     1       0.097  -3.599   2.284  1.00  0.00    -0.267 N 
ATOM     15  H   UNL     1       0.495  -4.497   2.337  1.00  0.00     0.191 HD
BRANCH  14  16
ATOM     16  N   UNL     1      -0.981  -3.426   1.415  1.00  0.00    -0.263 N 
ATOM     17  C   UNL     1      -1.019  -3.915   0.126  1.00  0.00     0.273 C 
ATOM     18  H   UNL     1      -1.762  -2.925   1.742  1.00  0.00     0.191 HD
ATOM     19  O   UNL     1      -1.803  -3.402  -0.687  1.00  0.00    -0.267 OA
BRANCH  17  20
ATOM     20  C   UNL     1      -0.169  -5.033  -0.232  1.00  0.00     0.082 A 
ATOM     21  C   UNL     1       0.111  -6.230   0.496  1.00  0.00     0.059 A 
ATOM     22  C   UNL     1       0.476  -5.187  -1.447  1.00  0.00     0.113 A 
ATOM     23  C   UNL     1       0.911  -7.010  -0.310  1.00  0.00     0.101 A 
ATOM     24  O   UNL     1       1.139  -6.376  -1.491  1.00  0.00    -0.466 OA
ATOM     25  C   UNL     1       0.575  -4.347  -2.660  1.00  0.00     0.088 C 
ATOM     26  C   UNL     1       1.513  -8.349  -0.158  1.00  0.00     0.087 C 
ENDBRANCH  17  20
ENDBRANCH  14  16
ENDBRANCH  11  12
ENDBRANCH   6  11
ENDBRANCH   3   6
ENDBRANCH   1   2
BRANCH   1  27
ATOM     27  C   UNL     1       2.662  -0.537   6.124  1.00  0.00     0.042 C 
BRANCH  27  28
ATOM     28  C   UNL     1       4.137  -0.881   6.329  1.00  0.00     0.118 C 
BRANCH  28  29
ATOM     29  N   UNL     1       4.965   0.295   6.545  1.00  0.00    -0.352 N 
ATOM     30  C   UNL     1       5.813   0.619   7.574  1.00  0.00     0.251 C 
ATOM     31  H   UNL     1       4.909   0.972   5.833  1.00  0.00     0.163 HD
ATOM     32  O   UNL     1       6.290   1.752   7.610  1.00  0.00    -0.269 OA
BRANCH  30  33
ATOM     33  C   UNL     1       6.151  -0.349   8.643  1.00  0.00     0.039 A 
ATOM     34  C   UNL     1       6.230   0.124   9.959  1.00  0.00     0.014 A 
ATOM     35  C   UNL     1       6.470  -1.683   8.367  1.00  0.00     0.014 A 
ATOM     36  C   UNL     1       6.574  -0.743  10.998  1.00  0.00     0.010 A 
ATOM     37  C   UNL     1       6.785  -2.558   9.411  1.00  0.00     0.010 A 
ATOM     38  C   UNL     1       6.838  -2.095  10.734  1.00  0.00    -0.014 A 
BRANCH  38  39
ATOM     39  C   UNL     1       7.170  -3.028  11.838  1.00  0.00     0.031 A 
ATOM     40  C   UNL     1       8.574  -3.529  12.017  1.00  0.00     0.074 A 
ATOM     41  C   UNL     1       6.199  -3.453  12.667  1.00  0.00     0.049 A 
ATOM     42  N   UNL     1       9.024  -4.434  12.847  1.00  0.00    -0.248 NA
ATOM     43  C   UNL     1       9.600  -2.951  11.136  1.00  0.00     0.031 C 
ATOM     44  C   UNL     1       4.790  -3.070  12.588  1.00  0.00     0.029 A 
ATOM     45  N   UNL     1       6.256  -4.304  13.741  1.00  0.00    -0.354 N 
ATOM     46  C   UNL     1      10.371  -4.584  12.549  1.00  0.00     0.074 A 
ATOM     47  C   UNL     1      10.675  -3.643  11.489  1.00  0.00     0.031 C 
ATOM     48  C   UNL     1       4.117  -3.670  13.584  1.00  0.00     0.029 A 
ATOM     49  C   UNL     1       5.045  -4.486  14.362  1.00  0.00     0.049 A 
ATOM     50  H   UNL     1       7.086  -4.743  14.038  1.00  0.00     0.167 HD
ATOM     51  C   UNL     1      11.266  -5.446  13.089  1.00  0.00     0.037 A 
ATOM     52  C   UNL     1       4.720  -5.223  15.440  1.00  0.00     0.037 A 
ATOM     53  C   UNL     1      10.981  -6.353  14.168  1.00  0.00     0.049 A 
ATOM     54  C   UNL     1       5.777  -6.013  16.151  1.00  0.00     0.074 A 
ATOM     55  C   UNL     1      11.794  -7.324  14.728  1.00  0.00     0.029 A 
ATOM     56  N   UNL     1       9.791  -6.373  14.879  1.00  0.00    -0.354 N 
ATOM     57  N   UNL     1       7.029  -6.196  15.811  1.00  0.00    -0.248 NA
ATOM     58  C   UNL     1       5.381  -6.685  17.396  1.00  0.00     0.031 C 
ATOM     59  C   UNL     1      11.105  -7.909  15.801  1.00  0.00     0.029 A 
ATOM     60  C   UNL     1       9.863  -7.303  15.902  1.00  0.00     0.049 A 
ATOM     61  H   UNL     1       9.009  -5.807  14.685  1.00  0.00     0.167 HD
ATOM     62  C   UNL     1       7.569  -7.018  16.791  1.00  0.00     0.074 A 
ATOM     63  C   UNL     1       6.515  -7.277  17.752  1.00  0.00     0.031 C 
ATOM     64  C   UNL     1       8.822  -7.528  16.870  1.00  0.00     0.037 A 
BRANCH  51  65
ATOM     65  C   UNL     1      12.630  -5.459  12.474  1.00  0.00     0.058 A 
ATOM     66  C   UNL     1      13.639  -4.590  12.913  1.00  0.00     0.135 A 
ATOM     67  C   UNL     1      12.915  -6.319  11.402  1.00  0.00     0.135 A 
ATOM     68  F   UNL     1      13.404  -3.737  13.922  1.00  0.00    -0.206 F 
ATOM     69  C   UNL     1      14.884  -4.554  12.291  1.00  0.00     0.059 A 
ATOM     70  C   UNL     1      14.152  -6.302  10.768  1.00  0.00     0.059 A 
ATOM     71  F   UNL     1      11.975  -7.159  10.941  1.00  0.00    -0.206 F 
ATOM     72  C   UNL     1      15.123  -5.402  11.208  1.00  0.00     0.060 A 
BRANCH  72  73
ATOM     73  S   UNL     1      16.707  -5.340  10.342  1.00  0.00     0.124 S 
ATOM     74  O   UNL     1      16.370  -4.518   9.184  1.00  0.00    -0.237 OA
ATOM     75  O   UNL     1      17.598  -4.718  11.317  1.00  0.00    -0.237 OA
ATOM     76  O   UNL     1      16.975  -6.747  10.064  1.00  0.00    -0.744 OA
ENDBRANCH  72  73
ENDBRANCH  51  65
BRANCH  52  77
ATOM     77  C   UNL     1       3.321  -5.215  15.922  1.00  0.00     0.058 A 
ATOM     78  C   UNL     1       2.895  -4.269  16.864  1.00  0.00     0.135 A 
ATOM     79  C   UNL     1       2.374  -6.105  15.398  1.00  0.00     0.135 A 
ATOM     80  F   UNL     1       3.773  -3.399  17.386  1.00  0.00    -0.206 F 
ATOM     81  C   UNL     1       1.566  -4.193  17.265  1.00  0.00     0.059 A 
ATOM     82  C   UNL     1       1.039  -6.046  15.781  1.00  0.00     0.059 A 
ATOM     83  F   UNL     1       2.742  -7.018  14.487  1.00  0.00    -0.206 F 
ATOM     84  C   UNL     1       0.644  -5.085  16.713  1.00  0.00     0.060 A 
BRANCH  84  85
ATOM     85  S   UNL     1      -1.106  -4.941  17.139  1.00  0.00     0.124 S 
ATOM     86  O   UNL     1      -1.234  -5.939  18.194  1.00  0.00    -0.237 OA
ATOM     87  O   UNL     1      -1.226  -3.549  17.562  1.00  0.00    -0.237 OA
ATOM     88  O   UNL     1      -1.766  -5.259  15.876  1.00  0.00    -0.744 OA
ENDBRANCH  84  85
ENDBRANCH  52  77
BRANCH  64  89
ATOM     89  C   UNL     1       9.119  -8.409  18.044  1.00  0.00     0.058 A 
ATOM     90  C   UNL     1       8.902  -9.793  17.979  1.00  0.00     0.135 A 
ATOM     91  C   UNL     1       9.623  -7.872  19.237  1.00  0.00     0.135 A 
ATOM     92  F   UNL     1       8.417 -10.349  16.858  1.00  0.00    -0.206 F 
ATOM     93  C   UNL     1       9.165 -10.620  19.067  1.00  0.00     0.059 A 
ATOM     94  C   UNL     1       9.893  -8.680  20.337  1.00  0.00     0.059 A 
ATOM     95  F   UNL     1       9.839  -6.552  19.346  1.00  0.00    -0.206 F 
ATOM     96  C   UNL     1       9.650 -10.052  20.246  1.00  0.00     0.060 A 
BRANCH  96  97
ATOM     97  S   UNL     1      10.002 -11.110  21.667  1.00  0.00     0.124 S 
ATOM     98  O   UNL     1       8.747 -11.032  22.406  1.00  0.00    -0.237 OA
ATOM     99  O   UNL     1      10.295 -12.401  21.053  1.00  0.00    -0.237 OA
ATOM    100  O   UNL     1      11.145 -10.448  22.290  1.00  0.00    -0.744 OA
ENDBRANCH  96  97
ENDBRANCH  64  89
ENDBRANCH  38  39
ENDBRANCH  30  33
ENDBRANCH  28  29
ENDBRANCH  27  28
ENDBRANCH   1  27
TORSDOF 19
