REMARK SMILES O=C(C[C@H](c1ccc(C2CC2)cc1)[NH+]1CCOCC1)NCCCNC(=O)c1ccc(-c2c3nc(c(-c4c(F)cc(S(=O)(=O)[O-])cc4F)c4ccc([nH]4)c(-c4c(F)cc(S(=O)(=O)[O-])cc4F)c4nc(c(-c5c(F)cc(S(=O)(=O)[O-])cc5F)c5ccc2[nH]5)C=C4)C=C3)cc1
REMARK SMILES IDX 22 1 21 2 20 3 1 4 2 5 3 7 4 8 14 9 15 10 19 11 16 13 18 14
REMARK SMILES IDX 17 15 5 16 6 17 13 18 7 19 12 20 8 21 9 22 10 23 11 24 23 25
REMARK SMILES IDX 24 26 25 27 26 29 27 30 28 31 92 32 29 33 91 34 30 35 31 36
REMARK SMILES IDX 32 37 85 38 33 39 90 40 84 41 86 42 34 43 89 44 83 45 82 46
REMARK SMILES IDX 35 48 69 49 48 50 68 51 49 52 52 53 67 54 87 55 50 56 51 57
REMARK SMILES IDX 66 59 88 60 53 61 36 62 37 63 46 64 38 65 39 66 45 67 47 68
REMARK SMILES IDX 40 69 41 70 42 71 43 72 44 73 70 74 71 75 80 76 72 77 73 78
REMARK SMILES IDX 79 79 81 80 74 81 75 82 76 83 77 84 78 85 54 86 55 87 64 88
REMARK SMILES IDX 56 89 57 90 63 91 65 92 58 93 59 94 60 95 61 96 62 97
REMARK H PARENT 20 6 14 12 24 28 86 47 52 58
REMARK Flexibility Score: inf
ROOT
ATOM      1  C   UNL     1       7.276  -1.659   2.799  1.00  0.00     0.042 C 
ENDROOT
BRANCH   1   2
ATOM      2  C   UNL     1       7.199  -1.549   1.286  1.00  0.00     0.117 C 
BRANCH   2   3
ATOM      3  N   UNL     1       6.227  -0.591   0.795  1.00  0.00    -0.356 N 
ATOM      4  O   UNL     1       7.263  -0.296  -1.226  1.00  0.00    -0.275 OA
ATOM      5  C   UNL     1       6.261  -0.185  -0.522  1.00  0.00     0.226 C 
ATOM      6  H   UNL     1       5.542  -0.230   1.403  1.00  0.00     0.163 HD
BRANCH   5   7
ATOM      7  C   UNL     1       4.951   0.337  -1.065  1.00  0.00     0.170 C 
BRANCH   7   8
ATOM      8  C   UNL     1       3.951  -0.719  -1.628  1.00  0.00     0.224 C 
BRANCH   8   9
ATOM      9  N   UNL     1       4.492  -1.746  -2.544  1.00  0.00    -0.324 N 
ATOM     10  C   UNL     1       3.521  -2.330  -3.488  1.00  0.00     0.291 C 
ATOM     11  C   UNL     1       5.372  -2.805  -2.025  1.00  0.00     0.291 C 
ATOM     12  H   UNL     1       5.127  -1.119  -3.039  1.00  0.00     0.348 HD
ATOM     13  C   UNL     1       2.875  -3.647  -3.024  1.00  0.00     0.221 C 
ATOM     14  C   UNL     1       4.700  -4.137  -1.649  1.00  0.00     0.221 C 
ATOM     15  O   UNL     1       3.872  -4.624  -2.707  1.00  0.00    -0.370 OA
ENDBRANCH   8   9
BRANCH   8  16
ATOM     16  C   UNL     1       2.926  -1.215  -0.612  1.00  0.00     0.010 A 
ATOM     17  C   UNL     1       3.276  -1.927   0.534  1.00  0.00     0.010 A 
ATOM     18  C   UNL     1       1.557  -0.997  -0.839  1.00  0.00     0.010 A 
ATOM     19  C   UNL     1       2.302  -2.429   1.405  1.00  0.00     0.004 A 
ATOM     20  C   UNL     1       0.584  -1.505   0.034  1.00  0.00     0.004 A 
ATOM     21  C   UNL     1       0.931  -2.247   1.172  1.00  0.00    -0.045 A 
BRANCH  21  22
ATOM     22  C   UNL     1      -0.069  -2.878   2.117  1.00  0.00     0.019 C 
ATOM     23  C   UNL     1      -1.564  -2.749   1.986  1.00  0.00     0.009 C 
ATOM     24  C   UNL     1      -0.896  -4.037   1.607  1.00  0.00     0.009 C 
ENDBRANCH  21  22
ENDBRANCH   8  16
ENDBRANCH   7   8
ENDBRANCH   5   7
ENDBRANCH   2   3
ENDBRANCH   1   2
BRANCH   1  25
ATOM     25  C   UNL     1       5.982  -2.052   3.502  1.00  0.00     0.118 C 
BRANCH  25  26
ATOM     26  N   UNL     1       5.530  -3.411   3.237  1.00  0.00    -0.352 N 
ATOM     27  C   UNL     1       5.071  -4.361   4.125  1.00  0.00     0.251 C 
ATOM     28  H   UNL     1       5.555  -3.690   2.294  1.00  0.00     0.163 HD
ATOM     29  O   UNL     1       4.765  -5.478   3.715  1.00  0.00    -0.269 OA
BRANCH  27  30
ATOM     30  C   UNL     1       4.993  -4.056   5.573  1.00  0.00     0.039 A 
ATOM     31  C   UNL     1       5.522  -4.974   6.484  1.00  0.00     0.014 A 
ATOM     32  C   UNL     1       4.447  -2.855   6.034  1.00  0.00     0.014 A 
ATOM     33  C   UNL     1       5.591  -4.646   7.842  1.00  0.00     0.010 A 
ATOM     34  C   UNL     1       4.595  -2.495   7.373  1.00  0.00     0.010 A 
ATOM     35  C   UNL     1       5.177  -3.381   8.292  1.00  0.00    -0.014 A 
BRANCH  35  36
ATOM     36  C   UNL     1       5.367  -2.964   9.708  1.00  0.00     0.031 A 
ATOM     37  C   UNL     1       4.181  -2.621  10.570  1.00  0.00     0.074 A 
ATOM     38  C   UNL     1       6.615  -2.827  10.203  1.00  0.00     0.049 A 
ATOM     39  N   UNL     1       4.154  -2.187  11.804  1.00  0.00    -0.248 NA
ATOM     40  C   UNL     1       2.851  -2.755   9.954  1.00  0.00     0.031 C 
ATOM     41  C   UNL     1       7.854  -3.066   9.458  1.00  0.00     0.029 A 
ATOM     42  N   UNL     1       7.051  -2.446  11.449  1.00  0.00    -0.354 N 
ATOM     43  C   UNL     1       2.812  -1.984  12.107  1.00  0.00     0.074 A 
ATOM     44  C   UNL     1       2.060  -2.288  10.909  1.00  0.00     0.031 C 
ATOM     45  C   UNL     1       8.905  -2.854  10.267  1.00  0.00     0.029 A 
ATOM     46  C   UNL     1       8.421  -2.429  11.577  1.00  0.00     0.049 A 
ATOM     47  H   UNL     1       6.440  -2.206  12.183  1.00  0.00     0.167 HD
ATOM     48  C   UNL     1       2.254  -1.606  13.283  1.00  0.00     0.037 A 
ATOM     49  C   UNL     1       9.202  -2.107  12.627  1.00  0.00     0.037 A 
ATOM     50  C   UNL     1       3.002  -1.332  14.483  1.00  0.00     0.049 A 
ATOM     51  C   UNL     1       8.558  -1.704  13.926  1.00  0.00     0.074 A 
ATOM     52  C   UNL     1       2.522  -1.004  15.739  1.00  0.00     0.029 A 
ATOM     53  N   UNL     1       4.385  -1.355  14.579  1.00  0.00    -0.354 N 
ATOM     54  N   UNL     1       7.284  -1.586  14.213  1.00  0.00    -0.248 NA
ATOM     55  C   UNL     1       9.458  -1.399  15.048  1.00  0.00     0.031 C 
ATOM     56  C   UNL     1       3.616  -0.788  16.584  1.00  0.00     0.029 A 
ATOM     57  C   UNL     1       4.777  -1.029  15.867  1.00  0.00     0.049 A 
ATOM     58  H   UNL     1       4.999  -1.571  13.840  1.00  0.00     0.167 HD
ATOM     59  C   UNL     1       7.228  -1.221  15.554  1.00  0.00     0.074 A 
ATOM     60  C   UNL     1       8.596  -1.150  16.024  1.00  0.00     0.031 C 
ATOM     61  C   UNL     1       6.142  -0.968  16.326  1.00  0.00     0.037 A 
BRANCH  48  62
ATOM     62  C   UNL     1       0.756  -1.477  13.331  1.00  0.00     0.058 A 
ATOM     63  C   UNL     1      -0.082  -2.602  13.271  1.00  0.00     0.135 A 
ATOM     64  C   UNL     1       0.150  -0.218  13.474  1.00  0.00     0.135 A 
ATOM     65  F   UNL     1       0.442  -3.829  13.119  1.00  0.00    -0.206 F 
ATOM     66  C   UNL     1      -1.467  -2.482  13.316  1.00  0.00     0.059 A 
ATOM     67  C   UNL     1      -1.233  -0.077  13.551  1.00  0.00     0.059 A 
ATOM     68  F   UNL     1       0.903   0.892  13.539  1.00  0.00    -0.206 F 
ATOM     69  C   UNL     1      -2.034  -1.214  13.455  1.00  0.00     0.060 A 
BRANCH  69  70
ATOM     70  S   UNL     1      -3.833  -1.076  13.511  1.00  0.00     0.124 S 
ATOM     71  O   UNL     1      -4.186  -1.323  12.117  1.00  0.00    -0.237 OA
ATOM     72  O   UNL     1      -4.198  -2.129  14.454  1.00  0.00    -0.237 OA
ATOM     73  O   UNL     1      -4.054   0.288  13.982  1.00  0.00    -0.744 OA
ENDBRANCH  69  70
ENDBRANCH  48  62
BRANCH  49  74
ATOM     74  C   UNL     1      10.683  -2.182  12.504  1.00  0.00     0.058 A 
ATOM     75  C   UNL     1      11.411  -3.182  13.167  1.00  0.00     0.135 A 
ATOM     76  C   UNL     1      11.398  -1.265  11.719  1.00  0.00     0.135 A 
ATOM     77  F   UNL     1      10.773  -4.078  13.935  1.00  0.00    -0.206 F 
ATOM     78  C   UNL     1      12.796  -3.261  13.071  1.00  0.00     0.059 A 
ATOM     79  C   UNL     1      12.781  -1.339  11.586  1.00  0.00     0.059 A 
ATOM     80  F   UNL     1      10.747  -0.300  11.051  1.00  0.00    -0.206 F 
ATOM     81  C   UNL     1      13.473  -2.334  12.275  1.00  0.00     0.060 A 
BRANCH  81  82
ATOM     82  S   UNL     1      15.267  -2.474  12.118  1.00  0.00     0.124 S 
ATOM     83  O   UNL     1      15.714  -1.987  13.418  1.00  0.00    -0.237 OA
ATOM     84  O   UNL     1      15.443  -3.903  11.876  1.00  0.00    -0.237 OA
ATOM     85  O   UNL     1      15.571  -1.611  10.980  1.00  0.00    -0.744 OA
ENDBRANCH  81  82
ENDBRANCH  49  74
BRANCH  61  86
ATOM     86  C   UNL     1       6.383  -0.626  17.770  1.00  0.00     0.058 A 
ATOM     87  C   UNL     1       6.915   0.614  18.157  1.00  0.00     0.135 A 
ATOM     88  C   UNL     1       6.039  -1.536  18.783  1.00  0.00     0.135 A 
ATOM     89  F   UNL     1       7.266   1.518  17.229  1.00  0.00    -0.206 F 
ATOM     90  C   UNL     1       7.121   0.929  19.497  1.00  0.00     0.059 A 
ATOM     91  C   UNL     1       6.211  -1.231  20.129  1.00  0.00     0.059 A 
ATOM     92  F   UNL     1       5.516  -2.732  18.468  1.00  0.00    -0.206 F 
ATOM     93  C   UNL     1       6.766  -0.001  20.476  1.00  0.00     0.060 A 
BRANCH  93  94
ATOM     94  S   UNL     1       7.016   0.430  22.211  1.00  0.00     0.124 S 
ATOM     95  O   UNL     1       8.462   0.293  22.343  1.00  0.00    -0.237 OA
ATOM     96  O   UNL     1       6.500   1.794  22.273  1.00  0.00    -0.237 OA
ATOM     97  O   UNL     1       6.223  -0.566  22.926  1.00  0.00    -0.744 OA
ENDBRANCH  93  94
ENDBRANCH  61  86
ENDBRANCH  35  36
ENDBRANCH  27  30
ENDBRANCH  25  26
ENDBRANCH   1  25
TORSDOF 17
