REMARK SMILES CC(C)(C)c1ccc(NC(=O)Nc2cccc(C(=O)NCCCNC(=O)c3ccc(-c4c5nc(c(-c6c(F)cc(S(=O)(=O)[O-])cc6F)c6ccc([nH]6)c(-c6c(F)cc(S(=O)(=O)[O-])cc6F)c6nc(c(-c7c(F)cc(S(=O)(=O)[O-])cc7F)c7ccc4[nH]7)C=C6)C=C5)cc3)c2)cc1
REMARK SMILES IDX 22 1 21 2 20 3 18 4 19 5 17 7 13 8 14 9 93 10 15 11 16 12
REMARK SMILES IDX 12 13 9 14 10 15 11 17 8 19 5 20 6 21 95 22 7 23 94 24 2 25
REMARK SMILES IDX 1 26 3 27 4 28 23 29 24 30 25 31 26 33 27 34 28 35 92 36
REMARK SMILES IDX 29 37 91 38 30 39 31 40 32 41 85 42 33 43 90 44 84 45 86 46
REMARK SMILES IDX 34 47 89 48 83 49 82 50 35 52 69 53 48 54 68 55 49 56 52 57
REMARK SMILES IDX 67 58 87 59 50 60 51 61 66 63 88 64 53 65 36 66 37 67 46 68
REMARK SMILES IDX 38 69 39 70 45 71 47 72 40 73 41 74 42 75 43 76 44 77 70 78
REMARK SMILES IDX 71 79 80 80 72 81 73 82 79 83 81 84 74 85 75 86 76 87 77 88
REMARK SMILES IDX 78 89 54 90 55 91 64 92 56 93 57 94 63 95 65 96 58 97 59 98
REMARK SMILES IDX 60 99 61 100 62 101
REMARK H PARENT 20 6 9 16 12 18 24 32 86 51 52 62
REMARK Flexibility Score: inf
ROOT
ATOM      1  C   UNL     1      -1.360  -3.069  -4.883  1.00  0.00     0.042 C 
ENDROOT
BRANCH   1   2
ATOM      2  C   UNL     1      -0.828  -2.609  -3.540  1.00  0.00     0.118 C 
BRANCH   2   3
ATOM      3  N   UNL     1      -1.883  -2.546  -2.555  1.00  0.00    -0.352 N 
ATOM      4  C   UNL     1      -2.258  -3.414  -1.562  1.00  0.00     0.251 C 
ATOM      5  O   UNL     1      -3.200  -3.074  -0.845  1.00  0.00    -0.269 OA
ATOM      6  H   UNL     1      -2.434  -1.731  -2.606  1.00  0.00     0.163 HD
BRANCH   4   7
ATOM      7  C   UNL     1      -1.534  -4.683  -1.255  1.00  0.00     0.041 A 
ATOM      8  C   UNL     1       0.034  -6.469  -1.735  1.00  0.00     0.043 A 
ATOM      9  C   UNL     1      -0.121  -6.974  -0.443  1.00  0.00     0.026 A 
ATOM     10  C   UNL     1      -0.758  -5.403  -2.166  1.00  0.00     0.040 A 
ATOM     11  C   UNL     1      -0.933  -6.299   0.467  1.00  0.00     0.003 A 
ATOM     12  C   UNL     1      -1.611  -5.145   0.069  1.00  0.00     0.014 A 
BRANCH   8  13
ATOM     13  N   UNL     1       1.063  -6.999  -2.532  1.00  0.00    -0.308 N 
ATOM     14  N   UNL     1       2.243  -5.094  -3.386  1.00  0.00    -0.308 N 
ATOM     15  C   UNL     1       1.865  -6.401  -3.452  1.00  0.00     0.323 C 
ATOM     16  H   UNL     1       2.563  -4.738  -4.246  1.00  0.00     0.171 HD
ATOM     17  O   UNL     1       2.307  -7.083  -4.382  1.00  0.00    -0.248 OA
ATOM     18  H   UNL     1       1.230  -7.961  -2.403  1.00  0.00     0.171 HD
BRANCH  14  19
ATOM     19  C   UNL     1       2.272  -4.142  -2.344  1.00  0.00     0.042 A 
ATOM     20  C   UNL     1       1.663  -2.127  -0.432  1.00  0.00    -0.042 A 
ATOM     21  C   UNL     1       1.795  -3.476  -0.068  1.00  0.00     0.006 A 
ATOM     22  C   UNL     1       2.037  -1.796  -1.745  1.00  0.00     0.006 A 
ATOM     23  C   UNL     1       2.142  -4.460  -1.002  1.00  0.00     0.026 A 
ATOM     24  C   UNL     1       2.363  -2.791  -2.686  1.00  0.00     0.026 A 
BRANCH  20  25
ATOM     25  C   UNL     1       1.056  -1.097   0.543  1.00  0.00    -0.013 C 
ATOM     26  C   UNL     1       1.500   0.351   0.247  1.00  0.00     0.016 C 
ATOM     27  C   UNL     1       1.422  -1.401   2.013  1.00  0.00     0.016 C 
ATOM     28  C   UNL     1      -0.483  -1.142   0.426  1.00  0.00     0.016 C 
ENDBRANCH  20  25
ENDBRANCH  14  19
ENDBRANCH   8  13
ENDBRANCH   4   7
ENDBRANCH   2   3
ENDBRANCH   1   2
BRANCH   1  29
ATOM     29  C   UNL     1      -1.976  -1.906  -5.635  1.00  0.00     0.118 C 
BRANCH  29  30
ATOM     30  N   UNL     1      -0.951  -1.048  -6.223  1.00  0.00    -0.352 N 
ATOM     31  C   UNL     1      -0.800  -0.681  -7.538  1.00  0.00     0.251 C 
ATOM     32  H   UNL     1      -0.282  -0.687  -5.597  1.00  0.00     0.163 HD
ATOM     33  O   UNL     1       0.235  -0.138  -7.914  1.00  0.00    -0.269 OA
BRANCH  31  34
ATOM     34  C   UNL     1      -1.890  -0.978  -8.488  1.00  0.00     0.039 A 
ATOM     35  C   UNL     1      -1.587  -1.544  -9.726  1.00  0.00     0.014 A 
ATOM     36  C   UNL     1      -3.219  -0.751  -8.117  1.00  0.00     0.014 A 
ATOM     37  C   UNL     1      -2.627  -1.948 -10.566  1.00  0.00     0.010 A 
ATOM     38  C   UNL     1      -4.245  -1.254  -8.902  1.00  0.00     0.010 A 
ATOM     39  C   UNL     1      -3.962  -1.844 -10.142  1.00  0.00    -0.014 A 
BRANCH  39  40
ATOM     40  C   UNL     1      -5.088  -2.322 -10.982  1.00  0.00     0.031 A 
ATOM     41  C   UNL     1      -6.144  -1.348 -11.432  1.00  0.00     0.074 A 
ATOM     42  C   UNL     1      -5.203  -3.634 -11.268  1.00  0.00     0.049 A 
ATOM     43  N   UNL     1      -7.255  -1.576 -12.082  1.00  0.00    -0.248 NA
ATOM     44  C   UNL     1      -5.941   0.067 -11.072  1.00  0.00     0.031 C 
ATOM     45  C   UNL     1      -4.272  -4.681 -10.838  1.00  0.00     0.029 A 
ATOM     46  N   UNL     1      -6.160  -4.316 -11.976  1.00  0.00    -0.354 N 
ATOM     47  C   UNL     1      -7.891  -0.344 -12.187  1.00  0.00     0.074 A 
ATOM     48  C   UNL     1      -7.074   0.617 -11.482  1.00  0.00     0.031 C 
ATOM     49  C   UNL     1      -4.691  -5.865 -11.311  1.00  0.00     0.029 A 
ATOM     50  C   UNL     1      -5.942  -5.672 -12.038  1.00  0.00     0.049 A 
ATOM     51  H   UNL     1      -6.931  -3.875 -12.401  1.00  0.00     0.167 HD
ATOM     52  C   UNL     1      -9.037  -0.037 -12.837  1.00  0.00     0.037 A 
ATOM     53  C   UNL     1      -6.674  -6.651 -12.605  1.00  0.00     0.037 A 
ATOM     54  C   UNL     1      -9.825  -0.997 -13.564  1.00  0.00     0.049 A 
ATOM     55  C   UNL     1      -7.943  -6.285 -13.327  1.00  0.00     0.074 A 
ATOM     56  C   UNL     1     -10.966  -0.780 -14.314  1.00  0.00     0.029 A 
ATOM     57  N   UNL     1      -9.553  -2.356 -13.630  1.00  0.00    -0.354 N 
ATOM     58  N   UNL     1      -8.494  -5.103 -13.478  1.00  0.00    -0.248 NA
ATOM     59  C   UNL     1      -8.689  -7.381 -13.960  1.00  0.00     0.031 C 
ATOM     60  C   UNL     1     -11.415  -2.015 -14.790  1.00  0.00     0.029 A 
ATOM     61  C   UNL     1     -10.520  -2.994 -14.389  1.00  0.00     0.049 A 
ATOM     62  H   UNL     1      -8.787  -2.801 -13.201  1.00  0.00     0.167 HD
ATOM     63  C   UNL     1      -9.633  -5.309 -14.249  1.00  0.00     0.074 A 
ATOM     64  C   UNL     1      -9.687  -6.727 -14.541  1.00  0.00     0.031 C 
ATOM     65  C   UNL     1     -10.550  -4.407 -14.678  1.00  0.00     0.037 A 
BRANCH  52  66
ATOM     66  C   UNL     1      -9.505   1.393 -12.795  1.00  0.00     0.058 A 
ATOM     67  C   UNL     1      -8.810   2.418 -13.457  1.00  0.00     0.135 A 
ATOM     68  C   UNL     1     -10.683   1.737 -12.114  1.00  0.00     0.135 A 
ATOM     69  F   UNL     1      -7.668   2.151 -14.110  1.00  0.00    -0.206 F 
ATOM     70  C   UNL     1      -9.250   3.737 -13.420  1.00  0.00     0.059 A 
ATOM     71  C   UNL     1     -11.159   3.045 -12.090  1.00  0.00     0.059 A 
ATOM     72  F   UNL     1     -11.386   0.798 -11.461  1.00  0.00    -0.206 F 
ATOM     73  C   UNL     1     -10.428   4.041 -12.735  1.00  0.00     0.060 A 
BRANCH  73  74
ATOM     74  S   UNL     1     -10.990   5.755 -12.709  1.00  0.00     0.124 S 
ATOM     75  O   UNL     1     -10.009   6.370 -11.819  1.00  0.00    -0.237 OA
ATOM     76  O   UNL     1     -10.894   6.136 -14.115  1.00  0.00    -0.237 OA
ATOM     77  O   UNL     1     -12.346   5.662 -12.178  1.00  0.00    -0.744 OA
ENDBRANCH  73  74
ENDBRANCH  52  66
BRANCH  53  78
ATOM     78  C   UNL     1      -6.213  -8.064 -12.530  1.00  0.00     0.058 A 
ATOM     79  C   UNL     1      -5.756  -8.737 -13.672  1.00  0.00     0.135 A 
ATOM     80  C   UNL     1      -6.205  -8.764 -11.313  1.00  0.00     0.135 A 
ATOM     81  F   UNL     1      -5.749  -8.114 -14.860  1.00  0.00    -0.206 F 
ATOM     82  C   UNL     1      -5.324 -10.059 -13.617  1.00  0.00     0.059 A 
ATOM     83  C   UNL     1      -5.751 -10.077 -11.227  1.00  0.00     0.059 A 
ATOM     84  F   UNL     1      -6.615  -8.161 -10.187  1.00  0.00    -0.206 F 
ATOM     85  C   UNL     1      -5.322 -10.719 -12.387  1.00  0.00     0.060 A 
BRANCH  85  86
ATOM     86  S   UNL     1      -4.715 -12.419 -12.319  1.00  0.00     0.124 S 
ATOM     87  O   UNL     1      -5.791 -13.142 -12.988  1.00  0.00    -0.237 OA
ATOM     88  O   UNL     1      -3.457 -12.324 -13.053  1.00  0.00    -0.237 OA
ATOM     89  O   UNL     1      -4.580 -12.671 -10.888  1.00  0.00    -0.744 OA
ENDBRANCH  85  86
ENDBRANCH  53  78
BRANCH  65  90
ATOM     90  C   UNL     1     -11.670  -4.911 -15.546  1.00  0.00     0.058 A 
ATOM     91  C   UNL     1     -12.717  -5.686 -15.026  1.00  0.00     0.135 A 
ATOM     92  C   UNL     1     -11.729  -4.551 -16.902  1.00  0.00     0.135 A 
ATOM     93  F   UNL     1     -12.706  -6.063 -13.738  1.00  0.00    -0.206 F 
ATOM     94  C   UNL     1     -13.777  -6.103 -15.826  1.00  0.00     0.059 A 
ATOM     95  C   UNL     1     -12.794  -4.931 -17.712  1.00  0.00     0.059 A 
ATOM     96  F   UNL     1     -10.758  -3.801 -17.446  1.00  0.00    -0.206 F 
ATOM     97  C   UNL     1     -13.809  -5.715 -17.167  1.00  0.00     0.060 A 
BRANCH  97  98
ATOM     98  S   UNL     1     -15.213  -6.224 -18.181  1.00  0.00     0.124 S 
ATOM     99  O   UNL     1     -14.949  -7.649 -18.355  1.00  0.00    -0.237 OA
ATOM    100  O   UNL     1     -16.349  -5.889 -17.329  1.00  0.00    -0.237 OA
ATOM    101  O   UNL     1     -15.077  -5.409 -19.384  1.00  0.00    -0.744 OA
ENDBRANCH  97  98
ENDBRANCH  65  90
ENDBRANCH  39  40
ENDBRANCH  31  34
ENDBRANCH  29  30
ENDBRANCH   1  29
TORSDOF 16
