REMARK SMILES O=C(NCCCNC(=O)C1(Cc2ccncc2)Cc2ccccc2C1)c1ccc(-c2c3nc(c(-c4c(F)cc(S(=O)(=O)[O-])cc4F)c4ccc([nH]4)c(-c4c(F)cc(S(=O)(=O)[O-])cc4F)c4nc(c(-c5c(F)cc(S(=O)(=O)[O-])cc5F)c5ccc2[nH]5)C=C4)C=C3)cc1
REMARK SMILES IDX 4 1 3 2 1 3 2 4 26 6 27 7 91 8 28 9 90 10 29 11 30 12 31 13
REMARK SMILES IDX 84 14 32 15 89 16 83 17 85 18 33 19 88 20 82 21 81 22 34 24
REMARK SMILES IDX 68 25 47 26 67 27 48 28 51 29 66 30 86 31 49 32 50 33 65 35
REMARK SMILES IDX 87 36 52 37 35 38 36 39 45 40 37 41 38 42 44 43 46 44 39 45
REMARK SMILES IDX 40 46 41 47 42 48 43 49 69 50 70 51 79 52 71 53 72 54 78 55
REMARK SMILES IDX 80 56 73 57 74 58 75 59 76 60 77 61 53 62 54 63 63 64 55 65
REMARK SMILES IDX 56 66 62 67 64 68 57 69 58 70 59 71 60 72 61 73 5 74 6 75
REMARK SMILES IDX 7 76 8 77 9 79 10 80 18 81 25 82 19 83 24 84 20 85 23 86
REMARK SMILES IDX 21 87 22 88 11 89 12 90 13 91 17 92 14 93 16 94 15 95
REMARK H PARENT 3 5 85 23 51 34 7 78
REMARK Flexibility Score: inf
ROOT
ATOM      1  C   UNL     1       4.136   0.984   1.116  1.00  0.00     0.118 C 
ENDROOT
BRANCH   1   2
ATOM      2  N   UNL     1       2.765   0.523   1.003  1.00  0.00    -0.352 N 
ATOM      3  O   UNL     1       0.956  -0.270  -0.056  1.00  0.00    -0.269 OA
ATOM      4  C   UNL     1       2.181  -0.225   0.010  1.00  0.00     0.251 C 
ATOM      5  H   UNL     1       2.169   0.783   1.742  1.00  0.00     0.163 HD
BRANCH   4   6
ATOM      6  C   UNL     1       3.007  -0.977  -0.966  1.00  0.00     0.039 A 
ATOM      7  C   UNL     1       4.146  -1.682  -0.564  1.00  0.00     0.014 A 
ATOM      8  C   UNL     1       2.567  -1.068  -2.291  1.00  0.00     0.014 A 
ATOM      9  C   UNL     1       4.874  -2.427  -1.493  1.00  0.00     0.010 A 
ATOM     10  C   UNL     1       3.261  -1.863  -3.208  1.00  0.00     0.010 A 
ATOM     11  C   UNL     1       4.415  -2.556  -2.813  1.00  0.00    -0.014 A 
BRANCH  11  12
ATOM     12  C   UNL     1       5.056  -3.538  -3.724  1.00  0.00     0.031 A 
ATOM     13  C   UNL     1       5.814  -3.100  -4.943  1.00  0.00     0.074 A 
ATOM     14  C   UNL     1       4.901  -4.851  -3.454  1.00  0.00     0.049 A 
ATOM     15  N   UNL     1       6.388  -3.837  -5.859  1.00  0.00    -0.248 NA
ATOM     16  C   UNL     1       5.940  -1.652  -5.172  1.00  0.00     0.031 C 
ATOM     17  C   UNL     1       4.149  -5.393  -2.317  1.00  0.00     0.029 A 
ATOM     18  N   UNL     1       5.350  -5.967  -4.113  1.00  0.00    -0.354 N 
ATOM     19  C   UNL     1       6.926  -2.950  -6.783  1.00  0.00     0.074 A 
ATOM     20  C   UNL     1       6.602  -1.616  -6.323  1.00  0.00     0.031 C 
ATOM     21  C   UNL     1       4.192  -6.733  -2.357  1.00  0.00     0.029 A 
ATOM     22  C   UNL     1       4.932  -7.147  -3.543  1.00  0.00     0.049 A 
ATOM     23  H   UNL     1       5.917  -5.928  -4.917  1.00  0.00     0.167 HD
ATOM     24  C   UNL     1       7.629  -3.231  -7.907  1.00  0.00     0.037 A 
ATOM     25  C   UNL     1       5.094  -8.422  -3.945  1.00  0.00     0.037 A 
ATOM     26  C   UNL     1       7.972  -4.563  -8.337  1.00  0.00     0.049 A 
ATOM     27  C   UNL     1       5.862  -8.698  -5.205  1.00  0.00     0.074 A 
ATOM     28  C   UNL     1       8.772  -4.941  -9.402  1.00  0.00     0.029 A 
ATOM     29  N   UNL     1       7.523  -5.731  -7.741  1.00  0.00    -0.354 N 
ATOM     30  N   UNL     1       6.442  -7.846  -6.016  1.00  0.00    -0.248 NA
ATOM     31  C   UNL     1       5.990 -10.103  -5.613  1.00  0.00     0.031 C 
ATOM     32  C   UNL     1       8.767  -6.338  -9.479  1.00  0.00     0.029 A 
ATOM     33  C   UNL     1       7.993  -6.830  -8.441  1.00  0.00     0.049 A 
ATOM     34  H   UNL     1       6.954  -5.774  -6.938  1.00  0.00     0.167 HD
ATOM     35  C   UNL     1       7.003  -8.611  -7.029  1.00  0.00     0.074 A 
ATOM     36  C   UNL     1       6.717  -9.996  -6.717  1.00  0.00     0.031 C 
ATOM     37  C   UNL     1       7.688  -8.202  -8.124  1.00  0.00     0.037 A 
BRANCH  24  38
ATOM     38  C   UNL     1       8.083  -2.087  -8.769  1.00  0.00     0.058 A 
ATOM     39  C   UNL     1       9.182  -1.290  -8.417  1.00  0.00     0.135 A 
ATOM     40  C   UNL     1       7.476  -1.856 -10.015  1.00  0.00     0.135 A 
ATOM     41  F   UNL     1       9.791  -1.463  -7.234  1.00  0.00    -0.206 F 
ATOM     42  C   UNL     1       9.665  -0.302  -9.271  1.00  0.00     0.059 A 
ATOM     43  C   UNL     1       7.953  -0.886 -10.891  1.00  0.00     0.059 A 
ATOM     44  F   UNL     1       6.420  -2.591 -10.398  1.00  0.00    -0.206 F 
ATOM     45  C   UNL     1       9.047  -0.111 -10.508  1.00  0.00     0.060 A 
BRANCH  45  46
ATOM     46  S   UNL     1       9.714   1.144 -11.623  1.00  0.00     0.124 S 
ATOM     47  O   UNL     1       9.273   2.374 -10.973  1.00  0.00    -0.237 OA
ATOM     48  O   UNL     1      11.149   0.879 -11.569  1.00  0.00    -0.237 OA
ATOM     49  O   UNL     1       9.072   0.843 -12.898  1.00  0.00    -0.744 OA
ENDBRANCH  45  46
ENDBRANCH  24  38
BRANCH  25  50
ATOM     50  C   UNL     1       4.476  -9.528  -3.170  1.00  0.00     0.058 A 
ATOM     51  C   UNL     1       5.261 -10.426  -2.433  1.00  0.00     0.135 A 
ATOM     52  C   UNL     1       3.084  -9.706  -3.151  1.00  0.00     0.135 A 
ATOM     53  F   UNL     1       6.597 -10.299  -2.425  1.00  0.00    -0.206 F 
ATOM     54  C   UNL     1       4.690 -11.475  -1.720  1.00  0.00     0.059 A 
ATOM     55  C   UNL     1       2.487 -10.731  -2.425  1.00  0.00     0.059 A 
ATOM     56  F   UNL     1       2.288  -8.861  -3.826  1.00  0.00    -0.206 F 
ATOM     57  C   UNL     1       3.301 -11.620  -1.725  1.00  0.00     0.060 A 
BRANCH  57  58
ATOM     58  S   UNL     1       2.560 -12.965  -0.773  1.00  0.00     0.124 S 
ATOM     59  O   UNL     1       2.786 -14.104  -1.655  1.00  0.00    -0.237 OA
ATOM     60  O   UNL     1       3.345 -12.944   0.457  1.00  0.00    -0.237 OA
ATOM     61  O   UNL     1       1.171 -12.542  -0.627  1.00  0.00    -0.744 OA
ENDBRANCH  57  58
ENDBRANCH  25  50
BRANCH  37  62
ATOM     62  C   UNL     1       8.167  -9.264  -9.071  1.00  0.00     0.058 A 
ATOM     63  C   UNL     1       7.281  -9.904  -9.951  1.00  0.00     0.135 A 
ATOM     64  C   UNL     1       9.526  -9.608  -9.137  1.00  0.00     0.135 A 
ATOM     65  F   UNL     1       5.970  -9.618  -9.916  1.00  0.00    -0.206 F 
ATOM     66  C   UNL     1       7.725 -10.858 -10.860  1.00  0.00     0.059 A 
ATOM     67  C   UNL     1       9.996 -10.543 -10.053  1.00  0.00     0.059 A 
ATOM     68  F   UNL     1      10.413  -9.020  -8.319  1.00  0.00    -0.206 F 
ATOM     69  C   UNL     1       9.086 -11.168 -10.905  1.00  0.00     0.060 A 
BRANCH  69  70
ATOM     70  S   UNL     1       9.659 -12.373 -12.123  1.00  0.00     0.124 S 
ATOM     71  O   UNL     1       9.230 -13.629 -11.517  1.00  0.00    -0.237 OA
ATOM     72  O   UNL     1       8.937 -11.970 -13.326  1.00  0.00    -0.237 OA
ATOM     73  O   UNL     1      11.101 -12.154 -12.162  1.00  0.00    -0.744 OA
ENDBRANCH  69  70
ENDBRANCH  37  62
ENDBRANCH  11  12
ENDBRANCH   4   6
ENDBRANCH   1   2
BRANCH   1  74
ATOM     74  C   UNL     1       4.228   2.499   0.999  1.00  0.00     0.042 C 
BRANCH  74  75
ATOM     75  C   UNL     1       3.746   3.259   2.235  1.00  0.00     0.117 C 
BRANCH  75  76
ATOM     76  N   UNL     1       4.506   2.943   3.433  1.00  0.00    -0.356 N 
ATOM     77  C   UNL     1       5.565   3.534   4.049  1.00  0.00     0.227 C 
ATOM     78  H   UNL     1       4.187   2.134   3.896  1.00  0.00     0.163 HD
ATOM     79  O   UNL     1       5.989   2.950   5.051  1.00  0.00    -0.274 OA
BRANCH  77  80
ATOM     80  C   UNL     1       6.201   4.838   3.554  1.00  0.00     0.061 C 
ATOM     81  C   UNL     1       5.145   5.978   3.718  1.00  0.00     0.053 C 
ATOM     82  C   UNL     1       7.368   5.280   4.502  1.00  0.00     0.053 C 
ATOM     83  C   UNL     1       5.988   7.169   4.049  1.00  0.00    -0.044 A 
ATOM     84  C   UNL     1       7.261   6.776   4.465  1.00  0.00    -0.044 A 
ATOM     85  C   UNL     1       5.636   8.506   3.979  1.00  0.00     0.004 A 
ATOM     86  C   UNL     1       8.222   7.713   4.799  1.00  0.00     0.004 A 
ATOM     87  C   UNL     1       6.600   9.460   4.306  1.00  0.00     0.000 A 
ATOM     88  C   UNL     1       7.886   9.066   4.707  1.00  0.00     0.000 A 
BRANCH  80  89
ATOM     89  C   UNL     1       6.727   4.788   2.091  1.00  0.00     0.053 C 
BRANCH  89  90
ATOM     90  C   UNL     1       7.816   3.802   1.709  1.00  0.00    -0.044 A 
ATOM     91  C   UNL     1       7.862   2.474   2.143  1.00  0.00     0.024 A 
ATOM     92  C   UNL     1       8.794   4.207   0.790  1.00  0.00     0.024 A 
ATOM     93  C   UNL     1       8.867   1.639   1.673  1.00  0.00     0.111 A 
ATOM     94  C   UNL     1       9.759   3.301   0.376  1.00  0.00     0.111 A 
ATOM     95  N   UNL     1       9.820   2.025   0.803  1.00  0.00    -0.265 NA
ENDBRANCH  89  90
ENDBRANCH  80  89
ENDBRANCH  77  80
ENDBRANCH  75  76
ENDBRANCH  74  75
ENDBRANCH   1  74
TORSDOF 15
