REMARK SMILES Cc1cc(C(=O)NCCCNC(=O)c2ccc(-c3c4nc(c(-c5c(F)cc(S(=O)(=O)[O-])cc5F)c5ccc([nH]5)c(-c5c(F)cc(S(=O)(=O)[O-])cc5F)c5nc(c(-c6c(F)cc(S(=O)(=O)[O-])cc6F)c6ccc3[nH]6)C=C5)C=C4)cc2)c(C)n1[C@@H]1C[N@H+]2CC[C@@H]1CC2
REMARK SMILES IDX 10 1 9 2 8 3 7 4 5 5 6 6 4 8 1 9 2 10 3 11 82 12 80 13 81 14
REMARK SMILES IDX 83 15 84 16 88 17 85 18 89 19 87 20 90 21 86 22 11 24 12 25
REMARK SMILES IDX 13 27 14 28 15 29 79 30 16 31 78 32 17 33 18 34 19 35 72 36
REMARK SMILES IDX 20 37 77 38 71 39 73 40 21 41 76 42 70 43 69 44 22 46 56 47
REMARK SMILES IDX 35 48 55 49 36 50 39 51 54 52 74 53 37 54 38 55 53 57 75 58
REMARK SMILES IDX 40 59 23 60 24 61 33 62 25 63 26 64 32 65 34 66 27 67 28 68
REMARK SMILES IDX 29 69 30 70 31 71 57 72 58 73 67 74 59 75 60 76 66 77 68 78
REMARK SMILES IDX 61 79 62 80 63 81 64 82 65 83 41 84 42 85 51 86 43 87 44 88
REMARK SMILES IDX 50 89 52 90 45 91 46 92 47 93 48 94 49 95
REMARK H PARENT 7 7 85 23 11 26 73 45 39 56
REMARK Flexibility Score: inf
ROOT
ATOM      1  C   UNL     1       2.303  -6.507   3.232  1.00  0.00     0.118 C 
ENDROOT
BRANCH   1   2
ATOM      2  C   UNL     1       2.776  -5.219   2.517  1.00  0.00     0.042 C 
BRANCH   2   3
ATOM      3  C   UNL     1       2.987  -5.346   1.000  1.00  0.00     0.118 C 
BRANCH   3   4
ATOM      4  N   UNL     1       1.798  -5.803   0.301  1.00  0.00    -0.352 N 
ATOM      5  C   UNL     1       0.689  -5.207  -0.247  1.00  0.00     0.253 C 
ATOM      6  O   UNL     1      -0.141  -5.989  -0.717  1.00  0.00    -0.269 OA
ATOM      7  H   UNL     1       1.784  -6.781   0.194  1.00  0.00     0.163 HD
BRANCH   5   8
ATOM      8  C   UNL     1       0.503  -3.746  -0.329  1.00  0.00     0.060 A 
ATOM      9  C   UNL     1       1.668  -0.250  -0.359  1.00  0.00     0.064 C 
ATOM     10  C   UNL     1       0.863  -1.500  -0.377  1.00  0.00     0.016 A 
ATOM     11  C   UNL     1       1.288  -2.692   0.177  1.00  0.00     0.037 A 
ATOM     12  N   UNL     1      -0.383  -1.724  -0.945  1.00  0.00    -0.339 N 
ATOM     13  C   UNL     1      -0.555  -3.115  -1.010  1.00  0.00     0.028 A 
ATOM     14  C   UNL     1      -1.681  -3.816  -1.719  1.00  0.00     0.065 C 
BRANCH  12  15
ATOM     15  C   UNL     1      -1.379  -0.735  -1.383  1.00  0.00     0.145 C 
ATOM     16  C   UNL     1      -0.936   0.335  -2.413  1.00  0.00     0.288 C 
ATOM     17  C   UNL     1      -2.178  -0.027  -0.249  1.00  0.00     0.029 C 
ATOM     18  N   UNL     1      -1.365   1.710  -2.024  1.00  0.00    -0.333 N 
ATOM     19  C   UNL     1      -3.369   0.708  -0.914  1.00  0.00     0.067 C 
ATOM     20  C   UNL     1      -1.340   1.081   0.400  1.00  0.00     0.067 C 
ATOM     21  C   UNL     1      -2.842   1.740  -1.929  1.00  0.00     0.262 C 
ATOM     22  C   UNL     1      -0.818   2.037  -0.688  1.00  0.00     0.262 C 
ATOM     23  H   UNL     1      -1.031   2.378  -2.719  1.00  0.00     0.348 HD
ENDBRANCH  12  15
ENDBRANCH   5   8
ENDBRANCH   3   4
ENDBRANCH   2   3
ENDBRANCH   1   2
BRANCH   1  24
ATOM     24  N   UNL     1       3.365  -7.283   3.838  1.00  0.00    -0.352 N 
ATOM     25  C   UNL     1       3.293  -8.192   4.882  1.00  0.00     0.251 C 
ATOM     26  H   UNL     1       4.262  -7.145   3.456  1.00  0.00     0.163 HD
ATOM     27  O   UNL     1       4.356  -8.673   5.275  1.00  0.00    -0.269 OA
BRANCH  25  28
ATOM     28  C   UNL     1       2.009  -8.502   5.619  1.00  0.00     0.039 A 
ATOM     29  C   UNL     1       1.821  -7.910   6.859  1.00  0.00     0.014 A 
ATOM     30  C   UNL     1       1.100  -9.522   5.281  1.00  0.00     0.014 A 
ATOM     31  C   UNL     1       0.724  -8.282   7.697  1.00  0.00     0.010 A 
ATOM     32  C   UNL     1       0.030  -9.960   6.184  1.00  0.00     0.010 A 
ATOM     33  C   UNL     1      -0.201  -9.361   7.441  1.00  0.00    -0.014 A 
BRANCH  33  34
ATOM     34  C   UNL     1      -0.871 -10.046   8.761  1.00  0.00     0.031 A 
ATOM     35  C   UNL     1       0.327 -10.208   9.644  1.00  0.00     0.074 A 
ATOM     36  C   UNL     1      -2.063 -10.562   9.290  1.00  0.00     0.049 A 
ATOM     37  N   UNL     1       1.373 -10.863   9.216  1.00  0.00    -0.248 NA
ATOM     38  C   UNL     1       0.592  -9.312  10.774  1.00  0.00     0.031 C 
ATOM     39  C   UNL     1      -3.360 -10.737   8.611  1.00  0.00     0.029 A 
ATOM     40  N   UNL     1      -2.422 -11.068  10.592  1.00  0.00    -0.354 N 
ATOM     41  C   UNL     1       2.335 -10.722  10.182  1.00  0.00     0.074 A 
ATOM     42  C   UNL     1       1.893  -9.567  10.956  1.00  0.00     0.031 C 
ATOM     43  C   UNL     1      -4.346 -11.144   9.470  1.00  0.00     0.029 A 
ATOM     44  C   UNL     1      -3.832 -11.357  10.826  1.00  0.00     0.049 A 
ATOM     45  H   UNL     1      -1.744 -11.212  11.292  1.00  0.00     0.167 HD
ATOM     46  C   UNL     1       2.864 -11.884  10.661  1.00  0.00     0.037 A 
ATOM     47  C   UNL     1      -4.519 -11.807  11.967  1.00  0.00     0.037 A 
ATOM     48  C   UNL     1       2.262 -12.272  11.910  1.00  0.00     0.049 A 
ATOM     49  C   UNL     1      -3.507 -12.479  12.792  1.00  0.00     0.074 A 
ATOM     50  C   UNL     1       1.926 -11.572  13.052  1.00  0.00     0.029 A 
ATOM     51  N   UNL     1       1.478 -13.407  11.894  1.00  0.00    -0.354 N 
ATOM     52  N   UNL     1      -3.066 -13.665  12.510  1.00  0.00    -0.248 NA
ATOM     53  C   UNL     1      -3.001 -11.890  14.027  1.00  0.00     0.031 C 
ATOM     54  C   UNL     1       0.612 -11.997  13.343  1.00  0.00     0.029 A 
ATOM     55  C   UNL     1       0.361 -13.186  12.669  1.00  0.00     0.049 A 
ATOM     56  H   UNL     1       1.682 -14.239  11.408  1.00  0.00     0.167 HD
ATOM     57  C   UNL     1      -1.897 -13.721  13.197  1.00  0.00     0.074 A 
ATOM     58  C   UNL     1      -2.044 -12.781  14.294  1.00  0.00     0.031 C 
ATOM     59  C   UNL     1      -0.791 -14.030  12.477  1.00  0.00     0.037 A 
BRANCH  46  60
ATOM     60  C   UNL     1       3.293 -12.878   9.619  1.00  0.00     0.058 A 
ATOM     61  C   UNL     1       4.653 -13.181   9.502  1.00  0.00     0.135 A 
ATOM     62  C   UNL     1       2.407 -13.511   8.720  1.00  0.00     0.135 A 
ATOM     63  F   UNL     1       5.539 -12.648  10.360  1.00  0.00    -0.206 F 
ATOM     64  C   UNL     1       5.121 -14.043   8.515  1.00  0.00     0.059 A 
ATOM     65  C   UNL     1       2.857 -14.335   7.695  1.00  0.00     0.059 A 
ATOM     66  F   UNL     1       1.078 -13.373   8.857  1.00  0.00    -0.206 F 
ATOM     67  C   UNL     1       4.220 -14.600   7.605  1.00  0.00     0.060 A 
BRANCH  67  68
ATOM     68  S   UNL     1       4.854 -15.671   6.298  1.00  0.00     0.124 S 
ATOM     69  O   UNL     1       6.012 -14.910   5.813  1.00  0.00    -0.237 OA
ATOM     70  O   UNL     1       5.193 -16.881   7.056  1.00  0.00    -0.237 OA
ATOM     71  O   UNL     1       3.757 -15.779   5.367  1.00  0.00    -0.744 OA
ENDBRANCH  67  68
ENDBRANCH  46  60
BRANCH  47  72
ATOM     72  C   UNL     1      -5.927 -12.033  12.652  1.00  0.00     0.058 A 
ATOM     73  C   UNL     1      -6.117 -13.055  13.656  1.00  0.00     0.135 A 
ATOM     74  C   UNL     1      -6.948 -11.069  12.677  1.00  0.00     0.135 A 
ATOM     75  F   UNL     1      -5.271 -14.090  13.765  1.00  0.00    -0.206 F 
ATOM     76  C   UNL     1      -7.118 -13.045  14.652  1.00  0.00     0.059 A 
ATOM     77  C   UNL     1      -7.990 -11.056  13.658  1.00  0.00     0.059 A 
ATOM     78  F   UNL     1      -6.920 -10.050  11.807  1.00  0.00    -0.206 F 
ATOM     79  C   UNL     1      -8.040 -12.017  14.672  1.00  0.00     0.060 A 
BRANCH  79  80
ATOM     80  S   UNL     1      -9.181 -11.891  16.094  1.00  0.00     0.124 S 
ATOM     81  O   UNL     1     -10.024 -13.072  15.938  1.00  0.00    -0.237 OA
ATOM     82  O   UNL     1      -8.267 -11.918  17.234  1.00  0.00    -0.237 OA
ATOM     83  O   UNL     1      -9.851 -10.612  15.878  1.00  0.00    -0.744 OA
ENDBRANCH  79  80
ENDBRANCH  47  72
BRANCH  59  84
ATOM     84  C   UNL     1      -0.934 -15.107  11.413  1.00  0.00     0.058 A 
ATOM     85  C   UNL     1      -1.890 -15.144  10.370  1.00  0.00     0.135 A 
ATOM     86  C   UNL     1      -0.083 -16.220  11.503  1.00  0.00     0.135 A 
ATOM     87  F   UNL     1      -2.689 -14.101  10.104  1.00  0.00    -0.206 F 
ATOM     88  C   UNL     1      -2.050 -16.259   9.543  1.00  0.00     0.059 A 
ATOM     89  C   UNL     1      -0.188 -17.320  10.652  1.00  0.00     0.059 A 
ATOM     90  F   UNL     1       0.879 -16.245  12.440  1.00  0.00    -0.206 F 
ATOM     91  C   UNL     1      -1.203 -17.350   9.701  1.00  0.00     0.060 A 
BRANCH  91  92
ATOM     92  S   UNL     1      -1.436 -18.799   8.648  1.00  0.00     0.124 S 
ATOM     93  O   UNL     1      -2.642 -19.395   9.218  1.00  0.00    -0.237 OA
ATOM     94  O   UNL     1      -1.595 -18.212   7.322  1.00  0.00    -0.237 OA
ATOM     95  O   UNL     1      -0.212 -19.568   8.856  1.00  0.00    -0.744 OA
ENDBRANCH  91  92
ENDBRANCH  59  84
ENDBRANCH  33  34
ENDBRANCH  25  28
ENDBRANCH   1  24
TORSDOF 14
