REMARK SMILES CC1(CNS(=O)(=O)Cc2ccc(C(=O)NCCCNC(=O)c3ccc(-c4c5nc(c(-c6c(F)cc(S(=O)(=O)[O-])cc6F)c6ccc([nH]6)c(-c6c(F)cc(S(=O)(=O)[O-])cc6F)c6nc(c(-c7c(F)cc(S(=O)(=O)[O-])cc7F)c7ccc4[nH]7)C=C6)C=C5)cc3)cc2)COC1
REMARK SMILES IDX 16 1 15 2 13 3 14 4 12 6 9 7 10 8 89 9 11 10 88 11 8 12 5 13
REMARK SMILES IDX 6 14 7 15 4 16 3 18 2 19 1 20 90 21 92 22 91 23 17 24 18 25
REMARK SMILES IDX 19 26 20 27 21 29 22 30 23 31 87 32 24 33 86 34 25 35 26 36
REMARK SMILES IDX 27 37 80 38 28 39 85 40 79 41 81 42 29 43 84 44 78 45 77 46
REMARK SMILES IDX 30 48 64 49 43 50 63 51 44 52 47 53 62 54 82 55 45 56 46 57
REMARK SMILES IDX 61 59 83 60 48 61 31 62 32 63 41 64 33 65 34 66 40 67 42 68
REMARK SMILES IDX 35 69 36 70 37 71 38 72 39 73 65 74 66 75 75 76 67 77 68 78
REMARK SMILES IDX 74 79 76 80 69 81 70 82 71 83 72 84 73 85 49 86 50 87 59 88
REMARK SMILES IDX 51 89 52 90 58 91 60 92 53 93 54 94 55 95 56 96 57 97
REMARK H PARENT 15 5 4 17 19 28 81 47 47 58
REMARK Flexibility Score: inf
ROOT
ATOM      1  C   UNL     1       0.906   7.474  -2.715  1.00  0.00     0.118 C 
ENDROOT
BRANCH   1   2
ATOM      2  N   UNL     1       1.580   6.912  -1.558  1.00  0.00    -0.352 N 
ATOM      3  C   UNL     1       1.673   5.621  -1.109  1.00  0.00     0.251 C 
ATOM      4  O   UNL     1       2.397   5.386  -0.142  1.00  0.00    -0.269 OA
ATOM      5  H   UNL     1       2.050   7.573  -1.000  1.00  0.00     0.163 HD
BRANCH   3   6
ATOM      6  C   UNL     1       0.982   4.493  -1.785  1.00  0.00     0.039 A 
ATOM      7  C   UNL     1      -0.218   2.254  -3.003  1.00  0.00    -0.032 A 
ATOM      8  C   UNL     1       1.049   2.149  -2.416  1.00  0.00     0.005 A 
ATOM      9  C   UNL     1      -0.876   3.489  -2.973  1.00  0.00     0.005 A 
ATOM     10  C   UNL     1       1.640   3.258  -1.806  1.00  0.00     0.014 A 
ATOM     11  C   UNL     1      -0.293   4.589  -2.344  1.00  0.00     0.014 A 
BRANCH   7  12
ATOM     12  C   UNL     1      -0.882   1.060  -3.632  1.00  0.00     0.189 C 
BRANCH  12  13
ATOM     13  S   UNL     1      -2.113   0.347  -2.522  1.00  0.00     0.215 S 
ATOM     14  O   UNL     1      -2.581  -0.896  -3.105  1.00  0.00    -0.212 OA
ATOM     15  O   UNL     1      -3.052   1.361  -2.106  1.00  0.00    -0.212 OA
BRANCH  13  16
ATOM     16  N   UNL     1      -1.232  -0.066  -1.142  1.00  0.00    -0.214 NA
ATOM     17  H   UNL     1      -0.617   0.719  -0.926  1.00  0.00     0.141 HD
BRANCH  16  18
ATOM     18  C   UNL     1      -0.398  -1.276  -1.212  1.00  0.00     0.110 C 
BRANCH  18  19
ATOM     19  C   UNL     1       0.482  -1.471   0.027  1.00  0.00     0.028 C 
ATOM     20  C   UNL     1       1.338  -0.272   0.418  1.00  0.00     0.018 C 
ATOM     21  C   UNL     1       1.283  -2.787  -0.089  1.00  0.00     0.170 C 
ATOM     22  C   UNL     1      -0.210  -2.209   1.194  1.00  0.00     0.170 C 
ATOM     23  O   UNL     1       0.316  -3.482   0.736  1.00  0.00    -0.380 OA
ENDBRANCH  18  19
ENDBRANCH  16  18
ENDBRANCH  13  16
ENDBRANCH  12  13
ENDBRANCH   7  12
ENDBRANCH   3   6
ENDBRANCH   1   2
BRANCH   1  24
ATOM     24  C   UNL     1      -0.364   8.217  -2.308  1.00  0.00     0.042 C 
BRANCH  24  25
ATOM     25  C   UNL     1      -0.086   9.558  -1.634  1.00  0.00     0.118 C 
BRANCH  25  26
ATOM     26  N   UNL     1       0.529  10.505  -2.553  1.00  0.00    -0.352 N 
ATOM     27  C   UNL     1       0.086  11.726  -2.990  1.00  0.00     0.251 C 
ATOM     28  H   UNL     1       1.400  10.224  -2.917  1.00  0.00     0.163 HD
ATOM     29  O   UNL     1       0.624  12.241  -3.967  1.00  0.00    -0.269 OA
BRANCH  27  30
ATOM     30  C   UNL     1      -1.023  12.419  -2.301  1.00  0.00     0.039 A 
ATOM     31  C   UNL     1      -1.941  13.142  -3.067  1.00  0.00     0.014 A 
ATOM     32  C   UNL     1      -1.134  12.407  -0.907  1.00  0.00     0.014 A 
ATOM     33  C   UNL     1      -2.991  13.814  -2.440  1.00  0.00     0.010 A 
ATOM     34  C   UNL     1      -2.228  13.008  -0.290  1.00  0.00     0.010 A 
ATOM     35  C   UNL     1      -3.161  13.727  -1.048  1.00  0.00    -0.014 A 
BRANCH  35  36
ATOM     36  C   UNL     1      -4.320  14.375  -0.383  1.00  0.00     0.031 A 
ATOM     37  C   UNL     1      -4.112  15.475   0.622  1.00  0.00     0.074 A 
ATOM     38  C   UNL     1      -5.563  13.928  -0.650  1.00  0.00     0.049 A 
ATOM     39  N   UNL     1      -5.002  16.143   1.310  1.00  0.00    -0.248 NA
ATOM     40  C   UNL     1      -2.721  15.858   0.913  1.00  0.00     0.031 C 
ATOM     41  C   UNL     1      -5.883  12.821  -1.555  1.00  0.00     0.029 A 
ATOM     42  N   UNL     1      -6.785  14.339  -0.184  1.00  0.00    -0.354 N 
ATOM     43  C   UNL     1      -4.282  17.010   2.124  1.00  0.00     0.074 A 
ATOM     44  C   UNL     1      -2.881  16.747   1.882  1.00  0.00     0.031 C 
ATOM     45  C   UNL     1      -7.214  12.658  -1.596  1.00  0.00     0.029 A 
ATOM     46  C   UNL     1      -7.840  13.618  -0.693  1.00  0.00     0.049 A 
ATOM     47  H   UNL     1      -6.898  15.080   0.455  1.00  0.00     0.167 HD
ATOM     48  C   UNL     1      -4.749  17.951   2.980  1.00  0.00     0.037 A 
ATOM     49  C   UNL     1      -9.162  13.712  -0.454  1.00  0.00     0.037 A 
ATOM     50  C   UNL     1      -6.149  18.213   3.199  1.00  0.00     0.049 A 
ATOM     51  C   UNL     1      -9.659  14.776   0.484  1.00  0.00     0.074 A 
ATOM     52  C   UNL     1      -6.729  19.196   3.982  1.00  0.00     0.029 A 
ATOM     53  N   UNL     1      -7.191  17.478   2.647  1.00  0.00    -0.354 N 
ATOM     54  N   UNL     1      -8.969  15.652   1.175  1.00  0.00    -0.248 NA
ATOM     55  C   UNL     1     -11.112  14.873   0.667  1.00  0.00     0.031 C 
ATOM     56  C   UNL     1      -8.116  19.017   3.953  1.00  0.00     0.029 A 
ATOM     57  C   UNL     1      -8.407  17.964   3.101  1.00  0.00     0.049 A 
ATOM     58  H   UNL     1      -7.081  16.723   2.026  1.00  0.00     0.167 HD
ATOM     59  C   UNL     1      -9.904  16.416   1.863  1.00  0.00     0.074 A 
ATOM     60  C   UNL     1     -11.209  15.911   1.486  1.00  0.00     0.031 C 
ATOM     61  C   UNL     1      -9.700  17.442   2.728  1.00  0.00     0.037 A 
BRANCH  48  62
ATOM     62  C   UNL     1      -3.738  18.757   3.754  1.00  0.00     0.058 A 
ATOM     63  C   UNL     1      -2.885  19.681   3.127  1.00  0.00     0.135 A 
ATOM     64  C   UNL     1      -3.636  18.620   5.148  1.00  0.00     0.135 A 
ATOM     65  F   UNL     1      -2.929  19.848   1.796  1.00  0.00    -0.206 F 
ATOM     66  C   UNL     1      -1.942  20.409   3.847  1.00  0.00     0.059 A 
ATOM     67  C   UNL     1      -2.723  19.362   5.893  1.00  0.00     0.059 A 
ATOM     68  F   UNL     1      -4.426  17.755   5.802  1.00  0.00    -0.206 F 
ATOM     69  C   UNL     1      -1.867  20.240   5.231  1.00  0.00     0.060 A 
BRANCH  69  70
ATOM     70  S   UNL     1      -0.631  21.183   6.148  1.00  0.00     0.124 S 
ATOM     71  O   UNL     1       0.603  20.518   5.741  1.00  0.00    -0.237 OA
ATOM     72  O   UNL     1      -0.823  22.534   5.631  1.00  0.00    -0.237 OA
ATOM     73  O   UNL     1      -1.018  20.987   7.542  1.00  0.00    -0.744 OA
ENDBRANCH  69  70
ENDBRANCH  48  62
BRANCH  49  74
ATOM     74  C   UNL     1     -10.097  12.777  -1.135  1.00  0.00     0.058 A 
ATOM     75  C   UNL     1     -10.956  13.219  -2.151  1.00  0.00     0.135 A 
ATOM     76  C   UNL     1     -10.112  11.409  -0.816  1.00  0.00     0.135 A 
ATOM     77  F   UNL     1     -10.983  14.518  -2.488  1.00  0.00    -0.206 F 
ATOM     78  C   UNL     1     -11.799  12.342  -2.825  1.00  0.00     0.059 A 
ATOM     79  C   UNL     1     -10.925  10.508  -1.494  1.00  0.00     0.059 A 
ATOM     80  F   UNL     1      -9.295  10.932   0.137  1.00  0.00    -0.206 F 
ATOM     81  C   UNL     1     -11.770  10.986  -2.495  1.00  0.00     0.060 A 
BRANCH  81  82
ATOM     82  S   UNL     1     -12.810   9.845  -3.432  1.00  0.00     0.124 S 
ATOM     83  O   UNL     1     -14.140  10.189  -2.942  1.00  0.00    -0.237 OA
ATOM     84  O   UNL     1     -12.518  10.227  -4.810  1.00  0.00    -0.237 OA
ATOM     85  O   UNL     1     -12.311   8.532  -3.035  1.00  0.00    -0.744 OA
ENDBRANCH  81  82
ENDBRANCH  49  74
BRANCH  61  86
ATOM     86  C   UNL     1     -10.920  18.099   3.316  1.00  0.00     0.058 A 
ATOM     87  C   UNL     1     -11.731  17.446   4.258  1.00  0.00     0.135 A 
ATOM     88  C   UNL     1     -11.263  19.414   2.958  1.00  0.00     0.135 A 
ATOM     89  F   UNL     1     -11.453  16.187   4.632  1.00  0.00    -0.206 F 
ATOM     90  C   UNL     1     -12.856  18.061   4.800  1.00  0.00     0.059 A 
ATOM     91  C   UNL     1     -12.364  20.059   3.511  1.00  0.00     0.059 A 
ATOM     92  F   UNL     1     -10.516  20.090   2.070  1.00  0.00    -0.206 F 
ATOM     93  C   UNL     1     -13.164  19.368   4.420  1.00  0.00     0.060 A 
BRANCH  93  94
ATOM     94  S   UNL     1     -14.616  20.159   5.143  1.00  0.00     0.124 S 
ATOM     95  O   UNL     1     -15.701  19.458   4.464  1.00  0.00    -0.237 OA
ATOM     96  O   UNL     1     -14.460  19.862   6.563  1.00  0.00    -0.237 OA
ATOM     97  O   UNL     1     -14.454  21.564   4.781  1.00  0.00    -0.744 OA
ENDBRANCH  93  94
ENDBRANCH  61  86
ENDBRANCH  35  36
ENDBRANCH  27  30
ENDBRANCH  25  26
ENDBRANCH  24  25
ENDBRANCH   1  24
TORSDOF 18
