REMARK SMILES Cc1cccc(N2CCN(C(=O)[C@@H]3CC=CC[C@@H]3C(=O)NCCCNC(=O)c3ccc(-c4c5nc(c(-c6c(F)cc(S(=O)(=O)[O-])cc6F)c6ccc([nH]6)c(-c6c(F)cc(S(=O)(=O)[O-])cc6F)c6nc(c(-c7c(F)cc(S(=O)(=O)[O-])cc7F)c7ccc4[nH]7)C=C6)C=C5)cc3)CC2)c1C
REMARK SMILES IDX 23 1 22 2 21 3 19 4 20 5 18 7 13 8 14 9 15 10 17 11 16 12
REMARK SMILES IDX 11 13 7 14 8 15 95 16 9 17 94 18 10 19 12 20 6 21 1 22 2 23
REMARK SMILES IDX 3 24 96 25 4 26 97 27 5 28 24 29 25 30 26 31 27 33 28 34
REMARK SMILES IDX 29 35 93 36 30 37 92 38 31 39 32 40 33 41 86 42 34 43 91 44
REMARK SMILES IDX 85 45 87 46 35 47 90 48 84 49 83 50 36 52 70 53 49 54 69 55
REMARK SMILES IDX 50 56 53 57 68 58 88 59 51 60 52 61 67 63 89 64 54 65 37 66
REMARK SMILES IDX 38 67 47 68 39 69 40 70 46 71 48 72 41 73 42 74 43 75 44 76
REMARK SMILES IDX 45 77 71 78 72 79 81 80 73 81 74 82 80 83 82 84 75 85 76 86
REMARK SMILES IDX 77 87 78 88 79 89 55 90 56 91 65 92 57 93 58 94 64 95 66 96
REMARK SMILES IDX 59 97 60 98 61 99 62 100 63 101
REMARK H PARENT 21 6 25 32 87 51 53 62
REMARK Flexibility Score: inf
ROOT
ATOM      1  C   UNL     1      -2.201 -10.667   1.112  1.00  0.00     0.042 C 
ENDROOT
BRANCH   1   2
ATOM      2  C   UNL     1      -1.567 -10.013  -0.102  1.00  0.00     0.117 C 
BRANCH   2   3
ATOM      3  N   UNL     1      -2.492  -9.277  -0.936  1.00  0.00    -0.356 N 
ATOM      4  C   UNL     1      -2.348  -8.274  -1.832  1.00  0.00     0.224 C 
ATOM      5  O   UNL     1      -3.379  -7.994  -2.462  1.00  0.00    -0.275 OA
ATOM      6  H   UNL     1      -3.426  -9.569  -0.829  1.00  0.00     0.163 HD
BRANCH   4   7
ATOM      7  C   UNL     1      -1.046  -7.537  -2.199  1.00  0.00     0.095 C 
ATOM      8  C   UNL     1       0.262  -7.767  -1.448  1.00  0.00     0.095 C 
ATOM      9  C   UNL     1       0.252  -7.104  -0.024  1.00  0.00     0.041 C 
ATOM     10  C   UNL     1      -0.728  -5.975   0.162  1.00  0.00    -0.030 C 
ATOM     11  C   UNL     1      -1.355  -6.019  -2.224  1.00  0.00     0.041 C 
ATOM     12  C   UNL     1      -1.445  -5.458  -0.842  1.00  0.00    -0.030 C 
BRANCH   8  13
ATOM     13  C   UNL     1       0.973  -9.146  -1.468  1.00  0.00     0.226 C 
ATOM     14  N   UNL     1       0.108 -12.878  -2.982  1.00  0.00    -0.368 N 
ATOM     15  C   UNL     1       1.332 -12.501  -2.247  1.00  0.00     0.138 C 
ATOM     16  C   UNL     1      -0.815 -11.761  -3.330  1.00  0.00     0.138 C 
ATOM     17  C   UNL     1       1.892 -11.114  -2.593  1.00  0.00     0.141 C 
ATOM     18  C   UNL     1      -0.190 -10.347  -3.462  1.00  0.00     0.141 C 
ATOM     19  N   UNL     1       0.875 -10.070  -2.499  1.00  0.00    -0.339 N 
ATOM     20  O   UNL     1       1.778  -9.368  -0.550  1.00  0.00    -0.275 OA
BRANCH  14  21
ATOM     21  C   UNL     1      -0.464 -14.179  -2.857  1.00  0.00     0.040 A 
ATOM     22  C   UNL     1      -0.049 -17.805  -1.466  1.00  0.00     0.044 C 
ATOM     23  C   UNL     1      -0.594 -16.577  -2.161  1.00  0.00    -0.046 A 
ATOM     24  C   UNL     1      -1.867 -16.700  -2.723  1.00  0.00     0.004 A 
ATOM     25  C   UNL     1       0.122 -15.327  -2.220  1.00  0.00    -0.025 A 
ATOM     26  C   UNL     1      -2.437 -15.623  -3.364  1.00  0.00     0.002 A 
ATOM     27  C   UNL     1       1.507 -15.341  -1.608  1.00  0.00     0.047 C 
ATOM     28  C   UNL     1      -1.748 -14.409  -3.428  1.00  0.00     0.026 A 
ENDBRANCH  14  21
ENDBRANCH   8  13
ENDBRANCH   4   7
ENDBRANCH   2   3
ENDBRANCH   1   2
BRANCH   1  29
ATOM     29  C   UNL     1      -2.472 -12.139   0.868  1.00  0.00     0.118 C 
BRANCH  29  30
ATOM     30  N   UNL     1      -1.252 -12.928   0.713  1.00  0.00    -0.352 N 
ATOM     31  C   UNL     1      -1.062 -14.274   0.928  1.00  0.00     0.251 C 
ATOM     32  H   UNL     1      -0.458 -12.429   0.414  1.00  0.00     0.163 HD
ATOM     33  O   UNL     1       0.077 -14.734   0.963  1.00  0.00    -0.269 OA
BRANCH  31  34
ATOM     34  C   UNL     1      -2.217 -15.126   1.277  1.00  0.00     0.039 A 
ATOM     35  C   UNL     1      -2.045 -16.033   2.323  1.00  0.00     0.014 A 
ATOM     36  C   UNL     1      -3.484 -14.890   0.744  1.00  0.00     0.014 A 
ATOM     37  C   UNL     1      -3.164 -16.539   2.969  1.00  0.00     0.010 A 
ATOM     38  C   UNL     1      -4.598 -15.285   1.467  1.00  0.00     0.010 A 
ATOM     39  C   UNL     1      -4.439 -16.067   2.617  1.00  0.00    -0.014 A 
BRANCH  39  40
ATOM     40  C   UNL     1      -5.578 -16.292   3.531  1.00  0.00     0.031 A 
ATOM     41  C   UNL     1      -6.762 -17.088   3.083  1.00  0.00     0.074 A 
ATOM     42  C   UNL     1      -5.531 -15.722   4.754  1.00  0.00     0.049 A 
ATOM     43  N   UNL     1      -7.815 -17.443   3.767  1.00  0.00    -0.248 NA
ATOM     44  C   UNL     1      -6.785 -17.514   1.674  1.00  0.00     0.031 C 
ATOM     45  C   UNL     1      -4.464 -14.831   5.232  1.00  0.00     0.029 A 
ATOM     46  N   UNL     1      -6.378 -15.815   5.827  1.00  0.00    -0.354 N 
ATOM     47  C   UNL     1      -8.626 -18.132   2.875  1.00  0.00     0.074 A 
ATOM     48  C   UNL     1      -7.976 -18.085   1.584  1.00  0.00     0.031 C 
ATOM     49  C   UNL     1      -4.685 -14.522   6.519  1.00  0.00     0.029 A 
ATOM     50  C   UNL     1      -5.918 -15.165   6.950  1.00  0.00     0.049 A 
ATOM     51  H   UNL     1      -7.234 -16.300   5.797  1.00  0.00     0.167 HD
ATOM     52  C   UNL     1      -9.791 -18.771   3.126  1.00  0.00     0.037 A 
ATOM     53  C   UNL     1      -6.425 -15.123   8.197  1.00  0.00     0.037 A 
ATOM     54  C   UNL     1     -10.402 -18.811   4.427  1.00  0.00     0.049 A 
ATOM     55  C   UNL     1      -7.679 -15.905   8.469  1.00  0.00     0.074 A 
ATOM     56  C   UNL     1     -11.564 -19.449   4.820  1.00  0.00     0.029 A 
ATOM     57  N   UNL     1      -9.886 -18.183   5.554  1.00  0.00    -0.354 N 
ATOM     58  N   UNL     1      -8.396 -16.620   7.632  1.00  0.00    -0.248 NA
ATOM     59  C   UNL     1      -8.187 -15.892   9.845  1.00  0.00     0.031 C 
ATOM     60  C   UNL     1     -11.762 -19.186   6.181  1.00  0.00     0.029 A 
ATOM     61  C   UNL     1     -10.706 -18.414   6.644  1.00  0.00     0.049 A 
ATOM     62  H   UNL     1      -9.058 -17.651   5.574  1.00  0.00     0.167 HD
ATOM     63  C   UNL     1      -9.437 -17.151   8.382  1.00  0.00     0.074 A 
ATOM     64  C   UNL     1      -9.239 -16.695   9.745  1.00  0.00     0.031 C 
ATOM     65  C   UNL     1     -10.468 -17.937   7.984  1.00  0.00     0.037 A 
BRANCH  52  66
ATOM     66  C   UNL     1     -10.451 -19.471   1.971  1.00  0.00     0.058 A 
ATOM     67  C   UNL     1      -9.892 -20.627   1.399  1.00  0.00     0.135 A 
ATOM     68  C   UNL     1     -11.634 -18.971   1.407  1.00  0.00     0.135 A 
ATOM     69  F   UNL     1      -8.747 -21.135   1.884  1.00  0.00    -0.206 F 
ATOM     70  C   UNL     1     -10.459 -21.237   0.285  1.00  0.00     0.059 A 
ATOM     71  C   UNL     1     -12.234 -19.581   0.308  1.00  0.00     0.059 A 
ATOM     72  F   UNL     1     -12.209 -17.866   1.908  1.00  0.00    -0.206 F 
ATOM     73  C   UNL     1     -11.626 -20.701  -0.259  1.00  0.00     0.060 A 
BRANCH  73  74
ATOM     74  S   UNL     1     -12.336 -21.486  -1.722  1.00  0.00     0.124 S 
ATOM     75  O   UNL     1     -11.423 -21.030  -2.766  1.00  0.00    -0.237 OA
ATOM     76  O   UNL     1     -12.256 -22.904  -1.388  1.00  0.00    -0.237 OA
ATOM     77  O   UNL     1     -13.685 -20.934  -1.782  1.00  0.00    -0.744 OA
ENDBRANCH  73  74
ENDBRANCH  52  66
BRANCH  53  78
ATOM     78  C   UNL     1      -5.718 -14.375   9.272  1.00  0.00     0.058 A 
ATOM     79  C   UNL     1      -5.055 -15.050  10.308  1.00  0.00     0.135 A 
ATOM     80  C   UNL     1      -5.657 -12.972   9.269  1.00  0.00     0.135 A 
ATOM     81  F   UNL     1      -5.079 -16.391  10.357  1.00  0.00    -0.206 F 
ATOM     82  C   UNL     1      -4.373 -14.365  11.311  1.00  0.00     0.059 A 
ATOM     83  C   UNL     1      -4.963 -12.265  10.248  1.00  0.00     0.059 A 
ATOM     84  F   UNL     1      -6.253 -12.276   8.288  1.00  0.00    -0.206 F 
ATOM     85  C   UNL     1      -4.333 -12.970  11.272  1.00  0.00     0.060 A 
BRANCH  85  86
ATOM     86  S   UNL     1      -3.404 -12.090  12.547  1.00  0.00     0.124 S 
ATOM     87  O   UNL     1      -4.303 -12.193  13.690  1.00  0.00    -0.237 OA
ATOM     88  O   UNL     1      -2.174 -12.872  12.630  1.00  0.00    -0.237 OA
ATOM     89  O   UNL     1      -3.248 -10.752  11.984  1.00  0.00    -0.744 OA
ENDBRANCH  85  86
ENDBRANCH  53  78
BRANCH  65  90
ATOM     90  C   UNL     1     -11.446 -18.348   9.043  1.00  0.00     0.058 A 
ATOM     91  C   UNL     1     -12.397 -17.448   9.545  1.00  0.00     0.135 A 
ATOM     92  C   UNL     1     -11.458 -19.665   9.526  1.00  0.00     0.135 A 
ATOM     93  F   UNL     1     -12.417 -16.176   9.116  1.00  0.00    -0.206 F 
ATOM     94  C   UNL     1     -13.316 -17.834  10.512  1.00  0.00     0.059 A 
ATOM     95  C   UNL     1     -12.383 -20.080  10.476  1.00  0.00     0.059 A 
ATOM     96  F   UNL     1     -10.572 -20.563   9.066  1.00  0.00    -0.206 F 
ATOM     97  C   UNL     1     -13.301 -19.153  10.972  1.00  0.00     0.060 A 
BRANCH  97  98
ATOM     98  S   UNL     1     -14.518 -19.654  12.205  1.00  0.00     0.124 S 
ATOM     99  O   UNL     1     -13.947 -19.093  13.424  1.00  0.00    -0.237 OA
ATOM    100  O   UNL     1     -15.738 -19.012  11.723  1.00  0.00    -0.237 OA
ATOM    101  O   UNL     1     -14.509 -21.111  12.116  1.00  0.00    -0.744 OA
ENDBRANCH  97  98
ENDBRANCH  65  90
ENDBRANCH  39  40
ENDBRANCH  31  34
ENDBRANCH  29  30
ENDBRANCH   1  29
TORSDOF 15
