REMARK SMILES Cc1ccc(O)c(C[N@H+]2CC[C@](C)(C(=O)NCCCNC(=O)c3ccc(-c4c5nc(c(-c6c(F)cc(S(=O)(=O)[O-])cc6F)c6ccc([nH]6)c(-c6c(F)cc(S(=O)(=O)[O-])cc6F)c6nc(c(-c7c(F)cc(S(=O)(=O)[O-])cc7F)c7ccc4[nH]7)C=C6)C=C5)cc3)C2)n1
REMARK SMILES IDX 18 1 17 2 16 3 14 4 15 5 12 7 9 8 10 9 89 10 11 12 13 13
REMARK SMILES IDX 8 14 7 15 1 16 2 17 3 18 90 19 4 20 5 21 6 22 19 24 20 25
REMARK SMILES IDX 21 26 22 28 23 29 24 30 88 31 25 32 87 33 26 34 27 35 28 36
REMARK SMILES IDX 81 37 29 38 86 39 80 40 82 41 30 42 85 43 79 44 78 45 31 47
REMARK SMILES IDX 65 48 44 49 64 50 45 51 48 52 63 53 83 54 46 55 47 56 62 58
REMARK SMILES IDX 84 59 49 60 32 61 33 62 42 63 34 64 35 65 41 66 43 67 36 68
REMARK SMILES IDX 37 69 38 70 39 71 40 72 66 73 67 74 76 75 68 76 69 77 75 78
REMARK SMILES IDX 77 79 70 80 71 81 72 82 73 83 74 84 50 85 51 86 60 87 52 88
REMARK SMILES IDX 53 89 59 90 61 91 54 92 55 93 56 94 57 95 58 96
REMARK H PARENT 16 6 9 11 6 23 20 27 82 46 48 57
REMARK Flexibility Score: inf
ROOT
ATOM      1  C   UNL     1       3.628  -5.121  -0.129  1.00  0.00     0.042 C 
ENDROOT
BRANCH   1   2
ATOM      2  C   UNL     1       3.676  -4.303  -1.412  1.00  0.00     0.117 C 
BRANCH   2   3
ATOM      3  N   UNL     1       3.004  -4.942  -2.534  1.00  0.00    -0.355 N 
ATOM      4  C   UNL     1       1.867  -4.610  -3.214  1.00  0.00     0.231 C 
ATOM      5  O   UNL     1       1.589  -5.291  -4.205  1.00  0.00    -0.274 OA
ATOM      6  H   UNL     1       3.448  -5.757  -2.861  1.00  0.00     0.163 HD
BRANCH   4   7
ATOM      7  C   UNL     1       1.007  -3.419  -2.788  1.00  0.00     0.100 C 
ATOM      8  N   UNL     1      -0.871  -3.147  -1.286  1.00  0.00    -0.329 N 
ATOM      9  C   UNL     1      -1.245  -2.605  -2.584  1.00  0.00     0.263 C 
ATOM     10  C   UNL     1       0.523  -3.596  -1.340  1.00  0.00     0.279 C 
ATOM     11  H   UNL     1      -1.460  -3.961  -1.108  1.00  0.00     0.348 HD
ATOM     12  C   UNL     1      -0.338  -3.370  -3.540  1.00  0.00     0.084 C 
ATOM     13  C   UNL     1       1.753  -2.101  -3.075  1.00  0.00     0.028 C 
BRANCH   8  14
ATOM     14  C   UNL     1      -1.221  -2.317  -0.123  1.00  0.00     0.323 C 
BRANCH  14  15
ATOM     15  C   UNL     1      -0.577  -0.940  -0.034  1.00  0.00     0.136 A 
ATOM     16  C   UNL     1       2.896   0.274   0.182  1.00  0.00     0.067 C 
ATOM     17  C   UNL     1       1.400   0.303   0.126  1.00  0.00     0.038 A 
ATOM     18  C   UNL     1       0.695   1.498   0.118  1.00  0.00     0.027 A 
ATOM     19  N   UNL     1       0.782  -0.896   0.060  1.00  0.00    -0.248 NA
ATOM     20  C   UNL     1      -0.696   1.456   0.047  1.00  0.00     0.050 A 
ATOM     21  C   UNL     1      -1.341   0.225  -0.029  1.00  0.00     0.142 A 
BRANCH  21  22
ATOM     22  O   UNL     1      -2.703   0.170  -0.100  1.00  0.00    -0.506 OA
ATOM     23  H   UNL     1      -3.205   0.961  -0.095  1.00  0.00     0.293 HD
ENDBRANCH  21  22
ENDBRANCH  14  15
ENDBRANCH   8  14
ENDBRANCH   4   7
ENDBRANCH   2   3
ENDBRANCH   1   2
BRANCH   1  24
ATOM     24  C   UNL     1       4.361  -6.454  -0.200  1.00  0.00     0.118 C 
BRANCH  24  25
ATOM     25  N   UNL     1       5.776  -6.306  -0.510  1.00  0.00    -0.352 N 
ATOM     26  C   UNL     1       6.892  -6.669   0.197  1.00  0.00     0.251 C 
ATOM     27  H   UNL     1       5.962  -5.871  -1.373  1.00  0.00     0.163 HD
ATOM     28  O   UNL     1       7.993  -6.269  -0.192  1.00  0.00    -0.269 OA
BRANCH  26  29
ATOM     29  C   UNL     1       6.804  -7.512   1.411  1.00  0.00     0.039 A 
ATOM     30  C   UNL     1       7.697  -7.269   2.460  1.00  0.00     0.014 A 
ATOM     31  C   UNL     1       5.897  -8.570   1.509  1.00  0.00     0.014 A 
ATOM     32  C   UNL     1       7.645  -8.051   3.617  1.00  0.00     0.010 A 
ATOM     33  C   UNL     1       5.787  -9.291   2.697  1.00  0.00     0.010 A 
ATOM     34  C   UNL     1       6.670  -9.051   3.759  1.00  0.00    -0.014 A 
BRANCH  34  35
ATOM     35  C   UNL     1       6.588  -9.874   4.994  1.00  0.00     0.031 A 
ATOM     36  C   UNL     1       6.827 -11.361   4.929  1.00  0.00     0.074 A 
ATOM     37  C   UNL     1       6.267  -9.291   6.166  1.00  0.00     0.049 A 
ATOM     38  N   UNL     1       6.749 -12.252   5.884  1.00  0.00    -0.248 NA
ATOM     39  C   UNL     1       7.174 -11.925   3.614  1.00  0.00     0.031 C 
ATOM     40  C   UNL     1       5.963  -7.870   6.351  1.00  0.00     0.029 A 
ATOM     41  N   UNL     1       6.135  -9.822   7.425  1.00  0.00    -0.354 N 
ATOM     42  C   UNL     1       7.035 -13.475   5.287  1.00  0.00     0.074 A 
ATOM     43  C   UNL     1       7.223 -13.223   3.876  1.00  0.00     0.031 C 
ATOM     44  C   UNL     1       5.701  -7.639   7.648  1.00  0.00     0.029 A 
ATOM     45  C   UNL     1       5.786  -8.897   8.382  1.00  0.00     0.049 A 
ATOM     46  H   UNL     1       6.277 -10.775   7.625  1.00  0.00     0.167 HD
ATOM     47  C   UNL     1       7.165 -14.693   5.865  1.00  0.00     0.037 A 
ATOM     48  C   UNL     1       5.556  -9.048   9.701  1.00  0.00     0.037 A 
ATOM     49  C   UNL     1       7.003 -14.938   7.274  1.00  0.00     0.049 A 
ATOM     50  C   UNL     1       5.707 -10.413  10.320  1.00  0.00     0.074 A 
ATOM     51  C   UNL     1       7.136 -16.132   7.962  1.00  0.00     0.029 A 
ATOM     52  N   UNL     1       6.684 -13.969   8.214  1.00  0.00    -0.354 N 
ATOM     53  N   UNL     1       6.024 -11.548   9.744  1.00  0.00    -0.248 NA
ATOM     54  C   UNL     1       5.482 -10.516  11.768  1.00  0.00     0.031 C 
ATOM     55  C   UNL     1       6.872 -15.890   9.314  1.00  0.00     0.029 A 
ATOM     56  C   UNL     1       6.613 -14.538   9.474  1.00  0.00     0.049 A 
ATOM     57  H   UNL     1       6.530 -13.018   8.014  1.00  0.00     0.167 HD
ATOM     58  C   UNL     1       6.061 -12.493  10.764  1.00  0.00     0.074 A 
ATOM     59  C   UNL     1       5.753 -11.794  11.993  1.00  0.00     0.031 C 
ATOM     60  C   UNL     1       6.324 -13.821  10.690  1.00  0.00     0.037 A 
BRANCH  47  61
ATOM     61  C   UNL     1       7.533 -15.851   4.979  1.00  0.00     0.058 A 
ATOM     62  C   UNL     1       8.822 -15.967   4.432  1.00  0.00     0.135 A 
ATOM     63  C   UNL     1       6.615 -16.880   4.715  1.00  0.00     0.135 A 
ATOM     64  F   UNL     1       9.733 -15.004   4.639  1.00  0.00    -0.206 F 
ATOM     65  C   UNL     1       9.181 -17.051   3.639  1.00  0.00     0.059 A 
ATOM     66  C   UNL     1       6.961 -17.987   3.945  1.00  0.00     0.059 A 
ATOM     67  F   UNL     1       5.370 -16.818   5.211  1.00  0.00    -0.206 F 
ATOM     68  C   UNL     1       8.245 -18.058   3.403  1.00  0.00     0.060 A 
BRANCH  68  69
ATOM     69  S   UNL     1       8.737 -19.471   2.393  1.00  0.00     0.124 S 
ATOM     70  O   UNL     1       8.776 -18.875   1.060  1.00  0.00    -0.237 OA
ATOM     71  O   UNL     1      10.032 -19.827   2.964  1.00  0.00    -0.237 OA
ATOM     72  O   UNL     1       7.669 -20.439   2.616  1.00  0.00    -0.744 OA
ENDBRANCH  68  69
ENDBRANCH  47  61
BRANCH  48  73
ATOM     73  C   UNL     1       5.168  -7.878  10.535  1.00  0.00     0.058 A 
ATOM     74  C   UNL     1       6.040  -7.357  11.502  1.00  0.00     0.135 A 
ATOM     75  C   UNL     1       3.908  -7.275  10.400  1.00  0.00     0.135 A 
ATOM     76  F   UNL     1       7.255  -7.900  11.672  1.00  0.00    -0.206 F 
ATOM     77  C   UNL     1       5.665  -6.304  12.331  1.00  0.00     0.059 A 
ATOM     78  C   UNL     1       3.520  -6.204  11.198  1.00  0.00     0.059 A 
ATOM     79  F   UNL     1       3.044  -7.722   9.475  1.00  0.00    -0.206 F 
ATOM     80  C   UNL     1       4.399  -5.739  12.175  1.00  0.00     0.060 A 
BRANCH  80  81
ATOM     81  S   UNL     1       3.920  -4.369  13.250  1.00  0.00     0.124 S 
ATOM     82  O   UNL     1       3.632  -5.064  14.499  1.00  0.00    -0.237 OA
ATOM     83  O   UNL     1       5.119  -3.536  13.244  1.00  0.00    -0.237 OA
ATOM     84  O   UNL     1       2.766  -3.795  12.565  1.00  0.00    -0.744 OA
ENDBRANCH  80  81
ENDBRANCH  48  73
BRANCH  60  85
ATOM     85  C   UNL     1       6.329 -14.597  11.976  1.00  0.00     0.058 A 
ATOM     86  C   UNL     1       5.139 -14.913  12.651  1.00  0.00     0.135 A 
ATOM     87  C   UNL     1       7.536 -15.073  12.514  1.00  0.00     0.135 A 
ATOM     88  F   UNL     1       3.960 -14.477  12.181  1.00  0.00    -0.206 F 
ATOM     89  C   UNL     1       5.148 -15.654  13.828  1.00  0.00     0.059 A 
ATOM     90  C   UNL     1       7.565 -15.838  13.675  1.00  0.00     0.059 A 
ATOM     91  F   UNL     1       8.700 -14.807  11.901  1.00  0.00    -0.206 F 
ATOM     92  C   UNL     1       6.367 -16.113  14.332  1.00  0.00     0.060 A 
BRANCH  92  93
ATOM     93  S   UNL     1       6.361 -17.102  15.842  1.00  0.00     0.124 S 
ATOM     94  O   UNL     1       6.122 -16.083  16.859  1.00  0.00    -0.237 OA
ATOM     95  O   UNL     1       5.261 -18.031  15.604  1.00  0.00    -0.237 OA
ATOM     96  O   UNL     1       7.691 -17.705  15.858  1.00  0.00    -0.744 OA
ENDBRANCH  92  93
ENDBRANCH  60  85
ENDBRANCH  34  35
ENDBRANCH  26  29
ENDBRANCH  24  25
ENDBRANCH   1  24
TORSDOF 16
