REMARK SMILES O=C(NCCCNC(=O)c1cc2c(cc1NS(=O)(=O)c1cc(Cl)ccc1Cl)OCCCO2)c1ccc(-c2c3nc(c(-c4c(F)cc(S(=O)(=O)[O-])cc4F)c4ccc([nH]4)c(-c4c(F)cc(S(=O)(=O)[O-])cc4F)c4nc(c(-c5c(F)cc(S(=O)(=O)[O-])cc5F)c5ccc2[nH]5)C=C4)C=C3)cc1
REMARK SMILES IDX 5 1 4 2 3 3 1 4 2 5 33 7 34 8 98 9 35 10 97 11 36 12 37 13
REMARK SMILES IDX 38 14 91 15 39 16 96 17 90 18 92 19 40 20 95 21 89 22 88 23
REMARK SMILES IDX 41 25 75 26 54 27 74 28 55 29 58 30 73 31 93 32 56 33 57 34
REMARK SMILES IDX 72 36 94 37 59 38 42 39 43 40 52 41 44 42 45 43 51 44 53 45
REMARK SMILES IDX 46 46 47 47 48 48 49 49 50 50 76 51 77 52 86 53 78 54 79 55
REMARK SMILES IDX 85 56 87 57 80 58 81 59 82 60 83 61 84 62 60 63 61 64 70 65
REMARK SMILES IDX 62 66 63 67 69 68 71 69 64 70 65 71 66 72 67 73 68 74 6 75
REMARK SMILES IDX 7 76 8 77 9 79 10 80 11 81 15 82 12 83 14 84 13 85 16 86
REMARK SMILES IDX 17 88 18 89 19 90 20 91 21 92 26 93 22 94 25 95 27 96 23 97
REMARK SMILES IDX 24 98 32 99 31 100 28 102 29 103 30 104
REMARK H PARENT 3 6 92 24 58 35 7 78 16 87
REMARK Flexibility Score: 100.00
ROOT
ATOM      1  C   UNL     1       5.127   0.285   2.509  1.00  0.00     0.042 C 
ENDROOT
BRANCH   1   2
ATOM      2  C   UNL     1       4.635  -0.036   1.099  1.00  0.00     0.118 C 
BRANCH   2   3
ATOM      3  N   UNL     1       3.225  -0.383   1.037  1.00  0.00    -0.352 N 
ATOM      4  O   UNL     1       1.091  -0.115   0.314  1.00  0.00    -0.269 OA
ATOM      5  C   UNL     1       2.282   0.149   0.189  1.00  0.00     0.251 C 
ATOM      6  H   UNL     1       2.912  -1.071   1.668  1.00  0.00     0.163 HD
BRANCH   5   7
ATOM      7  C   UNL     1       2.737   1.081  -0.863  1.00  0.00     0.039 A 
ATOM      8  C   UNL     1       2.167   2.353  -0.936  1.00  0.00     0.014 A 
ATOM      9  C   UNL     1       3.774   0.711  -1.726  1.00  0.00     0.014 A 
ATOM     10  C   UNL     1       2.659   3.272  -1.864  1.00  0.00     0.010 A 
ATOM     11  C   UNL     1       4.315   1.655  -2.591  1.00  0.00     0.010 A 
ATOM     12  C   UNL     1       3.743   2.934  -2.690  1.00  0.00    -0.014 A 
BRANCH  12  13
ATOM     13  C   UNL     1       4.231   3.854  -3.747  1.00  0.00     0.031 A 
ATOM     14  C   UNL     1       4.075   3.450  -5.189  1.00  0.00     0.074 A 
ATOM     15  C   UNL     1       4.827   5.019  -3.433  1.00  0.00     0.049 A 
ATOM     16  N   UNL     1       4.524   4.033  -6.269  1.00  0.00    -0.248 NA
ATOM     17  C   UNL     1       3.334   2.203  -5.441  1.00  0.00     0.031 C 
ATOM     18  C   UNL     1       5.023   5.534  -2.078  1.00  0.00     0.029 A 
ATOM     19  N   UNL     1       5.379   5.981  -4.240  1.00  0.00    -0.354 N 
ATOM     20  C   UNL     1       4.128   3.221  -7.325  1.00  0.00     0.074 A 
ATOM     21  C   UNL     1       3.473   2.067  -6.749  1.00  0.00     0.031 C 
ATOM     22  C   UNL     1       5.620   6.736  -2.150  1.00  0.00     0.029 A 
ATOM     23  C   UNL     1       5.894   7.052  -3.550  1.00  0.00     0.049 A 
ATOM     24  H   UNL     1       5.403   5.912  -5.221  1.00  0.00     0.167 HD
ATOM     25  C   UNL     1       4.264   3.429  -8.657  1.00  0.00     0.037 A 
ATOM     26  C   UNL     1       6.520   8.158  -3.997  1.00  0.00     0.037 A 
ATOM     27  C   UNL     1       4.913   4.580  -9.226  1.00  0.00     0.049 A 
ATOM     28  C   UNL     1       6.734   8.335  -5.475  1.00  0.00     0.074 A 
ATOM     29  C   UNL     1       5.112   4.887 -10.560  1.00  0.00     0.029 A 
ATOM     30  N   UNL     1       5.469   5.619  -8.491  1.00  0.00    -0.354 N 
ATOM     31  N   UNL     1       6.369   7.553  -6.464  1.00  0.00    -0.248 NA
ATOM     32  C   UNL     1       7.452   9.546  -5.897  1.00  0.00     0.031 C 
ATOM     33  C   UNL     1       5.827   6.089 -10.630  1.00  0.00     0.029 A 
ATOM     34  C   UNL     1       6.028   6.559  -9.342  1.00  0.00     0.049 A 
ATOM     35  H   UNL     1       5.467   5.678  -7.508  1.00  0.00     0.167 HD
ATOM     36  C   UNL     1       6.797   8.184  -7.628  1.00  0.00     0.074 A 
ATOM     37  C   UNL     1       7.430   9.423  -7.218  1.00  0.00     0.031 C 
ATOM     38  C   UNL     1       6.678   7.776  -8.918  1.00  0.00     0.037 A 
BRANCH  25  39
ATOM     39  C   UNL     1       3.703   2.372  -9.570  1.00  0.00     0.058 A 
ATOM     40  C   UNL     1       2.319   2.139  -9.664  1.00  0.00     0.135 A 
ATOM     41  C   UNL     1       4.553   1.556 -10.332  1.00  0.00     0.135 A 
ATOM     42  F   UNL     1       1.459   2.876  -8.943  1.00  0.00    -0.206 F 
ATOM     43  C   UNL     1       1.805   1.102 -10.434  1.00  0.00     0.059 A 
ATOM     44  C   UNL     1       4.058   0.534 -11.139  1.00  0.00     0.059 A 
ATOM     45  F   UNL     1       5.883   1.731 -10.284  1.00  0.00    -0.206 F 
ATOM     46  C   UNL     1       2.684   0.299 -11.162  1.00  0.00     0.060 A 
BRANCH  46  47
ATOM     47  S   UNL     1       2.002  -1.069 -12.121  1.00  0.00     0.124 S 
ATOM     48  O   UNL     1       1.594  -1.990 -11.065  1.00  0.00    -0.237 OA
ATOM     49  O   UNL     1       0.918  -0.426 -12.855  1.00  0.00    -0.237 OA
ATOM     50  O   UNL     1       3.131  -1.510 -12.935  1.00  0.00    -0.744 OA
ENDBRANCH  46  47
ENDBRANCH  25  39
BRANCH  26  51
ATOM     51  C   UNL     1       6.943   9.202  -3.026  1.00  0.00     0.058 A 
ATOM     52  C   UNL     1       6.256  10.422  -2.950  1.00  0.00     0.135 A 
ATOM     53  C   UNL     1       7.989   8.983  -2.116  1.00  0.00     0.135 A 
ATOM     54  F   UNL     1       5.260  10.685  -3.810  1.00  0.00    -0.206 F 
ATOM     55  C   UNL     1       6.577  11.382  -1.996  1.00  0.00     0.059 A 
ATOM     56  C   UNL     1       8.314   9.918  -1.138  1.00  0.00     0.059 A 
ATOM     57  F   UNL     1       8.674   7.829  -2.144  1.00  0.00    -0.206 F 
ATOM     58  C   UNL     1       7.597  11.112  -1.082  1.00  0.00     0.060 A 
BRANCH  58  59
ATOM     59  S   UNL     1       7.923  12.319   0.222  1.00  0.00     0.124 S 
ATOM     60  O   UNL     1       8.455  13.443  -0.540  1.00  0.00    -0.237 OA
ATOM     61  O   UNL     1       6.594  12.508   0.796  1.00  0.00    -0.237 OA
ATOM     62  O   UNL     1       8.879  11.633   1.085  1.00  0.00    -0.744 OA
ENDBRANCH  58  59
ENDBRANCH  26  51
BRANCH  38  63
ATOM     63  C   UNL     1       7.245   8.682  -9.979  1.00  0.00     0.058 A 
ATOM     64  C   UNL     1       8.629   8.860 -10.135  1.00  0.00     0.135 A 
ATOM     65  C   UNL     1       6.396   9.367 -10.865  1.00  0.00     0.135 A 
ATOM     66  F   UNL     1       9.487   8.231  -9.315  1.00  0.00    -0.206 F 
ATOM     67  C   UNL     1       9.150   9.717 -11.099  1.00  0.00     0.059 A 
ATOM     68  C   UNL     1       6.896  10.204 -11.859  1.00  0.00     0.059 A 
ATOM     69  F   UNL     1       5.064   9.223 -10.774  1.00  0.00    -0.206 F 
ATOM     70  C   UNL     1       8.274  10.388 -11.954  1.00  0.00     0.060 A 
BRANCH  70  71
ATOM     71  S   UNL     1       8.965  11.506 -13.192  1.00  0.00     0.124 S 
ATOM     72  O   UNL     1       9.431  12.611 -12.361  1.00  0.00    -0.237 OA
ATOM     73  O   UNL     1      10.008  10.688 -13.802  1.00  0.00    -0.237 OA
ATOM     74  O   UNL     1       7.826  11.806 -14.055  1.00  0.00    -0.744 OA
ENDBRANCH  70  71
ENDBRANCH  38  63
ENDBRANCH  12  13
ENDBRANCH   5   7
ENDBRANCH   2   3
ENDBRANCH   1   2
BRANCH   1  75
ATOM     75  C   UNL     1       4.989  -0.862   3.505  1.00  0.00     0.118 C 
BRANCH  75  76
ATOM     76  N   UNL     1       5.551  -2.068   2.918  1.00  0.00    -0.352 N 
ATOM     77  C   UNL     1       6.399  -2.989   3.423  1.00  0.00     0.253 C 
ATOM     78  H   UNL     1       5.263  -2.242   1.992  1.00  0.00     0.163 HD
ATOM     79  O   UNL     1       7.146  -3.637   2.691  1.00  0.00    -0.269 OA
BRANCH  77  80
ATOM     80  C   UNL     1       6.420  -3.244   4.845  1.00  0.00     0.067 A 
ATOM     81  C   UNL     1       7.700  -3.117   5.409  1.00  0.00     0.066 A 
ATOM     82  C   UNL     1       5.306  -3.576   5.618  1.00  0.00     0.066 A 
ATOM     83  C   UNL     1       7.868  -3.187   6.778  1.00  0.00     0.162 A 
ATOM     84  C   UNL     1       5.484  -3.482   7.015  1.00  0.00     0.078 A 
ATOM     85  C   UNL     1       6.748  -3.274   7.594  1.00  0.00     0.163 A 
BRANCH  82  86
ATOM     86  N   UNL     1       3.943  -3.859   5.225  1.00  0.00    -0.279 N 
ATOM     87  H   UNL     1       3.286  -3.704   5.941  1.00  0.00     0.180 HD
BRANCH  86  88
ATOM     88  S   UNL     1       3.254  -4.404   3.779  1.00  0.00     0.263 S 
ATOM     89  O   UNL     1       2.236  -5.369   4.150  1.00  0.00    -0.201 OA
ATOM     90  O   UNL     1       2.818  -3.188   3.118  1.00  0.00    -0.201 OA
BRANCH  88  91
ATOM     91  C   UNL     1       4.377  -5.215   2.683  1.00  0.00     0.107 A 
ATOM     92  C   UNL     1       4.610  -4.615   1.427  1.00  0.00     0.044 A 
ATOM     93  C   UNL     1       4.955  -6.453   2.957  1.00  0.00     0.061 A 
ATOM     94  C   UNL     1       5.571  -5.132   0.562  1.00  0.00     0.042 A 
ATOM     95  C   UNL     1       5.858  -7.011   2.034  1.00  0.00     0.023 A 
ATOM     96  Cl  UNL     1       4.618  -7.375   4.372  1.00  0.00    -0.083 Cl
ATOM     97  Cl  UNL     1       6.020  -4.241  -0.839  1.00  0.00    -0.084 Cl
ATOM     98  C   UNL     1       6.205  -6.330   0.863  1.00  0.00     0.022 A 
ENDBRANCH  88  91
ENDBRANCH  86  88
ENDBRANCH  82  86
BRANCH  83  99
ATOM     99  O   UNL     1       9.149  -3.089   7.233  1.00  0.00    -0.490 OA
BRANCH  99 100
ATOM    100  C   UNL     1       9.459  -4.183   8.097  1.00  0.00     0.233 CG0
ATOM    101  G   UNL     1       9.071  -3.833   9.520  1.00  0.00     0.000 G0
ENDBRANCH  99 100
ENDBRANCH  83  99
BRANCH  85 102
ATOM    102  O   UNL     1       6.800  -2.977   8.929  1.00  0.00    -0.489 OA
BRANCH 102 103
ATOM    103  C   UNL     1       7.560  -3.889   9.720  1.00  0.00     0.233 C 
BRANCH 103 104
ATOM    104  C   UNL     1       9.071  -3.833   9.520  1.00  0.00     0.083 CG0
ATOM    105  G   UNL     1       9.459  -4.183   8.097  1.00  0.00     0.000 G0
ENDBRANCH 103 104
ENDBRANCH 102 103
ENDBRANCH  85 102
ENDBRANCH  77  80
ENDBRANCH  75  76
ENDBRANCH   1  75
TORSDOF 16
