REMARK SMILES O=C(Cn1nc(-c2ccco2)ccc1=O)NCCCNC(=O)c1ccc(-c2c3nc(c(-c4c(F)cc(S(=O)(=O)[O-])cc4F)c4ccc([nH]4)c(-c4c(F)cc(S(=O)(=O)[O-])cc4F)c4nc(c(-c5c(F)cc(S(=O)(=O)[O-])cc5F)c5ccc2[nH]5)C=C4)C=C3)cc1
REMARK SMILES IDX 18 1 17 2 16 3 1 4 2 5 3 7 4 8 5 9 14 10 6 11 13 12 15 13
REMARK SMILES IDX 12 14 7 15 8 16 11 17 9 18 10 19 19 20 20 21 21 22 22 24
REMARK SMILES IDX 23 25 24 26 88 27 25 28 87 29 26 30 27 31 28 32 81 33 29 34
REMARK SMILES IDX 86 35 80 36 82 37 30 38 85 39 79 40 78 41 31 43 65 44 44 45
REMARK SMILES IDX 64 46 45 47 48 48 63 49 83 50 46 51 47 52 62 54 84 55 49 56
REMARK SMILES IDX 32 57 33 58 42 59 34 60 35 61 41 62 43 63 36 64 37 65 38 66
REMARK SMILES IDX 39 67 40 68 66 69 67 70 76 71 68 72 69 73 75 74 77 75 70 76
REMARK SMILES IDX 71 77 72 78 73 79 74 80 50 81 51 82 60 83 52 84 53 85 59 86
REMARK SMILES IDX 61 87 54 88 55 89 56 90 57 91 58 92
REMARK H PARENT 16 6 20 23 82 42 48 53
REMARK Flexibility Score: inf
ROOT
ATOM      1  C   UNL     1       2.473   2.515  -2.134  1.00  0.00     0.042 C 
ENDROOT
BRANCH   1   2
ATOM      2  C   UNL     1       2.220   1.011  -2.159  1.00  0.00     0.117 C 
BRANCH   2   3
ATOM      3  N   UNL     1       2.882   0.300  -1.087  1.00  0.00    -0.354 N 
ATOM      4  O   UNL     1       1.273   0.626   0.511  1.00  0.00    -0.273 OA
ATOM      5  C   UNL     1       2.331   0.106   0.164  1.00  0.00     0.241 C 
ATOM      6  H   UNL     1       3.778  -0.067  -1.260  1.00  0.00     0.163 HD
BRANCH   5   7
ATOM      7  C   UNL     1       3.253  -0.622   1.151  1.00  0.00     0.248 C 
BRANCH   7   8
ATOM      8  N   UNL     1       3.976  -1.719   0.500  1.00  0.00    -0.220 N 
ATOM      9  N   UNL     1       5.045  -1.371  -0.313  1.00  0.00    -0.166 NA
ATOM     10  C   UNL     1       3.508  -3.019   0.650  1.00  0.00     0.267 A 
ATOM     11  C   UNL     1       5.600  -2.310  -1.019  1.00  0.00     0.126 A 
ATOM     12  C   UNL     1       4.199  -4.053  -0.147  1.00  0.00     0.076 A 
ATOM     13  O   UNL     1       2.578  -3.360   1.374  1.00  0.00    -0.268 OA
ATOM     14  C   UNL     1       5.189  -3.728  -0.979  1.00  0.00     0.040 A 
BRANCH  11  15
ATOM     15  C   UNL     1       6.670  -1.956  -1.915  1.00  0.00     0.154 A 
ATOM     16  C   UNL     1       7.734  -1.085  -1.782  1.00  0.00     0.052 A 
ATOM     17  O   UNL     1       6.681  -2.503  -3.170  1.00  0.00    -0.463 OA
ATOM     18  C   UNL     1       8.424  -1.096  -3.018  1.00  0.00     0.043 A 
ATOM     19  C   UNL     1       7.727  -1.950  -3.838  1.00  0.00     0.196 A 
ENDBRANCH  11  15
ENDBRANCH   7   8
ENDBRANCH   5   7
ENDBRANCH   2   3
ENDBRANCH   1   2
BRANCH   1  20
ATOM     20  C   UNL     1       3.938   2.925  -2.256  1.00  0.00     0.118 C 
BRANCH  20  21
ATOM     21  N   UNL     1       4.547   2.575  -3.534  1.00  0.00    -0.352 N 
ATOM     22  C   UNL     1       5.245   3.353  -4.431  1.00  0.00     0.251 C 
ATOM     23  H   UNL     1       4.443   1.633  -3.798  1.00  0.00     0.163 HD
ATOM     24  O   UNL     1       5.603   2.867  -5.502  1.00  0.00    -0.269 OA
BRANCH  22  25
ATOM     25  C   UNL     1       5.536   4.777  -4.136  1.00  0.00     0.039 A 
ATOM     26  C   UNL     1       5.981   5.181  -2.878  1.00  0.00     0.014 A 
ATOM     27  C   UNL     1       5.354   5.730  -5.146  1.00  0.00     0.014 A 
ATOM     28  C   UNL     1       6.063   6.539  -2.575  1.00  0.00     0.010 A 
ATOM     29  C   UNL     1       5.516   7.092  -4.862  1.00  0.00     0.010 A 
ATOM     30  C   UNL     1       5.812   7.512  -3.557  1.00  0.00    -0.014 A 
BRANCH  30  31
ATOM     31  C   UNL     1       5.826   8.953  -3.180  1.00  0.00     0.031 A 
ATOM     32  C   UNL     1       4.558   9.771  -3.230  1.00  0.00     0.074 A 
ATOM     33  C   UNL     1       6.962   9.512  -2.717  1.00  0.00     0.049 A 
ATOM     34  N   UNL     1       4.370  11.021  -2.888  1.00  0.00    -0.248 NA
ATOM     35  C   UNL     1       3.347   9.102  -3.731  1.00  0.00     0.031 C 
ATOM     36  C   UNL     1       8.252   8.829  -2.611  1.00  0.00     0.029 A 
ATOM     37  N   UNL     1       7.209  10.767  -2.220  1.00  0.00    -0.354 N 
ATOM     38  C   UNL     1       3.029  11.289  -3.140  1.00  0.00     0.074 A 
ATOM     39  C   UNL     1       2.456  10.084  -3.698  1.00  0.00     0.031 C 
ATOM     40  C   UNL     1       9.138   9.651  -2.028  1.00  0.00     0.029 A 
ATOM     41  C   UNL     1       8.496  10.936  -1.766  1.00  0.00     0.049 A 
ATOM     42  H   UNL     1       6.529  11.479  -2.191  1.00  0.00     0.167 HD
ATOM     43  C   UNL     1       2.331  12.428  -2.911  1.00  0.00     0.037 A 
ATOM     44  C   UNL     1       9.096  12.004  -1.204  1.00  0.00     0.037 A 
ATOM     45  C   UNL     1       2.891  13.621  -2.329  1.00  0.00     0.049 A 
ATOM     46  C   UNL     1       8.311  13.267  -0.992  1.00  0.00     0.074 A 
ATOM     47  C   UNL     1       2.255  14.816  -2.040  1.00  0.00     0.029 A 
ATOM     48  N   UNL     1       4.214  13.769  -1.942  1.00  0.00    -0.354 N 
ATOM     49  N   UNL     1       7.044  13.498  -1.238  1.00  0.00    -0.248 NA
ATOM     50  C   UNL     1       9.039  14.418  -0.440  1.00  0.00     0.031 C 
ATOM     51  C   UNL     1       3.201  15.699  -1.510  1.00  0.00     0.029 A 
ATOM     52  C   UNL     1       4.418  15.042  -1.434  1.00  0.00     0.049 A 
ATOM     53  H   UNL     1       4.906  13.073  -2.017  1.00  0.00     0.167 HD
ATOM     54  C   UNL     1       6.821  14.818  -0.864  1.00  0.00     0.074 A 
ATOM     55  C   UNL     1       8.078  15.330  -0.359  1.00  0.00     0.031 C 
ATOM     56  C   UNL     1       5.677  15.541  -0.940  1.00  0.00     0.037 A 
BRANCH  43  57
ATOM     57  C   UNL     1       0.876  12.447  -3.289  1.00  0.00     0.058 A 
ATOM     58  C   UNL     1      -0.089  11.770  -2.528  1.00  0.00     0.135 A 
ATOM     59  C   UNL     1       0.434  13.195  -4.393  1.00  0.00     0.135 A 
ATOM     60  F   UNL     1       0.281  11.028  -1.472  1.00  0.00    -0.206 F 
ATOM     61  C   UNL     1      -1.440  11.819  -2.857  1.00  0.00     0.059 A 
ATOM     62  C   UNL     1      -0.915  13.276  -4.728  1.00  0.00     0.059 A 
ATOM     63  F   UNL     1       1.316  13.862  -5.154  1.00  0.00    -0.206 F 
ATOM     64  C   UNL     1      -1.844  12.575  -3.959  1.00  0.00     0.060 A 
BRANCH  64  65
ATOM     65  S   UNL     1      -3.602  12.637  -4.366  1.00  0.00     0.124 S 
ATOM     66  O   UNL     1      -3.824  11.298  -4.902  1.00  0.00    -0.237 OA
ATOM     67  O   UNL     1      -4.213  12.910  -3.069  1.00  0.00    -0.237 OA
ATOM     68  O   UNL     1      -3.689  13.723  -5.338  1.00  0.00    -0.744 OA
ENDBRANCH  64  65
ENDBRANCH  43  57
BRANCH  44  69
ATOM     69  C   UNL     1      10.522  11.912  -0.795  1.00  0.00     0.058 A 
ATOM     70  C   UNL     1      10.881  11.859   0.559  1.00  0.00     0.135 A 
ATOM     71  C   UNL     1      11.548  11.837  -1.749  1.00  0.00     0.135 A 
ATOM     72  F   UNL     1       9.935  11.938   1.508  1.00  0.00    -0.206 F 
ATOM     73  C   UNL     1      12.208  11.731   0.955  1.00  0.00     0.059 A 
ATOM     74  C   UNL     1      12.880  11.686  -1.379  1.00  0.00     0.059 A 
ATOM     75  F   UNL     1      11.253  11.872  -3.058  1.00  0.00    -0.206 F 
ATOM     76  C   UNL     1      13.201  11.637  -0.023  1.00  0.00     0.060 A 
BRANCH  76  77
ATOM     77  S   UNL     1      14.912  11.393   0.499  1.00  0.00     0.124 S 
ATOM     78  O   UNL     1      15.257  12.716   1.004  1.00  0.00    -0.237 OA
ATOM     79  O   UNL     1      14.779  10.341   1.503  1.00  0.00    -0.237 OA
ATOM     80  O   UNL     1      15.584  10.990  -0.733  1.00  0.00    -0.744 OA
ENDBRANCH  76  77
ENDBRANCH  44  69
BRANCH  56  81
ATOM     81  C   UNL     1       5.723  16.966  -0.468  1.00  0.00     0.058 A 
ATOM     82  C   UNL     1       6.316  17.972  -1.246  1.00  0.00     0.135 A 
ATOM     83  C   UNL     1       5.108  17.342   0.737  1.00  0.00     0.135 A 
ATOM     84  F   UNL     1       6.924  17.662  -2.402  1.00  0.00    -0.206 F 
ATOM     85  C   UNL     1       6.303  19.303  -0.842  1.00  0.00     0.059 A 
ATOM     86  C   UNL     1       5.066  18.670   1.150  1.00  0.00     0.059 A 
ATOM     87  F   UNL     1       4.521  16.418   1.514  1.00  0.00    -0.206 F 
ATOM     88  C   UNL     1       5.671  19.643   0.356  1.00  0.00     0.060 A 
BRANCH  88  89
ATOM     89  S   UNL     1       5.619  21.382   0.841  1.00  0.00     0.124 S 
ATOM     90  O   UNL     1       6.998  21.613   1.256  1.00  0.00    -0.237 OA
ATOM     91  O   UNL     1       5.211  22.040  -0.397  1.00  0.00    -0.237 OA
ATOM     92  O   UNL     1       4.628  21.406   1.913  1.00  0.00    -0.744 OA
ENDBRANCH  88  89
ENDBRANCH  56  81
ENDBRANCH  30  31
ENDBRANCH  22  25
ENDBRANCH  20  21
ENDBRANCH   1  20
TORSDOF 15
