REMARK SMILES CN1N[C@H](C(=O)N[C@@H](CC2=c3ccccc3=NC2)C(=O)NCCCNC(=O)c2ccc(-c3c4nc(c(-c5c(F)cc(S(=O)(=O)[O-])cc5F)c5ccc([nH]5)c(-c5c(F)cc(S(=O)(=O)[O-])cc5F)c5nc(c(-c6c(F)cc(S(=O)(=O)[O-])cc6F)c6ccc3[nH]6)C=C5)C=C4)cc2)c2ccccc2C1=O
REMARK SMILES IDX 23 1 22 2 21 3 19 4 20 5 8 7 7 8 5 9 6 10 4 12 1 13 2 14
REMARK SMILES IDX 3 15 100 16 99 18 101 19 94 20 98 21 95 22 97 23 96 24 9 25
REMARK SMILES IDX 10 26 11 27 18 28 12 29 16 30 17 31 13 32 15 33 14 34 24 35
REMARK SMILES IDX 25 36 26 37 27 39 28 40 29 41 93 42 30 43 92 44 31 45 32 46
REMARK SMILES IDX 33 47 86 48 34 49 91 50 85 51 87 52 35 53 90 54 84 55 83 56
REMARK SMILES IDX 36 58 70 59 49 60 69 61 50 62 53 63 68 64 88 65 51 66 52 67
REMARK SMILES IDX 67 69 89 70 54 71 37 72 38 73 47 74 39 75 40 76 46 77 48 78
REMARK SMILES IDX 41 79 42 80 43 81 44 82 45 83 71 84 72 85 81 86 73 87 74 88
REMARK SMILES IDX 80 89 82 90 75 91 76 92 77 93 78 94 79 95 55 96 56 97 65 98
REMARK SMILES IDX 57 99 58 100 64 101 66 102 59 103 60 104 61 105 62 106
REMARK SMILES IDX 63 107
REMARK H PARENT 21 6 7 11 3 17 25 38 87 57 53 68
REMARK Flexibility Score: inf
ROOT
ATOM      1  C   UNL     1      -1.722   4.676  -7.754  1.00  0.00     0.042 C 
ENDROOT
BRANCH   1   2
ATOM      2  C   UNL     1      -2.140   3.627  -6.741  1.00  0.00     0.117 C 
BRANCH   2   3
ATOM      3  N   UNL     1      -1.339   2.441  -6.570  1.00  0.00    -0.354 N 
ATOM      4  C   UNL     1      -1.573   1.516  -5.577  1.00  0.00     0.242 C 
ATOM      5  O   UNL     1      -1.561   0.325  -5.911  1.00  0.00    -0.273 OA
ATOM      6  H   UNL     1      -0.591   2.285  -7.191  1.00  0.00     0.163 HD
BRANCH   4   7
ATOM      7  C   UNL     1      -1.916   1.910  -4.098  1.00  0.00     0.175 C 
BRANCH   7   8
ATOM      8  N   UNL     1      -1.417   3.204  -3.615  1.00  0.00    -0.342 N 
ATOM      9  C   UNL     1      -0.262   3.514  -2.950  1.00  0.00     0.244 C 
ATOM     10  O   UNL     1      -0.072   4.704  -2.679  1.00  0.00    -0.273 OA
ATOM     11  H   UNL     1      -2.006   3.970  -3.800  1.00  0.00     0.164 HD
BRANCH   9  12
ATOM     12  C   UNL     1       0.777   2.443  -2.526  1.00  0.00     0.195 C 
ATOM     13  C   UNL     1       0.785  -0.286  -0.042  1.00  0.00     0.169 C 
ATOM     14  N   UNL     1       0.872   0.334  -1.350  1.00  0.00    -0.276 N 
ATOM     15  N   UNL     1       0.101   1.493  -1.613  1.00  0.00    -0.215 NA
ATOM     16  C   UNL     1       1.494  -0.364  -2.392  1.00  0.00     0.268 C 
ATOM     17  H   UNL     1      -0.084   1.968  -0.729  1.00  0.00     0.149 HD
ATOM     18  C   UNL     1       1.721   0.396  -3.652  1.00  0.00     0.046 A 
ATOM     19  O   UNL     1       1.913  -1.513  -2.279  1.00  0.00    -0.268 OA
ATOM     20  C   UNL     1       1.449   1.771  -3.700  1.00  0.00    -0.007 A 
ATOM     21  C   UNL     1       2.318  -0.246  -4.745  1.00  0.00     0.014 A 
ATOM     22  C   UNL     1       1.889   2.510  -4.811  1.00  0.00     0.007 A 
ATOM     23  C   UNL     1       2.701   0.492  -5.865  1.00  0.00     0.001 A 
ATOM     24  C   UNL     1       2.509   1.872  -5.886  1.00  0.00     0.000 A 
ENDBRANCH   9  12
ENDBRANCH   7   8
BRANCH   7  25
ATOM     25  C   UNL     1      -3.375   1.596  -3.607  1.00  0.00     0.068 C 
BRANCH  25  26
ATOM     26  C   UNL     1      -4.548   2.526  -3.918  1.00  0.00    -0.037 C 
ATOM     27  C   UNL     1      -4.714   3.717  -3.313  1.00  0.00     0.001 A 
ATOM     28  C   UNL     1      -4.955   2.635  -5.355  1.00  0.00     0.174 C 
ATOM     29  C   UNL     1      -5.926   4.218  -2.658  1.00  0.00     0.010 A 
ATOM     30  C   UNL     1      -4.524   4.580  -4.521  1.00  0.00     0.065 A 
ATOM     31  N   UNL     1      -4.690   4.048  -5.688  1.00  0.00    -0.280 NA
ATOM     32  C   UNL     1      -6.119   5.556  -2.642  1.00  0.00     0.001 A 
ATOM     33  C   UNL     1      -4.297   5.998  -4.192  1.00  0.00     0.028 A 
ATOM     34  C   UNL     1      -5.116   6.446  -3.224  1.00  0.00     0.002 A 
ENDBRANCH  25  26
ENDBRANCH   7  25
ENDBRANCH   4   7
ENDBRANCH   2   3
ENDBRANCH   1   2
BRANCH   1  35
ATOM     35  C   UNL     1      -2.346   4.473  -9.138  1.00  0.00     0.118 C 
BRANCH  35  36
ATOM     36  N   UNL     1      -3.814   4.500  -9.195  1.00  0.00    -0.352 N 
ATOM     37  C   UNL     1      -4.775   5.423  -9.569  1.00  0.00     0.251 C 
ATOM     38  H   UNL     1      -4.212   3.652  -8.892  1.00  0.00     0.163 HD
ATOM     39  O   UNL     1      -5.949   5.091  -9.532  1.00  0.00    -0.269 OA
BRANCH  37  40
ATOM     40  C   UNL     1      -4.433   6.817  -9.947  1.00  0.00     0.039 A 
ATOM     41  C   UNL     1      -3.250   7.134 -10.589  1.00  0.00     0.014 A 
ATOM     42  C   UNL     1      -5.324   7.854  -9.626  1.00  0.00     0.014 A 
ATOM     43  C   UNL     1      -2.813   8.450 -10.620  1.00  0.00     0.010 A 
ATOM     44  C   UNL     1      -4.950   9.194  -9.815  1.00  0.00     0.010 A 
ATOM     45  C   UNL     1      -3.648   9.508 -10.225  1.00  0.00    -0.014 A 
BRANCH  45  46
ATOM     46  C   UNL     1      -3.096  10.896 -10.214  1.00  0.00     0.031 A 
ATOM     47  C   UNL     1      -3.087  11.719  -8.945  1.00  0.00     0.074 A 
ATOM     48  C   UNL     1      -2.480  11.373 -11.318  1.00  0.00     0.049 A 
ATOM     49  N   UNL     1      -2.601  12.919  -8.746  1.00  0.00    -0.248 NA
ATOM     50  C   UNL     1      -3.707  11.131  -7.746  1.00  0.00     0.031 C 
ATOM     51  C   UNL     1      -2.408  10.680 -12.608  1.00  0.00     0.029 A 
ATOM     52  N   UNL     1      -1.743  12.513 -11.521  1.00  0.00    -0.354 N 
ATOM     53  C   UNL     1      -2.890  13.241  -7.424  1.00  0.00     0.074 A 
ATOM     54  C   UNL     1      -3.613  12.120  -6.868  1.00  0.00     0.031 C 
ATOM     55  C   UNL     1      -1.577  11.345 -13.422  1.00  0.00     0.029 A 
ATOM     56  C   UNL     1      -1.141  12.567 -12.758  1.00  0.00     0.049 A 
ATOM     57  H   UNL     1      -1.653  13.224 -10.846  1.00  0.00     0.167 HD
ATOM     58  C   UNL     1      -2.571  14.361  -6.731  1.00  0.00     0.037 A 
ATOM     59  C   UNL     1      -0.341  13.498 -13.312  1.00  0.00     0.037 A 
ATOM     60  C   UNL     1      -1.799  15.452  -7.267  1.00  0.00     0.049 A 
ATOM     61  C   UNL     1      -0.013  14.734 -12.527  1.00  0.00     0.074 A 
ATOM     62  C   UNL     1      -1.416  16.624  -6.637  1.00  0.00     0.029 A 
ATOM     63  N   UNL     1      -1.276  15.499  -8.550  1.00  0.00    -0.354 N 
ATOM     64  N   UNL     1      -0.338  15.033 -11.293  1.00  0.00    -0.248 NA
ATOM     65  C   UNL     1       0.763  15.773 -13.218  1.00  0.00     0.031 C 
ATOM     66  C   UNL     1      -0.689  17.395  -7.550  1.00  0.00     0.029 A 
ATOM     67  C   UNL     1      -0.585  16.685  -8.736  1.00  0.00     0.049 A 
ATOM     68  H   UNL     1      -1.381  14.794  -9.229  1.00  0.00     0.167 HD
ATOM     69  C   UNL     1       0.187  16.298 -11.060  1.00  0.00     0.074 A 
ATOM     70  C   UNL     1       0.878  16.694 -12.271  1.00  0.00     0.031 C 
ATOM     71  C   UNL     1       0.092  17.067  -9.948  1.00  0.00     0.037 A 
BRANCH  58  72
ATOM     72  C   UNL     1      -3.057  14.478  -5.311  1.00  0.00     0.058 A 
ATOM     73  C   UNL     1      -2.473  13.748  -4.265  1.00  0.00     0.135 A 
ATOM     74  C   UNL     1      -4.077  15.388  -4.983  1.00  0.00     0.135 A 
ATOM     75  F   UNL     1      -1.508  12.850  -4.524  1.00  0.00    -0.206 F 
ATOM     76  C   UNL     1      -2.889  13.906  -2.946  1.00  0.00     0.059 A 
ATOM     77  C   UNL     1      -4.493  15.580  -3.668  1.00  0.00     0.059 A 
ATOM     78  F   UNL     1      -4.671  16.112  -5.945  1.00  0.00    -0.206 F 
ATOM     79  C   UNL     1      -3.897  14.828  -2.657  1.00  0.00     0.060 A 
BRANCH  79  80
ATOM     80  S   UNL     1      -4.409  15.035  -0.938  1.00  0.00     0.124 S 
ATOM     81  O   UNL     1      -5.114  13.780  -0.691  1.00  0.00    -0.237 OA
ATOM     82  O   UNL     1      -3.131  15.187  -0.249  1.00  0.00    -0.237 OA
ATOM     83  O   UNL     1      -5.247  16.229  -0.972  1.00  0.00    -0.744 OA
ENDBRANCH  79  80
ENDBRANCH  58  72
BRANCH  59  84
ATOM     84  C   UNL     1       0.173  13.305 -14.694  1.00  0.00     0.058 A 
ATOM     85  C   UNL     1       1.534  13.068 -14.935  1.00  0.00     0.135 A 
ATOM     86  C   UNL     1      -0.694  13.314 -15.798  1.00  0.00     0.135 A 
ATOM     87  F   UNL     1       2.406  13.060 -13.914  1.00  0.00    -0.206 F 
ATOM     88  C   UNL     1       2.018  12.845 -16.221  1.00  0.00     0.059 A 
ATOM     89  C   UNL     1      -0.240  13.064 -17.088  1.00  0.00     0.059 A 
ATOM     90  F   UNL     1      -2.008  13.524 -15.619  1.00  0.00    -0.206 F 
ATOM     91  C   UNL     1       1.119  12.837 -17.290  1.00  0.00     0.060 A 
BRANCH  91  92
ATOM     92  S   UNL     1       1.742  12.473 -18.946  1.00  0.00     0.124 S 
ATOM     93  O   UNL     1       2.422  13.718 -19.283  1.00  0.00    -0.237 OA
ATOM     94  O   UNL     1       2.602  11.319 -18.704  1.00  0.00    -0.237 OA
ATOM     95  O   UNL     1       0.527  12.190 -19.705  1.00  0.00    -0.744 OA
ENDBRANCH  91  92
ENDBRANCH  59  84
BRANCH  71  96
ATOM     96  C   UNL     1       0.752  18.414  -9.986  1.00  0.00     0.058 A 
ATOM     97  C   UNL     1       0.183  19.483 -10.695  1.00  0.00     0.135 A 
ATOM     98  C   UNL     1       1.930  18.654  -9.263  1.00  0.00     0.135 A 
ATOM     99  F   UNL     1      -0.939  19.300 -11.409  1.00  0.00    -0.206 F 
ATOM    100  C   UNL     1       0.770  20.744 -10.697  1.00  0.00     0.059 A 
ATOM    101  C   UNL     1       2.522  19.913  -9.233  1.00  0.00     0.059 A 
ATOM    102  F   UNL     1       2.508  17.665  -8.563  1.00  0.00    -0.206 F 
ATOM    103  C   UNL     1       1.938  20.949  -9.961  1.00  0.00     0.060 A 
BRANCH 103 104
ATOM    104  S   UNL     1       2.666  22.601  -9.942  1.00  0.00     0.124 S 
ATOM    105  O   UNL     1       3.232  22.688 -11.284  1.00  0.00    -0.237 OA
ATOM    106  O   UNL     1       1.506  23.450  -9.687  1.00  0.00    -0.237 OA
ATOM    107  O   UNL     1       3.636  22.532  -8.853  1.00  0.00    -0.744 OA
ENDBRANCH 103 104
ENDBRANCH  71  96
ENDBRANCH  45  46
ENDBRANCH  37  40
ENDBRANCH  35  36
ENDBRANCH   1  35
TORSDOF 17
