REMARK SMILES CC(C)(C)C(=O)N1CCCC[C@@H]1C(=O)NCCCNC(=O)c1ccc(-c2c3nc(c(-c4c(F)cc(S(=O)(=O)[O-])cc4F)c4ccc([nH]4)c(-c4c(F)cc(S(=O)(=O)[O-])cc4F)c4nc(c(-c5c(F)cc(S(=O)(=O)[O-])cc5F)c5ccc2[nH]5)C=C4)C=C3)cc1
REMARK SMILES IDX 17 1 16 2 15 3 13 4 14 5 12 7 7 8 8 9 9 10 11 11 10 12 5 13
REMARK SMILES IDX 6 14 2 15 1 16 3 17 4 18 18 19 19 20 20 21 21 23 22 24 23 25
REMARK SMILES IDX 87 26 24 27 86 28 25 29 26 30 27 31 80 32 28 33 85 34 79 35
REMARK SMILES IDX 81 36 29 37 84 38 78 39 77 40 30 42 64 43 43 44 63 45 44 46
REMARK SMILES IDX 47 47 62 48 82 49 45 50 46 51 61 53 83 54 48 55 31 56 32 57
REMARK SMILES IDX 41 58 33 59 34 60 40 61 42 62 35 63 36 64 37 65 38 66 39 67
REMARK SMILES IDX 65 68 66 69 75 70 67 71 68 72 74 73 76 74 69 75 70 76 71 77
REMARK SMILES IDX 72 78 73 79 49 80 50 81 59 82 51 83 52 84 58 85 60 86 53 87
REMARK SMILES IDX 54 88 55 89 56 90 57 91
REMARK H PARENT 15 6 19 22 81 41 47 52
REMARK Flexibility Score: inf
ROOT
ATOM      1  C   UNL     1      -1.396  -3.877  -4.207  1.00  0.00     0.042 C 
ENDROOT
BRANCH   1   2
ATOM      2  C   UNL     1      -0.755  -3.174  -3.019  1.00  0.00     0.117 C 
BRANCH   2   3
ATOM      3  N   UNL     1      -1.757  -2.826  -2.023  1.00  0.00    -0.354 N 
ATOM      4  C   UNL     1      -1.932  -3.287  -0.755  1.00  0.00     0.242 C 
ATOM      5  O   UNL     1      -3.032  -3.090  -0.229  1.00  0.00    -0.273 OA
ATOM      6  H   UNL     1      -2.411  -2.150  -2.313  1.00  0.00     0.163 HD
BRANCH   4   7
ATOM      7  C   UNL     1      -0.862  -4.134  -0.034  1.00  0.00     0.174 C 
ATOM      8  N   UNL     1       0.536  -3.727  -0.297  1.00  0.00    -0.330 N 
ATOM      9  C   UNL     1       1.575  -4.741  -0.109  1.00  0.00     0.120 C 
ATOM     10  C   UNL     1       1.245  -6.083  -0.735  1.00  0.00     0.022 C 
ATOM     11  C   UNL     1      -1.174  -5.580  -0.499  1.00  0.00     0.035 C 
ATOM     12  C   UNL     1      -0.081  -6.590  -0.198  1.00  0.00     0.004 C 
BRANCH   8  13
ATOM     13  C   UNL     1       1.015  -2.424  -0.390  1.00  0.00     0.228 C 
ATOM     14  O   UNL     1       1.946  -2.212  -1.181  1.00  0.00    -0.274 OA
BRANCH  13  15
ATOM     15  C   UNL     1       0.605  -1.302   0.607  1.00  0.00     0.041 C 
ATOM     16  C   UNL     1       1.243   0.019   0.106  1.00  0.00     0.021 C 
ATOM     17  C   UNL     1       1.223  -1.654   1.969  1.00  0.00     0.021 C 
ATOM     18  C   UNL     1      -0.879  -1.006   0.802  1.00  0.00     0.021 C 
ENDBRANCH  13  15
ENDBRANCH   8  13
ENDBRANCH   4   7
ENDBRANCH   2   3
ENDBRANCH   1   2
BRANCH   1  19
ATOM     19  C   UNL     1      -2.366  -2.999  -4.981  1.00  0.00     0.118 C 
BRANCH  19  20
ATOM     20  N   UNL     1      -1.701  -1.909  -5.681  1.00  0.00    -0.352 N 
ATOM     21  C   UNL     1      -1.810  -1.555  -7.005  1.00  0.00     0.251 C 
ATOM     22  H   UNL     1      -1.096  -1.355  -5.136  1.00  0.00     0.163 HD
ATOM     23  O   UNL     1      -1.065  -0.715  -7.489  1.00  0.00    -0.269 OA
BRANCH  21  24
ATOM     24  C   UNL     1      -2.825  -2.231  -7.840  1.00  0.00     0.039 A 
ATOM     25  C   UNL     1      -2.442  -2.780  -9.065  1.00  0.00     0.014 A 
ATOM     26  C   UNL     1      -4.140  -2.361  -7.383  1.00  0.00     0.014 A 
ATOM     27  C   UNL     1      -3.367  -3.518  -9.806  1.00  0.00     0.010 A 
ATOM     28  C   UNL     1      -5.034  -3.162  -8.082  1.00  0.00     0.010 A 
ATOM     29  C   UNL     1      -4.659  -3.742  -9.304  1.00  0.00    -0.014 A 
BRANCH  29  30
ATOM     30  C   UNL     1      -5.654  -4.558 -10.044  1.00  0.00     0.031 A 
ATOM     31  C   UNL     1      -6.928  -3.917 -10.521  1.00  0.00     0.074 A 
ATOM     32  C   UNL     1      -5.454  -5.880 -10.210  1.00  0.00     0.049 A 
ATOM     33  N   UNL     1      -7.981  -4.471 -11.063  1.00  0.00    -0.248 NA
ATOM     34  C   UNL     1      -7.046  -2.461 -10.333  1.00  0.00     0.031 C 
ATOM     35  C   UNL     1      -4.276  -6.624  -9.755  1.00  0.00     0.029 A 
ATOM     36  N   UNL     1      -6.246  -6.839 -10.790  1.00  0.00    -0.354 N 
ATOM     37  C   UNL     1      -8.894  -3.440 -11.255  1.00  0.00     0.074 A 
ATOM     38  C   UNL     1      -8.291  -2.236 -10.726  1.00  0.00     0.031 C 
ATOM     39  C   UNL     1      -4.418  -7.918 -10.085  1.00  0.00     0.029 A 
ATOM     40  C   UNL     1      -5.712  -8.105 -10.736  1.00  0.00     0.049 A 
ATOM     41  H   UNL     1      -7.116  -6.640 -11.206  1.00  0.00     0.167 HD
ATOM     42  C   UNL     1     -10.114  -3.488 -11.838  1.00  0.00     0.037 A 
ATOM     43  C   UNL     1      -6.215  -9.285 -11.150  1.00  0.00     0.037 A 
ATOM     44  C   UNL     1     -10.690  -4.684 -12.395  1.00  0.00     0.049 A 
ATOM     45  C   UNL     1      -7.571  -9.314 -11.804  1.00  0.00     0.074 A 
ATOM     46  C   UNL     1     -11.895  -4.829 -13.059  1.00  0.00     0.029 A 
ATOM     47  N   UNL     1     -10.099  -5.938 -12.356  1.00  0.00    -0.354 N 
ATOM     48  N   UNL     1      -8.400  -8.321 -12.022  1.00  0.00    -0.248 NA
ATOM     49  C   UNL     1      -8.058 -10.619 -12.271  1.00  0.00     0.031 C 
ATOM     50  C   UNL     1     -12.050  -6.179 -13.388  1.00  0.00     0.029 A 
ATOM     51  C   UNL     1     -10.921  -6.866 -12.973  1.00  0.00     0.049 A 
ATOM     52  H   UNL     1      -9.225  -6.139 -11.950  1.00  0.00     0.167 HD
ATOM     53  C   UNL     1      -9.492  -8.875 -12.682  1.00  0.00     0.074 A 
ATOM     54  C   UNL     1      -9.216 -10.290 -12.830  1.00  0.00     0.031 C 
ATOM     55  C   UNL     1     -10.618  -8.268 -13.129  1.00  0.00     0.037 A 
BRANCH  42  56
ATOM     56  C   UNL     1     -10.904  -2.211 -11.909  1.00  0.00     0.058 A 
ATOM     57  C   UNL     1     -10.521  -1.153 -12.750  1.00  0.00     0.135 A 
ATOM     58  C   UNL     1     -12.072  -2.050 -11.147  1.00  0.00     0.135 A 
ATOM     59  F   UNL     1      -9.403  -1.246 -13.488  1.00  0.00    -0.206 F 
ATOM     60  C   UNL     1     -11.249   0.030 -12.808  1.00  0.00     0.059 A 
ATOM     61  C   UNL     1     -12.833  -0.886 -11.211  1.00  0.00     0.059 A 
ATOM     62  F   UNL     1     -12.483  -3.029 -10.325  1.00  0.00    -0.206 F 
ATOM     63  C   UNL     1     -12.404   0.155 -12.033  1.00  0.00     0.060 A 
BRANCH  63  64
ATOM     64  S   UNL     1     -13.339   1.696 -12.122  1.00  0.00     0.124 S 
ATOM     65  O   UNL     1     -12.478   2.602 -11.368  1.00  0.00    -0.237 OA
ATOM     66  O   UNL     1     -13.408   1.938 -13.560  1.00  0.00    -0.237 OA
ATOM     67  O   UNL     1     -14.609   1.360 -11.485  1.00  0.00    -0.744 OA
ENDBRANCH  63  64
ENDBRANCH  42  56
BRANCH  43  68
ATOM     68  C   UNL     1      -5.423 -10.533 -10.978  1.00  0.00     0.058 A 
ATOM     69  C   UNL     1      -4.855 -11.183 -12.083  1.00  0.00     0.135 A 
ATOM     70  C   UNL     1      -5.206 -11.091  -9.709  1.00  0.00     0.135 A 
ATOM     71  F   UNL     1      -5.040 -10.691 -13.318  1.00  0.00    -0.206 F 
ATOM     72  C   UNL     1      -4.114 -12.352 -11.941  1.00  0.00     0.059 A 
ATOM     73  C   UNL     1      -4.448 -12.246  -9.538  1.00  0.00     0.059 A 
ATOM     74  F   UNL     1      -5.713 -10.498  -8.617  1.00  0.00    -0.206 F 
ATOM     75  C   UNL     1      -3.914 -12.875 -10.662  1.00  0.00     0.060 A 
BRANCH  75  76
ATOM     76  S   UNL     1      -2.911 -14.366 -10.483  1.00  0.00     0.124 S 
ATOM     77  O   UNL     1      -3.816 -15.392 -10.986  1.00  0.00    -0.237 OA
ATOM     78  O   UNL     1      -1.757 -14.062 -11.324  1.00  0.00    -0.237 OA
ATOM     79  O   UNL     1      -2.635 -14.414  -9.050  1.00  0.00    -0.744 OA
ENDBRANCH  75  76
ENDBRANCH  43  68
BRANCH  55  80
ATOM     80  C   UNL     1     -11.620  -9.111 -13.866  1.00  0.00     0.058 A 
ATOM     81  C   UNL     1     -12.456 -10.019 -13.198  1.00  0.00     0.135 A 
ATOM     82  C   UNL     1     -11.799  -8.946 -15.249  1.00  0.00     0.135 A 
ATOM     83  F   UNL     1     -12.320 -10.218 -11.878  1.00  0.00    -0.206 F 
ATOM     84  C   UNL     1     -13.428 -10.744 -13.880  1.00  0.00     0.059 A 
ATOM     85  C   UNL     1     -12.781  -9.642 -15.946  1.00  0.00     0.059 A 
ATOM     86  F   UNL     1     -11.031  -8.082 -15.932  1.00  0.00    -0.206 F 
ATOM     87  C   UNL     1     -13.587 -10.544 -15.253  1.00  0.00     0.060 A 
BRANCH  87  88
ATOM     88  S   UNL     1     -14.890 -11.449 -16.114  1.00  0.00     0.124 S 
ATOM     89  O   UNL     1     -14.322 -12.792 -16.178  1.00  0.00    -0.237 OA
ATOM     90  O   UNL     1     -16.030 -11.285 -15.218  1.00  0.00    -0.237 OA
ATOM     91  O   UNL     1     -15.000 -10.752 -17.392  1.00  0.00    -0.744 OA
ENDBRANCH  87  88
ENDBRANCH  55  80
ENDBRANCH  29  30
ENDBRANCH  21  24
ENDBRANCH  19  20
ENDBRANCH   1  19
TORSDOF 15
