REMARK SMILES [H]/N=C1\C=CC2=NC(C(=O)NCCCNC(=O)c3ccc(-c4c5nc(c(-c6c(F)cc(S(=O)(=O)[O-])cc6F)c6ccc([nH]6)c(-c6c(F)cc(S(=O)(=O)[O-])cc6F)c6nc(c(-c7c(F)cc(S(=O)(=O)[O-])cc7F)c7ccc4[nH]7)C=C6)C=C5)cc3)=C[C@@H]2C1
REMARK SMILES IDX 15 1 16 2 17 3 14 5 13 6 12 7 11 8 9 9 10 10 8 12 2 13 3 14
REMARK SMILES IDX 1 15 4 16 86 17 5 18 85 19 6 20 84 21 7 22 18 23 19 24 83 25
REMARK SMILES IDX 20 26 82 27 21 28 22 29 23 30 76 31 24 32 81 33 75 34 77 35
REMARK SMILES IDX 25 36 80 37 74 38 73 39 26 41 60 42 39 43 59 44 40 45 43 46
REMARK SMILES IDX 58 47 78 48 41 49 42 50 57 52 79 53 44 54 27 55 28 56 37 57
REMARK SMILES IDX 29 58 30 59 36 60 38 61 31 62 32 63 33 64 34 65 35 66 61 67
REMARK SMILES IDX 62 68 71 69 63 70 64 71 70 72 72 73 65 74 66 75 67 76 68 77
REMARK SMILES IDX 69 78 45 79 46 80 55 81 47 82 48 83 54 84 56 85 49 86 50 87
REMARK SMILES IDX 51 88 52 89 53 90
REMARK H PARENT 15 4 11 11 77 40 43 51
REMARK Flexibility Score: inf
ROOT
ATOM      1  N   UNL     1      -8.956  -0.772  -4.498  1.00  0.00    -0.352 N 
ATOM      2  C   UNL     1     -10.173  -0.882  -5.164  1.00  0.00     0.251 C 
ATOM      3  O   UNL     1     -11.107  -1.490  -4.668  1.00  0.00    -0.269 OA
ATOM      4  H   UNL     1      -8.802  -1.417  -3.771  1.00  0.00     0.163 HD
ENDROOT
BRANCH   1   5
ATOM      5  C   UNL     1      -7.873   0.190  -4.748  1.00  0.00     0.118 C 
BRANCH   5   6
ATOM      6  C   UNL     1      -6.733   0.101  -3.743  1.00  0.00     0.042 C 
BRANCH   6   7
ATOM      7  C   UNL     1      -5.881  -1.153  -3.968  1.00  0.00     0.118 C 
BRANCH   7   8
ATOM      8  N   UNL     1      -5.056  -1.025  -5.158  1.00  0.00    -0.351 N 
ATOM      9  C   UNL     1      -3.733  -0.798  -5.377  1.00  0.00     0.269 C 
ATOM     10  O   UNL     1      -3.378  -0.698  -6.553  1.00  0.00    -0.268 OA
ATOM     11  H   UNL     1      -5.570  -1.124  -5.992  1.00  0.00     0.163 HD
BRANCH   9  12
ATOM     12  C   UNL     1      -2.712  -0.783  -4.271  1.00  0.00     0.125 C 
ATOM     13  N   UNL     1       0.997   0.114   0.104  1.00  0.00    -0.305 NA
ATOM     14  C   UNL     1       0.461  -0.143  -1.045  1.00  0.00     0.032 C 
ATOM     15  H   UNL     1       1.962  -0.028   0.239  1.00  0.00     0.187 HD
ATOM     16  C   UNL     1       1.274  -0.609  -2.199  1.00  0.00     0.025 C 
ATOM     17  C   UNL     1      -1.032   0.088  -1.215  1.00  0.00     0.069 C 
ATOM     18  C   UNL     1       0.710  -0.982  -3.352  1.00  0.00     0.026 C 
ATOM     19  C   UNL     1      -1.607  -0.857  -2.241  1.00  0.00     0.069 C 
ATOM     20  C   UNL     1      -0.750  -0.959  -3.471  1.00  0.00     0.049 C 
ATOM     21  C   UNL     1      -2.868  -0.508  -2.965  1.00  0.00     0.017 C 
ATOM     22  N   UNL     1      -1.389  -1.036  -4.590  1.00  0.00    -0.247 NA
ENDBRANCH   9  12
ENDBRANCH   7   8
ENDBRANCH   6   7
ENDBRANCH   5   6
ENDBRANCH   1   5
BRANCH   2  23
ATOM     23  C   UNL     1     -10.295  -0.245  -6.490  1.00  0.00     0.039 A 
ATOM     24  C   UNL     1     -11.442   0.427  -6.917  1.00  0.00     0.014 A 
ATOM     25  C   UNL     1      -9.165  -0.285  -7.293  1.00  0.00     0.014 A 
ATOM     26  C   UNL     1     -11.393   1.118  -8.130  1.00  0.00     0.010 A 
ATOM     27  C   UNL     1      -9.033   0.613  -8.308  1.00  0.00     0.010 A 
ATOM     28  C   UNL     1     -10.169   1.218  -8.813  1.00  0.00    -0.014 A 
BRANCH  28  29
ATOM     29  C   UNL     1     -10.012   1.975 -10.049  1.00  0.00     0.031 A 
ATOM     30  C   UNL     1     -10.496   3.380  -9.984  1.00  0.00     0.074 A 
ATOM     31  C   UNL     1      -9.287   1.511 -11.095  1.00  0.00     0.049 A 
ATOM     32  N   UNL     1     -11.510   3.895 -10.594  1.00  0.00    -0.248 NA
ATOM     33  C   UNL     1      -9.868   4.285  -9.008  1.00  0.00     0.031 C 
ATOM     34  C   UNL     1      -8.475   0.287 -11.204  1.00  0.00     0.029 A 
ATOM     35  N   UNL     1      -9.053   2.110 -12.290  1.00  0.00    -0.354 N 
ATOM     36  C   UNL     1     -11.525   5.244 -10.250  1.00  0.00     0.074 A 
ATOM     37  C   UNL     1     -10.612   5.385  -9.145  1.00  0.00     0.031 C 
ATOM     38  C   UNL     1      -7.664   0.364 -12.283  1.00  0.00     0.029 A 
ATOM     39  C   UNL     1      -8.041   1.533 -13.051  1.00  0.00     0.049 A 
ATOM     40  H   UNL     1      -9.562   2.895 -12.597  1.00  0.00     0.167 HD
ATOM     41  C   UNL     1     -12.136   6.173 -11.038  1.00  0.00     0.037 A 
ATOM     42  C   UNL     1      -7.552   1.992 -14.231  1.00  0.00     0.037 A 
ATOM     43  C   UNL     1     -13.011   5.544 -11.996  1.00  0.00     0.049 A 
ATOM     44  C   UNL     1      -8.593   2.896 -14.790  1.00  0.00     0.074 A 
ATOM     45  C   UNL     1     -14.140   4.754 -11.891  1.00  0.00     0.029 A 
ATOM     46  N   UNL     1     -12.525   5.329 -13.265  1.00  0.00    -0.354 N 
ATOM     47  N   UNL     1      -9.778   2.489 -15.163  1.00  0.00    -0.248 NA
ATOM     48  C   UNL     1      -8.495   4.308 -14.458  1.00  0.00     0.031 C 
ATOM     49  C   UNL     1     -13.975   3.745 -12.885  1.00  0.00     0.029 A 
ATOM     50  C   UNL     1     -12.806   4.024 -13.596  1.00  0.00     0.049 A 
ATOM     51  H   UNL     1     -12.062   5.987 -13.832  1.00  0.00     0.167 HD
ATOM     52  C   UNL     1     -10.653   3.473 -14.722  1.00  0.00     0.074 A 
ATOM     53  C   UNL     1      -9.795   4.598 -14.347  1.00  0.00     0.031 C 
ATOM     54  C   UNL     1     -11.959   3.194 -14.430  1.00  0.00     0.037 A 
BRANCH  41  55
ATOM     55  C   UNL     1     -11.714   7.617 -11.149  1.00  0.00     0.058 A 
ATOM     56  C   UNL     1     -12.545   8.542 -11.814  1.00  0.00     0.135 A 
ATOM     57  C   UNL     1     -10.412   8.076 -10.849  1.00  0.00     0.135 A 
ATOM     58  F   UNL     1     -13.798   8.209 -12.161  1.00  0.00    -0.206 F 
ATOM     59  C   UNL     1     -12.098   9.808 -12.197  1.00  0.00     0.059 A 
ATOM     60  C   UNL     1      -9.963   9.351 -11.174  1.00  0.00     0.059 A 
ATOM     61  F   UNL     1      -9.482   7.278 -10.311  1.00  0.00    -0.206 F 
ATOM     62  C   UNL     1     -10.800  10.199 -11.882  1.00  0.00     0.060 A 
BRANCH  62  63
ATOM     63  S   UNL     1     -10.192  11.796 -12.452  1.00  0.00     0.124 S 
ATOM     64  O   UNL     1     -10.134  11.589 -13.894  1.00  0.00    -0.237 OA
ATOM     65  O   UNL     1     -11.233  12.702 -11.977  1.00  0.00    -0.237 OA
ATOM     66  O   UNL     1      -8.903  11.925 -11.780  1.00  0.00    -0.744 OA
ENDBRANCH  62  63
ENDBRANCH  41  55
BRANCH  42  67
ATOM     67  C   UNL     1      -6.133   2.018 -14.678  1.00  0.00     0.058 A 
ATOM     68  C   UNL     1      -5.792   2.280 -16.017  1.00  0.00     0.135 A 
ATOM     69  C   UNL     1      -5.076   2.080 -13.746  1.00  0.00     0.135 A 
ATOM     70  F   UNL     1      -6.739   2.264 -16.967  1.00  0.00    -0.206 F 
ATOM     71  C   UNL     1      -4.491   2.632 -16.402  1.00  0.00     0.059 A 
ATOM     72  C   UNL     1      -3.772   2.424 -14.107  1.00  0.00     0.059 A 
ATOM     73  F   UNL     1      -5.303   1.899 -12.436  1.00  0.00    -0.206 F 
ATOM     74  C   UNL     1      -3.491   2.724 -15.435  1.00  0.00     0.060 A 
BRANCH  74  75
ATOM     75  S   UNL     1      -1.857   3.352 -15.899  1.00  0.00     0.124 S 
ATOM     76  O   UNL     1      -1.333   2.261 -16.714  1.00  0.00    -0.237 OA
ATOM     77  O   UNL     1      -2.190   4.578 -16.616  1.00  0.00    -0.237 OA
ATOM     78  O   UNL     1      -1.190   3.548 -14.615  1.00  0.00    -0.744 OA
ENDBRANCH  74  75
ENDBRANCH  42  67
BRANCH  54  79
ATOM     79  C   UNL     1     -12.513   1.841 -14.818  1.00  0.00     0.058 A 
ATOM     80  C   UNL     1     -12.089   0.614 -14.273  1.00  0.00     0.135 A 
ATOM     81  C   UNL     1     -13.643   1.806 -15.648  1.00  0.00     0.135 A 
ATOM     82  F   UNL     1     -11.079   0.561 -13.396  1.00  0.00    -0.206 F 
ATOM     83  C   UNL     1     -12.739  -0.591 -14.563  1.00  0.00     0.059 A 
ATOM     84  C   UNL     1     -14.325   0.623 -15.927  1.00  0.00     0.059 A 
ATOM     85  F   UNL     1     -14.138   2.947 -16.155  1.00  0.00    -0.206 F 
ATOM     86  C   UNL     1     -13.861  -0.575 -15.389  1.00  0.00     0.060 A 
BRANCH  86  87
ATOM     87  S   UNL     1     -14.752  -2.116 -15.703  1.00  0.00     0.124 S 
ATOM     88  O   UNL     1     -13.822  -2.840 -16.563  1.00  0.00    -0.237 OA
ATOM     89  O   UNL     1     -14.929  -2.662 -14.361  1.00  0.00    -0.237 OA
ATOM     90  O   UNL     1     -15.983  -1.672 -16.352  1.00  0.00    -0.744 OA
ENDBRANCH  86  87
ENDBRANCH  54  79
ENDBRANCH  28  29
ENDBRANCH   2  23
TORSDOF 13
