REMARK SMILES Cc1coc2cc3c(cc12)[C@@H](C)[C@H](CCC(=O)N[C@@H](Cc1c[nH]c2ccccc12)C(=O)NCCCNC(=O)c1ccc(-c2c4nc(c(-c5c(F)cc(S(=O)(=O)[O-])cc5F)c5ccc([nH]5)c(-c5c(F)cc(S(=O)(=O)[O-])cc5F)c5nc(c(-c6c(F)cc(S(=O)(=O)[O-])cc6F)c6ccc2[nH]6)C=C5)C=C4)cc1)C(=O)O3
REMARK SMILES IDX 33 1 32 2 30 3 31 4 19 6 18 7 16 8 17 9 15 11 14 12 13 13
REMARK SMILES IDX 1 14 2 15 3 16 10 17 4 18 5 19 9 20 6 21 8 22 7 23 11 24
REMARK SMILES IDX 107 25 12 26 105 27 106 28 20 29 21 30 22 31 29 32 23 33
REMARK SMILES IDX 24 34 28 35 25 37 27 38 26 39 34 40 35 41 36 42 37 43 38 45
REMARK SMILES IDX 39 46 40 47 104 48 41 49 103 50 42 51 43 52 44 53 97 54
REMARK SMILES IDX 45 55 102 56 96 57 98 58 46 59 101 60 95 61 94 62 47 64
REMARK SMILES IDX 81 65 60 66 80 67 61 68 64 69 79 70 99 71 62 72 63 73 78 75
REMARK SMILES IDX 100 76 65 77 48 78 49 79 58 80 50 81 51 82 57 83 59 84 52 85
REMARK SMILES IDX 53 86 54 87 55 88 56 89 82 90 83 91 92 92 84 93 85 94 91 95
REMARK SMILES IDX 93 96 86 97 87 98 88 99 89 100 90 101 66 102 67 103 76 104
REMARK SMILES IDX 68 105 69 106 75 107 77 108 70 109 71 110 72 111 73 112
REMARK SMILES IDX 74 113
REMARK H PARENT 32 5 18 10 23 36 36 44 98 63 64 74
REMARK Flexibility Score: inf
ROOT
ATOM      1  C   UNL     1      -8.365   0.101  -7.711  1.00  0.00     0.117 C 
ENDROOT
BRANCH   1   2
ATOM      2  N   UNL     1      -7.639  -1.005  -7.137  1.00  0.00    -0.354 N 
ATOM      3  C   UNL     1      -6.556  -0.937  -6.318  1.00  0.00     0.242 C 
ATOM      4  O   UNL     1      -6.303  -1.932  -5.627  1.00  0.00    -0.273 OA
ATOM      5  H   UNL     1      -7.964  -1.907  -7.363  1.00  0.00     0.163 HD
BRANCH   3   6
ATOM      6  C   UNL     1      -5.696   0.336  -6.188  1.00  0.00     0.175 C 
BRANCH   6   7
ATOM      7  N   UNL     1      -5.176   0.884  -7.455  1.00  0.00    -0.344 N 
ATOM      8  C   UNL     1      -3.918   0.896  -7.981  1.00  0.00     0.220 C 
ATOM      9  O   UNL     1      -3.780   1.286  -9.143  1.00  0.00    -0.275 OA
ATOM     10  H   UNL     1      -5.857   1.318  -8.019  1.00  0.00     0.164 HD
BRANCH   8  11
ATOM     11  C   UNL     1      -2.690   0.465  -7.183  1.00  0.00     0.101 C 
BRANCH  11  12
ATOM     12  C   UNL     1      -2.057   1.608  -6.364  1.00  0.00     0.026 C 
BRANCH  12  13
ATOM     13  C   UNL     1      -2.767   1.815  -5.023  1.00  0.00     0.107 C 
ATOM     14  C   UNL     1       1.302  -0.150   0.468  1.00  0.00     0.048 C 
ATOM     15  C   UNL     1       1.082   1.213  -0.063  1.00  0.00    -0.005 A 
ATOM     16  C   UNL     1       1.643   2.389   0.392  1.00  0.00     0.199 A 
ATOM     17  C   UNL     1       0.249   1.585  -1.155  1.00  0.00     0.024 A 
ATOM     18  O   UNL     1       1.238   3.446  -0.355  1.00  0.00    -0.464 OA
ATOM     19  C   UNL     1       0.397   2.957  -1.304  1.00  0.00     0.137 A 
ATOM     20  C   UNL     1      -0.613   0.901  -2.028  1.00  0.00     0.020 A 
ATOM     21  C   UNL     1      -0.232   3.708  -2.283  1.00  0.00     0.095 A 
ATOM     22  C   UNL     1      -1.303   1.625  -3.013  1.00  0.00    -0.001 A 
ATOM     23  C   UNL     1      -1.084   3.000  -3.131  1.00  0.00     0.138 A 
ATOM     24  C   UNL     1      -2.303   0.914  -3.879  1.00  0.00     0.034 C 
ATOM     25  O   UNL     1      -1.746   3.802  -4.064  1.00  0.00    -0.426 OA
ATOM     26  C   UNL     1      -3.498   0.441  -3.027  1.00  0.00     0.014 C 
ATOM     27  C   UNL     1      -2.862   3.267  -4.640  1.00  0.00     0.314 C 
ATOM     28  O   UNL     1      -3.848   3.962  -4.895  1.00  0.00    -0.251 OA
ENDBRANCH  12  13
ENDBRANCH  11  12
ENDBRANCH   8  11
ENDBRANCH   6   7
BRANCH   6  29
ATOM     29  C   UNL     1      -6.222   1.388  -5.177  1.00  0.00     0.072 C 
BRANCH  29  30
ATOM     30  C   UNL     1      -7.556   2.030  -5.341  1.00  0.00    -0.020 A 
ATOM     31  C   UNL     1      -8.760   1.556  -4.857  1.00  0.00     0.087 A 
ATOM     32  C   UNL     1      -7.819   3.328  -5.897  1.00  0.00     0.003 A 
ATOM     33  N   UNL     1      -9.749   2.416  -5.259  1.00  0.00    -0.361 N 
ATOM     34  C   UNL     1      -9.202   3.506  -5.893  1.00  0.00     0.046 A 
ATOM     35  C   UNL     1      -7.012   4.371  -6.403  1.00  0.00     0.010 A 
ATOM     36  H   UNL     1     -10.713   2.273  -5.115  1.00  0.00     0.166 HD
ATOM     37  C   UNL     1      -9.822   4.634  -6.444  1.00  0.00     0.026 A 
ATOM     38  C   UNL     1      -7.615   5.527  -6.914  1.00  0.00     0.001 A 
ATOM     39  C   UNL     1      -9.001   5.643  -6.954  1.00  0.00     0.002 A 
ENDBRANCH  29  30
ENDBRANCH   6  29
ENDBRANCH   3   6
ENDBRANCH   1   2
BRANCH   1  40
ATOM     40  C   UNL     1      -9.016  -0.205  -9.039  1.00  0.00     0.042 C 
BRANCH  40  41
ATOM     41  C   UNL     1     -10.259  -1.096  -8.933  1.00  0.00     0.118 C 
BRANCH  41  42
ATOM     42  N   UNL     1     -11.143  -0.799  -7.814  1.00  0.00    -0.352 N 
ATOM     43  C   UNL     1     -12.208   0.033  -7.604  1.00  0.00     0.251 C 
ATOM     44  H   UNL     1     -10.919  -1.326  -7.013  1.00  0.00     0.163 HD
ATOM     45  O   UNL     1     -12.761  -0.064  -6.504  1.00  0.00    -0.269 OA
BRANCH  43  46
ATOM     46  C   UNL     1     -12.705   1.058  -8.557  1.00  0.00     0.039 A 
ATOM     47  C   UNL     1     -11.995   1.517  -9.660  1.00  0.00     0.014 A 
ATOM     48  C   UNL     1     -13.933   1.675  -8.250  1.00  0.00     0.014 A 
ATOM     49  C   UNL     1     -12.435   2.625 -10.370  1.00  0.00     0.010 A 
ATOM     50  C   UNL     1     -14.405   2.760  -8.988  1.00  0.00     0.010 A 
ATOM     51  C   UNL     1     -13.632   3.263 -10.027  1.00  0.00    -0.014 A 
BRANCH  51  52
ATOM     52  C   UNL     1     -14.060   4.362 -10.890  1.00  0.00     0.031 A 
ATOM     53  C   UNL     1     -14.152   4.001 -12.333  1.00  0.00     0.074 A 
ATOM     54  C   UNL     1     -14.399   5.601 -10.485  1.00  0.00     0.049 A 
ATOM     55  N   UNL     1     -13.373   4.375 -13.295  1.00  0.00    -0.248 NA
ATOM     56  C   UNL     1     -15.138   2.983 -12.720  1.00  0.00     0.031 C 
ATOM     57  C   UNL     1     -14.619   6.092  -9.124  1.00  0.00     0.029 A 
ATOM     58  N   UNL     1     -14.679   6.693 -11.257  1.00  0.00    -0.354 N 
ATOM     59  C   UNL     1     -13.891   3.802 -14.453  1.00  0.00     0.074 A 
ATOM     60  C   UNL     1     -14.872   2.841 -14.020  1.00  0.00     0.031 C 
ATOM     61  C   UNL     1     -15.184   7.321  -9.178  1.00  0.00     0.029 A 
ATOM     62  C   UNL     1     -15.226   7.763 -10.562  1.00  0.00     0.049 A 
ATOM     63  H   UNL     1     -14.506   6.719 -12.226  1.00  0.00     0.167 HD
ATOM     64  C   UNL     1     -13.616   4.311 -15.686  1.00  0.00     0.037 A 
ATOM     65  C   UNL     1     -15.700   8.918 -11.095  1.00  0.00     0.037 A 
ATOM     66  C   UNL     1     -12.451   5.159 -15.656  1.00  0.00     0.049 A 
ATOM     67  C   UNL     1     -15.030   9.100 -12.406  1.00  0.00     0.074 A 
ATOM     68  C   UNL     1     -11.115   4.980 -15.355  1.00  0.00     0.029 A 
ATOM     69  N   UNL     1     -12.654   6.517 -15.656  1.00  0.00    -0.354 N 
ATOM     70  N   UNL     1     -13.754   9.335 -12.549  1.00  0.00    -0.248 NA
ATOM     71  C   UNL     1     -15.716   8.644 -13.604  1.00  0.00     0.031 C 
ATOM     72  C   UNL     1     -10.703   6.199 -14.740  1.00  0.00     0.029 A 
ATOM     73  C   UNL     1     -11.799   7.064 -14.735  1.00  0.00     0.049 A 
ATOM     74  H   UNL     1     -13.297   7.009 -16.216  1.00  0.00     0.167 HD
ATOM     75  C   UNL     1     -13.398   8.669 -13.711  1.00  0.00     0.074 A 
ATOM     76  C   UNL     1     -14.663   8.366 -14.374  1.00  0.00     0.031 C 
ATOM     77  C   UNL     1     -12.132   8.194 -13.894  1.00  0.00     0.037 A 
BRANCH  64  78
ATOM     78  C   UNL     1     -14.605   4.344 -16.832  1.00  0.00     0.058 A 
ATOM     79  C   UNL     1     -14.185   4.816 -18.095  1.00  0.00     0.135 A 
ATOM     80  C   UNL     1     -16.002   4.219 -16.667  1.00  0.00     0.135 A 
ATOM     81  F   UNL     1     -12.880   4.973 -18.369  1.00  0.00    -0.206 F 
ATOM     82  C   UNL     1     -15.087   5.220 -19.081  1.00  0.00     0.059 A 
ATOM     83  C   UNL     1     -16.916   4.566 -17.656  1.00  0.00     0.059 A 
ATOM     84  F   UNL     1     -16.559   3.849 -15.508  1.00  0.00    -0.206 F 
ATOM     85  C   UNL     1     -16.453   5.110 -18.841  1.00  0.00     0.060 A 
BRANCH  85  86
ATOM     86  S   UNL     1     -17.620   5.748 -20.055  1.00  0.00     0.124 S 
ATOM     87  O   UNL     1     -17.374   7.183 -19.966  1.00  0.00    -0.237 OA
ATOM     88  O   UNL     1     -17.169   5.095 -21.279  1.00  0.00    -0.237 OA
ATOM     89  O   UNL     1     -18.912   5.295 -19.548  1.00  0.00    -0.744 OA
ENDBRANCH  85  86
ENDBRANCH  64  78
BRANCH  65  90
ATOM     90  C   UNL     1     -16.911   9.691 -10.705  1.00  0.00     0.058 A 
ATOM     91  C   UNL     1     -17.181  10.952 -11.271  1.00  0.00     0.135 A 
ATOM     92  C   UNL     1     -17.976   9.086 -10.009  1.00  0.00     0.135 A 
ATOM     93  F   UNL     1     -16.231  11.600 -11.964  1.00  0.00    -0.206 F 
ATOM     94  C   UNL     1     -18.449  11.543 -11.213  1.00  0.00     0.059 A 
ATOM     95  C   UNL     1     -19.244   9.660  -9.928  1.00  0.00     0.059 A 
ATOM     96  F   UNL     1     -17.844   7.867  -9.465  1.00  0.00    -0.206 F 
ATOM     97  C   UNL     1     -19.483  10.875 -10.561  1.00  0.00     0.060 A 
BRANCH  97  98
ATOM     98  S   UNL     1     -21.163  11.538 -10.646  1.00  0.00     0.124 S 
ATOM     99  O   UNL     1     -21.046  12.761  -9.858  1.00  0.00    -0.237 OA
ATOM    100  O   UNL     1     -21.349  11.721 -12.082  1.00  0.00    -0.237 OA
ATOM    101  O   UNL     1     -21.975  10.485 -10.045  1.00  0.00    -0.744 OA
ENDBRANCH  97  98
ENDBRANCH  65  90
BRANCH  77 102
ATOM    102  C   UNL     1     -11.042   8.698 -12.983  1.00  0.00     0.058 A 
ATOM    103  C   UNL     1     -10.978   8.435 -11.603  1.00  0.00     0.135 A 
ATOM    104  C   UNL     1      -9.932   9.328 -13.568  1.00  0.00     0.135 A 
ATOM    105  F   UNL     1     -11.955   7.759 -10.983  1.00  0.00    -0.206 F 
ATOM    106  C   UNL     1      -9.868   8.799 -10.838  1.00  0.00     0.059 A 
ATOM    107  C   UNL     1      -8.803   9.672 -12.830  1.00  0.00     0.059 A 
ATOM    108  F   UNL     1      -9.911   9.559 -14.891  1.00  0.00    -0.206 F 
ATOM    109  C   UNL     1      -8.780   9.408 -11.462  1.00  0.00     0.060 A 
BRANCH 109 110
ATOM    110  S   UNL     1      -7.299   9.766 -10.490  1.00  0.00     0.124 S 
ATOM    111  O   UNL     1      -7.739  10.883  -9.661  1.00  0.00    -0.237 OA
ATOM    112  O   UNL     1      -7.071   8.507  -9.786  1.00  0.00    -0.237 OA
ATOM    113  O   UNL     1      -6.298  10.095 -11.502  1.00  0.00    -0.744 OA
ENDBRANCH 109 110
ENDBRANCH  77 102
ENDBRANCH  51  52
ENDBRANCH  43  46
ENDBRANCH  41  42
ENDBRANCH  40  41
ENDBRANCH   1  40
TORSDOF 19
