REMARK SMILES CCN1C(=O)c2ccccc2[S@@](=O)c2ccc(C(=O)NCCCNC(=O)c3ccc(-c4c5nc(c(-c6c(F)cc(S(=O)(=O)[O-])cc6F)c6ccc([nH]6)c(-c6c(F)cc(S(=O)(=O)[O-])cc6F)c6nc(c(-c7c(F)cc(S(=O)(=O)[O-])cc7F)c7ccc4[nH]7)C=C6)C=C5)cc3)cc21
REMARK SMILES IDX 23 1 22 2 21 3 20 4 18 5 19 6 17 8 3 9 4 10 94 11 5 12 6 13
REMARK SMILES IDX 14 14 93 15 7 16 11 17 12 18 15 19 8 20 10 21 13 22 16 23
REMARK SMILES IDX 9 24 2 25 1 26 24 27 25 28 26 30 27 31 28 32 92 33 29 34
REMARK SMILES IDX 91 35 30 36 31 37 32 38 85 39 33 40 90 41 84 42 86 43 34 44
REMARK SMILES IDX 89 45 83 46 82 47 35 49 69 50 48 51 68 52 49 53 52 54 67 55
REMARK SMILES IDX 87 56 50 57 51 58 66 60 88 61 53 62 36 63 37 64 46 65 38 66
REMARK SMILES IDX 39 67 45 68 47 69 40 70 41 71 42 72 43 73 44 74 70 75 71 76
REMARK SMILES IDX 80 77 72 78 73 79 79 80 81 81 74 82 75 83 76 84 77 85 78 86
REMARK SMILES IDX 54 87 55 88 64 89 56 90 57 91 63 92 65 93 58 94 59 95 60 96
REMARK SMILES IDX 61 97 62 98
REMARK H PARENT 20 7 24 29 86 48 52 59
REMARK Flexibility Score: inf
ROOT
ATOM      1  C   UNL     1       3.760   3.121   1.646  1.00  0.00     0.118 C 
ENDROOT
BRANCH   1   2
ATOM      2  C   UNL     1       3.192   2.192   0.570  1.00  0.00     0.042 C 
BRANCH   2   3
ATOM      3  C   UNL     1       4.085   2.083  -0.666  1.00  0.00     0.118 C 
BRANCH   3   4
ATOM      4  N   UNL     1       5.224   1.211  -0.430  1.00  0.00    -0.352 N 
ATOM      5  C   UNL     1       5.483  -0.124  -0.594  1.00  0.00     0.251 C 
ATOM      6  O   UNL     1       6.620  -0.489  -0.278  1.00  0.00    -0.269 OA
ATOM      7  H   UNL     1       5.997   1.699  -0.064  1.00  0.00     0.163 HD
BRANCH   5   8
ATOM      8  C   UNL     1       4.541  -1.151  -1.145  1.00  0.00     0.041 A 
ATOM      9  N   UNL     1       0.976  -1.577  -2.346  1.00  0.00    -0.307 N 
ATOM     10  C   UNL     1      -0.001  -2.410  -2.910  1.00  0.00     0.259 C 
ATOM     11  C   UNL     1       2.348  -1.940  -2.044  1.00  0.00     0.061 A 
ATOM     12  O   UNL     1      -0.902  -2.008  -3.647  1.00  0.00    -0.269 OA
ATOM     13  C   UNL     1      -0.180  -3.738  -2.307  1.00  0.00     0.056 A 
ATOM     14  C   UNL     1       2.957  -3.172  -2.367  1.00  0.00     0.068 A 
ATOM     15  C   UNL     1       3.184  -0.962  -1.428  1.00  0.00     0.041 A 
ATOM     16  C   UNL     1      -1.392  -3.971  -1.638  1.00  0.00     0.015 A 
ATOM     17  C   UNL     1       0.790  -4.724  -2.378  1.00  0.00     0.057 A 
ATOM     18  S   UNL     1       2.262  -4.515  -3.357  1.00  0.00     0.088 S 
ATOM     19  C   UNL     1       4.300  -3.402  -2.003  1.00  0.00     0.021 A 
ATOM     20  C   UNL     1      -1.620  -5.190  -1.008  1.00  0.00     0.001 A 
ATOM     21  C   UNL     1       0.556  -5.951  -1.738  1.00  0.00     0.019 A 
ATOM     22  O   UNL     1       1.834  -3.878  -4.644  1.00  0.00    -0.249 OA
ATOM     23  C   UNL     1       5.076  -2.411  -1.405  1.00  0.00     0.015 A 
ATOM     24  C   UNL     1      -0.641  -6.178  -1.050  1.00  0.00     0.001 A 
BRANCH   9  25
ATOM     25  C   UNL     1       0.455  -0.251  -1.982  1.00  0.00     0.122 C 
ATOM     26  C   UNL     1       0.120  -0.176  -0.490  1.00  0.00     0.028 C 
ENDBRANCH   9  25
ENDBRANCH   5   8
ENDBRANCH   3   4
ENDBRANCH   2   3
ENDBRANCH   1   2
BRANCH   1  27
ATOM     27  N   UNL     1       3.702   4.524   1.249  1.00  0.00    -0.352 N 
ATOM     28  C   UNL     1       2.963   5.571   1.746  1.00  0.00     0.251 C 
ATOM     29  H   UNL     1       4.291   4.761   0.497  1.00  0.00     0.163 HD
ATOM     30  O   UNL     1       2.907   6.617   1.099  1.00  0.00    -0.269 OA
BRANCH  28  31
ATOM     31  C   UNL     1       2.232   5.463   3.029  1.00  0.00     0.039 A 
ATOM     32  C   UNL     1       2.800   4.828   4.135  1.00  0.00     0.014 A 
ATOM     33  C   UNL     1       0.975   6.069   3.150  1.00  0.00     0.014 A 
ATOM     34  C   UNL     1       2.057   4.670   5.303  1.00  0.00     0.010 A 
ATOM     35  C   UNL     1       0.260   5.974   4.350  1.00  0.00     0.010 A 
ATOM     36  C   UNL     1       0.776   5.236   5.424  1.00  0.00    -0.014 A 
BRANCH  36  37
ATOM     37  C   UNL     1       0.008   5.028   6.681  1.00  0.00     0.031 A 
ATOM     38  C   UNL     1      -1.244   4.191   6.685  1.00  0.00     0.074 A 
ATOM     39  C   UNL     1       0.492   5.515   7.840  1.00  0.00     0.049 A 
ATOM     40  N   UNL     1      -1.987   3.826   7.700  1.00  0.00    -0.248 NA
ATOM     41  C   UNL     1      -1.727   3.701   5.385  1.00  0.00     0.031 C 
ATOM     42  C   UNL     1       1.697   6.337   7.969  1.00  0.00     0.029 A 
ATOM     43  N   UNL     1       0.063   5.351   9.133  1.00  0.00    -0.354 N 
ATOM     44  C   UNL     1      -3.027   3.077   7.162  1.00  0.00     0.074 A 
ATOM     45  C   UNL     1      -2.837   3.062   5.728  1.00  0.00     0.031 C 
ATOM     46  C   UNL     1       1.960   6.530   9.271  1.00  0.00     0.029 A 
ATOM     47  C   UNL     1       0.917   5.889  10.067  1.00  0.00     0.049 A 
ATOM     48  H   UNL     1      -0.776   4.892   9.370  1.00  0.00     0.167 HD
ATOM     49  C   UNL     1      -4.040   2.447   7.804  1.00  0.00     0.037 A 
ATOM     50  C   UNL     1       0.876   5.859  11.413  1.00  0.00     0.037 A 
ATOM     51  C   UNL     1      -4.221   2.441   9.231  1.00  0.00     0.049 A 
ATOM     52  C   UNL     1      -0.264   5.168  12.101  1.00  0.00     0.074 A 
ATOM     53  C   UNL     1      -5.221   1.834   9.972  1.00  0.00     0.029 A 
ATOM     54  N   UNL     1      -3.376   3.064  10.137  1.00  0.00    -0.354 N 
ATOM     55  N   UNL     1      -1.252   4.489  11.572  1.00  0.00    -0.248 NA
ATOM     56  C   UNL     1      -0.308   5.260  13.567  1.00  0.00     0.031 C 
ATOM     57  C   UNL     1      -4.990   2.107  11.325  1.00  0.00     0.029 A 
ATOM     58  C   UNL     1      -3.835   2.865  11.428  1.00  0.00     0.049 A 
ATOM     59  H   UNL     1      -2.569   3.574   9.897  1.00  0.00     0.167 HD
ATOM     60  C   UNL     1      -2.042   4.079  12.638  1.00  0.00     0.074 A 
ATOM     61  C   UNL     1      -1.405   4.566  13.845  1.00  0.00     0.031 C 
ATOM     62  C   UNL     1      -3.198   3.372  12.616  1.00  0.00     0.037 A 
BRANCH  49  63
ATOM     63  C   UNL     1      -5.038   1.712   6.956  1.00  0.00     0.058 A 
ATOM     64  C   UNL     1      -4.736   0.463   6.391  1.00  0.00     0.135 A 
ATOM     65  C   UNL     1      -6.311   2.252   6.718  1.00  0.00     0.135 A 
ATOM     66  F   UNL     1      -3.526  -0.087   6.574  1.00  0.00    -0.206 F 
ATOM     67  C   UNL     1      -5.654  -0.214   5.595  1.00  0.00     0.059 A 
ATOM     68  C   UNL     1      -7.252   1.585   5.938  1.00  0.00     0.059 A 
ATOM     69  F   UNL     1      -6.647   3.445   7.235  1.00  0.00    -0.206 F 
ATOM     70  C   UNL     1      -6.907   0.359   5.368  1.00  0.00     0.060 A 
BRANCH  70  71
ATOM     71  S   UNL     1      -8.081  -0.521   4.316  1.00  0.00     0.124 S 
ATOM     72  O   UNL     1      -7.544  -0.239   2.988  1.00  0.00    -0.237 OA
ATOM     73  O   UNL     1      -7.945  -1.898   4.774  1.00  0.00    -0.237 OA
ATOM     74  O   UNL     1      -9.358   0.118   4.626  1.00  0.00    -0.744 OA
ENDBRANCH  70  71
ENDBRANCH  49  63
BRANCH  50  75
ATOM     75  C   UNL     1       1.975   6.486  12.190  1.00  0.00     0.058 A 
ATOM     76  C   UNL     1       2.951   5.694  12.811  1.00  0.00     0.135 A 
ATOM     77  C   UNL     1       2.107   7.880  12.273  1.00  0.00     0.135 A 
ATOM     78  F   UNL     1       2.861   4.356  12.762  1.00  0.00    -0.206 F 
ATOM     79  C   UNL     1       4.030   6.263  13.479  1.00  0.00     0.059 A 
ATOM     80  C   UNL     1       3.185   8.472  12.921  1.00  0.00     0.059 A 
ATOM     81  F   UNL     1       1.202   8.676  11.683  1.00  0.00    -0.206 F 
ATOM     82  C   UNL     1       4.143   7.654  13.522  1.00  0.00     0.060 A 
BRANCH  82  83
ATOM     83  S   UNL     1       5.598   8.386  14.303  1.00  0.00     0.124 S 
ATOM     84  O   UNL     1       5.255   8.282  15.716  1.00  0.00    -0.237 OA
ATOM     85  O   UNL     1       6.672   7.512  13.840  1.00  0.00    -0.237 OA
ATOM     86  O   UNL     1       5.623   9.739  13.755  1.00  0.00    -0.744 OA
ENDBRANCH  82  83
ENDBRANCH  50  75
BRANCH  62  87
ATOM     87  C   UNL     1      -3.862   3.101  13.933  1.00  0.00     0.058 A 
ATOM     88  C   UNL     1      -4.634   4.086  14.567  1.00  0.00     0.135 A 
ATOM     89  C   UNL     1      -3.779   1.837  14.534  1.00  0.00     0.135 A 
ATOM     90  F   UNL     1      -4.737   5.313  14.032  1.00  0.00    -0.206 F 
ATOM     91  C   UNL     1      -5.299   3.827  15.760  1.00  0.00     0.059 A 
ATOM     92  C   UNL     1      -4.447   1.552  15.720  1.00  0.00     0.059 A 
ATOM     93  F   UNL     1      -3.055   0.862  13.961  1.00  0.00    -0.206 F 
ATOM     94  C   UNL     1      -5.201   2.556  16.329  1.00  0.00     0.060 A 
BRANCH  94  95
ATOM     95  S   UNL     1      -6.106   2.216  17.854  1.00  0.00     0.124 S 
ATOM     96  O   UNL     1      -5.260   2.866  18.849  1.00  0.00    -0.237 OA
ATOM     97  O   UNL     1      -7.396   2.854  17.604  1.00  0.00    -0.237 OA
ATOM     98  O   UNL     1      -6.137   0.757  17.910  1.00  0.00    -0.744 OA
ENDBRANCH  94  95
ENDBRANCH  62  87
ENDBRANCH  36  37
ENDBRANCH  28  31
ENDBRANCH   1  27
TORSDOF 14
