REMARK SMILES CC1=C[C@H](C)[C@@H](C(=O)NCCCNC(=O)c2ccc(-c3c4nc(c(-c5c(F)cc(S(=O)(=O)[O-])cc5F)c5ccc([nH]5)c(-c5c(F)cc(S(=O)(=O)[O-])cc5F)c5nc(c(-c6c(F)cc(S(=O)(=O)[O-])cc6F)c6ccc3[nH]6)C=C5)C=C4)cc2)[C@H](C(=O)Nc2cccnc2)C1
REMARK SMILES IDX 11 1 10 2 9 3 7 4 8 5 6 7 1 8 2 9 3 10 92 11 4 12 82 13 5 14
REMARK SMILES IDX 83 15 84 16 85 17 86 19 87 20 91 21 88 22 90 23 89 24 12 25
REMARK SMILES IDX 13 26 14 27 15 29 16 30 17 31 81 32 18 33 80 34 19 35 20 36
REMARK SMILES IDX 21 37 74 38 22 39 79 40 73 41 75 42 23 43 78 44 72 45 71 46
REMARK SMILES IDX 24 48 58 49 37 50 57 51 38 52 41 53 56 54 76 55 39 56 40 57
REMARK SMILES IDX 55 59 77 60 42 61 25 62 26 63 35 64 27 65 28 66 34 67 36 68
REMARK SMILES IDX 29 69 30 70 31 71 32 72 33 73 59 74 60 75 69 76 61 77 62 78
REMARK SMILES IDX 68 79 70 80 63 81 64 82 65 83 66 84 67 85 43 86 44 87 53 88
REMARK SMILES IDX 45 89 46 90 52 91 54 92 47 93 48 94 49 95 50 96 51 97
REMARK H PARENT 9 6 85 18 13 28 75 47 41 58
REMARK Flexibility Score: inf
ROOT
ATOM      1  C   UNL     1      -2.218   2.990   0.641  1.00  0.00     0.042 C 
ENDROOT
BRANCH   1   2
ATOM      2  C   UNL     1      -2.318   2.634  -0.824  1.00  0.00     0.117 C 
BRANCH   2   3
ATOM      3  N   UNL     1      -2.135   3.763  -1.717  1.00  0.00    -0.356 N 
ATOM      4  C   UNL     1      -1.276   3.925  -2.766  1.00  0.00     0.224 C 
ATOM      5  O   UNL     1      -1.433   4.917  -3.482  1.00  0.00    -0.275 OA
ATOM      6  H   UNL     1      -2.723   4.532  -1.538  1.00  0.00     0.163 HD
BRANCH   4   7
ATOM      7  C   UNL     1      -0.142   2.925  -3.058  1.00  0.00     0.098 C 
ATOM      8  C   UNL     1       0.901  -0.492  -0.384  1.00  0.00     0.039 C 
ATOM      9  C   UNL     1       0.555   0.615  -1.342  1.00  0.00    -0.076 C 
ATOM     10  C   UNL     1      -0.208   0.415  -2.434  1.00  0.00    -0.024 C 
ATOM     11  C   UNL     1       1.058   1.972  -0.925  1.00  0.00     0.044 C 
ATOM     12  C   UNL     1      -0.757   1.520  -3.306  1.00  0.00     0.022 C 
ATOM     13  C   UNL     1       0.962   3.072  -1.984  1.00  0.00     0.096 C 
ATOM     14  C   UNL     1      -0.832   1.169  -4.799  1.00  0.00     0.013 C 
BRANCH  13  15
ATOM     15  C   UNL     1       2.340   3.528  -2.527  1.00  0.00     0.228 C 
ATOM     16  O   UNL     1       2.558   4.730  -2.710  1.00  0.00    -0.274 OA
ATOM     17  N   UNL     1       3.394   2.667  -2.683  1.00  0.00    -0.324 N 
ATOM     18  H   UNL     1       4.286   3.068  -2.574  1.00  0.00     0.169 HD
BRANCH  17  19
ATOM     19  C   UNL     1       3.382   1.301  -2.973  1.00  0.00     0.059 A 
ATOM     20  C   UNL     1       2.556   0.790  -3.961  1.00  0.00     0.029 A 
ATOM     21  C   UNL     1       4.230   0.414  -2.324  1.00  0.00     0.137 A 
ATOM     22  C   UNL     1       2.488  -0.586  -4.166  1.00  0.00     0.022 A 
ATOM     23  N   UNL     1       4.193  -0.930  -2.501  1.00  0.00    -0.263 NA
ATOM     24  C   UNL     1       3.295  -1.401  -3.394  1.00  0.00     0.111 A 
ENDBRANCH  17  19
ENDBRANCH  13  15
ENDBRANCH   4   7
ENDBRANCH   2   3
ENDBRANCH   1   2
BRANCH   1  25
ATOM     25  C   UNL     1      -3.539   3.467   1.198  1.00  0.00     0.118 C 
BRANCH  25  26
ATOM     26  N   UNL     1      -4.552   2.414   1.195  1.00  0.00    -0.352 N 
ATOM     27  C   UNL     1      -5.296   1.908   2.230  1.00  0.00     0.251 C 
ATOM     28  H   UNL     1      -4.728   2.006   0.316  1.00  0.00     0.163 HD
ATOM     29  O   UNL     1      -5.959   0.885   2.057  1.00  0.00    -0.269 OA
BRANCH  27  30
ATOM     30  C   UNL     1      -5.279   2.578   3.543  1.00  0.00     0.039 A 
ATOM     31  C   UNL     1      -5.299   1.806   4.705  1.00  0.00     0.014 A 
ATOM     32  C   UNL     1      -5.232   3.972   3.627  1.00  0.00     0.014 A 
ATOM     33  C   UNL     1      -5.214   2.434   5.947  1.00  0.00     0.010 A 
ATOM     34  C   UNL     1      -5.013   4.583   4.850  1.00  0.00     0.010 A 
ATOM     35  C   UNL     1      -5.036   3.825   6.027  1.00  0.00    -0.014 A 
BRANCH  35  36
ATOM     36  C   UNL     1      -4.922   4.518   7.331  1.00  0.00     0.031 A 
ATOM     37  C   UNL     1      -5.938   5.563   7.710  1.00  0.00     0.074 A 
ATOM     38  C   UNL     1      -3.881   4.245   8.141  1.00  0.00     0.049 A 
ATOM     39  N   UNL     1      -5.990   6.315   8.778  1.00  0.00    -0.248 NA
ATOM     40  C   UNL     1      -7.021   5.826   6.744  1.00  0.00     0.031 C 
ATOM     41  C   UNL     1      -2.801   3.299   7.845  1.00  0.00     0.029 A 
ATOM     42  N   UNL     1      -3.557   4.739   9.378  1.00  0.00    -0.354 N 
ATOM     43  C   UNL     1      -7.093   7.142   8.604  1.00  0.00     0.074 A 
ATOM     44  C   UNL     1      -7.639   6.857   7.298  1.00  0.00     0.031 C 
ATOM     45  C   UNL     1      -1.959   3.251   8.889  1.00  0.00     0.029 A 
ATOM     46  C   UNL     1      -2.413   4.191   9.908  1.00  0.00     0.049 A 
ATOM     47  H   UNL     1      -4.093   5.421   9.843  1.00  0.00     0.167 HD
ATOM     48  C   UNL     1      -7.627   8.033   9.472  1.00  0.00     0.037 A 
ATOM     49  C   UNL     1      -1.802   4.423  11.086  1.00  0.00     0.037 A 
ATOM     50  C   UNL     1      -7.094   8.281  10.784  1.00  0.00     0.049 A 
ATOM     51  C   UNL     1      -2.417   5.413  12.037  1.00  0.00     0.074 A 
ATOM     52  C   UNL     1      -7.588   9.116  11.770  1.00  0.00     0.029 A 
ATOM     53  N   UNL     1      -5.946   7.693  11.294  1.00  0.00    -0.354 N 
ATOM     54  N   UNL     1      -3.504   6.135  11.887  1.00  0.00    -0.248 NA
ATOM     55  C   UNL     1      -1.732   5.616  13.319  1.00  0.00     0.031 C 
ATOM     56  C   UNL     1      -6.712   9.069  12.858  1.00  0.00     0.029 A 
ATOM     57  C   UNL     1      -5.702   8.163  12.573  1.00  0.00     0.049 A 
ATOM     58  H   UNL     1      -5.387   7.038  10.817  1.00  0.00     0.167 HD
ATOM     59  C   UNL     1      -3.646   6.857  13.066  1.00  0.00     0.074 A 
ATOM     60  C   UNL     1      -2.543   6.472  13.924  1.00  0.00     0.031 C 
ATOM     61  C   UNL     1      -4.599   7.759  13.410  1.00  0.00     0.037 A 
BRANCH  48  62
ATOM     62  C   UNL     1      -8.851   8.789   9.032  1.00  0.00     0.058 A 
ATOM     63  C   UNL     1     -10.090   8.150   8.856  1.00  0.00     0.135 A 
ATOM     64  C   UNL     1      -8.795  10.174   8.809  1.00  0.00     0.135 A 
ATOM     65  F   UNL     1     -10.199   6.824   9.036  1.00  0.00    -0.206 F 
ATOM     66  C   UNL     1     -11.220   8.850   8.446  1.00  0.00     0.059 A 
ATOM     67  C   UNL     1      -9.921  10.900   8.429  1.00  0.00     0.059 A 
ATOM     68  F   UNL     1      -7.637  10.837   8.957  1.00  0.00    -0.206 F 
ATOM     69  C   UNL     1     -11.125  10.226   8.236  1.00  0.00     0.060 A 
BRANCH  69  70
ATOM     70  S   UNL     1     -12.605  11.120   7.716  1.00  0.00     0.124 S 
ATOM     71  O   UNL     1     -12.750  10.664   6.337  1.00  0.00    -0.237 OA
ATOM     72  O   UNL     1     -13.610  10.630   8.654  1.00  0.00    -0.237 OA
ATOM     73  O   UNL     1     -12.230  12.521   7.877  1.00  0.00    -0.744 OA
ENDBRANCH  69  70
ENDBRANCH  48  62
BRANCH  49  74
ATOM     74  C   UNL     1      -0.560   3.684  11.440  1.00  0.00     0.058 A 
ATOM     75  C   UNL     1      -0.559   2.720  12.458  1.00  0.00     0.135 A 
ATOM     76  C   UNL     1       0.646   3.916  10.759  1.00  0.00     0.135 A 
ATOM     77  F   UNL     1      -1.687   2.464  13.140  1.00  0.00    -0.206 F 
ATOM     78  C   UNL     1       0.595   2.026  12.806  1.00  0.00     0.059 A 
ATOM     79  C   UNL     1       1.807   3.215  11.070  1.00  0.00     0.059 A 
ATOM     80  F   UNL     1       0.695   4.813   9.762  1.00  0.00    -0.206 F 
ATOM     81  C   UNL     1       1.774   2.280  12.104  1.00  0.00     0.060 A 
BRANCH  81  82
ATOM     82  S   UNL     1       3.258   1.345  12.536  1.00  0.00     0.124 S 
ATOM     83  O   UNL     1       3.614   1.937  13.820  1.00  0.00    -0.237 OA
ATOM     84  O   UNL     1       2.753  -0.024  12.581  1.00  0.00    -0.237 OA
ATOM     85  O   UNL     1       4.169   1.633  11.432  1.00  0.00    -0.744 OA
ENDBRANCH  81  82
ENDBRANCH  49  74
BRANCH  61  86
ATOM     86  C   UNL     1      -4.511   8.367  14.782  1.00  0.00     0.058 A 
ATOM     87  C   UNL     1      -3.521   9.306  15.110  1.00  0.00     0.135 A 
ATOM     88  C   UNL     1      -5.462   8.043  15.764  1.00  0.00     0.135 A 
ATOM     89  F   UNL     1      -2.585   9.645  14.209  1.00  0.00    -0.206 F 
ATOM     90  C   UNL     1      -3.460   9.883  16.373  1.00  0.00     0.059 A 
ATOM     91  C   UNL     1      -5.439   8.632  17.023  1.00  0.00     0.059 A 
ATOM     92  F   UNL     1      -6.437   7.160  15.496  1.00  0.00    -0.206 F 
ATOM     93  C   UNL     1      -4.426   9.541  17.322  1.00  0.00     0.060 A 
BRANCH  93  94
ATOM     94  S   UNL     1      -4.353  10.322  18.948  1.00  0.00     0.124 S 
ATOM     95  O   UNL     1      -3.205   9.649  19.546  1.00  0.00    -0.237 OA
ATOM     96  O   UNL     1      -4.158  11.729  18.609  1.00  0.00    -0.237 OA
ATOM     97  O   UNL     1      -5.648  10.000  19.539  1.00  0.00    -0.744 OA
ENDBRANCH  93  94
ENDBRANCH  61  86
ENDBRANCH  35  36
ENDBRANCH  27  30
ENDBRANCH  25  26
ENDBRANCH   1  25
TORSDOF 15
