REMARK SMILES COc1ccc([C@H]2[NH2+][C@@H](C(=O)NCCCNC(=O)c3ccc(-c4c5nc(c(-c6c(F)cc(S(=O)(=O)[O-])cc6F)c6ccc([nH]6)c(-c6c(F)cc(S(=O)(=O)[O-])cc6F)c6nc(c(-c7c(F)cc(S(=O)(=O)[O-])cc7F)c7ccc4[nH]7)C=C6)C=C5)cc3)CC3=c4ccccc4=N[C@H]32)cc1Cn1cc([N+](=O)[O-])cn1
REMARK SMILES IDX 13 1 12 2 10 3 11 4 9 6 7 7 8 8 94 9 86 12 93 13 85 14 87 15
REMARK SMILES IDX 92 16 88 17 91 18 89 19 90 20 6 21 3 22 4 23 96 24 5 25
REMARK SMILES IDX 95 26 2 27 1 28 97 29 98 30 99 31 105 32 100 33 104 34
REMARK SMILES IDX 101 35 102 36 103 37 14 38 15 39 16 40 17 41 18 43 19 44
REMARK SMILES IDX 20 45 84 46 21 47 83 48 22 49 23 50 24 51 77 52 25 53 82 54
REMARK SMILES IDX 76 55 78 56 26 57 81 58 75 59 74 60 27 62 61 63 40 64 60 65
REMARK SMILES IDX 41 66 44 67 59 68 79 69 42 70 43 71 58 73 80 74 45 75 28 76
REMARK SMILES IDX 29 77 38 78 30 79 31 80 37 81 39 82 32 83 33 84 34 85 35 86
REMARK SMILES IDX 36 87 62 88 63 89 72 90 64 91 65 92 71 93 73 94 66 95 67 96
REMARK SMILES IDX 68 97 69 98 70 99 46 100 47 101 56 102 48 103 49 104 55 105
REMARK SMILES IDX 57 106 50 107 51 108 52 109 53 110 54 111
REMARK H PARENT 12 5 8 10 8 11 16 42 78 61 44 72
REMARK Flexibility Score: inf
ROOT
ATOM      1  C   UNL     1       2.196   7.717   7.828  1.00  0.00     0.118 C 
ENDROOT
BRANCH   1   2
ATOM      2  N   UNL     1       2.980   6.890   6.933  1.00  0.00    -0.351 N 
ATOM      3  C   UNL     1       2.550   6.091   5.925  1.00  0.00     0.278 C 
ATOM      4  O   UNL     1       3.131   5.006   5.815  1.00  0.00    -0.268 OA
ATOM      5  H   UNL     1       3.954   6.911   7.076  1.00  0.00     0.163 HD
BRANCH   3   6
ATOM      6  C   UNL     1       1.357   6.464   5.013  1.00  0.00     0.277 C 
ATOM      7  C   UNL     1       2.377   6.480   2.652  1.00  0.00     0.243 C 
ATOM      8  N   UNL     1       1.504   5.796   3.670  1.00  0.00    -0.327 N 
ATOM      9  C   UNL     1       1.985   8.041   2.580  1.00  0.00     0.196 C 
ATOM     10  H   UNL     1       1.892   4.866   3.831  1.00  0.00     0.347 HD
ATOM     11  H   UNL     1       0.568   5.811   3.266  1.00  0.00     0.347 HD
ATOM     12  C   UNL     1       1.996   8.606   3.962  1.00  0.00    -0.024 C 
ATOM     13  N   UNL     1       2.896   8.950   1.825  1.00  0.00    -0.270 NA
ATOM     14  C   UNL     1       1.039   7.960   4.881  1.00  0.00     0.109 C 
ATOM     15  C   UNL     1       2.951   9.510   4.130  1.00  0.00     0.002 A 
ATOM     16  C   UNL     1       3.448   9.671   2.758  1.00  0.00     0.066 A 
ATOM     17  C   UNL     1       3.528  10.215   5.224  1.00  0.00     0.010 A 
ATOM     18  C   UNL     1       4.571  10.621   2.577  1.00  0.00     0.028 A 
ATOM     19  C   UNL     1       4.606  10.985   5.003  1.00  0.00     0.001 A 
ATOM     20  C   UNL     1       5.127  11.186   3.663  1.00  0.00     0.002 A 
BRANCH   7  21
ATOM     21  C   UNL     1       3.878   6.084   2.705  1.00  0.00     0.012 A 
ATOM     22  C   UNL     1       6.698   5.609   2.762  1.00  0.00     0.123 A 
ATOM     23  C   UNL     1       5.795   4.692   3.311  1.00  0.00     0.047 A 
ATOM     24  C   UNL     1       6.216   6.709   2.057  1.00  0.00     0.016 A 
ATOM     25  C   UNL     1       4.405   4.924   3.273  1.00  0.00     0.014 A 
ATOM     26  C   UNL     1       4.819   6.857   2.015  1.00  0.00     0.019 A 
BRANCH  22  27
ATOM     27  O   UNL     1       8.025   5.289   2.847  1.00  0.00    -0.496 OA
ATOM     28  C   UNL     1       8.781   6.177   3.671  1.00  0.00     0.278 C 
ENDBRANCH  22  27
BRANCH  24  29
ATOM     29  C   UNL     1       7.091   7.806   1.493  1.00  0.00     0.183 C 
BRANCH  29  30
ATOM     30  N   UNL     1       6.863   8.217   0.098  1.00  0.00    -0.261 N 
ATOM     31  C   UNL     1       5.760   8.809  -0.458  1.00  0.00     0.194 A 
ATOM     32  N   UNL     1       7.937   8.286  -0.734  1.00  0.00    -0.174 NA
ATOM     33  C   UNL     1       6.095   9.149  -1.748  1.00  0.00     0.307 A 
ATOM     34  C   UNL     1       7.453   8.830  -1.855  1.00  0.00     0.220 A 
BRANCH  33  35
ATOM     35  N   UNL     1       5.238   9.739  -2.726  1.00  0.00     0.066 N 
ATOM     36  O   UNL     1       5.750  10.025  -3.815  1.00  0.00    -0.258 OA
ATOM     37  O   UNL     1       4.055   9.921  -2.411  1.00  0.00    -0.258 OA
ENDBRANCH  33  35
ENDBRANCH  29  30
ENDBRANCH  24  29
ENDBRANCH   7  21
ENDBRANCH   3   6
ENDBRANCH   1   2
BRANCH   1  38
ATOM     38  C   UNL     1       2.279   7.249   9.269  1.00  0.00     0.042 C 
BRANCH  38  39
ATOM     39  C   UNL     1       3.692   7.123   9.814  1.00  0.00     0.118 C 
BRANCH  39  40
ATOM     40  N   UNL     1       4.440   8.374   9.800  1.00  0.00    -0.352 N 
ATOM     41  C   UNL     1       4.941   9.109  10.851  1.00  0.00     0.251 C 
ATOM     42  H   UNL     1       4.614   8.749   8.906  1.00  0.00     0.163 HD
ATOM     43  O   UNL     1       5.434  10.214  10.643  1.00  0.00    -0.269 OA
BRANCH  41  44
ATOM     44  C   UNL     1       4.838   8.578  12.227  1.00  0.00     0.039 A 
ATOM     45  C   UNL     1       4.380   9.412  13.249  1.00  0.00     0.014 A 
ATOM     46  C   UNL     1       5.134   7.240  12.495  1.00  0.00     0.014 A 
ATOM     47  C   UNL     1       4.120   8.874  14.512  1.00  0.00     0.010 A 
ATOM     48  C   UNL     1       4.765   6.684  13.714  1.00  0.00     0.010 A 
ATOM     49  C   UNL     1       4.254   7.494  14.739  1.00  0.00    -0.014 A 
BRANCH  49  50
ATOM     50  C   UNL     1       3.867   6.871  16.032  1.00  0.00     0.031 A 
ATOM     51  C   UNL     1       4.892   6.115  16.837  1.00  0.00     0.074 A 
ATOM     52  C   UNL     1       2.580   6.909  16.436  1.00  0.00     0.049 A 
ATOM     53  N   UNL     1       4.731   5.422  17.934  1.00  0.00    -0.248 NA
ATOM     54  C   UNL     1       6.273   6.107  16.324  1.00  0.00     0.031 C 
ATOM     55  C   UNL     1       1.480   7.556  15.714  1.00  0.00     0.029 A 
ATOM     56  N   UNL     1       1.973   6.382  17.549  1.00  0.00    -0.354 N 
ATOM     57  C   UNL     1       5.975   4.875  18.224  1.00  0.00     0.074 A 
ATOM     58  C   UNL     1       6.872   5.274  17.163  1.00  0.00     0.031 C 
ATOM     59  C   UNL     1       0.345   7.414  16.417  1.00  0.00     0.029 A 
ATOM     60  C   UNL     1       0.621   6.630  17.616  1.00  0.00     0.049 A 
ATOM     61  H   UNL     1       2.461   5.873  18.237  1.00  0.00     0.167 HD
ATOM     62  C   UNL     1       6.345   4.129  19.291  1.00  0.00     0.037 A 
ATOM     63  C   UNL     1      -0.293   6.261  18.535  1.00  0.00     0.037 A 
ATOM     64  C   UNL     1       5.462   3.783  20.373  1.00  0.00     0.049 A 
ATOM     65  C   UNL     1       0.151   5.445  19.720  1.00  0.00     0.074 A 
ATOM     66  C   UNL     1       5.764   3.112  21.545  1.00  0.00     0.029 A 
ATOM     67  N   UNL     1       4.108   4.079  20.418  1.00  0.00    -0.354 N 
ATOM     68  N   UNL     1       1.352   5.010  20.019  1.00  0.00    -0.248 NA
ATOM     69  C   UNL     1      -0.883   5.072  20.696  1.00  0.00     0.031 C 
ATOM     70  C   UNL     1       4.583   2.960  22.277  1.00  0.00     0.029 A 
ATOM     71  C   UNL     1       3.556   3.582  21.586  1.00  0.00     0.049 A 
ATOM     72  H   UNL     1       3.614   4.570  19.723  1.00  0.00     0.167 HD
ATOM     73  C   UNL     1       1.223   4.343  21.232  1.00  0.00     0.074 A 
ATOM     74  C   UNL     1      -0.170   4.441  21.617  1.00  0.00     0.031 C 
ATOM     75  C   UNL     1       2.171   3.706  21.962  1.00  0.00     0.037 A 
BRANCH  62  76
ATOM     76  C   UNL     1       7.767   3.646  19.358  1.00  0.00     0.058 A 
ATOM     77  C   UNL     1       8.834   4.522  19.612  1.00  0.00     0.135 A 
ATOM     78  C   UNL     1       8.058   2.277  19.236  1.00  0.00     0.135 A 
ATOM     79  F   UNL     1       8.615   5.842  19.718  1.00  0.00    -0.206 F 
ATOM     80  C   UNL     1      10.141   4.061  19.729  1.00  0.00     0.059 A 
ATOM     81  C   UNL     1       9.354   1.790  19.377  1.00  0.00     0.059 A 
ATOM     82  F   UNL     1       7.075   1.397  18.988  1.00  0.00    -0.206 F 
ATOM     83  C   UNL     1      10.390   2.692  19.616  1.00  0.00     0.060 A 
BRANCH  83  84
ATOM     84  S   UNL     1      12.086   2.107  19.811  1.00  0.00     0.124 S 
ATOM     85  O   UNL     1      12.696   2.567  18.567  1.00  0.00    -0.237 OA
ATOM     86  O   UNL     1      12.517   2.800  21.021  1.00  0.00    -0.237 OA
ATOM     87  O   UNL     1      11.936   0.661  19.939  1.00  0.00    -0.744 OA
ENDBRANCH  83  84
ENDBRANCH  62  76
BRANCH  63  88
ATOM     88  C   UNL     1      -1.717   6.671  18.392  1.00  0.00     0.058 A 
ATOM     89  C   UNL     1      -2.293   7.590  19.282  1.00  0.00     0.135 A 
ATOM     90  C   UNL     1      -2.536   6.137  17.385  1.00  0.00     0.135 A 
ATOM     91  F   UNL     1      -1.553   8.126  20.265  1.00  0.00    -0.206 F 
ATOM     92  C   UNL     1      -3.637   7.941  19.202  1.00  0.00     0.059 A 
ATOM     93  C   UNL     1      -3.876   6.494  17.267  1.00  0.00     0.059 A 
ATOM     94  F   UNL     1      -2.031   5.269  16.495  1.00  0.00    -0.206 F 
ATOM     95  C   UNL     1      -4.422   7.383  18.192  1.00  0.00     0.060 A 
BRANCH  95  96
ATOM     96  S   UNL     1      -6.162   7.856  18.086  1.00  0.00     0.124 S 
ATOM     97  O   UNL     1      -6.733   7.125  19.211  1.00  0.00    -0.237 OA
ATOM     98  O   UNL     1      -6.096   9.306  18.232  1.00  0.00    -0.237 OA
ATOM     99  O   UNL     1      -6.555   7.385  16.761  1.00  0.00    -0.744 OA
ENDBRANCH  95  96
ENDBRANCH  63  88
BRANCH  75 100
ATOM    100  C   UNL     1       1.749   3.105  23.274  1.00  0.00     0.058 A 
ATOM    101  C   UNL     1       0.965   1.943  23.336  1.00  0.00     0.135 A 
ATOM    102  C   UNL     1       2.185   3.670  24.484  1.00  0.00     0.135 A 
ATOM    103  F   UNL     1       0.518   1.368  22.209  1.00  0.00    -0.206 F 
ATOM    104  C   UNL     1       0.606   1.375  24.554  1.00  0.00     0.059 A 
ATOM    105  C   UNL     1       1.863   3.101  25.712  1.00  0.00     0.059 A 
ATOM    106  F   UNL     1       2.947   4.774  24.479  1.00  0.00    -0.206 F 
ATOM    107  C   UNL     1       1.063   1.960  25.737  1.00  0.00     0.060 A 
BRANCH 107 108
ATOM    108  S   UNL     1       0.621   1.192  27.309  1.00  0.00     0.124 S 
ATOM    109  O   UNL     1      -0.785   1.564  27.433  1.00  0.00    -0.237 OA
ATOM    110  O   UNL     1       0.883  -0.220  27.052  1.00  0.00    -0.237 OA
ATOM    111  O   UNL     1       1.525   1.827  28.264  1.00  0.00    -0.744 OA
ENDBRANCH 107 108
ENDBRANCH  75 100
ENDBRANCH  49  50
ENDBRANCH  41  44
ENDBRANCH  39  40
ENDBRANCH  38  39
ENDBRANCH   1  38
TORSDOF 18
