REMARK SMILES CC1(C)CCC[C@H]1NS(=O)(=O)c1cccc(C(=O)NCCCNC(=O)c2ccc(-c3c4nc(c(-c5c(F)cc(S(=O)(=O)[O-])cc5F)c5ccc([nH]5)c(-c5c(F)cc(S(=O)(=O)[O-])cc5F)c5nc(c(-c6c(F)cc(S(=O)(=O)[O-])cc6F)c6ccc3[nH]6)C=C5)C=C4)cc2)c1
REMARK SMILES IDX 21 1 20 2 19 3 17 4 18 5 16 7 12 8 13 9 92 10 14 11 15 12
REMARK SMILES IDX 9 13 10 14 11 15 8 16 7 18 1 19 2 20 3 21 4 22 5 23 6 24
REMARK SMILES IDX 22 25 23 26 24 27 25 29 26 30 27 31 91 32 28 33 90 34 29 35
REMARK SMILES IDX 30 36 31 37 84 38 32 39 89 40 83 41 85 42 33 43 88 44 82 45
REMARK SMILES IDX 81 46 34 48 68 49 47 50 67 51 48 52 51 53 66 54 86 55 49 56
REMARK SMILES IDX 50 57 65 59 87 60 52 61 35 62 36 63 45 64 37 65 38 66 44 67
REMARK SMILES IDX 46 68 39 69 40 70 41 71 42 72 43 73 69 74 70 75 79 76 71 77
REMARK SMILES IDX 72 78 78 79 80 80 73 81 74 82 75 83 76 84 77 85 53 86 54 87
REMARK SMILES IDX 63 88 55 89 56 90 62 91 64 92 57 93 58 94 59 95 60 96 61 97
REMARK H PARENT 19 6 8 17 23 28 85 47 51 58
REMARK Flexibility Score: inf
ROOT
ATOM      1  C   UNL     1      -2.563   7.436   4.153  1.00  0.00     0.042 C 
ENDROOT
BRANCH   1   2
ATOM      2  C   UNL     1      -3.008   6.920   2.795  1.00  0.00     0.118 C 
BRANCH   2   3
ATOM      3  N   UNL     1      -2.772   7.843   1.682  1.00  0.00    -0.352 N 
ATOM      4  C   UNL     1      -2.006   7.747   0.538  1.00  0.00     0.251 C 
ATOM      5  O   UNL     1      -1.961   8.697  -0.240  1.00  0.00    -0.269 OA
ATOM      6  H   UNL     1      -3.254   8.697   1.766  1.00  0.00     0.163 HD
BRANCH   4   7
ATOM      7  C   UNL     1      -1.182   6.546   0.256  1.00  0.00     0.041 A 
ATOM      8  C   UNL     1      -0.704   4.239   0.710  1.00  0.00     0.083 A 
ATOM      9  C   UNL     1       0.592   4.374   0.217  1.00  0.00     0.022 A 
ATOM     10  C   UNL     1      -1.625   5.279   0.599  1.00  0.00     0.035 A 
ATOM     11  C   UNL     1       0.970   5.597  -0.344  1.00  0.00     0.002 A 
ATOM     12  C   UNL     1       0.099   6.694  -0.288  1.00  0.00     0.014 A 
BRANCH   8  13
ATOM     13  S   UNL     1      -1.233   2.873   1.697  1.00  0.00     0.240 S 
ATOM     14  O   UNL     1      -2.607   2.600   1.339  1.00  0.00    -0.207 OA
ATOM     15  O   UNL     1      -0.862   3.195   3.056  1.00  0.00    -0.207 OA
BRANCH  13  16
ATOM     16  N   UNL     1      -0.285   1.571   1.263  1.00  0.00    -0.208 NA
ATOM     17  H   UNL     1       0.681   1.895   1.312  1.00  0.00     0.141 HD
BRANCH  16  18
ATOM     18  C   UNL     1      -0.424   0.896  -0.028  1.00  0.00     0.075 C 
ATOM     19  C   UNL     1       1.970   0.020   0.574  1.00  0.00     0.013 C 
ATOM     20  C   UNL     1       0.656  -0.212  -0.189  1.00  0.00    -0.019 C 
ATOM     21  C   UNL     1       1.004  -0.374  -1.683  1.00  0.00     0.013 C 
ATOM     22  C   UNL     1      -0.062  -1.462   0.345  1.00  0.00     0.008 C 
ATOM     23  C   UNL     1      -1.483  -1.331  -0.174  1.00  0.00     0.002 C 
ATOM     24  C   UNL     1      -1.773   0.164  -0.146  1.00  0.00     0.020 C 
ENDBRANCH  16  18
ENDBRANCH  13  16
ENDBRANCH   8  13
ENDBRANCH   4   7
ENDBRANCH   2   3
ENDBRANCH   1   2
BRANCH   1  25
ATOM     25  C   UNL     1      -3.332   8.642   4.662  1.00  0.00     0.118 C 
BRANCH  25  26
ATOM     26  N   UNL     1      -4.754   8.380   4.842  1.00  0.00    -0.352 N 
ATOM     27  C   UNL     1      -5.521   8.211   5.970  1.00  0.00     0.251 C 
ATOM     28  H   UNL     1      -5.260   8.312   4.000  1.00  0.00     0.163 HD
ATOM     29  O   UNL     1      -6.683   7.832   5.839  1.00  0.00    -0.269 OA
BRANCH  27  30
ATOM     30  C   UNL     1      -4.980   8.453   7.329  1.00  0.00     0.039 A 
ATOM     31  C   UNL     1      -5.419   7.641   8.383  1.00  0.00     0.014 A 
ATOM     32  C   UNL     1      -4.094   9.497   7.597  1.00  0.00     0.014 A 
ATOM     33  C   UNL     1      -4.920   7.834   9.675  1.00  0.00     0.010 A 
ATOM     34  C   UNL     1      -3.521   9.624   8.860  1.00  0.00     0.010 A 
ATOM     35  C   UNL     1      -3.936   8.804   9.919  1.00  0.00    -0.014 A 
BRANCH  35  36
ATOM     36  C   UNL     1      -3.342   8.999  11.269  1.00  0.00     0.031 A 
ATOM     37  C   UNL     1      -3.481  10.326  11.970  1.00  0.00     0.074 A 
ATOM     38  C   UNL     1      -2.609   8.015  11.828  1.00  0.00     0.049 A 
ATOM     39  N   UNL     1      -2.935  10.733  13.087  1.00  0.00    -0.248 NA
ATOM     40  C   UNL     1      -4.314  11.343  11.307  1.00  0.00     0.031 C 
ATOM     41  C   UNL     1      -2.349   6.705  11.228  1.00  0.00     0.029 A 
ATOM     42  N   UNL     1      -1.934   7.971  13.023  1.00  0.00    -0.354 N 
ATOM     43  C   UNL     1      -3.326  12.059  13.241  1.00  0.00     0.074 A 
ATOM     44  C   UNL     1      -4.121  12.401  12.081  1.00  0.00     0.031 C 
ATOM     45  C   UNL     1      -1.588   5.980  12.064  1.00  0.00     0.029 A 
ATOM     46  C   UNL     1      -1.278   6.783  13.243  1.00  0.00     0.049 A 
ATOM     47  H   UNL     1      -1.921   8.720  13.662  1.00  0.00     0.167 HD
ATOM     48  C   UNL     1      -3.065  12.908  14.263  1.00  0.00     0.037 A 
ATOM     49  C   UNL     1      -0.507   6.387  14.274  1.00  0.00     0.037 A 
ATOM     50  C   UNL     1      -2.323  12.547  15.442  1.00  0.00     0.049 A 
ATOM     51  C   UNL     1      -0.282   7.326  15.426  1.00  0.00     0.074 A 
ATOM     52  C   UNL     1      -2.068  13.311  16.567  1.00  0.00     0.029 A 
ATOM     53  N   UNL     1      -1.729  11.312  15.654  1.00  0.00    -0.354 N 
ATOM     54  N   UNL     1      -0.701   8.560  15.577  1.00  0.00    -0.248 NA
ATOM     55  C   UNL     1       0.512   6.818  16.553  1.00  0.00     0.031 C 
ATOM     56  C   UNL     1      -1.298  12.545  17.451  1.00  0.00     0.029 A 
ATOM     57  C   UNL     1      -1.103  11.293  16.889  1.00  0.00     0.049 A 
ATOM     58  H   UNL     1      -1.748  10.559  15.020  1.00  0.00     0.167 HD
ATOM     59  C   UNL     1      -0.241   8.968  16.823  1.00  0.00     0.074 A 
ATOM     60  C   UNL     1       0.479   7.846  17.390  1.00  0.00     0.031 C 
ATOM     61  C   UNL     1      -0.400  10.164  17.442  1.00  0.00     0.037 A 
BRANCH  48  62
ATOM     62  C   UNL     1      -3.600  14.310  14.156  1.00  0.00     0.058 A 
ATOM     63  C   UNL     1      -4.971  14.586  14.280  1.00  0.00     0.135 A 
ATOM     64  C   UNL     1      -2.730  15.393  13.950  1.00  0.00     0.135 A 
ATOM     65  F   UNL     1      -5.848  13.587  14.462  1.00  0.00    -0.206 F 
ATOM     66  C   UNL     1      -5.465  15.882  14.169  1.00  0.00     0.059 A 
ATOM     67  C   UNL     1      -3.200  16.700  13.861  1.00  0.00     0.059 A 
ATOM     68  F   UNL     1      -1.410  15.185  13.825  1.00  0.00    -0.206 F 
ATOM     69  C   UNL     1      -4.572  16.932  13.955  1.00  0.00     0.060 A 
BRANCH  69  70
ATOM     70  S   UNL     1      -5.226  18.609  13.810  1.00  0.00     0.124 S 
ATOM     71  O   UNL     1      -5.768  18.592  12.455  1.00  0.00    -0.237 OA
ATOM     72  O   UNL     1      -6.211  18.657  14.886  1.00  0.00    -0.237 OA
ATOM     73  O   UNL     1      -4.049  19.450  14.005  1.00  0.00    -0.744 OA
ENDBRANCH  69  70
ENDBRANCH  48  62
BRANCH  49  74
ATOM     74  C   UNL     1       0.079   5.021  14.277  1.00  0.00     0.058 A 
ATOM     75  C   UNL     1      -0.433   4.022  15.117  1.00  0.00     0.135 A 
ATOM     76  C   UNL     1       1.142   4.680  13.426  1.00  0.00     0.135 A 
ATOM     77  F   UNL     1      -1.445   4.303  15.952  1.00  0.00    -0.206 F 
ATOM     78  C   UNL     1       0.094   2.735  15.126  1.00  0.00     0.059 A 
ATOM     79  C   UNL     1       1.672   3.394  13.401  1.00  0.00     0.059 A 
ATOM     80  F   UNL     1       1.655   5.596  12.590  1.00  0.00    -0.206 F 
ATOM     81  C   UNL     1       1.147   2.430  14.261  1.00  0.00     0.060 A 
BRANCH  81  82
ATOM     82  S   UNL     1       1.789   0.742  14.238  1.00  0.00     0.124 S 
ATOM     83  O   UNL     1       2.591   0.716  15.455  1.00  0.00    -0.237 OA
ATOM     84  O   UNL     1       0.566  -0.055  14.261  1.00  0.00    -0.237 OA
ATOM     85  O   UNL     1       2.538   0.687  12.986  1.00  0.00    -0.744 OA
ENDBRANCH  81  82
ENDBRANCH  49  74
BRANCH  61  86
ATOM     86  C   UNL     1       0.188  10.310  18.816  1.00  0.00     0.058 A 
ATOM     87  C   UNL     1       1.567  10.471  19.012  1.00  0.00     0.135 A 
ATOM     88  C   UNL     1      -0.646  10.334  19.945  1.00  0.00     0.135 A 
ATOM     89  F   UNL     1       2.406  10.449  17.964  1.00  0.00    -0.206 F 
ATOM     90  C   UNL     1       2.105  10.629  20.285  1.00  0.00     0.059 A 
ATOM     91  C   UNL     1      -0.132  10.513  21.226  1.00  0.00     0.059 A 
ATOM     92  F   UNL     1      -1.974  10.195  19.809  1.00  0.00    -0.206 F 
ATOM     93  C   UNL     1       1.246  10.647  21.386  1.00  0.00     0.060 A 
BRANCH  93  94
ATOM     94  S   UNL     1       1.950  10.881  23.033  1.00  0.00     0.124 S 
ATOM     95  O   UNL     1       2.483   9.553  23.315  1.00  0.00    -0.237 OA
ATOM     96  O   UNL     1       2.942  11.927  22.806  1.00  0.00    -0.237 OA
ATOM     97  O   UNL     1       0.799  11.282  23.837  1.00  0.00    -0.744 OA
ENDBRANCH  93  94
ENDBRANCH  61  86
ENDBRANCH  35  36
ENDBRANCH  27  30
ENDBRANCH  25  26
ENDBRANCH   1  25
TORSDOF 16
