REMARK SMILES O=C(NCCCNC(=O)c1ccc(S(=O)(=O)Cc2cccs2)c(F)c1)c1ccc(-c2c3nc(c(-c4c(F)cc(S(=O)(=O)[O-])cc4F)c4ccc([nH]4)c(-c4c(F)cc(S(=O)(=O)[O-])cc4F)c4nc(c(-c5c(F)cc(S(=O)(=O)[O-])cc5F)c5ccc2[nH]5)C=C4)C=C3)cc1
REMARK SMILES IDX 5 1 4 2 3 3 1 4 2 5 26 7 27 8 91 9 28 10 90 11 29 12 30 13
REMARK SMILES IDX 31 14 84 15 32 16 89 17 83 18 85 19 33 20 88 21 82 22 81 23
REMARK SMILES IDX 34 25 68 26 47 27 67 28 48 29 51 30 66 31 86 32 49 33 50 34
REMARK SMILES IDX 65 36 87 37 52 38 35 39 36 40 45 41 37 42 38 43 44 44 46 45
REMARK SMILES IDX 39 46 40 47 41 48 42 49 43 50 69 51 70 52 79 53 71 54 72 55
REMARK SMILES IDX 78 56 80 57 73 58 74 59 75 60 76 61 77 62 53 63 54 64 63 65
REMARK SMILES IDX 55 66 56 67 62 68 64 69 57 70 58 71 59 72 60 73 61 74 6 75
REMARK SMILES IDX 7 76 8 77 9 79 10 80 11 81 25 82 12 83 23 84 13 85 24 86
REMARK SMILES IDX 14 87 15 88 16 89 17 90 18 91 19 92 22 93 20 94 21 95
REMARK H PARENT 3 6 85 24 51 35 7 78
REMARK Flexibility Score: inf
ROOT
ATOM      1  C   UNL     1       4.818  -0.987  -2.471  1.00  0.00     0.042 C 
ENDROOT
BRANCH   1   2
ATOM      2  C   UNL     1       4.565   0.166  -1.505  1.00  0.00     0.118 C 
BRANCH   2   3
ATOM      3  N   UNL     1       3.152   0.322  -1.183  1.00  0.00    -0.352 N 
ATOM      4  O   UNL     1       1.241   0.076  -0.035  1.00  0.00    -0.269 OA
ATOM      5  C   UNL     1       2.469   0.091  -0.015  1.00  0.00     0.251 C 
ATOM      6  H   UNL     1       2.596   0.648  -1.927  1.00  0.00     0.163 HD
BRANCH   5   7
ATOM      7  C   UNL     1       3.192  -0.146   1.254  1.00  0.00     0.039 A 
ATOM      8  C   UNL     1       4.327   0.596   1.585  1.00  0.00     0.014 A 
ATOM      9  C   UNL     1       2.689  -1.087   2.161  1.00  0.00     0.014 A 
ATOM     10  C   UNL     1       5.035   0.302   2.745  1.00  0.00     0.010 A 
ATOM     11  C   UNL     1       3.353  -1.318   3.370  1.00  0.00     0.010 A 
ATOM     12  C   UNL     1       4.546  -0.642   3.662  1.00  0.00    -0.014 A 
BRANCH  12  13
ATOM     13  C   UNL     1       5.271  -0.850   4.942  1.00  0.00     0.031 A 
ATOM     14  C   UNL     1       5.933  -2.163   5.257  1.00  0.00     0.074 A 
ATOM     15  C   UNL     1       5.374   0.185   5.799  1.00  0.00     0.049 A 
ATOM     16  N   UNL     1       6.631  -2.497   6.312  1.00  0.00    -0.248 NA
ATOM     17  C   UNL     1       5.795  -3.242   4.265  1.00  0.00     0.031 C 
ATOM     18  C   UNL     1       4.775   1.508   5.596  1.00  0.00     0.029 A 
ATOM     19  N   UNL     1       6.043   0.307   6.990  1.00  0.00    -0.354 N 
ATOM     20  C   UNL     1       7.012  -3.819   6.117  1.00  0.00     0.074 A 
ATOM     21  C   UNL     1       6.442  -4.240   4.855  1.00  0.00     0.031 C 
ATOM     22  C   UNL     1       5.158   2.324   6.589  1.00  0.00     0.029 A 
ATOM     23  C   UNL     1       5.974   1.569   7.533  1.00  0.00     0.049 A 
ATOM     24  H   UNL     1       6.526  -0.438   7.417  1.00  0.00     0.167 HD
ATOM     25  C   UNL     1       7.778  -4.603   6.913  1.00  0.00     0.037 A 
ATOM     26  C   UNL     1       6.501   2.065   8.668  1.00  0.00     0.037 A 
ATOM     27  C   UNL     1       8.353  -4.171   8.162  1.00  0.00     0.049 A 
ATOM     28  C   UNL     1       7.310   1.160   9.552  1.00  0.00     0.074 A 
ATOM     29  C   UNL     1       9.141  -4.895   9.041  1.00  0.00     0.029 A 
ATOM     30  N   UNL     1       8.209  -2.904   8.708  1.00  0.00    -0.354 N 
ATOM     31  N   UNL     1       7.646  -0.092   9.356  1.00  0.00    -0.248 NA
ATOM     32  C   UNL     1       7.798   1.728  10.815  1.00  0.00     0.031 C 
ATOM     33  C   UNL     1       9.447  -4.076  10.133  1.00  0.00     0.029 A 
ATOM     34  C   UNL     1       8.883  -2.829   9.916  1.00  0.00     0.049 A 
ATOM     35  H   UNL     1       7.703  -2.167   8.297  1.00  0.00     0.167 HD
ATOM     36  C   UNL     1       8.394  -0.460  10.467  1.00  0.00     0.074 A 
ATOM     37  C   UNL     1       8.476   0.706  11.322  1.00  0.00     0.031 C 
ATOM     38  C   UNL     1       8.956  -1.659  10.754  1.00  0.00     0.037 A 
BRANCH  25  39
ATOM     39  C   UNL     1       8.053  -6.012   6.466  1.00  0.00     0.058 A 
ATOM     40  C   UNL     1       7.465  -7.101   7.128  1.00  0.00     0.135 A 
ATOM     41  C   UNL     1       8.970  -6.287   5.439  1.00  0.00     0.135 A 
ATOM     42  F   UNL     1       6.577  -6.894   8.113  1.00  0.00    -0.206 F 
ATOM     43  C   UNL     1       7.791  -8.414   6.803  1.00  0.00     0.059 A 
ATOM     44  C   UNL     1       9.296  -7.593   5.083  1.00  0.00     0.059 A 
ATOM     45  F   UNL     1       9.544  -5.281   4.759  1.00  0.00    -0.206 F 
ATOM     46  C   UNL     1       8.714  -8.649   5.782  1.00  0.00     0.060 A 
BRANCH  46  47
ATOM     47  S   UNL     1       9.121 -10.359   5.365  1.00  0.00     0.124 S 
ATOM     48  O   UNL     1       9.898 -10.775   6.526  1.00  0.00    -0.237 OA
ATOM     49  O   UNL     1       7.799 -10.964   5.232  1.00  0.00    -0.237 OA
ATOM     50  O   UNL     1       9.870 -10.232   4.117  1.00  0.00    -0.744 OA
ENDBRANCH  46  47
ENDBRANCH  25  39
BRANCH  26  51
ATOM     51  C   UNL     1       6.281   3.491   9.024  1.00  0.00     0.058 A 
ATOM     52  C   UNL     1       5.010   3.963   9.387  1.00  0.00     0.135 A 
ATOM     53  C   UNL     1       7.333   4.417   8.971  1.00  0.00     0.135 A 
ATOM     54  F   UNL     1       3.969   3.118   9.443  1.00  0.00    -0.206 F 
ATOM     55  C   UNL     1       4.784   5.306   9.661  1.00  0.00     0.059 A 
ATOM     56  C   UNL     1       7.137   5.763   9.267  1.00  0.00     0.059 A 
ATOM     57  F   UNL     1       8.568   4.010   8.639  1.00  0.00    -0.206 F 
ATOM     58  C   UNL     1       5.853   6.200   9.594  1.00  0.00     0.060 A 
BRANCH  58  59
ATOM     59  S   UNL     1       5.540   7.941   9.953  1.00  0.00     0.124 S 
ATOM     60  O   UNL     1       4.825   8.361   8.752  1.00  0.00    -0.237 OA
ATOM     61  O   UNL     1       4.744   7.865  11.173  1.00  0.00    -0.237 OA
ATOM     62  O   UNL     1       6.880   8.497  10.115  1.00  0.00    -0.744 OA
ENDBRANCH  58  59
ENDBRANCH  26  51
BRANCH  38  63
ATOM     63  C   UNL     1       9.722  -1.771  12.040  1.00  0.00     0.058 A 
ATOM     64  C   UNL     1      11.123  -1.850  12.030  1.00  0.00     0.135 A 
ATOM     65  C   UNL     1       9.065  -1.862  13.277  1.00  0.00     0.135 A 
ATOM     66  F   UNL     1      11.797  -1.769  10.872  1.00  0.00    -0.206 F 
ATOM     67  C   UNL     1      11.847  -2.031  13.203  1.00  0.00     0.059 A 
ATOM     68  C   UNL     1       9.771  -2.021  14.465  1.00  0.00     0.059 A 
ATOM     69  F   UNL     1       7.727  -1.777  13.338  1.00  0.00    -0.206 F 
ATOM     70  C   UNL     1      11.162  -2.120  14.415  1.00  0.00     0.060 A 
BRANCH  70  71
ATOM     71  S   UNL     1      12.117  -2.340  15.931  1.00  0.00     0.124 S 
ATOM     72  O   UNL     1      12.537  -3.733  15.819  1.00  0.00    -0.237 OA
ATOM     73  O   UNL     1      13.174  -1.344  15.779  1.00  0.00    -0.237 OA
ATOM     74  O   UNL     1      11.148  -2.058  16.986  1.00  0.00    -0.744 OA
ENDBRANCH  70  71
ENDBRANCH  38  63
ENDBRANCH  12  13
ENDBRANCH   5   7
ENDBRANCH   2   3
ENDBRANCH   1   2
BRANCH   1  75
ATOM     75  C   UNL     1       4.149  -0.807  -3.829  1.00  0.00     0.118 C 
BRANCH  75  76
ATOM     76  N   UNL     1       4.669   0.350  -4.543  1.00  0.00    -0.352 N 
ATOM     77  C   UNL     1       5.670   0.395  -5.477  1.00  0.00     0.251 C 
ATOM     78  H   UNL     1       4.247   1.212  -4.326  1.00  0.00     0.163 HD
ATOM     79  O   UNL     1       6.127   1.455  -5.881  1.00  0.00    -0.269 OA
BRANCH  77  80
ATOM     80  C   UNL     1       6.205  -0.870  -6.001  1.00  0.00     0.042 A 
ATOM     81  C   UNL     1       5.420  -1.653  -6.855  1.00  0.00     0.015 A 
ATOM     82  C   UNL     1       7.498  -1.256  -5.653  1.00  0.00     0.054 A 
ATOM     83  C   UNL     1       5.934  -2.849  -7.355  1.00  0.00     0.024 A 
ATOM     84  C   UNL     1       7.994  -2.460  -6.142  1.00  0.00     0.142 A 
ATOM     85  C   UNL     1       7.230  -3.245  -6.998  1.00  0.00     0.103 A 
ATOM     86  F   UNL     1       9.226  -2.830  -5.774  1.00  0.00    -0.206 F 
BRANCH  85  87
ATOM     87  S   UNL     1       7.866  -4.771  -7.622  1.00  0.00     0.186 S 
ATOM     88  O   UNL     1       7.783  -5.703  -6.512  1.00  0.00    -0.223 OA
ATOM     89  O   UNL     1       7.130  -5.055  -8.845  1.00  0.00    -0.223 OA
BRANCH  87  90
ATOM     90  C   UNL     1       9.587  -4.556  -8.040  1.00  0.00     0.188 C 
BRANCH  90  91
ATOM     91  C   UNL     1       9.790  -3.502  -9.085  1.00  0.00     0.020 A 
ATOM     92  C   UNL     1      10.009  -2.146  -8.925  1.00  0.00     0.016 A 
ATOM     93  S   UNL     1       9.875  -3.949 -10.741  1.00  0.00    -0.148 S 
ATOM     94  C   UNL     1      10.206  -1.473 -10.165  1.00  0.00     0.012 A 
ATOM     95  C   UNL     1      10.171  -2.340 -11.232  1.00  0.00     0.065 A 
ENDBRANCH  90  91
ENDBRANCH  87  90
ENDBRANCH  85  87
ENDBRANCH  77  80
ENDBRANCH  75  76
ENDBRANCH   1  75
TORSDOF 16
