REMARK SMILES CCCCCCNC(=O)Oc1cccc(-c2ccc([C@@H](C)C(=O)NCCCNC(=O)c3ccc(-c4c5nc(c(-c6c(F)cc(S(=O)(=O)[O-])cc6F)c6ccc([nH]6)c(-c6c(F)cc(S(=O)(=O)[O-])cc6F)c6nc(c(-c7c(F)cc(S(=O)(=O)[O-])cc7F)c7ccc4[nH]7)C=C6)C=C5)cc3)cc2Cl)c1
REMARK SMILES IDX 20 1 21 2 19 3 16 4 17 5 98 6 18 7 97 8 99 9 15 10 11 11
REMARK SMILES IDX 12 12 100 13 13 14 14 15 10 16 8 17 7 18 9 20 6 21 5 22 4 23
REMARK SMILES IDX 3 24 2 25 1 26 22 27 23 28 24 29 25 31 26 32 27 33 28 34
REMARK SMILES IDX 29 35 30 37 31 38 32 39 96 40 33 41 95 42 34 43 35 44 36 45
REMARK SMILES IDX 89 46 37 47 94 48 88 49 90 50 38 51 93 52 87 53 86 54 39 56
REMARK SMILES IDX 73 57 52 58 72 59 53 60 56 61 71 62 91 63 54 64 55 65 70 67
REMARK SMILES IDX 92 68 57 69 40 70 41 71 50 72 42 73 43 74 49 75 51 76 44 77
REMARK SMILES IDX 45 78 46 79 47 80 48 81 74 82 75 83 84 84 76 85 77 86 83 87
REMARK SMILES IDX 85 88 78 89 79 90 80 91 81 92 82 93 58 94 59 95 68 96 60 97
REMARK SMILES IDX 61 98 67 99 69 100 62 101 63 102 64 103 65 104 66 105
REMARK H PARENT 7 19 24 30 28 36 90 55 56 66
REMARK Flexibility Score: inf
ROOT
ATOM      1  C   UNL     1      -4.981 -13.492   1.376  1.00  0.00     0.105 C 
ATOM      2  C   UNL     1      -6.280 -14.284   1.515  1.00  0.00     0.023 C 
ENDROOT
BRANCH   1   3
ATOM      3  C   UNL     1      -5.098 -12.195   0.592  1.00  0.00    -0.034 A 
ATOM      4  C   UNL     1      -5.170  -9.729  -0.882  1.00  0.00     0.000 A 
ATOM      5  C   UNL     1      -5.656 -10.939  -1.414  1.00  0.00     0.010 A 
ATOM      6  C   UNL     1      -4.688  -9.780   0.441  1.00  0.00     0.049 A 
ATOM      7  C   UNL     1      -5.667 -12.128  -0.678  1.00  0.00     0.005 A 
ATOM      8  C   UNL     1      -4.619 -10.998   1.145  1.00  0.00     0.025 A 
ATOM      9  Cl  UNL     1      -4.222  -8.369   1.336  1.00  0.00    -0.084 Cl
BRANCH   4  10
ATOM     10  C   UNL     1      -5.208  -8.514  -1.736  1.00  0.00    -0.013 A 
ATOM     11  C   UNL     1      -4.200  -6.481  -2.617  1.00  0.00     0.133 A 
ATOM     12  C   UNL     1      -5.309  -6.230  -3.417  1.00  0.00     0.047 A 
ATOM     13  C   UNL     1      -4.133  -7.612  -1.799  1.00  0.00     0.056 A 
ATOM     14  C   UNL     1      -6.370  -7.125  -3.398  1.00  0.00     0.004 A 
ATOM     15  C   UNL     1      -6.325  -8.242  -2.556  1.00  0.00     0.009 A 
BRANCH  11  16
ATOM     16  O   UNL     1      -3.231  -5.466  -2.553  1.00  0.00    -0.410 OA
BRANCH  16  17
ATOM     17  C   UNL     1      -1.885  -5.788  -2.616  1.00  0.00     0.412 C 
ATOM     18  N   UNL     1      -1.075  -4.713  -2.369  1.00  0.00    -0.321 N 
ATOM     19  H   UNL     1      -0.106  -4.857  -2.469  1.00  0.00     0.167 HD
ATOM     20  O   UNL     1      -1.415  -6.894  -2.848  1.00  0.00    -0.224 OA
BRANCH  18  21
ATOM     21  C   UNL     1      -1.499  -3.385  -1.976  1.00  0.00     0.119 C 
BRANCH  21  22
ATOM     22  C   UNL     1      -0.928  -2.994  -0.612  1.00  0.00     0.021 C 
BRANCH  22  23
ATOM     23  C   UNL     1       0.601  -2.881  -0.567  1.00  0.00     0.002 C 
BRANCH  23  24
ATOM     24  C   UNL     1       1.213  -1.875  -1.547  1.00  0.00    -0.000 C 
BRANCH  24  25
ATOM     25  C   UNL     1       0.728  -0.431  -1.390  1.00  0.00    -0.003 C 
ATOM     26  C   UNL     1       1.089   0.179  -0.044  1.00  0.00     0.004 C 
ENDBRANCH  24  25
ENDBRANCH  23  24
ENDBRANCH  22  23
ENDBRANCH  21  22
ENDBRANCH  18  21
ENDBRANCH  16  17
ENDBRANCH  11  16
ENDBRANCH   4  10
ENDBRANCH   1   3
BRANCH   1  27
ATOM     27  C   UNL     1      -3.751 -14.338   1.017  1.00  0.00     0.227 C 
ATOM     28  O   UNL     1      -2.772 -14.349   1.775  1.00  0.00    -0.274 OA
ATOM     29  N   UNL     1      -3.655 -15.120  -0.091  1.00  0.00    -0.356 N 
ATOM     30  H   UNL     1      -2.825 -15.649  -0.136  1.00  0.00     0.163 HD
BRANCH  29  31
ATOM     31  C   UNL     1      -4.542 -15.324  -1.220  1.00  0.00     0.117 C 
BRANCH  31  32
ATOM     32  C   UNL     1      -4.137 -14.485  -2.428  1.00  0.00     0.042 C 
BRANCH  32  33
ATOM     33  C   UNL     1      -3.031 -15.113  -3.261  1.00  0.00     0.118 C 
BRANCH  33  34
ATOM     34  N   UNL     1      -3.504 -16.271  -4.012  1.00  0.00    -0.352 N 
ATOM     35  C   UNL     1      -3.604 -16.458  -5.371  1.00  0.00     0.251 C 
ATOM     36  H   UNL     1      -3.795 -17.034  -3.463  1.00  0.00     0.163 HD
ATOM     37  O   UNL     1      -4.236 -17.417  -5.803  1.00  0.00    -0.269 OA
BRANCH  35  38
ATOM     38  C   UNL     1      -2.967 -15.504  -6.306  1.00  0.00     0.039 A 
ATOM     39  C   UNL     1      -3.645 -15.125  -7.469  1.00  0.00     0.014 A 
ATOM     40  C   UNL     1      -1.692 -14.997  -6.047  1.00  0.00     0.014 A 
ATOM     41  C   UNL     1      -3.073 -14.188  -8.335  1.00  0.00     0.010 A 
ATOM     42  C   UNL     1      -1.164 -14.002  -6.860  1.00  0.00     0.010 A 
ATOM     43  C   UNL     1      -1.842 -13.593  -8.018  1.00  0.00    -0.014 A 
BRANCH  43  44
ATOM     44  C   UNL     1      -1.202 -12.572  -8.887  1.00  0.00     0.031 A 
ATOM     45  C   UNL     1       0.148 -12.862  -9.488  1.00  0.00     0.074 A 
ATOM     46  C   UNL     1      -1.771 -11.361  -9.045  1.00  0.00     0.049 A 
ATOM     47  N   UNL     1       0.976 -12.054 -10.096  1.00  0.00    -0.248 NA
ATOM     48  C   UNL     1       0.648 -14.240  -9.349  1.00  0.00     0.031 C 
ATOM     49  C   UNL     1      -3.062 -10.951  -8.490  1.00  0.00     0.029 A 
ATOM     50  N   UNL     1      -1.318 -10.239  -9.695  1.00  0.00    -0.354 N 
ATOM     51  C   UNL     1       2.106 -12.814 -10.378  1.00  0.00     0.074 A 
ATOM     52  C   UNL     1       1.875 -14.134  -9.836  1.00  0.00     0.031 C 
ATOM     53  C   UNL     1      -3.298  -9.672  -8.824  1.00  0.00     0.029 A 
ATOM     54  C   UNL     1      -2.156  -9.155  -9.573  1.00  0.00     0.049 A 
ATOM     55  H   UNL     1      -0.474 -10.213 -10.201  1.00  0.00     0.167 HD
ATOM     56  C   UNL     1       3.226 -12.447 -11.044  1.00  0.00     0.037 A 
ATOM     57  C   UNL     1      -2.008  -7.883  -9.992  1.00  0.00     0.037 A 
ATOM     58  C   UNL     1       3.428 -11.141 -11.612  1.00  0.00     0.049 A 
ATOM     59  C   UNL     1      -0.754  -7.497 -10.732  1.00  0.00     0.074 A 
ATOM     60  C   UNL     1       4.505 -10.680 -12.349  1.00  0.00     0.029 A 
ATOM     61  N   UNL     1       2.531 -10.088 -11.511  1.00  0.00    -0.354 N 
ATOM     62  N   UNL     1       0.290  -8.236 -11.024  1.00  0.00    -0.248 NA
ATOM     63  C   UNL     1      -0.657  -6.108 -11.204  1.00  0.00     0.031 C 
ATOM     64  C   UNL     1       4.275  -9.337 -12.662  1.00  0.00     0.029 A 
ATOM     65  C   UNL     1       3.032  -8.976 -12.166  1.00  0.00     0.049 A 
ATOM     66  H   UNL     1       1.666 -10.125 -11.042  1.00  0.00     0.167 HD
ATOM     67  C   UNL     1       1.148  -7.414 -11.746  1.00  0.00     0.074 A 
ATOM     68  C   UNL     1       0.504  -6.121 -11.846  1.00  0.00     0.031 C 
ATOM     69  C   UNL     1       2.358  -7.707 -12.284  1.00  0.00     0.037 A 
BRANCH  56  70
ATOM     70  C   UNL     1       4.316 -13.473 -11.196  1.00  0.00     0.058 A 
ATOM     71  C   UNL     1       4.160 -14.599 -12.021  1.00  0.00     0.135 A 
ATOM     72  C   UNL     1       5.543 -13.316 -10.531  1.00  0.00     0.135 A 
ATOM     73  F   UNL     1       3.003 -14.808 -12.668  1.00  0.00    -0.206 F 
ATOM     74  C   UNL     1       5.168 -15.549 -12.154  1.00  0.00     0.059 A 
ATOM     75  C   UNL     1       6.576 -14.238 -10.674  1.00  0.00     0.059 A 
ATOM     76  F   UNL     1       5.748 -12.258  -9.730  1.00  0.00    -0.206 F 
ATOM     77  C   UNL     1       6.372 -15.360 -11.475  1.00  0.00     0.060 A 
BRANCH  77  78
ATOM     78  S   UNL     1       7.669 -16.602 -11.660  1.00  0.00     0.124 S 
ATOM     79  O   UNL     1       7.133 -17.703 -10.865  1.00  0.00    -0.237 OA
ATOM     80  O   UNL     1       7.692 -16.817 -13.104  1.00  0.00    -0.237 OA
ATOM     81  O   UNL     1       8.850 -15.946 -11.108  1.00  0.00    -0.744 OA
ENDBRANCH  77  78
ENDBRANCH  56  70
BRANCH  57  82
ATOM     82  C   UNL     1      -3.081  -6.885  -9.735  1.00  0.00     0.058 A 
ATOM     83  C   UNL     1      -3.874  -6.393 -10.783  1.00  0.00     0.135 A 
ATOM     84  C   UNL     1      -3.348  -6.415  -8.440  1.00  0.00     0.135 A 
ATOM     85  F   UNL     1      -3.653  -6.806 -12.040  1.00  0.00    -0.206 F 
ATOM     86  C   UNL     1      -4.882  -5.460 -10.560  1.00  0.00     0.059 A 
ATOM     87  C   UNL     1      -4.368  -5.502  -8.188  1.00  0.00     0.059 A 
ATOM     88  F   UNL     1      -2.629  -6.863  -7.400  1.00  0.00    -0.206 F 
ATOM     89  C   UNL     1      -5.123  -5.022  -9.257  1.00  0.00     0.060 A 
BRANCH  89  90
ATOM     90  S   UNL     1      -6.465  -3.848  -8.970  1.00  0.00     0.124 S 
ATOM     91  O   UNL     1      -5.899  -2.617  -9.509  1.00  0.00    -0.237 OA
ATOM     92  O   UNL     1      -7.559  -4.438  -9.736  1.00  0.00    -0.237 OA
ATOM     93  O   UNL     1      -6.637  -3.882  -7.520  1.00  0.00    -0.744 OA
ENDBRANCH  89  90
ENDBRANCH  57  82
BRANCH  69  94
ATOM     94  C   UNL     1       3.044  -6.642 -13.092  1.00  0.00     0.058 A 
ATOM     95  C   UNL     1       3.675  -5.544 -12.490  1.00  0.00     0.135 A 
ATOM     96  C   UNL     1       3.156  -6.783 -14.485  1.00  0.00     0.135 A 
ATOM     97  F   UNL     1       3.592  -5.359 -11.163  1.00  0.00    -0.206 F 
ATOM     98  C   UNL     1       4.393  -4.619 -13.242  1.00  0.00     0.059 A 
ATOM     99  C   UNL     1       3.888  -5.885 -15.254  1.00  0.00     0.059 A 
ATOM    100  F   UNL     1       2.576  -7.821 -15.108  1.00  0.00    -0.206 F 
ATOM    101  C   UNL     1       4.501  -4.804 -14.623  1.00  0.00     0.060 A 
BRANCH 101 102
ATOM    102  S   UNL     1       5.497  -3.638 -15.576  1.00  0.00     0.124 S 
ATOM    103  O   UNL     1       4.638  -2.459 -15.591  1.00  0.00    -0.237 OA
ATOM    104  O   UNL     1       6.709  -3.530 -14.770  1.00  0.00    -0.237 OA
ATOM    105  O   UNL     1       5.666  -4.308 -16.863  1.00  0.00    -0.744 OA
ENDBRANCH 101 102
ENDBRANCH  69  94
ENDBRANCH  43  44
ENDBRANCH  35  38
ENDBRANCH  33  34
ENDBRANCH  32  33
ENDBRANCH  31  32
ENDBRANCH  29  31
ENDBRANCH   1  27
TORSDOF 22
