REMARK SMILES Cc1c(CC(=O)N2CCC(C(=O)NCCCNC(=O)c3ccc(-c4c5nc(c(-c6c(F)cc(S(=O)(=O)[O-])cc6F)c6ccc([nH]6)c(-c6c(F)cc(S(=O)(=O)[O-])cc6F)c6nc(c(-c7c(F)cc(S(=O)(=O)[O-])cc7F)c7ccc4[nH]7)C=C6)C=C5)cc3)(c3ccccc3)CC2)c(=O)oc2c(C)c(O)ccc12
REMARK SMILES IDX 15 1 14 2 13 3 11 4 12 5 10 7 5 8 6 9 7 10 8 11 93 12 9 13
REMARK SMILES IDX 92 14 4 15 3 16 1 17 2 18 104 19 94 20 97 21 103 22 95 23
REMARK SMILES IDX 96 24 98 25 102 26 99 27 100 28 101 29 86 31 87 32 91 33
REMARK SMILES IDX 88 34 90 35 89 36 16 37 17 38 18 39 19 41 20 42 21 43 85 44
REMARK SMILES IDX 22 45 84 46 23 47 24 48 25 49 78 50 26 51 83 52 77 53 79 54
REMARK SMILES IDX 27 55 82 56 76 57 75 58 28 60 62 61 41 62 61 63 42 64 45 65
REMARK SMILES IDX 60 66 80 67 43 68 44 69 59 71 81 72 46 73 29 74 30 75 39 76
REMARK SMILES IDX 31 77 32 78 38 79 40 80 33 81 34 82 35 83 36 84 37 85 63 86
REMARK SMILES IDX 64 87 73 88 65 89 66 90 72 91 74 92 67 93 68 94 69 95 70 96
REMARK SMILES IDX 71 97 47 98 48 99 57 100 49 101 50 102 56 103 58 104 51 105
REMARK SMILES IDX 52 106 53 107 54 108 55 109
REMARK H PARENT 13 6 101 30 17 40 79 59 45 70
REMARK Flexibility Score: inf
ROOT
ATOM      1  C   UNL     1       3.173   2.509  -3.925  1.00  0.00     0.042 C 
ENDROOT
BRANCH   1   2
ATOM      2  C   UNL     1       2.295   1.275  -4.107  1.00  0.00     0.117 C 
BRANCH   2   3
ATOM      3  N   UNL     1       2.439   0.669  -5.426  1.00  0.00    -0.355 N 
ATOM      4  C   UNL     1       2.854  -0.557  -5.870  1.00  0.00     0.230 C 
ATOM      5  O   UNL     1       2.665  -0.714  -7.079  1.00  0.00    -0.274 OA
ATOM      6  H   UNL     1       2.181   1.276  -6.157  1.00  0.00     0.163 HD
BRANCH   4   7
ATOM      7  C   UNL     1       3.426  -1.668  -4.909  1.00  0.00     0.077 C 
ATOM      8  C   UNL     1       3.515  -1.276  -0.612  1.00  0.00     0.227 C 
ATOM      9  O   UNL     1       4.244  -0.359  -0.220  1.00  0.00    -0.275 OA
ATOM     10  N   UNL     1       3.521  -1.668  -1.949  1.00  0.00    -0.342 N 
ATOM     11  C   UNL     1       4.772  -1.501  -2.682  1.00  0.00     0.121 C 
ATOM     12  C   UNL     1       2.504  -2.481  -2.593  1.00  0.00     0.121 C 
ATOM     13  C   UNL     1       4.610  -1.047  -4.125  1.00  0.00     0.043 C 
ATOM     14  C   UNL     1       2.209  -2.069  -4.028  1.00  0.00     0.043 C 
BRANCH   8  15
ATOM     15  C   UNL     1       2.733  -2.086   0.437  1.00  0.00     0.143 C 
BRANCH  15  16
ATOM     16  C   UNL     1       1.245  -2.236   0.249  1.00  0.00     0.051 A 
ATOM     17  C   UNL     1       0.776   0.236   0.265  1.00  0.00     0.046 C 
ATOM     18  C   UNL     1       0.380  -1.209   0.098  1.00  0.00    -0.029 A 
ATOM     19  C   UNL     1      -1.002  -1.503  -0.330  1.00  0.00     0.021 A 
ATOM     20  C   UNL     1       0.794  -3.654   0.163  1.00  0.00     0.340 A 
ATOM     21  C   UNL     1      -1.422  -2.831  -0.425  1.00  0.00     0.145 A 
ATOM     22  C   UNL     1      -1.911  -0.513  -0.724  1.00  0.00     0.016 A 
ATOM     23  O   UNL     1       1.567  -4.597   0.294  1.00  0.00    -0.246 OA
ATOM     24  O   UNL     1      -0.543  -3.878  -0.093  1.00  0.00    -0.422 OA
ATOM     25  C   UNL     1      -2.698  -3.206  -0.883  1.00  0.00     0.034 A 
ATOM     26  C   UNL     1      -3.182  -0.852  -1.203  1.00  0.00     0.047 A 
ATOM     27  C   UNL     1      -3.075  -4.658  -0.966  1.00  0.00     0.052 C 
ATOM     28  C   UNL     1      -3.564  -2.190  -1.283  1.00  0.00     0.122 A 
BRANCH  28  29
ATOM     29  O   UNL     1      -4.797  -2.516  -1.771  1.00  0.00    -0.508 OA
ATOM     30  H   UNL     1      -5.056  -3.415  -1.825  1.00  0.00     0.293 HD
ENDBRANCH  28  29
ENDBRANCH  15  16
ENDBRANCH   8  15
BRANCH   7  31
ATOM     31  C   UNL     1       3.958  -2.972  -5.605  1.00  0.00    -0.032 A 
ATOM     32  C   UNL     1       4.130  -3.115  -6.991  1.00  0.00     0.005 A 
ATOM     33  C   UNL     1       4.315  -4.098  -4.829  1.00  0.00     0.005 A 
ATOM     34  C   UNL     1       4.554  -4.323  -7.567  1.00  0.00     0.000 A 
ATOM     35  C   UNL     1       4.744  -5.303  -5.396  1.00  0.00     0.000 A 
ATOM     36  C   UNL     1       4.851  -5.421  -6.771  1.00  0.00     0.000 A 
ENDBRANCH   7  31
ENDBRANCH   4   7
ENDBRANCH   2   3
ENDBRANCH   1   2
BRANCH   1  37
ATOM     37  C   UNL     1       2.905   3.625  -4.929  1.00  0.00     0.118 C 
BRANCH  37  38
ATOM     38  N   UNL     1       1.597   4.238  -4.747  1.00  0.00    -0.352 N 
ATOM     39  C   UNL     1       1.279   5.481  -4.255  1.00  0.00     0.251 C 
ATOM     40  H   UNL     1       0.830   3.683  -5.016  1.00  0.00     0.163 HD
ATOM     41  O   UNL     1       0.113   5.745  -3.974  1.00  0.00    -0.269 OA
BRANCH  39  42
ATOM     42  C   UNL     1       2.342   6.487  -4.045  1.00  0.00     0.039 A 
ATOM     43  C   UNL     1       2.387   7.188  -2.837  1.00  0.00     0.014 A 
ATOM     44  C   UNL     1       3.283   6.748  -5.045  1.00  0.00     0.014 A 
ATOM     45  C   UNL     1       3.413   8.107  -2.608  1.00  0.00     0.010 A 
ATOM     46  C   UNL     1       4.341   7.615  -4.792  1.00  0.00     0.010 A 
ATOM     47  C   UNL     1       4.411   8.309  -3.575  1.00  0.00    -0.014 A 
BRANCH  47  48
ATOM     48  C   UNL     1       5.518   9.270  -3.347  1.00  0.00     0.031 A 
ATOM     49  C   UNL     1       5.596  10.527  -4.166  1.00  0.00     0.074 A 
ATOM     50  C   UNL     1       6.483   8.982  -2.453  1.00  0.00     0.049 A 
ATOM     51  N   UNL     1       6.501  11.470  -4.146  1.00  0.00    -0.248 NA
ATOM     52  C   UNL     1       4.525  10.740  -5.153  1.00  0.00     0.031 C 
ATOM     53  C   UNL     1       6.540   7.771  -1.633  1.00  0.00     0.029 A 
ATOM     54  N   UNL     1       7.607   9.683  -2.094  1.00  0.00    -0.354 N 
ATOM     55  C   UNL     1       6.116  12.383  -5.120  1.00  0.00     0.074 A 
ATOM     56  C   UNL     1       4.926  11.853  -5.750  1.00  0.00     0.031 C 
ATOM     57  C   UNL     1       7.635   7.820  -0.858  1.00  0.00     0.029 A 
ATOM     58  C   UNL     1       8.370   9.050  -1.143  1.00  0.00     0.049 A 
ATOM     59  H   UNL     1       7.844  10.556  -2.482  1.00  0.00     0.167 HD
ATOM     60  C   UNL     1       6.688  13.566  -5.445  1.00  0.00     0.037 A 
ATOM     61  C   UNL     1       9.531   9.418  -0.567  1.00  0.00     0.037 A 
ATOM     62  C   UNL     1       7.863  14.094  -4.804  1.00  0.00     0.049 A 
ATOM     63  C   UNL     1      10.158  10.731  -0.945  1.00  0.00     0.074 A 
ATOM     64  C   UNL     1       8.479  15.316  -5.008  1.00  0.00     0.029 A 
ATOM     65  N   UNL     1       8.607  13.426  -3.842  1.00  0.00    -0.354 N 
ATOM     66  N   UNL     1       9.738  11.622  -1.812  1.00  0.00    -0.248 NA
ATOM     67  C   UNL     1      11.409  11.094  -0.266  1.00  0.00     0.031 C 
ATOM     68  C   UNL     1       9.621  15.368  -4.203  1.00  0.00     0.029 A 
ATOM     69  C   UNL     1       9.694  14.197  -3.464  1.00  0.00     0.049 A 
ATOM     70  H   UNL     1       8.394  12.536  -3.481  1.00  0.00     0.167 HD
ATOM     71  C   UNL     1      10.666  12.657  -1.775  1.00  0.00     0.074 A 
ATOM     72  C   UNL     1      11.663  12.286  -0.790  1.00  0.00     0.031 C 
ATOM     73  C   UNL     1      10.687  13.809  -2.491  1.00  0.00     0.037 A 
BRANCH  60  74
ATOM     74  C   UNL     1       6.043  14.363  -6.545  1.00  0.00     0.058 A 
ATOM     75  C   UNL     1       4.797  14.985  -6.369  1.00  0.00     0.135 A 
ATOM     76  C   UNL     1       6.675  14.503  -7.791  1.00  0.00     0.135 A 
ATOM     77  F   UNL     1       4.142  14.870  -5.202  1.00  0.00    -0.206 F 
ATOM     78  C   UNL     1       4.179  15.681  -7.402  1.00  0.00     0.059 A 
ATOM     79  C   UNL     1       6.087  15.218  -8.830  1.00  0.00     0.059 A 
ATOM     80  F   UNL     1       7.867  13.928  -8.013  1.00  0.00    -0.206 F 
ATOM     81  C   UNL     1       4.829  15.786  -8.632  1.00  0.00     0.060 A 
BRANCH  81  82
ATOM     82  S   UNL     1       4.000  16.668  -9.971  1.00  0.00     0.124 S 
ATOM     83  O   UNL     1       2.955  15.718 -10.340  1.00  0.00    -0.237 OA
ATOM     84  O   UNL     1       3.545  17.885  -9.309  1.00  0.00    -0.237 OA
ATOM     85  O   UNL     1       5.056  16.853 -10.961  1.00  0.00    -0.744 OA
ENDBRANCH  81  82
ENDBRANCH  60  74
BRANCH  61  86
ATOM     86  C   UNL     1      10.142   8.534   0.459  1.00  0.00     0.058 A 
ATOM     87  C   UNL     1      10.060   8.854   1.821  1.00  0.00     0.135 A 
ATOM     88  C   UNL     1      10.743   7.315   0.107  1.00  0.00     0.135 A 
ATOM     89  F   UNL     1       9.502  10.012   2.205  1.00  0.00    -0.206 F 
ATOM     90  C   UNL     1      10.536   7.990   2.802  1.00  0.00     0.059 A 
ATOM     91  C   UNL     1      11.212   6.426   1.070  1.00  0.00     0.059 A 
ATOM     92  F   UNL     1      10.835   6.960  -1.184  1.00  0.00    -0.206 F 
ATOM     93  C   UNL     1      11.098   6.771   2.416  1.00  0.00     0.060 A 
BRANCH  93  94
ATOM     94  S   UNL     1      11.610   5.613   3.704  1.00  0.00     0.124 S 
ATOM     95  O   UNL     1      12.780   6.284   4.257  1.00  0.00    -0.237 OA
ATOM     96  O   UNL     1      10.430   5.575   4.564  1.00  0.00    -0.237 OA
ATOM     97  O   UNL     1      11.877   4.383   2.965  1.00  0.00    -0.744 OA
ENDBRANCH  93  94
ENDBRANCH  61  86
BRANCH  73  98
ATOM     98  C   UNL     1      11.824  14.761  -2.245  1.00  0.00     0.058 A 
ATOM     99  C   UNL     1      13.111  14.505  -2.740  1.00  0.00     0.135 A 
ATOM    100  C   UNL     1      11.604  15.980  -1.583  1.00  0.00     0.135 A 
ATOM    101  F   UNL     1      13.375  13.352  -3.375  1.00  0.00    -0.206 F 
ATOM    102  C   UNL     1      14.145  15.422  -2.581  1.00  0.00     0.059 A 
ATOM    103  C   UNL     1      12.618  16.921  -1.432  1.00  0.00     0.059 A 
ATOM    104  F   UNL     1      10.388  16.277  -1.098  1.00  0.00    -0.206 F 
ATOM    105  C   UNL     1      13.887  16.631  -1.931  1.00  0.00     0.060 A 
BRANCH 105 106
ATOM    106  S   UNL     1      15.225  17.834  -1.781  1.00  0.00     0.124 S 
ATOM    107  O   UNL     1      16.073  17.207  -0.772  1.00  0.00    -0.237 OA
ATOM    108  O   UNL     1      15.769  17.866  -3.135  1.00  0.00    -0.237 OA
ATOM    109  O   UNL     1      14.542  19.052  -1.357  1.00  0.00    -0.744 OA
ENDBRANCH 105 106
ENDBRANCH  73  98
ENDBRANCH  47  48
ENDBRANCH  39  42
ENDBRANCH  37  38
ENDBRANCH   1  37
TORSDOF 17
