REMARK SMILES CCC[NH+]1CCN(c2cc(C(=O)NCCCNC(=O)c3ccc(-c4c5nc(c(-c6c(F)cc(S(=O)(=O)[O-])cc6F)c6ccc([nH]6)c(-c6c(F)cc(S(=O)(=O)[O-])cc6F)c6nc(c(-c7c(F)cc(S(=O)(=O)[O-])cc7F)c7ccc4[nH]7)C=C6)C=C5)cc3)c3cc(NC(=O)c4ccc(F)cc4)ccc3n2)CC1
REMARK SMILES IDX 15 1 14 2 13 3 11 4 12 5 10 7 8 8 9 9 102 10 101 11 86 12
REMARK SMILES IDX 100 13 87 14 99 15 88 16 7 17 4 18 5 19 104 20 6 22 103 23
REMARK SMILES IDX 3 24 2 25 1 26 89 27 90 28 91 30 92 31 93 32 98 33 94 34
REMARK SMILES IDX 97 35 95 36 96 37 16 38 17 39 18 40 19 42 20 43 21 44 85 45
REMARK SMILES IDX 22 46 84 47 23 48 24 49 25 50 78 51 26 52 83 53 77 54 79 55
REMARK SMILES IDX 27 56 82 57 76 58 75 59 28 61 62 62 41 63 61 64 42 65 45 66
REMARK SMILES IDX 60 67 80 68 43 69 44 70 59 72 81 73 46 74 29 75 30 76 39 77
REMARK SMILES IDX 31 78 32 79 38 80 40 81 33 82 34 83 35 84 36 85 37 86 63 87
REMARK SMILES IDX 64 88 73 89 65 90 66 91 72 92 74 93 67 94 68 95 69 96 70 97
REMARK SMILES IDX 71 98 47 99 48 100 57 101 49 102 50 103 56 104 58 105 51 106
REMARK SMILES IDX 52 107 53 108 54 109 55 110
REMARK H PARENT 13 6 4 21 89 29 17 41 79 60 45 71
REMARK Flexibility Score: inf
ROOT
ATOM      1  C   UNL     1     -10.230   2.809  -1.688  1.00  0.00     0.042 C 
ENDROOT
BRANCH   1   2
ATOM      2  C   UNL     1      -8.983   3.609  -1.363  1.00  0.00     0.118 C 
BRANCH   2   3
ATOM      3  N   UNL     1      -8.236   3.235  -0.177  1.00  0.00    -0.352 N 
ATOM      4  C   UNL     1      -6.945   3.500   0.230  1.00  0.00     0.252 C 
ATOM      5  O   UNL     1      -6.682   3.196   1.399  1.00  0.00    -0.269 OA
ATOM      6  H   UNL     1      -8.749   2.687   0.460  1.00  0.00     0.163 HD
BRANCH   4   7
ATOM      7  C   UNL     1      -5.820   4.044  -0.614  1.00  0.00     0.052 A 
ATOM      8  C   UNL     1      -3.405   4.041  -0.849  1.00  0.00     0.130 A 
ATOM      9  C   UNL     1      -4.561   3.576  -0.233  1.00  0.00     0.061 A 
ATOM     10  N   UNL     1      -3.460   4.899  -1.881  1.00  0.00    -0.231 NA
ATOM     11  C   UNL     1      -4.646   5.379  -2.265  1.00  0.00     0.074 A 
ATOM     12  C   UNL     1      -5.845   5.038  -1.612  1.00  0.00     0.015 A 
ATOM     13  C   UNL     1      -4.679   6.307  -3.304  1.00  0.00     0.031 A 
ATOM     14  C   UNL     1      -6.961   5.814  -1.919  1.00  0.00     0.037 A 
ATOM     15  C   UNL     1      -5.836   7.028  -3.622  1.00  0.00     0.028 A 
ATOM     16  C   UNL     1      -6.961   6.853  -2.838  1.00  0.00     0.042 A 
BRANCH   8  17
ATOM     17  N   UNL     1      -2.175   3.630  -0.393  1.00  0.00    -0.345 N 
ATOM     18  N   UNL     1       0.476   2.482  -0.908  1.00  0.00    -0.332 N 
ATOM     19  C   UNL     1      -0.792   1.757  -1.142  1.00  0.00     0.284 C 
ATOM     20  C   UNL     1       0.198   3.926  -1.162  1.00  0.00     0.284 C 
ATOM     21  H   UNL     1       1.184   2.109  -1.540  1.00  0.00     0.348 HD
ATOM     22  C   UNL     1      -1.945   2.201  -0.228  1.00  0.00     0.179 C 
ATOM     23  C   UNL     1      -1.018   4.528  -0.403  1.00  0.00     0.179 C 
BRANCH  18  24
ATOM     24  C   UNL     1       1.047   2.288   0.437  1.00  0.00     0.262 C 
BRANCH  24  25
ATOM     25  C   UNL     1       1.006   0.865   1.022  1.00  0.00     0.058 C 
ATOM     26  C   UNL     1       1.719  -0.188   0.191  1.00  0.00     0.010 C 
ENDBRANCH  24  25
ENDBRANCH  18  24
ENDBRANCH   8  17
BRANCH  16  27
ATOM     27  N   UNL     1      -8.045   7.739  -2.945  1.00  0.00    -0.322 N 
ATOM     28  C   UNL     1      -9.045   8.057  -2.035  1.00  0.00     0.255 C 
ATOM     29  H   UNL     1      -8.106   8.212  -3.806  1.00  0.00     0.170 HD
ATOM     30  O   UNL     1     -10.031   8.678  -2.432  1.00  0.00    -0.269 OA
BRANCH  28  31
ATOM     31  C   UNL     1      -8.957   7.703  -0.581  1.00  0.00     0.040 A 
ATOM     32  C   UNL     1     -10.124   7.278   0.063  1.00  0.00     0.017 A 
ATOM     33  C   UNL     1      -7.753   7.706   0.141  1.00  0.00     0.017 A 
ATOM     34  C   UNL     1     -10.070   6.737   1.353  1.00  0.00     0.040 A 
ATOM     35  C   UNL     1      -7.688   7.107   1.405  1.00  0.00     0.040 A 
ATOM     36  C   UNL     1      -8.845   6.612   1.992  1.00  0.00     0.123 A 
ATOM     37  F   UNL     1      -8.779   6.006   3.184  1.00  0.00    -0.207 F 
ENDBRANCH  28  31
ENDBRANCH  16  27
ENDBRANCH   4   7
ENDBRANCH   2   3
ENDBRANCH   1   2
BRANCH   1  38
ATOM     38  C   UNL     1     -11.360   2.930  -0.669  1.00  0.00     0.118 C 
BRANCH  38  39
ATOM     39  N   UNL     1     -11.827   4.296  -0.398  1.00  0.00    -0.352 N 
ATOM     40  C   UNL     1     -12.910   5.023  -0.848  1.00  0.00     0.251 C 
ATOM     41  H   UNL     1     -11.253   4.792   0.230  1.00  0.00     0.163 HD
ATOM     42  O   UNL     1     -13.103   6.177  -0.475  1.00  0.00    -0.269 OA
BRANCH  40  43
ATOM     43  C   UNL     1     -13.855   4.407  -1.780  1.00  0.00     0.039 A 
ATOM     44  C   UNL     1     -14.257   5.053  -2.956  1.00  0.00     0.014 A 
ATOM     45  C   UNL     1     -14.310   3.136  -1.471  1.00  0.00     0.014 A 
ATOM     46  C   UNL     1     -15.025   4.352  -3.888  1.00  0.00     0.010 A 
ATOM     47  C   UNL     1     -14.916   2.396  -2.455  1.00  0.00     0.010 A 
ATOM     48  C   UNL     1     -15.303   2.998  -3.664  1.00  0.00    -0.014 A 
BRANCH  48  49
ATOM     49  C   UNL     1     -16.043   2.115  -4.591  1.00  0.00     0.031 A 
ATOM     50  C   UNL     1     -17.218   1.367  -4.019  1.00  0.00     0.074 A 
ATOM     51  C   UNL     1     -15.508   1.796  -5.783  1.00  0.00     0.049 A 
ATOM     52  N   UNL     1     -17.726   0.222  -4.378  1.00  0.00    -0.248 NA
ATOM     53  C   UNL     1     -17.805   1.929  -2.786  1.00  0.00     0.031 C 
ATOM     54  C   UNL     1     -14.332   2.424  -6.390  1.00  0.00     0.029 A 
ATOM     55  N   UNL     1     -15.854   0.812  -6.672  1.00  0.00    -0.354 N 
ATOM     56  C   UNL     1     -18.625  -0.112  -3.370  1.00  0.00     0.074 A 
ATOM     57  C   UNL     1     -18.535   0.912  -2.357  1.00  0.00     0.031 C 
ATOM     58  C   UNL     1     -14.055   1.811  -7.553  1.00  0.00     0.029 A 
ATOM     59  C   UNL     1     -14.995   0.713  -7.742  1.00  0.00     0.049 A 
ATOM     60  H   UNL     1     -16.640   0.232  -6.556  1.00  0.00     0.167 HD
ATOM     61  C   UNL     1     -19.462  -1.174  -3.317  1.00  0.00     0.037 A 
ATOM     62  C   UNL     1     -14.966  -0.187  -8.743  1.00  0.00     0.037 A 
ATOM     63  C   UNL     1     -19.581  -2.112  -4.400  1.00  0.00     0.049 A 
ATOM     64  C   UNL     1     -15.994  -1.286  -8.734  1.00  0.00     0.074 A 
ATOM     65  C   UNL     1     -20.466  -3.162  -4.543  1.00  0.00     0.029 A 
ATOM     66  N   UNL     1     -18.799  -2.080  -5.549  1.00  0.00    -0.354 N 
ATOM     67  N   UNL     1     -16.873  -1.579  -7.803  1.00  0.00    -0.248 NA
ATOM     68  C   UNL     1     -16.039  -2.168  -9.906  1.00  0.00     0.031 C 
ATOM     69  C   UNL     1     -20.208  -3.777  -5.772  1.00  0.00     0.029 A 
ATOM     70  C   UNL     1     -19.192  -3.082  -6.414  1.00  0.00     0.049 A 
ATOM     71  H   UNL     1     -18.073  -1.438  -5.721  1.00  0.00     0.167 HD
ATOM     72  C   UNL     1     -17.607  -2.650  -8.296  1.00  0.00     0.074 A 
ATOM     73  C   UNL     1     -17.063  -2.957  -9.604  1.00  0.00     0.031 C 
ATOM     74  C   UNL     1     -18.640  -3.319  -7.726  1.00  0.00     0.037 A 
BRANCH  61  75
ATOM     75  C   UNL     1     -20.319  -1.341  -2.090  1.00  0.00     0.058 A 
ATOM     76  C   UNL     1     -21.305  -0.403  -1.740  1.00  0.00     0.135 A 
ATOM     77  C   UNL     1     -20.161  -2.456  -1.249  1.00  0.00     0.135 A 
ATOM     78  F   UNL     1     -21.498   0.691  -2.495  1.00  0.00    -0.206 F 
ATOM     79  C   UNL     1     -22.065  -0.535  -0.583  1.00  0.00     0.059 A 
ATOM     80  C   UNL     1     -20.939  -2.630  -0.106  1.00  0.00     0.059 A 
ATOM     81  F   UNL     1     -19.236  -3.389  -1.527  1.00  0.00    -0.206 F 
ATOM     82  C   UNL     1     -21.875  -1.653   0.229  1.00  0.00     0.060 A 
BRANCH  82  83
ATOM     83  S   UNL     1     -22.878  -1.812   1.721  1.00  0.00     0.124 S 
ATOM     84  O   UNL     1     -22.266  -0.812   2.591  1.00  0.00    -0.237 OA
ATOM     85  O   UNL     1     -24.216  -1.491   1.233  1.00  0.00    -0.237 OA
ATOM     86  O   UNL     1     -22.676  -3.201   2.121  1.00  0.00    -0.744 OA
ENDBRANCH  82  83
ENDBRANCH  61  75
BRANCH  62  87
ATOM     87  C   UNL     1     -13.985  -0.036  -9.851  1.00  0.00     0.058 A 
ATOM     88  C   UNL     1     -14.408   0.409 -11.113  1.00  0.00     0.135 A 
ATOM     89  C   UNL     1     -12.612  -0.268  -9.670  1.00  0.00     0.135 A 
ATOM     90  F   UNL     1     -15.709   0.649 -11.336  1.00  0.00    -0.206 F 
ATOM     91  C   UNL     1     -13.512   0.604 -12.159  1.00  0.00     0.059 A 
ATOM     92  C   UNL     1     -11.693  -0.058 -10.695  1.00  0.00     0.059 A 
ATOM     93  F   UNL     1     -12.149  -0.666  -8.475  1.00  0.00    -0.206 F 
ATOM     94  C   UNL     1     -12.154   0.371 -11.940  1.00  0.00     0.060 A 
BRANCH  94  95
ATOM     95  S   UNL     1     -10.997   0.685 -13.292  1.00  0.00     0.124 S 
ATOM     96  O   UNL     1     -11.295  -0.420 -14.195  1.00  0.00    -0.237 OA
ATOM     97  O   UNL     1     -11.409   2.010 -13.745  1.00  0.00    -0.237 OA
ATOM     98  O   UNL     1      -9.693   0.632 -12.637  1.00  0.00    -0.744 OA
ENDBRANCH  94  95
ENDBRANCH  62  87
BRANCH  74  99
ATOM     99  C   UNL     1     -19.299  -4.392  -8.540  1.00  0.00     0.058 A 
ATOM    100  C   UNL     1     -18.712  -5.653  -8.711  1.00  0.00     0.135 A 
ATOM    101  C   UNL     1     -20.589  -4.183  -9.055  1.00  0.00     0.135 A 
ATOM    102  F   UNL     1     -17.478  -5.894  -8.241  1.00  0.00    -0.206 F 
ATOM    103  C   UNL     1     -19.384  -6.675  -9.369  1.00  0.00     0.059 A 
ATOM    104  C   UNL     1     -21.289  -5.199  -9.693  1.00  0.00     0.059 A 
ATOM    105  F   UNL     1     -21.193  -2.993  -8.903  1.00  0.00    -0.206 F 
ATOM    106  C   UNL     1     -20.676  -6.441  -9.846  1.00  0.00     0.060 A 
BRANCH 106 107
ATOM    107  S   UNL     1     -21.567  -7.803 -10.625  1.00  0.00     0.124 S 
ATOM    108  O   UNL     1     -20.884  -7.902 -11.911  1.00  0.00    -0.237 OA
ATOM    109  O   UNL     1     -21.330  -8.902  -9.694  1.00  0.00    -0.237 OA
ATOM    110  O   UNL     1     -22.944  -7.321 -10.680  1.00  0.00    -0.744 OA
ENDBRANCH 106 107
ENDBRANCH  74  99
ENDBRANCH  48  49
ENDBRANCH  40  43
ENDBRANCH  38  39
ENDBRANCH   1  38
TORSDOF 18
