REMARK SMILES CC(C)(C[NH2+]CCc1cccnc1)C(=O)NCCCNC(=O)c1ccc(-c2c3nc(c(-c4c(F)cc(S(=O)(=O)[O-])cc4F)c4ccc([nH]4)c(-c4c(F)cc(S(=O)(=O)[O-])cc4F)c4nc(c(-c5c(F)cc(S(=O)(=O)[O-])cc5F)c5ccc2[nH]5)C=C4)C=C3)cc1
REMARK SMILES IDX 17 1 16 2 14 3 15 4 2 6 1 7 3 8 4 9 5 10 6 13 7 14 8 15 9 16
REMARK SMILES IDX 13 17 10 18 12 19 11 20 18 21 19 22 20 23 21 24 22 26 23 27
REMARK SMILES IDX 24 28 88 29 25 30 87 31 26 32 27 33 28 34 81 35 29 36 86 37
REMARK SMILES IDX 80 38 82 39 30 40 85 41 79 42 78 43 31 45 65 46 44 47 64 48
REMARK SMILES IDX 45 49 48 50 63 51 83 52 46 53 47 54 62 56 84 57 49 58 32 59
REMARK SMILES IDX 33 60 42 61 34 62 35 63 41 64 43 65 36 66 37 67 38 68 39 69
REMARK SMILES IDX 40 70 66 71 67 72 76 73 68 74 69 75 75 76 77 77 70 78 71 79
REMARK SMILES IDX 72 80 73 81 74 82 50 83 51 84 60 85 52 86 53 87 59 88 61 89
REMARK SMILES IDX 54 90 55 91 56 92 57 93 58 94
REMARK H PARENT 16 5 5 11 5 12 20 25 82 44 48 55
REMARK Flexibility Score: inf
ROOT
ATOM      1  C   UNL     1      -0.062   4.450  -0.443  1.00  0.00     0.117 C 
ENDROOT
BRANCH   1   2
ATOM      2  N   UNL     1       0.809   3.715   0.453  1.00  0.00    -0.355 N 
ATOM      3  C   UNL     1       1.106   2.394   0.564  1.00  0.00     0.231 C 
ATOM      4  O   UNL     1       1.878   2.094   1.483  1.00  0.00    -0.274 OA
ATOM      5  H   UNL     1       1.275   4.283   1.109  1.00  0.00     0.163 HD
BRANCH   3   6
ATOM      6  C   UNL     1       0.575   1.325  -0.410  1.00  0.00     0.092 C 
ATOM      7  C   UNL     1       1.139  -0.052   0.037  1.00  0.00     0.027 C 
ATOM      8  C   UNL     1       1.141   1.571  -1.822  1.00  0.00     0.027 C 
BRANCH   6   9
ATOM      9  C   UNL     1      -0.975   1.236  -0.445  1.00  0.00     0.276 C 
BRANCH   9  10
ATOM     10  N   UNL     1      -1.589   1.155   0.878  1.00  0.00    -0.345 N 
ATOM     11  H   UNL     1      -1.457   2.055   1.339  1.00  0.00     0.346 HD
ATOM     12  H   UNL     1      -1.130   0.374   1.347  1.00  0.00     0.346 HD
BRANCH  10  13
ATOM     13  C   UNL     1      -3.020   0.844   0.906  1.00  0.00     0.265 C 
BRANCH  13  14
ATOM     14  C   UNL     1      -3.585  -0.281   0.012  1.00  0.00     0.098 C 
BRANCH  14  15
ATOM     15  C   UNL     1      -3.166  -1.715   0.233  1.00  0.00    -0.024 A 
ATOM     16  C   UNL     1      -1.985  -2.122   0.853  1.00  0.00     0.007 A 
ATOM     17  C   UNL     1      -3.972  -2.733  -0.281  1.00  0.00     0.114 A 
ATOM     18  C   UNL     1      -1.656  -3.474   0.931  1.00  0.00     0.020 A 
ATOM     19  N   UNL     1      -3.686  -4.056  -0.217  1.00  0.00    -0.264 NA
ATOM     20  C   UNL     1      -2.531  -4.395   0.387  1.00  0.00     0.111 A 
ENDBRANCH  14  15
ENDBRANCH  13  14
ENDBRANCH  10  13
ENDBRANCH   9  10
ENDBRANCH   6   9
ENDBRANCH   3   6
ENDBRANCH   1   2
BRANCH   1  21
ATOM     21  C   UNL     1      -1.336   4.931   0.239  1.00  0.00     0.042 C 
BRANCH  21  22
ATOM     22  C   UNL     1      -1.100   5.926   1.370  1.00  0.00     0.118 C 
BRANCH  22  23
ATOM     23  N   UNL     1      -0.430   7.139   0.916  1.00  0.00    -0.352 N 
ATOM     24  C   UNL     1      -0.872   8.437   0.863  1.00  0.00     0.251 C 
ATOM     25  H   UNL     1       0.491   7.004   0.596  1.00  0.00     0.163 HD
ATOM     26  O   UNL     1      -0.218   9.267   0.237  1.00  0.00    -0.269 OA
BRANCH  24  27
ATOM     27  C   UNL     1      -2.126   8.839   1.538  1.00  0.00     0.039 A 
ATOM     28  C   UNL     1      -2.970   9.757   0.906  1.00  0.00     0.014 A 
ATOM     29  C   UNL     1      -2.454   8.350   2.805  1.00  0.00     0.014 A 
ATOM     30  C   UNL     1      -4.170  10.132   1.516  1.00  0.00     0.010 A 
ATOM     31  C   UNL     1      -3.687   8.659   3.372  1.00  0.00     0.010 A 
ATOM     32  C   UNL     1      -4.555   9.559   2.738  1.00  0.00    -0.014 A 
BRANCH  32  33
ATOM     33  C   UNL     1      -5.858   9.888   3.369  1.00  0.00     0.031 A 
ATOM     34  C   UNL     1      -5.903  10.556   4.717  1.00  0.00     0.074 A 
ATOM     35  C   UNL     1      -7.002   9.511   2.764  1.00  0.00     0.049 A 
ATOM     36  N   UNL     1      -6.939  10.855   5.457  1.00  0.00    -0.248 NA
ATOM     37  C   UNL     1      -4.610  10.903   5.328  1.00  0.00     0.031 C 
ATOM     38  C   UNL     1      -7.087   8.800   1.487  1.00  0.00     0.029 A 
ATOM     39  N   UNL     1      -8.311   9.659   3.149  1.00  0.00    -0.354 N 
ATOM     40  C   UNL     1      -6.425  11.402   6.627  1.00  0.00     0.074 A 
ATOM     41  C   UNL     1      -4.983  11.346   6.519  1.00  0.00     0.031 C 
ATOM     42  C   UNL     1      -8.378   8.589   1.187  1.00  0.00     0.029 A 
ATOM     43  C   UNL     1      -9.211   9.116   2.264  1.00  0.00     0.049 A 
ATOM     44  H   UNL     1      -8.580  10.111   3.982  1.00  0.00     0.167 HD
ATOM     45  C   UNL     1      -7.092  11.922   7.686  1.00  0.00     0.037 A 
ATOM     46  C   UNL     1     -10.555   9.043   2.315  1.00  0.00     0.037 A 
ATOM     47  C   UNL     1      -8.528  11.999   7.772  1.00  0.00     0.049 A 
ATOM     48  C   UNL     1     -11.278   9.652   3.483  1.00  0.00     0.074 A 
ATOM     49  C   UNL     1      -9.301  12.580   8.761  1.00  0.00     0.029 A 
ATOM     50  N   UNL     1      -9.407  11.473   6.835  1.00  0.00    -0.354 N 
ATOM     51  N   UNL     1     -10.778  10.239   4.544  1.00  0.00    -0.248 NA
ATOM     52  C   UNL     1     -12.745   9.598   3.458  1.00  0.00     0.031 C 
ATOM     53  C   UNL     1     -10.648  12.365   8.446  1.00  0.00     0.029 A 
ATOM     54  C   UNL     1     -10.715  11.694   7.235  1.00  0.00     0.049 A 
ATOM     55  H   UNL     1      -9.140  11.011   6.008  1.00  0.00     0.167 HD
ATOM     56  C   UNL     1     -11.870  10.642   5.306  1.00  0.00     0.074 A 
ATOM     57  C   UNL     1     -13.056  10.243   4.575  1.00  0.00     0.031 C 
ATOM     58  C   UNL     1     -11.887  11.285   6.500  1.00  0.00     0.037 A 
BRANCH  45  59
ATOM     59  C   UNL     1      -6.271  12.440   8.836  1.00  0.00     0.058 A 
ATOM     60  C   UNL     1      -5.478  13.594   8.720  1.00  0.00     0.135 A 
ATOM     61  C   UNL     1      -6.278  11.776  10.074  1.00  0.00     0.135 A 
ATOM     62  F   UNL     1      -5.423  14.262   7.556  1.00  0.00    -0.206 F 
ATOM     63  C   UNL     1      -4.685  14.043   9.771  1.00  0.00     0.059 A 
ATOM     64  C   UNL     1      -5.517  12.225  11.149  1.00  0.00     0.059 A 
ATOM     65  F   UNL     1      -7.021  10.671  10.244  1.00  0.00    -0.206 F 
ATOM     66  C   UNL     1      -4.706  13.347  10.981  1.00  0.00     0.060 A 
BRANCH  66  67
ATOM     67  S   UNL     1      -3.652  13.925  12.328  1.00  0.00     0.124 S 
ATOM     68  O   UNL     1      -2.336  13.489  11.873  1.00  0.00    -0.237 OA
ATOM     69  O   UNL     1      -3.883  15.366  12.311  1.00  0.00    -0.237 OA
ATOM     70  O   UNL     1      -4.177  13.223  13.495  1.00  0.00    -0.744 OA
ENDBRANCH  66  67
ENDBRANCH  45  59
BRANCH  46  71
ATOM     71  C   UNL     1     -11.293   8.390   1.202  1.00  0.00     0.058 A 
ATOM     72  C   UNL     1     -12.015   9.152   0.272  1.00  0.00     0.135 A 
ATOM     73  C   UNL     1     -11.240   7.001   1.010  1.00  0.00     0.135 A 
ATOM     74  F   UNL     1     -12.099  10.483   0.416  1.00  0.00    -0.206 F 
ATOM     75  C   UNL     1     -12.658   8.561  -0.811  1.00  0.00     0.059 A 
ATOM     76  C   UNL     1     -11.855   6.389  -0.077  1.00  0.00     0.059 A 
ATOM     77  F   UNL     1     -10.546   6.231   1.863  1.00  0.00    -0.206 F 
ATOM     78  C   UNL     1     -12.564   7.178  -0.982  1.00  0.00     0.060 A 
BRANCH  78  79
ATOM     79  S   UNL     1     -13.324   6.433  -2.441  1.00  0.00     0.124 S 
ATOM     80  O   UNL     1     -14.741   6.500  -2.102  1.00  0.00    -0.237 OA
ATOM     81  O   UNL     1     -12.879   7.324  -3.508  1.00  0.00    -0.237 OA
ATOM     82  O   UNL     1     -12.744   5.093  -2.473  1.00  0.00    -0.744 OA
ENDBRANCH  78  79
ENDBRANCH  46  71
BRANCH  58  83
ATOM     83  C   UNL     1     -13.231  11.617   7.085  1.00  0.00     0.058 A 
ATOM     84  C   UNL     1     -14.057  10.628   7.642  1.00  0.00     0.135 A 
ATOM     85  C   UNL     1     -13.677  12.948   7.134  1.00  0.00     0.135 A 
ATOM     86  F   UNL     1     -13.681   9.340   7.615  1.00  0.00    -0.206 F 
ATOM     87  C   UNL     1     -15.289  10.944   8.206  1.00  0.00     0.059 A 
ATOM     88  C   UNL     1     -14.892  13.290   7.717  1.00  0.00     0.059 A 
ATOM     89  F   UNL     1     -12.920  13.933   6.625  1.00  0.00    -0.206 F 
ATOM     90  C   UNL     1     -15.697  12.279   8.240  1.00  0.00     0.060 A 
BRANCH  90  91
ATOM     91  S   UNL     1     -17.284  12.680   9.003  1.00  0.00     0.124 S 
ATOM     92  O   UNL     1     -18.223  12.223   7.984  1.00  0.00    -0.237 OA
ATOM     93  O   UNL     1     -17.249  11.894  10.232  1.00  0.00    -0.237 OA
ATOM     94  O   UNL     1     -17.214  14.127   9.189  1.00  0.00    -0.744 OA
ENDBRANCH  90  91
ENDBRANCH  58  83
ENDBRANCH  32  33
ENDBRANCH  24  27
ENDBRANCH  22  23
ENDBRANCH  21  22
ENDBRANCH   1  21
TORSDOF 18
