REMARK SMILES [NH3+][C@]1(C(=O)NCCCNC(=O)c2ccc(-c3c4nc(c(-c5c(F)cc(S(=O)(=O)[O-])cc5F)c5ccc([nH]5)c(-c5c(F)cc(S(=O)(=O)[O-])cc5F)c5nc(c(-c6c(F)cc(S(=O)(=O)[O-])cc6F)c6ccc3[nH]6)C=C5)C=C4)cc2)CC[C@@H](Sc2cc3ccccc3[nH]2)C1
REMARK SMILES IDX 7 1 6 2 5 3 3 4 4 5 2 7 78 8 91 9 79 10 80 11 1 12 81 16
REMARK SMILES IDX 82 17 83 18 90 19 84 20 89 21 85 23 88 24 86 25 87 26 8 27
REMARK SMILES IDX 9 28 10 29 11 31 12 32 13 33 77 34 14 35 76 36 15 37 16 38
REMARK SMILES IDX 17 39 70 40 18 41 75 42 69 43 71 44 19 45 74 46 68 47 67 48
REMARK SMILES IDX 20 50 54 51 33 52 53 53 34 54 37 55 52 56 72 57 35 58 36 59
REMARK SMILES IDX 51 61 73 62 38 63 21 64 22 65 31 66 23 67 24 68 30 69 32 70
REMARK SMILES IDX 25 71 26 72 27 73 28 74 29 75 55 76 56 77 65 78 57 79 58 80
REMARK SMILES IDX 64 81 66 82 59 83 60 84 61 85 62 86 63 87 39 88 40 89 49 90
REMARK SMILES IDX 41 91 42 92 48 93 50 94 43 95 44 96 45 97 46 98 47 99
REMARK H PARENT 5 6 1 13 1 14 1 15 90 22 9 30 71 49 37 60
REMARK Flexibility Score: inf
ROOT
ATOM      1  C   UNL     1       3.682   1.525   1.522  1.00  0.00     0.042 C 
ENDROOT
BRANCH   1   2
ATOM      2  C   UNL     1       2.185   1.807   1.382  1.00  0.00     0.118 C 
BRANCH   2   3
ATOM      3  N   UNL     1       1.649   1.290   0.137  1.00  0.00    -0.351 N 
ATOM      4  C   UNL     1       1.001   0.136  -0.170  1.00  0.00     0.281 C 
ATOM      5  O   UNL     1       0.642   0.014  -1.350  1.00  0.00    -0.268 OA
ATOM      6  H   UNL     1       1.779   1.890  -0.632  1.00  0.00     0.163 HD
BRANCH   4   7
ATOM      7  C   UNL     1       0.586  -0.946   0.870  1.00  0.00     0.175 C 
ATOM      8  C   UNL     1       0.744  -2.332   0.204  1.00  0.00     0.080 C 
ATOM      9  C   UNL     1       1.440  -1.110   2.122  1.00  0.00     0.094 C 
ATOM     10  C   UNL     1       0.790  -3.347   1.338  1.00  0.00     0.022 C 
ATOM     11  C   UNL     1       1.327  -2.572   2.533  1.00  0.00     0.060 C 
BRANCH   7  12
ATOM     12  N   UNL     1      -0.827  -0.701   1.245  1.00  0.00    -0.345 N 
ATOM     13  H   UNL     1      -1.124  -1.399   1.928  1.00  0.00     0.345 HD
ATOM     14  H   UNL     1      -1.416  -0.767   0.414  1.00  0.00     0.345 HD
ATOM     15  H   UNL     1      -0.915   0.230   1.651  1.00  0.00     0.345 HD
ENDBRANCH   7  12
BRANCH  11  16
ATOM     16  S   UNL     1       2.848  -3.173   3.276  1.00  0.00    -0.105 SA
BRANCH  16  17
ATOM     17  C   UNL     1       4.006  -3.453   2.014  1.00  0.00     0.073 A 
ATOM     18  C   UNL     1       4.989  -2.666   1.447  1.00  0.00     0.043 A 
ATOM     19  N   UNL     1       4.412  -4.753   1.872  1.00  0.00    -0.350 N 
ATOM     20  C   UNL     1       6.185  -3.462   1.538  1.00  0.00     0.001 A 
ATOM     21  C   UNL     1       5.789  -4.748   1.907  1.00  0.00     0.046 A 
ATOM     22  H   UNL     1       3.831  -5.541   1.766  1.00  0.00     0.167 HD
ATOM     23  C   UNL     1       7.563  -3.168   1.519  1.00  0.00     0.010 A 
ATOM     24  C   UNL     1       6.674  -5.738   2.337  1.00  0.00     0.027 A 
ATOM     25  C   UNL     1       8.462  -4.127   2.012  1.00  0.00     0.001 A 
ATOM     26  C   UNL     1       8.018  -5.380   2.435  1.00  0.00     0.002 A 
ENDBRANCH  16  17
ENDBRANCH  11  16
ENDBRANCH   4   7
ENDBRANCH   2   3
ENDBRANCH   1   2
BRANCH   1  27
ATOM     27  C   UNL     1       4.567   2.405   0.645  1.00  0.00     0.118 C 
BRANCH  27  28
ATOM     28  N   UNL     1       4.532   3.795   1.063  1.00  0.00    -0.352 N 
ATOM     29  C   UNL     1       5.550   4.645   1.408  1.00  0.00     0.251 C 
ATOM     30  H   UNL     1       3.632   4.191   1.104  1.00  0.00     0.163 HD
ATOM     31  O   UNL     1       5.268   5.710   1.953  1.00  0.00    -0.269 OA
BRANCH  29  32
ATOM     32  C   UNL     1       6.968   4.307   1.140  1.00  0.00     0.039 A 
ATOM     33  C   UNL     1       7.934   4.729   2.059  1.00  0.00     0.014 A 
ATOM     34  C   UNL     1       7.366   3.662  -0.035  1.00  0.00     0.014 A 
ATOM     35  C   UNL     1       9.288   4.488   1.812  1.00  0.00     0.010 A 
ATOM     36  C   UNL     1       8.711   3.361  -0.248  1.00  0.00     0.010 A 
ATOM     37  C   UNL     1       9.688   3.788   0.663  1.00  0.00    -0.014 A 
BRANCH  37  38
ATOM     38  C   UNL     1      11.125   3.522   0.397  1.00  0.00     0.031 A 
ATOM     39  C   UNL     1      11.809   4.157  -0.785  1.00  0.00     0.074 A 
ATOM     40  C   UNL     1      11.804   2.680   1.200  1.00  0.00     0.049 A 
ATOM     41  N   UNL     1      13.044   4.021  -1.196  1.00  0.00    -0.248 NA
ATOM     42  C   UNL     1      10.992   5.044  -1.629  1.00  0.00     0.031 C 
ATOM     43  C   UNL     1      11.239   1.970   2.350  1.00  0.00     0.029 A 
ATOM     44  N   UNL     1      13.115   2.275   1.172  1.00  0.00    -0.354 N 
ATOM     45  C   UNL     1      13.148   4.789  -2.350  1.00  0.00     0.074 A 
ATOM     46  C   UNL     1      11.839   5.351  -2.601  1.00  0.00     0.031 C 
ATOM     47  C   UNL     1      12.202   1.234   2.929  1.00  0.00     0.029 A 
ATOM     48  C   UNL     1      13.442   1.395   2.176  1.00  0.00     0.049 A 
ATOM     49  H   UNL     1      13.760   2.585   0.496  1.00  0.00     0.167 HD
ATOM     50  C   UNL     1      14.240   5.022  -3.118  1.00  0.00     0.037 A 
ATOM     51  C   UNL     1      14.609   0.784   2.457  1.00  0.00     0.037 A 
ATOM     52  C   UNL     1      15.547   4.483  -2.846  1.00  0.00     0.049 A 
ATOM     53  C   UNL     1      15.811   1.071   1.600  1.00  0.00     0.074 A 
ATOM     54  C   UNL     1      16.731   4.706  -3.527  1.00  0.00     0.029 A 
ATOM     55  N   UNL     1      15.844   3.612  -1.807  1.00  0.00    -0.354 N 
ATOM     56  N   UNL     1      15.906   1.849   0.547  1.00  0.00    -0.248 NA
ATOM     57  C   UNL     1      17.067   0.407   1.972  1.00  0.00     0.031 C 
ATOM     58  C   UNL     1      17.735   3.941  -2.924  1.00  0.00     0.029 A 
ATOM     59  C   UNL     1      17.187   3.275  -1.839  1.00  0.00     0.049 A 
ATOM     60  H   UNL     1      15.195   3.283  -1.144  1.00  0.00     0.167 HD
ATOM     61  C   UNL     1      17.235   1.784   0.145  1.00  0.00     0.074 A 
ATOM     62  C   UNL     1      17.910   0.903   1.077  1.00  0.00     0.031 C 
ATOM     63  C   UNL     1      17.843   2.397  -0.901  1.00  0.00     0.037 A 
BRANCH  50  64
ATOM     64  C   UNL     1      14.069   5.904  -4.326  1.00  0.00     0.058 A 
ATOM     65  C   UNL     1      13.849   7.286  -4.204  1.00  0.00     0.135 A 
ATOM     66  C   UNL     1      14.157   5.369  -5.621  1.00  0.00     0.135 A 
ATOM     67  F   UNL     1      13.743   7.849  -2.990  1.00  0.00    -0.206 F 
ATOM     68  C   UNL     1      13.692   8.100  -5.322  1.00  0.00     0.059 A 
ATOM     69  C   UNL     1      14.029   6.169  -6.754  1.00  0.00     0.059 A 
ATOM     70  F   UNL     1      14.367   4.055  -5.797  1.00  0.00    -0.206 F 
ATOM     71  C   UNL     1      13.781   7.532  -6.593  1.00  0.00     0.060 A 
BRANCH  71  72
ATOM     72  S   UNL     1      13.575   8.602  -8.033  1.00  0.00     0.124 S 
ATOM     73  O   UNL     1      12.135   8.839  -8.014  1.00  0.00    -0.237 OA
ATOM     74  O   UNL     1      14.411   9.748  -7.694  1.00  0.00    -0.237 OA
ATOM     75  O   UNL     1      14.061   7.780  -9.139  1.00  0.00    -0.744 OA
ENDBRANCH  71  72
ENDBRANCH  50  64
BRANCH  51  76
ATOM     76  C   UNL     1      14.700  -0.139   3.619  1.00  0.00     0.058 A 
ATOM     77  C   UNL     1      15.408   0.223   4.774  1.00  0.00     0.135 A 
ATOM     78  C   UNL     1      14.066  -1.391   3.606  1.00  0.00     0.135 A 
ATOM     79  F   UNL     1      16.035   1.408   4.832  1.00  0.00    -0.206 F 
ATOM     80  C   UNL     1      15.498  -0.627   5.871  1.00  0.00     0.059 A 
ATOM     81  C   UNL     1      14.121  -2.249   4.699  1.00  0.00     0.059 A 
ATOM     82  F   UNL     1      13.360  -1.777   2.531  1.00  0.00    -0.206 F 
ATOM     83  C   UNL     1      14.848  -1.862   5.824  1.00  0.00     0.060 A 
BRANCH  83  84
ATOM     84  S   UNL     1      14.929  -2.940   7.271  1.00  0.00     0.124 S 
ATOM     85  O   UNL     1      16.296  -3.441   7.188  1.00  0.00    -0.237 OA
ATOM     86  O   UNL     1      14.655  -2.010   8.363  1.00  0.00    -0.237 OA
ATOM     87  O   UNL     1      13.879  -3.922   7.016  1.00  0.00    -0.744 OA
ENDBRANCH  83  84
ENDBRANCH  51  76
BRANCH  63  88
ATOM     88  C   UNL     1      19.316   2.156  -1.079  1.00  0.00     0.058 A 
ATOM     89  C   UNL     1      19.810   0.930  -1.551  1.00  0.00     0.135 A 
ATOM     90  C   UNL     1      20.241   3.178  -0.810  1.00  0.00     0.135 A 
ATOM     91  F   UNL     1      18.967  -0.080  -1.817  1.00  0.00    -0.206 F 
ATOM     92  C   UNL     1      21.173   0.716  -1.725  1.00  0.00     0.059 A 
ATOM     93  C   UNL     1      21.607   2.994  -1.002  1.00  0.00     0.059 A 
ATOM     94  F   UNL     1      19.820   4.373  -0.366  1.00  0.00    -0.206 F 
ATOM     95  C   UNL     1      22.064   1.754  -1.447  1.00  0.00     0.060 A 
BRANCH  95  96
ATOM     96  S   UNL     1      23.829   1.472  -1.699  1.00  0.00     0.124 S 
ATOM     97  O   UNL     1      24.163   0.648  -0.542  1.00  0.00    -0.237 OA
ATOM     98  O   UNL     1      23.858   0.793  -2.990  1.00  0.00    -0.237 OA
ATOM     99  O   UNL     1      24.392   2.819  -1.694  1.00  0.00    -0.744 OA
ENDBRANCH  95  96
ENDBRANCH  63  88
ENDBRANCH  37  38
ENDBRANCH  29  32
ENDBRANCH  27  28
ENDBRANCH   1  27
TORSDOF 16
