REMARK SMILES CC[C@@H](C(=O)NCCCNC(=O)c1ccc(-c2c3nc(c(-c4c(F)cc(S(=O)(=O)[O-])cc4F)c4ccc([nH]4)c(-c4c(F)cc(S(=O)(=O)[O-])cc4F)c4nc(c(-c5c(F)cc(S(=O)(=O)[O-])cc5F)c5ccc2[nH]5)C=C4)C=C3)cc1)N(C)C(=O)N(C)C[C@@H]1CCC[N@H+]1C
REMARK SMILES IDX 7 1 6 2 4 3 5 4 3 6 2 7 1 8 79 9 80 10 81 11 82 12 83 13
REMARK SMILES IDX 84 14 85 15 86 16 87 17 90 18 88 19 89 20 91 21 8 23 9 24
REMARK SMILES IDX 10 25 11 26 12 28 13 29 14 30 78 31 15 32 77 33 16 34 17 35
REMARK SMILES IDX 18 36 71 37 19 38 76 39 70 40 72 41 20 42 75 43 69 44 68 45
REMARK SMILES IDX 21 47 55 48 34 49 54 50 35 51 38 52 53 53 73 54 36 55 37 56
REMARK SMILES IDX 52 58 74 59 39 60 22 61 23 62 32 63 24 64 25 65 31 66 33 67
REMARK SMILES IDX 26 68 27 69 28 70 29 71 30 72 56 73 57 74 66 75 58 76 59 77
REMARK SMILES IDX 65 78 67 79 60 80 61 81 62 82 63 83 64 84 40 85 41 86 50 87
REMARK SMILES IDX 42 88 43 89 49 90 51 91 44 92 45 93 46 94 47 95 48 96
REMARK H PARENT 6 5 90 22 10 27 72 46 38 57
REMARK Flexibility Score: inf
ROOT
ATOM      1  C   UNL     1       1.472   3.109  -1.200  1.00  0.00     0.117 C 
ENDROOT
BRANCH   1   2
ATOM      2  N   UNL     1       0.953   2.084  -2.079  1.00  0.00    -0.354 N 
ATOM      3  C   UNL     1      -0.100   2.059  -2.941  1.00  0.00     0.242 C 
ATOM      4  O   UNL     1      -0.073   1.108  -3.733  1.00  0.00    -0.273 OA
ATOM      5  H   UNL     1       1.459   1.240  -2.048  1.00  0.00     0.163 HD
BRANCH   3   6
ATOM      6  C   UNL     1      -1.180   3.195  -3.010  1.00  0.00     0.175 C 
BRANCH   6   7
ATOM      7  C   UNL     1      -2.158   3.366  -1.820  1.00  0.00     0.032 C 
ATOM      8  C   UNL     1      -1.676   4.155  -0.619  1.00  0.00     0.006 C 
ENDBRANCH   6   7
BRANCH   6   9
ATOM      9  N   UNL     1      -1.956   2.983  -4.291  1.00  0.00    -0.316 N 
ATOM     10  C   UNL     1      -1.581   3.836  -5.400  1.00  0.00     0.149 C 
BRANCH   9  11
ATOM     11  C   UNL     1      -2.816   1.901  -4.306  1.00  0.00     0.320 C 
ATOM     12  O   UNL     1      -2.928   1.228  -3.274  1.00  0.00    -0.248 OA
BRANCH  11  13
ATOM     13  N   UNL     1      -3.560   1.515  -5.400  1.00  0.00    -0.322 N 
ATOM     14  C   UNL     1      -3.801   2.171  -6.673  1.00  0.00     0.149 C 
BRANCH  13  15
ATOM     15  C   UNL     1      -4.333   0.260  -5.208  1.00  0.00     0.185 C 
BRANCH  15  16
ATOM     16  C   UNL     1      -3.454  -1.022  -5.151  1.00  0.00     0.203 C 
ATOM     17  C   UNL     1      -3.597  -1.869  -6.425  1.00  0.00     0.073 C 
ATOM     18  N   UNL     1      -3.836  -2.023  -4.123  1.00  0.00    -0.333 N 
ATOM     19  C   UNL     1      -3.302  -3.304  -5.995  1.00  0.00     0.068 C 
ATOM     20  C   UNL     1      -3.094  -3.230  -4.494  1.00  0.00     0.262 C 
ATOM     21  C   UNL     1      -3.469  -1.602  -2.769  1.00  0.00     0.333 C 
ATOM     22  H   UNL     1      -4.847  -2.159  -4.102  1.00  0.00     0.348 HD
ENDBRANCH  15  16
ENDBRANCH  13  15
ENDBRANCH  11  13
ENDBRANCH   9  11
ENDBRANCH   6   9
ENDBRANCH   3   6
ENDBRANCH   1   2
BRANCH   1  23
ATOM     23  C   UNL     1       1.456   2.666   0.261  1.00  0.00     0.042 C 
BRANCH  23  24
ATOM     24  C   UNL     1       2.411   1.524   0.593  1.00  0.00     0.118 C 
BRANCH  24  25
ATOM     25  N   UNL     1       3.793   1.958   0.707  1.00  0.00    -0.352 N 
ATOM     26  C   UNL     1       4.626   1.993   1.801  1.00  0.00     0.251 C 
ATOM     27  H   UNL     1       4.197   2.276  -0.132  1.00  0.00     0.163 HD
ATOM     28  O   UNL     1       5.707   2.569   1.701  1.00  0.00    -0.269 OA
BRANCH  26  29
ATOM     29  C   UNL     1       4.238   1.377   3.095  1.00  0.00     0.039 A 
ATOM     30  C   UNL     1       4.588   2.034   4.280  1.00  0.00     0.014 A 
ATOM     31  C   UNL     1       3.587   0.142   3.164  1.00  0.00     0.014 A 
ATOM     32  C   UNL     1       4.236   1.487   5.519  1.00  0.00     0.010 A 
ATOM     33  C   UNL     1       3.165  -0.363   4.396  1.00  0.00     0.010 A 
ATOM     34  C   UNL     1       3.495   0.297   5.589  1.00  0.00    -0.014 A 
BRANCH  34  35
ATOM     35  C   UNL     1       3.081  -0.278   6.899  1.00  0.00     0.031 A 
ATOM     36  C   UNL     1       3.600  -1.622   7.339  1.00  0.00     0.074 A 
ATOM     37  C   UNL     1       2.202   0.387   7.676  1.00  0.00     0.049 A 
ATOM     38  N   UNL     1       3.313  -2.307   8.418  1.00  0.00    -0.248 NA
ATOM     39  C   UNL     1       4.547  -2.297   6.437  1.00  0.00     0.031 C 
ATOM     40  C   UNL     1       1.586   1.674   7.348  1.00  0.00     0.029 A 
ATOM     41  N   UNL     1       1.669   0.069   8.901  1.00  0.00    -0.354 N 
ATOM     42  C   UNL     1       4.027  -3.496   8.316  1.00  0.00     0.074 A 
ATOM     43  C   UNL     1       4.723  -3.461   7.048  1.00  0.00     0.031 C 
ATOM     44  C   UNL     1       0.781   2.047   8.357  1.00  0.00     0.029 A 
ATOM     45  C   UNL     1       0.797   1.014   9.388  1.00  0.00     0.049 A 
ATOM     46  H   UNL     1       1.891  -0.759   9.386  1.00  0.00     0.167 HD
ATOM     47  C   UNL     1       4.117  -4.514   9.205  1.00  0.00     0.037 A 
ATOM     48  C   UNL     1       0.088   1.046  10.534  1.00  0.00     0.037 A 
ATOM     49  C   UNL     1       3.453  -4.535  10.483  1.00  0.00     0.049 A 
ATOM     50  C   UNL     1       0.218  -0.086  11.515  1.00  0.00     0.074 A 
ATOM     51  C   UNL     1       3.525  -5.498  11.475  1.00  0.00     0.029 A 
ATOM     52  N   UNL     1       2.599  -3.546  10.948  1.00  0.00    -0.354 N 
ATOM     53  N   UNL     1       0.938  -1.179  11.421  1.00  0.00    -0.248 NA
ATOM     54  C   UNL     1      -0.555   0.021  12.760  1.00  0.00     0.031 C 
ATOM     55  C   UNL     1       2.692  -5.104  12.529  1.00  0.00     0.029 A 
ATOM     56  C   UNL     1       2.130  -3.879  12.209  1.00  0.00     0.049 A 
ATOM     57  H   UNL     1       2.362  -2.728  10.455  1.00  0.00     0.167 HD
ATOM     58  C   UNL     1       0.723  -1.877  12.605  1.00  0.00     0.074 A 
ATOM     59  C   UNL     1      -0.185  -1.079  13.402  1.00  0.00     0.031 C 
ATOM     60  C   UNL     1       1.232  -3.072  12.994  1.00  0.00     0.037 A 
BRANCH  47  61
ATOM     61  C   UNL     1       4.976  -5.690   8.829  1.00  0.00     0.058 A 
ATOM     62  C   UNL     1       6.377  -5.596   8.801  1.00  0.00     0.135 A 
ATOM     63  C   UNL     1       4.397  -6.931   8.519  1.00  0.00     0.135 A 
ATOM     64  F   UNL     1       6.981  -4.430   9.075  1.00  0.00    -0.206 F 
ATOM     65  C   UNL     1       7.172  -6.681   8.447  1.00  0.00     0.059 A 
ATOM     66  C   UNL     1       5.174  -8.037   8.186  1.00  0.00     0.059 A 
ATOM     67  F   UNL     1       3.063  -7.077   8.532  1.00  0.00    -0.206 F 
ATOM     68  C   UNL     1       6.561  -7.897   8.137  1.00  0.00     0.060 A 
BRANCH  68  69
ATOM     69  S   UNL     1       7.605  -9.296   7.675  1.00  0.00     0.124 S 
ATOM     70  O   UNL     1       7.981  -8.938   6.310  1.00  0.00    -0.237 OA
ATOM     71  O   UNL     1       8.676  -9.229   8.664  1.00  0.00    -0.237 OA
ATOM     72  O   UNL     1       6.711 -10.443   7.800  1.00  0.00    -0.744 OA
ENDBRANCH  68  69
ENDBRANCH  47  61
BRANCH  48  73
ATOM     73  C   UNL     1      -0.786   2.212  10.831  1.00  0.00     0.058 A 
ATOM     74  C   UNL     1      -0.425   3.148  11.811  1.00  0.00     0.135 A 
ATOM     75  C   UNL     1      -1.986   2.421  10.135  1.00  0.00     0.135 A 
ATOM     76  F   UNL     1       0.710   2.986  12.508  1.00  0.00    -0.206 F 
ATOM     77  C   UNL     1      -1.228   4.247  12.100  1.00  0.00     0.059 A 
ATOM     78  C   UNL     1      -2.796   3.524  10.391  1.00  0.00     0.059 A 
ATOM     79  F   UNL     1      -2.367   1.562   9.178  1.00  0.00    -0.206 F 
ATOM     80  C   UNL     1      -2.412   4.427  11.383  1.00  0.00     0.060 A 
BRANCH  80  81
ATOM     81  S   UNL     1      -3.420   5.886  11.724  1.00  0.00     0.124 S 
ATOM     82  O   UNL     1      -4.058   5.514  12.982  1.00  0.00    -0.237 OA
ATOM     83  O   UNL     1      -2.416   6.942  11.806  1.00  0.00    -0.237 OA
ATOM     84  O   UNL     1      -4.303   5.961  10.564  1.00  0.00    -0.744 OA
ENDBRANCH  80  81
ENDBRANCH  48  73
BRANCH  60  85
ATOM     85  C   UNL     1       0.844  -3.575  14.356  1.00  0.00     0.058 A 
ATOM     86  C   UNL     1      -0.432  -4.100  14.611  1.00  0.00     0.135 A 
ATOM     87  C   UNL     1       1.775  -3.569  15.408  1.00  0.00     0.135 A 
ATOM     88  F   UNL     1      -1.359  -4.122  13.640  1.00  0.00    -0.206 F 
ATOM     89  C   UNL     1      -0.781  -4.580  15.869  1.00  0.00     0.059 A 
ATOM     90  C   UNL     1       1.454  -4.065  16.668  1.00  0.00     0.059 A 
ATOM     91  F   UNL     1       3.012  -3.086  15.213  1.00  0.00    -0.206 F 
ATOM     92  C   UNL     1       0.169  -4.557  16.892  1.00  0.00     0.060 A 
BRANCH  92  93
ATOM     93  S   UNL     1      -0.285  -5.207  18.514  1.00  0.00     0.124 S 
ATOM     94  O   UNL     1      -1.092  -4.116  19.051  1.00  0.00    -0.237 OA
ATOM     95  O   UNL     1      -1.012  -6.425  18.174  1.00  0.00    -0.237 OA
ATOM     96  O   UNL     1       1.004  -5.416  19.168  1.00  0.00    -0.744 OA
ENDBRANCH  92  93
ENDBRANCH  60  85
ENDBRANCH  34  35
ENDBRANCH  26  29
ENDBRANCH  24  25
ENDBRANCH  23  24
ENDBRANCH   1  23
TORSDOF 19
