REMARK SMILES CCCCCNC(=O)Oc1cccc(-c2ccc([C@@H](C)C(=O)NCCCNC(=O)c3ccc(-c4c5nc(c(-c6c(F)cc(S(=O)(=O)[O-])cc6F)c6ccc([nH]6)c(-c6c(F)cc(S(=O)(=O)[O-])cc6F)c6nc(c(-c7c(F)cc(S(=O)(=O)[O-])cc7F)c7ccc4[nH]7)C=C6)C=C5)cc3)cc2F)c1
REMARK SMILES IDX 19 1 20 2 18 3 15 4 16 5 97 6 17 7 96 8 98 9 14 10 10 11
REMARK SMILES IDX 11 12 99 13 12 14 13 15 9 16 7 17 6 18 8 20 5 21 4 22 3 23
REMARK SMILES IDX 2 24 1 25 21 26 22 27 23 28 24 30 25 31 26 32 27 33 28 34
REMARK SMILES IDX 29 36 30 37 31 38 95 39 32 40 94 41 33 42 34 43 35 44 88 45
REMARK SMILES IDX 36 46 93 47 87 48 89 49 37 50 92 51 86 52 85 53 38 55 72 56
REMARK SMILES IDX 51 57 71 58 52 59 55 60 70 61 90 62 53 63 54 64 69 66 91 67
REMARK SMILES IDX 56 68 39 69 40 70 49 71 41 72 42 73 48 74 50 75 43 76 44 77
REMARK SMILES IDX 45 78 46 79 47 80 73 81 74 82 83 83 75 84 76 85 82 86 84 87
REMARK SMILES IDX 77 88 78 89 79 90 80 91 81 92 57 93 58 94 67 95 59 96 60 97
REMARK SMILES IDX 66 98 68 99 61 100 62 101 63 102 64 103 65 104
REMARK H PARENT 6 19 23 29 27 35 89 54 55 65
REMARK Flexibility Score: inf
ROOT
ATOM      1  C   UNL     1      -2.262  -8.879 -10.411  1.00  0.00     0.105 C 
ATOM      2  C   UNL     1      -2.889 -10.144 -10.993  1.00  0.00     0.023 C 
ENDROOT
BRANCH   1   3
ATOM      3  C   UNL     1      -2.639  -8.557  -8.975  1.00  0.00    -0.033 A 
ATOM      4  C   UNL     1      -3.293  -7.659  -6.340  1.00  0.00     0.018 A 
ATOM      5  C   UNL     1      -4.282  -8.092  -7.237  1.00  0.00     0.012 A 
ATOM      6  C   UNL     1      -1.964  -7.759  -6.775  1.00  0.00     0.131 A 
ATOM      7  C   UNL     1      -3.957  -8.569  -8.513  1.00  0.00     0.005 A 
ATOM      8  C   UNL     1      -1.639  -8.176  -8.069  1.00  0.00     0.044 A 
ATOM      9  F   UNL     1      -0.951  -7.437  -5.955  1.00  0.00    -0.206 F 
BRANCH   4  10
ATOM     10  C   UNL     1      -3.667  -7.074  -5.036  1.00  0.00    -0.012 A 
ATOM     11  C   UNL     1      -3.401  -5.351  -3.338  1.00  0.00     0.133 A 
ATOM     12  C   UNL     1      -4.467  -5.860  -2.604  1.00  0.00     0.047 A 
ATOM     13  C   UNL     1      -2.992  -5.952  -4.529  1.00  0.00     0.056 A 
ATOM     14  C   UNL     1      -5.145  -6.976  -3.082  1.00  0.00     0.004 A 
ATOM     15  C   UNL     1      -4.746  -7.577  -4.281  1.00  0.00     0.009 A 
BRANCH  11  16
ATOM     16  O   UNL     1      -2.686  -4.283  -2.778  1.00  0.00    -0.410 OA
BRANCH  16  17
ATOM     17  C   UNL     1      -2.445  -3.171  -3.572  1.00  0.00     0.412 C 
ATOM     18  N   UNL     1      -1.631  -2.253  -2.967  1.00  0.00    -0.321 N 
ATOM     19  H   UNL     1      -1.447  -1.426  -3.469  1.00  0.00     0.167 HD
ATOM     20  O   UNL     1      -2.879  -2.979  -4.700  1.00  0.00    -0.224 OA
BRANCH  18  21
ATOM     21  C   UNL     1      -1.011  -2.375  -1.665  1.00  0.00     0.119 C 
BRANCH  21  22
ATOM     22  C   UNL     1       0.514  -2.327  -1.755  1.00  0.00     0.021 C 
BRANCH  22  23
ATOM     23  C   UNL     1       1.089  -1.000  -2.266  1.00  0.00     0.002 C 
BRANCH  23  24
ATOM     24  C   UNL     1       0.677   0.245  -1.477  1.00  0.00    -0.003 C 
ATOM     25  C   UNL     1       1.091   0.200  -0.014  1.00  0.00     0.004 C 
ENDBRANCH  23  24
ENDBRANCH  22  23
ENDBRANCH  21  22
ENDBRANCH  18  21
ENDBRANCH  16  17
ENDBRANCH  11  16
ENDBRANCH   4  10
ENDBRANCH   1   3
BRANCH   1  26
ATOM     26  C   UNL     1      -2.307  -7.659 -11.346  1.00  0.00     0.227 C 
ATOM     27  O   UNL     1      -1.251  -7.134 -11.720  1.00  0.00    -0.274 OA
ATOM     28  N   UNL     1      -3.455  -7.103 -11.819  1.00  0.00    -0.356 N 
ATOM     29  H   UNL     1      -3.310  -6.351 -12.438  1.00  0.00     0.163 HD
BRANCH  28  30
ATOM     30  C   UNL     1      -4.851  -7.410 -11.582  1.00  0.00     0.117 C 
BRANCH  30  31
ATOM     31  C   UNL     1      -5.495  -6.468 -10.568  1.00  0.00     0.042 C 
BRANCH  31  32
ATOM     32  C   UNL     1      -5.966  -5.145 -11.157  1.00  0.00     0.118 C 
BRANCH  32  33
ATOM     33  N   UNL     1      -7.050  -5.327 -12.112  1.00  0.00    -0.352 N 
ATOM     34  C   UNL     1      -8.330  -4.836 -12.127  1.00  0.00     0.251 C 
ATOM     35  H   UNL     1      -6.824  -5.901 -12.879  1.00  0.00     0.163 HD
ATOM     36  O   UNL     1      -9.130  -5.326 -12.922  1.00  0.00    -0.269 OA
BRANCH  34  37
ATOM     37  C   UNL     1      -8.764  -3.748 -11.219  1.00  0.00     0.039 A 
ATOM     38  C   UNL     1     -10.100  -3.728 -10.804  1.00  0.00     0.014 A 
ATOM     39  C   UNL     1      -7.911  -2.711 -10.832  1.00  0.00     0.014 A 
ATOM     40  C   UNL     1     -10.563  -2.696  -9.986  1.00  0.00     0.010 A 
ATOM     41  C   UNL     1      -8.350  -1.733  -9.938  1.00  0.00     0.010 A 
ATOM     42  C   UNL     1      -9.686  -1.702  -9.522  1.00  0.00    -0.014 A 
BRANCH  42  43
ATOM     43  C   UNL     1     -10.177  -0.635  -8.609  1.00  0.00     0.031 A 
ATOM     44  C   UNL     1     -10.155   0.813  -9.032  1.00  0.00     0.074 A 
ATOM     45  C   UNL     1     -10.636  -0.978  -7.388  1.00  0.00     0.049 A 
ATOM     46  N   UNL     1     -10.595   1.864  -8.387  1.00  0.00    -0.248 NA
ATOM     47  C   UNL     1      -9.543   1.129 -10.333  1.00  0.00     0.031 C 
ATOM     48  C   UNL     1     -10.636  -2.337  -6.838  1.00  0.00     0.029 A 
ATOM     49  N   UNL     1     -11.197  -0.221  -6.391  1.00  0.00    -0.354 N 
ATOM     50  C   UNL     1     -10.300   2.959  -9.193  1.00  0.00     0.074 A 
ATOM     51  C   UNL     1      -9.604   2.453 -10.354  1.00  0.00     0.031 C 
ATOM     52  C   UNL     1     -11.208  -2.323  -5.624  1.00  0.00     0.029 A 
ATOM     53  C   UNL     1     -11.583  -0.953  -5.292  1.00  0.00     0.049 A 
ATOM     54  H   UNL     1     -11.312   0.754  -6.456  1.00  0.00     0.167 HD
ATOM     55  C   UNL     1     -10.601   4.264  -8.990  1.00  0.00     0.037 A 
ATOM     56  C   UNL     1     -12.175  -0.564  -4.146  1.00  0.00     0.037 A 
ATOM     57  C   UNL     1     -11.331   4.753  -7.848  1.00  0.00     0.049 A 
ATOM     58  C   UNL     1     -12.532   0.888  -3.971  1.00  0.00     0.074 A 
ATOM     59  C   UNL     1     -11.768   6.043  -7.596  1.00  0.00     0.029 A 
ATOM     60  N   UNL     1     -11.724   3.981  -6.766  1.00  0.00    -0.354 N 
ATOM     61  N   UNL     1     -12.341   1.891  -4.795  1.00  0.00    -0.248 NA
ATOM     62  C   UNL     1     -13.200   1.259  -2.716  1.00  0.00     0.031 C 
ATOM     63  C   UNL     1     -12.374   6.061  -6.337  1.00  0.00     0.029 A 
ATOM     64  C   UNL     1     -12.371   4.771  -5.830  1.00  0.00     0.049 A 
ATOM     65  H   UNL     1     -11.568   3.013  -6.676  1.00  0.00     0.167 HD
ATOM     66  C   UNL     1     -12.887   3.006  -4.168  1.00  0.00     0.074 A 
ATOM     67  C   UNL     1     -13.445   2.546  -2.913  1.00  0.00     0.031 C 
ATOM     68  C   UNL     1     -12.919   4.296  -4.586  1.00  0.00     0.037 A 
BRANCH  55  69
ATOM     69  C   UNL     1     -10.161   5.269 -10.021  1.00  0.00     0.058 A 
ATOM     70  C   UNL     1     -10.769   5.353 -11.283  1.00  0.00     0.135 A 
ATOM     71  C   UNL     1      -9.186   6.230  -9.701  1.00  0.00     0.135 A 
ATOM     72  F   UNL     1     -11.694   4.450 -11.649  1.00  0.00    -0.206 F 
ATOM     73  C   UNL     1     -10.429   6.351 -12.191  1.00  0.00     0.059 A 
ATOM     74  C   UNL     1      -8.849   7.253 -10.583  1.00  0.00     0.059 A 
ATOM     75  F   UNL     1      -8.568   6.194  -8.510  1.00  0.00    -0.206 F 
ATOM     76  C   UNL     1      -9.476   7.304 -11.827  1.00  0.00     0.060 A 
BRANCH  76  77
ATOM     77  S   UNL     1      -9.098   8.632 -12.991  1.00  0.00     0.124 S 
ATOM     78  O   UNL     1      -8.372   7.911 -14.032  1.00  0.00    -0.237 OA
ATOM     79  O   UNL     1     -10.427   9.110 -13.359  1.00  0.00    -0.237 OA
ATOM     80  O   UNL     1      -8.298   9.562 -12.199  1.00  0.00    -0.744 OA
ENDBRANCH  76  77
ENDBRANCH  55  69
BRANCH  56  81
ATOM     81  C   UNL     1     -12.480  -1.554  -3.076  1.00  0.00     0.058 A 
ATOM     82  C   UNL     1     -13.803  -1.861  -2.722  1.00  0.00     0.135 A 
ATOM     83  C   UNL     1     -11.452  -2.183  -2.357  1.00  0.00     0.135 A 
ATOM     84  F   UNL     1     -14.823  -1.288  -3.379  1.00  0.00    -0.206 F 
ATOM     85  C   UNL     1     -14.097  -2.715  -1.663  1.00  0.00     0.059 A 
ATOM     86  C   UNL     1     -11.720  -3.068  -1.317  1.00  0.00     0.059 A 
ATOM     87  F   UNL     1     -10.168  -1.945  -2.668  1.00  0.00    -0.206 F 
ATOM     88  C   UNL     1     -13.046  -3.308  -0.961  1.00  0.00     0.060 A 
BRANCH  88  89
ATOM     89  S   UNL     1     -13.433  -4.408   0.417  1.00  0.00     0.124 S 
ATOM     90  O   UNL     1     -13.851  -3.458   1.441  1.00  0.00    -0.237 OA
ATOM     91  O   UNL     1     -14.486  -5.248  -0.144  1.00  0.00    -0.237 OA
ATOM     92  O   UNL     1     -12.166  -5.089   0.667  1.00  0.00    -0.744 OA
ENDBRANCH  88  89
ENDBRANCH  56  81
BRANCH  68  93
ATOM     93  C   UNL     1     -13.609   5.287  -3.688  1.00  0.00     0.058 A 
ATOM     94  C   UNL     1     -13.073   5.656  -2.443  1.00  0.00     0.135 A 
ATOM     95  C   UNL     1     -14.826   5.872  -4.076  1.00  0.00     0.135 A 
ATOM     96  F   UNL     1     -11.913   5.126  -2.023  1.00  0.00    -0.206 F 
ATOM     97  C   UNL     1     -13.748   6.522  -1.590  1.00  0.00     0.059 A 
ATOM     98  C   UNL     1     -15.499   6.770  -3.254  1.00  0.00     0.059 A 
ATOM     99  F   UNL     1     -15.374   5.571  -5.263  1.00  0.00    -0.206 F 
ATOM    100  C   UNL     1     -14.965   7.068  -2.002  1.00  0.00     0.060 A 
BRANCH 100 101
ATOM    101  S   UNL     1     -15.844   8.171  -0.876  1.00  0.00     0.124 S 
ATOM    102  O   UNL     1     -16.373   7.229   0.104  1.00  0.00    -0.237 OA
ATOM    103  O   UNL     1     -14.778   9.048  -0.401  1.00  0.00    -0.237 OA
ATOM    104  O   UNL     1     -16.837   8.810  -1.734  1.00  0.00    -0.744 OA
ENDBRANCH 100 101
ENDBRANCH  68  93
ENDBRANCH  42  43
ENDBRANCH  34  37
ENDBRANCH  32  33
ENDBRANCH  31  32
ENDBRANCH  30  31
ENDBRANCH  28  30
ENDBRANCH   1  26
TORSDOF 21
