REMARK SMILES C[C@H](O)[C@H](C)C(C)(C)C(=O)NCCCNC(=O)c1ccc(-c2c3nc(c(-c4c(F)cc(S(=O)(=O)[O-])cc4F)c4ccc([nH]4)c(-c4c(F)cc(S(=O)(=O)[O-])cc4F)c4nc(c(-c5c(F)cc(S(=O)(=O)[O-])cc5F)c5ccc2[nH]5)C=C4)C=C3)cc1
REMARK SMILES IDX 13 1 12 2 11 3 9 4 10 5 6 7 7 8 8 9 4 10 5 11 2 12 1 13 3 14
REMARK SMILES IDX 14 16 15 17 16 18 17 20 18 21 19 22 83 23 20 24 82 25 21 26
REMARK SMILES IDX 22 27 23 28 76 29 24 30 81 31 75 32 77 33 25 34 80 35 74 36
REMARK SMILES IDX 73 37 26 39 60 40 39 41 59 42 40 43 43 44 58 45 78 46 41 47
REMARK SMILES IDX 42 48 57 50 79 51 44 52 27 53 28 54 37 55 29 56 30 57 36 58
REMARK SMILES IDX 38 59 31 60 32 61 33 62 34 63 35 64 61 65 62 66 71 67 63 68
REMARK SMILES IDX 64 69 70 70 72 71 65 72 66 73 67 74 68 75 69 76 45 77 46 78
REMARK SMILES IDX 55 79 47 80 48 81 54 82 56 83 49 84 50 85 51 86 52 87 53 88
REMARK H PARENT 11 6 3 15 15 19 77 38 43 49
REMARK Flexibility Score: inf
ROOT
ATOM      1  C   UNL     1      -3.400  -5.175  -3.955  1.00  0.00     0.042 C 
ENDROOT
BRANCH   1   2
ATOM      2  C   UNL     1      -2.125  -5.129  -3.124  1.00  0.00     0.117 C 
BRANCH   2   3
ATOM      3  N   UNL     1      -1.349  -3.934  -3.401  1.00  0.00    -0.356 N 
ATOM      4  C   UNL     1      -1.123  -2.795  -2.699  1.00  0.00     0.226 C 
ATOM      5  O   UNL     1      -0.563  -1.893  -3.331  1.00  0.00    -0.275 OA
ATOM      6  H   UNL     1      -0.894  -3.954  -4.274  1.00  0.00     0.163 HD
BRANCH   4   7
ATOM      7  C   UNL     1      -1.536  -2.614  -1.222  1.00  0.00     0.049 C 
ATOM      8  C   UNL     1      -0.921  -3.739  -0.355  1.00  0.00     0.022 C 
ATOM      9  C   UNL     1      -3.073  -2.664  -1.078  1.00  0.00     0.022 C 
BRANCH   7  10
ATOM     10  C   UNL     1      -0.996  -1.224  -0.663  1.00  0.00     0.029 C 
ATOM     11  C   UNL     1       0.534  -1.222  -0.437  1.00  0.00     0.011 C 
BRANCH  10  12
ATOM     12  C   UNL     1      -1.357   0.078  -1.442  1.00  0.00     0.115 C 
ATOM     13  C   UNL     1      -1.593   1.246  -0.484  1.00  0.00     0.038 C 
BRANCH  12  14
ATOM     14  O   UNL     1      -2.521  -0.045  -2.242  1.00  0.00    -0.393 OA
ATOM     15  H   UNL     1      -3.290  -0.206  -1.673  1.00  0.00     0.210 HD
ENDBRANCH  12  14
ENDBRANCH  10  12
ENDBRANCH   7  10
ENDBRANCH   4   7
ENDBRANCH   2   3
ENDBRANCH   1   2
BRANCH   1  16
ATOM     16  C   UNL     1      -3.149  -5.300  -5.452  1.00  0.00     0.118 C 
BRANCH  16  17
ATOM     17  N   UNL     1      -2.452  -6.533  -5.798  1.00  0.00    -0.352 N 
ATOM     18  C   UNL     1      -2.879  -7.609  -6.535  1.00  0.00     0.251 C 
ATOM     19  H   UNL     1      -1.535  -6.606  -5.449  1.00  0.00     0.163 HD
ATOM     20  O   UNL     1      -2.225  -8.652  -6.519  1.00  0.00    -0.269 OA
BRANCH  18  21
ATOM     21  C   UNL     1      -4.120  -7.522  -7.332  1.00  0.00     0.039 A 
ATOM     22  C   UNL     1      -4.995  -8.611  -7.351  1.00  0.00     0.014 A 
ATOM     23  C   UNL     1      -4.415  -6.374  -8.071  1.00  0.00     0.014 A 
ATOM     24  C   UNL     1      -6.197  -8.520  -8.056  1.00  0.00     0.010 A 
ATOM     25  C   UNL     1      -5.652  -6.250  -8.695  1.00  0.00     0.010 A 
ATOM     26  C   UNL     1      -6.554  -7.324  -8.700  1.00  0.00    -0.014 A 
BRANCH  26  27
ATOM     27  C   UNL     1      -7.862  -7.175  -9.388  1.00  0.00     0.031 A 
ATOM     28  C   UNL     1      -7.910  -6.901 -10.868  1.00  0.00     0.074 A 
ATOM     29  C   UNL     1      -9.001  -7.216  -8.668  1.00  0.00     0.049 A 
ATOM     30  N   UNL     1      -8.946  -6.663 -11.630  1.00  0.00    -0.248 NA
ATOM     31  C   UNL     1      -6.621  -6.859 -11.580  1.00  0.00     0.031 C 
ATOM     32  C   UNL     1      -9.079  -7.424  -7.220  1.00  0.00     0.029 A 
ATOM     33  N   UNL     1     -10.311  -7.075  -9.052  1.00  0.00    -0.354 N 
ATOM     34  C   UNL     1      -8.435  -6.431 -12.902  1.00  0.00     0.074 A 
ATOM     35  C   UNL     1      -6.995  -6.498 -12.799  1.00  0.00     0.031 C 
ATOM     36  C   UNL     1     -10.367  -7.419  -6.843  1.00  0.00     0.029 A 
ATOM     37  C   UNL     1     -11.205  -7.165  -8.010  1.00  0.00     0.049 A 
ATOM     38  H   UNL     1     -10.585  -6.923  -9.985  1.00  0.00     0.167 HD
ATOM     39  C   UNL     1      -9.108  -6.206 -14.056  1.00  0.00     0.037 A 
ATOM     40  C   UNL     1     -12.547  -7.045  -7.995  1.00  0.00     0.037 A 
ATOM     41  C   UNL     1     -10.544  -6.165 -14.154  1.00  0.00     0.049 A 
ATOM     42  C   UNL     1     -13.271  -6.789  -9.290  1.00  0.00     0.074 A 
ATOM     43  C   UNL     1     -11.324  -6.004 -15.285  1.00  0.00     0.029 A 
ATOM     44  N   UNL     1     -11.415  -6.282 -13.080  1.00  0.00    -0.354 N 
ATOM     45  N   UNL     1     -12.775  -6.640 -10.496  1.00  0.00    -0.248 NA
ATOM     46  C   UNL     1     -14.735  -6.691  -9.225  1.00  0.00     0.031 C 
ATOM     47  C   UNL     1     -12.665  -5.971 -14.889  1.00  0.00     0.029 A 
ATOM     48  C   UNL     1     -12.725  -6.172 -13.519  1.00  0.00     0.049 A 
ATOM     49  H   UNL     1     -11.144  -6.422 -12.145  1.00  0.00     0.167 HD
ATOM     50  C   UNL     1     -13.869  -6.461 -11.336  1.00  0.00     0.074 A 
ATOM     51  C   UNL     1     -15.051  -6.533 -10.503  1.00  0.00     0.031 C 
ATOM     52  C   UNL     1     -13.892  -6.256 -12.677  1.00  0.00     0.037 A 
BRANCH  39  53
ATOM     53  C   UNL     1      -8.300  -5.993 -15.309  1.00  0.00     0.058 A 
ATOM     54  C   UNL     1      -7.569  -7.035 -15.902  1.00  0.00     0.135 A 
ATOM     55  C   UNL     1      -8.292  -4.744 -15.950  1.00  0.00     0.135 A 
ATOM     56  F   UNL     1      -7.527  -8.247 -15.325  1.00  0.00    -0.206 F 
ATOM     57  C   UNL     1      -6.836  -6.839 -17.068  1.00  0.00     0.059 A 
ATOM     58  C   UNL     1      -7.591  -4.533 -17.134  1.00  0.00     0.059 A 
ATOM     59  F   UNL     1      -8.972  -3.711 -15.427  1.00  0.00    -0.206 F 
ATOM     60  C   UNL     1      -6.856  -5.584 -17.678  1.00  0.00     0.060 A 
BRANCH  60  61
ATOM     61  S   UNL     1      -5.910  -5.353 -19.199  1.00  0.00     0.124 S 
ATOM     62  O   UNL     1      -4.540  -5.377 -18.696  1.00  0.00    -0.237 OA
ATOM     63  O   UNL     1      -6.313  -6.507 -19.995  1.00  0.00    -0.237 OA
ATOM     64  O   UNL     1      -6.373  -4.060 -19.694  1.00  0.00    -0.744 OA
ENDBRANCH  60  61
ENDBRANCH  39  53
BRANCH  40  65
ATOM     65  C   UNL     1     -13.293  -7.182  -6.715  1.00  0.00     0.058 A 
ATOM     66  C   UNL     1     -14.126  -8.286  -6.479  1.00  0.00     0.135 A 
ATOM     67  C   UNL     1     -13.185  -6.218  -5.701  1.00  0.00     0.135 A 
ATOM     68  F   UNL     1     -14.268  -9.232  -7.419  1.00  0.00    -0.206 F 
ATOM     69  C   UNL     1     -14.841  -8.420  -5.293  1.00  0.00     0.059 A 
ATOM     70  C   UNL     1     -13.867  -6.344  -4.495  1.00  0.00     0.059 A 
ATOM     71  F   UNL     1     -12.387  -5.151  -5.868  1.00  0.00    -0.206 F 
ATOM     72  C   UNL     1     -14.703  -7.444  -4.305  1.00  0.00     0.060 A 
BRANCH  72  73
ATOM     73  S   UNL     1     -15.604  -7.649  -2.754  1.00  0.00     0.124 S 
ATOM     74  O   UNL     1     -16.974  -7.376  -3.172  1.00  0.00    -0.237 OA
ATOM     75  O   UNL     1     -15.306  -9.035  -2.408  1.00  0.00    -0.237 OA
ATOM     76  O   UNL     1     -14.999  -6.648  -1.879  1.00  0.00    -0.744 OA
ENDBRANCH  72  73
ENDBRANCH  40  65
BRANCH  52  77
ATOM     77  C   UNL     1     -15.238  -6.135 -13.337  1.00  0.00     0.058 A 
ATOM     78  C   UNL     1     -16.049  -5.002 -13.165  1.00  0.00     0.135 A 
ATOM     79  C   UNL     1     -15.697  -7.144 -14.200  1.00  0.00     0.135 A 
ATOM     80  F   UNL     1     -15.661  -4.011 -12.347  1.00  0.00    -0.206 F 
ATOM     81  C   UNL     1     -17.279  -4.886 -13.805  1.00  0.00     0.059 A 
ATOM     82  C   UNL     1     -16.909  -7.035 -14.874  1.00  0.00     0.059 A 
ATOM     83  F   UNL     1     -14.956  -8.244 -14.408  1.00  0.00    -0.206 F 
ATOM     84  C   UNL     1     -17.698  -5.906 -14.661  1.00  0.00     0.060 A 
BRANCH  84  85
ATOM     85  S   UNL     1     -19.279  -5.724 -15.513  1.00  0.00     0.124 S 
ATOM     86  O   UNL     1     -20.227  -5.933 -14.424  1.00  0.00    -0.237 OA
ATOM     87  O   UNL     1     -19.199  -4.362 -16.032  1.00  0.00    -0.237 OA
ATOM     88  O   UNL     1     -19.244  -6.776 -16.525  1.00  0.00    -0.744 OA
ENDBRANCH  84  85
ENDBRANCH  52  77
ENDBRANCH  26  27
ENDBRANCH  18  21
ENDBRANCH  16  17
ENDBRANCH   1  16
TORSDOF 16
