REMARK SMILES Cn1c(C(=O)N2CCC[C@@H](C(=O)NCCCNC(=O)c3ccc(-c4c5nc(c(-c6c(F)cc(S(=O)(=O)[O-])cc6F)c6ccc([nH]6)c(-c6c(F)cc(S(=O)(=O)[O-])cc6F)c6nc(c(-c7c(F)cc(S(=O)(=O)[O-])cc7F)c7ccc4[nH]7)C=C6)C=C5)cc3)C2)cc2sccc21
REMARK SMILES IDX 15 1 14 2 13 3 11 4 12 5 10 7 6 8 7 9 86 10 8 11 9 12 4 13
REMARK SMILES IDX 5 14 3 15 1 16 2 17 92 18 87 19 88 20 91 21 89 22 90 23
REMARK SMILES IDX 16 24 17 25 18 26 19 28 20 29 21 30 85 31 22 32 84 33 23 34
REMARK SMILES IDX 24 35 25 36 78 37 26 38 83 39 77 40 79 41 27 42 82 43 76 44
REMARK SMILES IDX 75 45 28 47 62 48 41 49 61 50 42 51 45 52 60 53 80 54 43 55
REMARK SMILES IDX 44 56 59 58 81 59 46 60 29 61 30 62 39 63 31 64 32 65 38 66
REMARK SMILES IDX 40 67 33 68 34 69 35 70 36 71 37 72 63 73 64 74 73 75 65 76
REMARK SMILES IDX 66 77 72 78 74 79 67 80 68 81 69 82 70 83 71 84 47 85 48 86
REMARK SMILES IDX 57 87 49 88 50 89 56 90 58 91 51 92 52 93 53 94 54 95 55 96
REMARK H PARENT 13 6 17 27 79 46 45 57
REMARK Flexibility Score: inf
ROOT
ATOM      1  C   UNL     1       4.496   5.083   4.093  1.00  0.00     0.042 C 
ENDROOT
BRANCH   1   2
ATOM      2  C   UNL     1       3.596   3.942   4.571  1.00  0.00     0.117 C 
BRANCH   2   3
ATOM      3  N   UNL     1       2.695   4.345   5.641  1.00  0.00    -0.356 N 
ATOM      4  C   UNL     1       1.376   4.691   5.580  1.00  0.00     0.224 C 
ATOM      5  O   UNL     1       0.796   5.007   6.617  1.00  0.00    -0.275 OA
ATOM      6  H   UNL     1       3.096   4.373   6.540  1.00  0.00     0.163 HD
BRANCH   4   7
ATOM      7  C   UNL     1       0.658   4.598   4.250  1.00  0.00     0.098 C 
ATOM      8  N   UNL     1      -0.641   3.044   2.848  1.00  0.00    -0.337 N 
ATOM      9  C   UNL     1      -1.696   4.025   2.627  1.00  0.00     0.120 C 
ATOM     10  C   UNL     1       0.112   3.171   4.096  1.00  0.00     0.133 C 
ATOM     11  C   UNL     1      -1.197   5.453   2.800  1.00  0.00     0.022 C 
ATOM     12  C   UNL     1      -0.483   5.619   4.141  1.00  0.00     0.017 C 
BRANCH   8  13
ATOM     13  C   UNL     1      -0.312   2.164   1.823  1.00  0.00     0.270 C 
ATOM     14  O   UNL     1      -0.373   2.540   0.652  1.00  0.00    -0.267 OA
BRANCH  13  15
ATOM     15  C   UNL     1      -0.030   0.772   2.186  1.00  0.00     0.108 A 
ATOM     16  C   UNL     1       0.976  -0.035  -0.023  1.00  0.00     0.150 C 
ATOM     17  N   UNL     1       0.483  -0.188   1.325  1.00  0.00    -0.339 N 
ATOM     18  C   UNL     1       0.446  -1.419   1.948  1.00  0.00     0.059 A 
ATOM     19  C   UNL     1      -0.344   0.125   3.380  1.00  0.00     0.053 A 
ATOM     20  C   UNL     1      -0.041  -1.250   3.205  1.00  0.00     0.053 A 
ATOM     21  C   UNL     1       0.750  -2.775   1.636  1.00  0.00     0.038 A 
ATOM     22  S   UNL     1      -0.144  -2.737   4.085  1.00  0.00    -0.142 S 
ATOM     23  C   UNL     1       0.455  -3.584   2.713  1.00  0.00     0.068 A 
ENDBRANCH  13  15
ENDBRANCH   8  13
ENDBRANCH   4   7
ENDBRANCH   2   3
ENDBRANCH   1   2
BRANCH   1  24
ATOM     24  C   UNL     1       5.565   5.444   5.116  1.00  0.00     0.118 C 
BRANCH  24  25
ATOM     25  N   UNL     1       6.546   4.375   5.315  1.00  0.00    -0.352 N 
ATOM     26  C   UNL     1       7.649   4.360   6.154  1.00  0.00     0.251 C 
ATOM     27  H   UNL     1       6.404   3.560   4.781  1.00  0.00     0.163 HD
ATOM     28  O   UNL     1       8.529   3.533   6.003  1.00  0.00    -0.269 OA
BRANCH  26  29
ATOM     29  C   UNL     1       7.740   5.382   7.216  1.00  0.00     0.039 A 
ATOM     30  C   UNL     1       8.941   6.045   7.479  1.00  0.00     0.014 A 
ATOM     31  C   UNL     1       6.582   5.713   7.909  1.00  0.00     0.014 A 
ATOM     32  C   UNL     1       8.941   7.111   8.378  1.00  0.00     0.010 A 
ATOM     33  C   UNL     1       6.548   6.862   8.658  1.00  0.00     0.010 A 
ATOM     34  C   UNL     1       7.732   7.537   8.947  1.00  0.00    -0.014 A 
BRANCH  34  35
ATOM     35  C   UNL     1       7.671   8.737   9.782  1.00  0.00     0.031 A 
ATOM     36  C   UNL     1       8.239   9.979   9.180  1.00  0.00     0.074 A 
ATOM     37  C   UNL     1       6.935   8.796  10.915  1.00  0.00     0.049 A 
ATOM     38  N   UNL     1       9.248  10.678   9.587  1.00  0.00    -0.248 NA
ATOM     39  C   UNL     1       7.673  10.447   7.904  1.00  0.00     0.031 C 
ATOM     40  C   UNL     1       6.059   7.764  11.487  1.00  0.00     0.029 A 
ATOM     41  N   UNL     1       6.718   9.857  11.740  1.00  0.00    -0.354 N 
ATOM     42  C   UNL     1       9.313  11.792   8.749  1.00  0.00     0.074 A 
ATOM     43  C   UNL     1       8.439  11.508   7.641  1.00  0.00     0.031 C 
ATOM     44  C   UNL     1       5.231   8.322  12.395  1.00  0.00     0.029 A 
ATOM     45  C   UNL     1       5.651   9.692  12.612  1.00  0.00     0.049 A 
ATOM     46  H   UNL     1       7.271  10.671  11.719  1.00  0.00     0.167 HD
ATOM     47  C   UNL     1       9.906  12.954   9.145  1.00  0.00     0.037 A 
ATOM     48  C   UNL     1       5.129  10.616  13.453  1.00  0.00     0.037 A 
ATOM     49  C   UNL     1      10.724  12.750  10.314  1.00  0.00     0.049 A 
ATOM     50  C   UNL     1       6.178  11.639  13.674  1.00  0.00     0.074 A 
ATOM     51  C   UNL     1      11.834  11.986  10.613  1.00  0.00     0.029 A 
ATOM     52  N   UNL     1      10.202  13.140  11.524  1.00  0.00    -0.354 N 
ATOM     53  N   UNL     1       7.315  11.398  14.272  1.00  0.00    -0.248 NA
ATOM     54  C   UNL     1       6.151  12.838  12.852  1.00  0.00     0.031 C 
ATOM     55  C   UNL     1      11.645  11.570  11.964  1.00  0.00     0.029 A 
ATOM     56  C   UNL     1      10.458  12.143  12.428  1.00  0.00     0.049 A 
ATOM     57  H   UNL     1       9.729  13.984  11.708  1.00  0.00     0.167 HD
ATOM     58  C   UNL     1       8.249  12.156  13.581  1.00  0.00     0.074 A 
ATOM     59  C   UNL     1       7.458  13.107  12.803  1.00  0.00     0.031 C 
ATOM     60  C   UNL     1       9.555  11.763  13.495  1.00  0.00     0.037 A 
BRANCH  47  61
ATOM     61  C   UNL     1       9.469  14.342   8.721  1.00  0.00     0.058 A 
ATOM     62  C   UNL     1      10.252  15.458   9.093  1.00  0.00     0.135 A 
ATOM     63  C   UNL     1       8.178  14.646   8.236  1.00  0.00     0.135 A 
ATOM     64  F   UNL     1      11.499  15.292   9.562  1.00  0.00    -0.206 F 
ATOM     65  C   UNL     1       9.754  16.762   9.080  1.00  0.00     0.059 A 
ATOM     66  C   UNL     1       7.682  15.944   8.162  1.00  0.00     0.059 A 
ATOM     67  F   UNL     1       7.295  13.697   7.906  1.00  0.00    -0.206 F 
ATOM     68  C   UNL     1       8.456  16.991   8.635  1.00  0.00     0.060 A 
BRANCH  68  69
ATOM     69  S   UNL     1       7.756  18.646   8.752  1.00  0.00     0.124 S 
ATOM     70  O   UNL     1       7.603  18.792  10.195  1.00  0.00    -0.237 OA
ATOM     71  O   UNL     1       8.795  19.462   8.132  1.00  0.00    -0.237 OA
ATOM     72  O   UNL     1       6.514  18.539   7.992  1.00  0.00    -0.744 OA
ENDBRANCH  68  69
ENDBRANCH  47  61
BRANCH  48  73
ATOM     73  C   UNL     1       3.703  10.803  13.816  1.00  0.00     0.058 A 
ATOM     74  C   UNL     1       3.322  11.556  14.938  1.00  0.00     0.135 A 
ATOM     75  C   UNL     1       2.674  10.460  12.915  1.00  0.00     0.135 A 
ATOM     76  F   UNL     1       4.243  11.945  15.832  1.00  0.00    -0.206 F 
ATOM     77  C   UNL     1       2.003  11.977  15.137  1.00  0.00     0.059 A 
ATOM     78  C   UNL     1       1.351  10.861  13.095  1.00  0.00     0.059 A 
ATOM     79  F   UNL     1       2.943   9.796  11.780  1.00  0.00    -0.206 F 
ATOM     80  C   UNL     1       1.026  11.639  14.199  1.00  0.00     0.060 A 
BRANCH  80  81
ATOM     81  S   UNL     1      -0.643  12.315  14.372  1.00  0.00     0.124 S 
ATOM     82  O   UNL     1      -1.133  11.611  15.552  1.00  0.00    -0.237 OA
ATOM     83  O   UNL     1      -0.382  13.741  14.543  1.00  0.00    -0.237 OA
ATOM     84  O   UNL     1      -1.289  11.950  13.114  1.00  0.00    -0.744 OA
ENDBRANCH  80  81
ENDBRANCH  48  73
BRANCH  60  85
ATOM     85  C   UNL     1      10.034  10.675  14.423  1.00  0.00     0.058 A 
ATOM     86  C   UNL     1       9.613   9.335  14.358  1.00  0.00     0.135 A 
ATOM     87  C   UNL     1      11.090  10.968  15.298  1.00  0.00     0.135 A 
ATOM     88  F   UNL     1       8.679   8.947  13.480  1.00  0.00    -0.206 F 
ATOM     89  C   UNL     1      10.194   8.339  15.146  1.00  0.00     0.059 A 
ATOM     90  C   UNL     1      11.705   9.986  16.073  1.00  0.00     0.059 A 
ATOM     91  F   UNL     1      11.581  12.217  15.363  1.00  0.00    -0.206 F 
ATOM     92  C   UNL     1      11.246   8.673  15.997  1.00  0.00     0.060 A 
BRANCH  92  93
ATOM     93  S   UNL     1      12.066   7.366  16.935  1.00  0.00     0.124 S 
ATOM     94  O   UNL     1      11.068   7.040  17.947  1.00  0.00    -0.237 OA
ATOM     95  O   UNL     1      12.297   6.341  15.920  1.00  0.00    -0.237 OA
ATOM     96  O   UNL     1      13.276   8.014  17.437  1.00  0.00    -0.744 OA
ENDBRANCH  92  93
ENDBRANCH  60  85
ENDBRANCH  34  35
ENDBRANCH  26  29
ENDBRANCH  24  25
ENDBRANCH   1  24
TORSDOF 15
