REMARK SMILES O=C(/C=C/C(=O)c1ccc(F)c(Br)c1)NCCCNC(=O)c1ccc(-c2c3nc(c(-c4c(F)cc(S(=O)(=O)[O-])cc4F)c4ccc([nH]4)c(-c4c(F)cc(S(=O)(=O)[O-])cc4F)c4nc(c(-c5c(F)cc(S(=O)(=O)[O-])cc5F)c5ccc2[nH]5)C=C4)C=C3)cc1
REMARK SMILES IDX 17 1 16 2 15 3 1 4 2 5 3 7 4 8 5 9 6 10 7 11 8 12 14 13 9 14
REMARK SMILES IDX 12 15 10 16 13 17 11 18 18 19 19 20 20 21 21 23 22 24 23 25
REMARK SMILES IDX 87 26 24 27 86 28 25 29 26 30 27 31 80 32 28 33 85 34 79 35
REMARK SMILES IDX 81 36 29 37 84 38 78 39 77 40 30 42 64 43 43 44 63 45 44 46
REMARK SMILES IDX 47 47 62 48 82 49 45 50 46 51 61 53 83 54 48 55 31 56 32 57
REMARK SMILES IDX 41 58 33 59 34 60 40 61 42 62 35 63 36 64 37 65 38 66 39 67
REMARK SMILES IDX 65 68 66 69 75 70 67 71 68 72 74 73 76 74 69 75 70 76 71 77
REMARK SMILES IDX 72 78 73 79 49 80 50 81 59 82 51 83 52 84 58 85 60 86 53 87
REMARK SMILES IDX 54 88 55 89 56 90 57 91
REMARK H PARENT 15 6 19 22 81 41 47 52
REMARK Flexibility Score: inf
ROOT
ATOM      1  C   UNL     1       2.369   3.269  -0.836  1.00  0.00     0.042 C 
ENDROOT
BRANCH   1   2
ATOM      2  C   UNL     1       2.139   1.903  -1.476  1.00  0.00     0.118 C 
BRANCH   2   3
ATOM      3  N   UNL     1       2.830   0.839  -0.772  1.00  0.00    -0.352 N 
ATOM      4  O   UNL     1       0.966   0.017   0.283  1.00  0.00    -0.270 OA
ATOM      5  C   UNL     1       2.177  -0.018   0.066  1.00  0.00     0.244 C 
ATOM      6  H   UNL     1       3.800   0.731  -0.903  1.00  0.00     0.163 HD
BRANCH   5   7
ATOM      7  C   UNL     1       2.986  -1.056   0.751  1.00  0.00     0.075 C 
ATOM      8  C   UNL     1       4.288  -1.315   0.570  1.00  0.00     0.058 C 
BRANCH   8   9
ATOM      9  C   UNL     1       5.035  -2.368   1.307  1.00  0.00     0.186 C 
ATOM     10  O   UNL     1       6.248  -2.250   1.453  1.00  0.00    -0.289 OA
BRANCH   9  11
ATOM     11  C   UNL     1       4.346  -3.557   1.859  1.00  0.00     0.023 A 
ATOM     12  C   UNL     1       3.344  -4.226   1.143  1.00  0.00     0.015 A 
ATOM     13  C   UNL     1       4.760  -4.041   3.108  1.00  0.00     0.031 A 
ATOM     14  C   UNL     1       2.724  -5.348   1.698  1.00  0.00     0.041 A 
ATOM     15  C   UNL     1       4.139  -5.165   3.653  1.00  0.00     0.054 A 
ATOM     16  C   UNL     1       3.121  -5.808   2.950  1.00  0.00     0.137 A 
ATOM     17  Br  UNL     1       4.690  -5.806   5.344  1.00  0.00    -0.048 Br
ATOM     18  F   UNL     1       2.509  -6.887   3.460  1.00  0.00    -0.206 F 
ENDBRANCH   9  11
ENDBRANCH   8   9
ENDBRANCH   5   7
ENDBRANCH   2   3
ENDBRANCH   1   2
BRANCH   1  19
ATOM     19  C   UNL     1       3.826   3.724  -0.810  1.00  0.00     0.118 C 
BRANCH  19  20
ATOM     20  N   UNL     1       4.412   3.840  -2.136  1.00  0.00    -0.352 N 
ATOM     21  C   UNL     1       5.114   4.867  -2.716  1.00  0.00     0.251 C 
ATOM     22  H   UNL     1       4.283   3.053  -2.713  1.00  0.00     0.163 HD
ATOM     23  O   UNL     1       5.388   4.787  -3.913  1.00  0.00    -0.269 OA
BRANCH  21  24
ATOM     24  C   UNL     1       5.529   6.061  -1.943  1.00  0.00     0.039 A 
ATOM     25  C   UNL     1       5.504   7.305  -2.583  1.00  0.00     0.014 A 
ATOM     26  C   UNL     1       6.000   5.971  -0.630  1.00  0.00     0.014 A 
ATOM     27  C   UNL     1       5.915   8.454  -1.901  1.00  0.00     0.010 A 
ATOM     28  C   UNL     1       6.340   7.128   0.074  1.00  0.00     0.010 A 
ATOM     29  C   UNL     1       6.320   8.380  -0.559  1.00  0.00    -0.014 A 
BRANCH  29  30
ATOM     30  C   UNL     1       6.757   9.600   0.172  1.00  0.00     0.031 A 
ATOM     31  C   UNL     1       8.182   9.732   0.646  1.00  0.00     0.074 A 
ATOM     32  C   UNL     1       5.869  10.579   0.433  1.00  0.00     0.049 A 
ATOM     33  N   UNL     1       8.746  10.714   1.303  1.00  0.00    -0.248 NA
ATOM     34  C   UNL     1       9.084   8.604   0.367  1.00  0.00     0.031 C 
ATOM     35  C   UNL     1       4.449  10.552   0.074  1.00  0.00     0.029 A 
ATOM     36  N   UNL     1       6.027  11.789   1.063  1.00  0.00    -0.354 N 
ATOM     37  C   UNL     1      10.061  10.318   1.525  1.00  0.00     0.074 A 
ATOM     38  C   UNL     1      10.194   8.983   0.983  1.00  0.00     0.031 C 
ATOM     39  C   UNL     1       3.874  11.701   0.464  1.00  0.00     0.029 A 
ATOM     40  C   UNL     1       4.875  12.536   1.124  1.00  0.00     0.049 A 
ATOM     41  H   UNL     1       6.886  12.093   1.436  1.00  0.00     0.167 HD
ATOM     42  C   UNL     1      11.072  11.010   2.104  1.00  0.00     0.037 A 
ATOM     43  C   UNL     1       4.649  13.757   1.646  1.00  0.00     0.037 A 
ATOM     44  C   UNL     1      10.944  12.350   2.617  1.00  0.00     0.049 A 
ATOM     45  C   UNL     1       5.794  14.519   2.257  1.00  0.00     0.074 A 
ATOM     46  C   UNL     1      11.921  13.154   3.179  1.00  0.00     0.029 A 
ATOM     47  N   UNL     1       9.768  13.085   2.627  1.00  0.00    -0.354 N 
ATOM     48  N   UNL     1       7.044  14.151   2.406  1.00  0.00    -0.248 NA
ATOM     49  C   UNL     1       5.501  15.870   2.756  1.00  0.00     0.031 C 
ATOM     50  C   UNL     1      11.328  14.363   3.559  1.00  0.00     0.029 A 
ATOM     51  C   UNL     1       9.993  14.331   3.191  1.00  0.00     0.049 A 
ATOM     52  H   UNL     1       8.902  12.769   2.283  1.00  0.00     0.167 HD
ATOM     53  C   UNL     1       7.694  15.238   2.981  1.00  0.00     0.074 A 
ATOM     54  C   UNL     1       6.701  16.278   3.146  1.00  0.00     0.031 C 
ATOM     55  C   UNL     1       8.998  15.363   3.336  1.00  0.00     0.037 A 
BRANCH  42  56
ATOM     56  C   UNL     1      12.412  10.331   2.204  1.00  0.00     0.058 A 
ATOM     57  C   UNL     1      13.201  10.088   1.068  1.00  0.00     0.135 A 
ATOM     58  C   UNL     1      12.926   9.942   3.452  1.00  0.00     0.135 A 
ATOM     59  F   UNL     1      12.753  10.425  -0.151  1.00  0.00    -0.206 F 
ATOM     60  C   UNL     1      14.436   9.454   1.161  1.00  0.00     0.059 A 
ATOM     61  C   UNL     1      14.171   9.332   3.571  1.00  0.00     0.059 A 
ATOM     62  F   UNL     1      12.215  10.151   4.571  1.00  0.00    -0.206 F 
ATOM     63  C   UNL     1      14.912   9.077   2.418  1.00  0.00     0.060 A 
BRANCH  63  64
ATOM     64  S   UNL     1      16.514   8.253   2.522  1.00  0.00     0.124 S 
ATOM     65  O   UNL     1      16.190   6.922   2.017  1.00  0.00    -0.237 OA
ATOM     66  O   UNL     1      17.347   9.075   1.649  1.00  0.00    -0.237 OA
ATOM     67  O   UNL     1      16.841   8.323   3.942  1.00  0.00    -0.744 OA
ENDBRANCH  63  64
ENDBRANCH  42  56
BRANCH  43  68
ATOM     68  C   UNL     1       3.289  14.356   1.573  1.00  0.00     0.058 A 
ATOM     69  C   UNL     1       3.020  15.434   0.717  1.00  0.00     0.135 A 
ATOM     70  C   UNL     1       2.232  13.859   2.351  1.00  0.00     0.135 A 
ATOM     71  F   UNL     1       3.999  15.947  -0.043  1.00  0.00    -0.206 F 
ATOM     72  C   UNL     1       1.757  16.012   0.647  1.00  0.00     0.059 A 
ATOM     73  C   UNL     1       0.954  14.403   2.280  1.00  0.00     0.059 A 
ATOM     74  F   UNL     1       2.433  12.817   3.172  1.00  0.00    -0.206 F 
ATOM     75  C   UNL     1       0.729  15.488   1.433  1.00  0.00     0.060 A 
BRANCH  75  76
ATOM     76  S   UNL     1      -0.919  16.216   1.302  1.00  0.00     0.124 S 
ATOM     77  O   UNL     1      -0.744  17.470   2.026  1.00  0.00    -0.237 OA
ATOM     78  O   UNL     1      -1.090  16.331  -0.143  1.00  0.00    -0.237 OA
ATOM     79  O   UNL     1      -1.774  15.226   1.949  1.00  0.00    -0.744 OA
ENDBRANCH  75  76
ENDBRANCH  43  68
BRANCH  55  80
ATOM     80  C   UNL     1       9.438  16.692   3.888  1.00  0.00     0.058 A 
ATOM     81  C   UNL     1       9.069  17.122   5.172  1.00  0.00     0.135 A 
ATOM     82  C   UNL     1      10.266  17.533   3.127  1.00  0.00     0.135 A 
ATOM     83  F   UNL     1       8.276  16.357   5.939  1.00  0.00    -0.206 F 
ATOM     84  C   UNL     1       9.475  18.357   5.668  1.00  0.00     0.059 A 
ATOM     85  C   UNL     1      10.707  18.759   3.614  1.00  0.00     0.059 A 
ATOM     86  F   UNL     1      10.659  17.164   1.898  1.00  0.00    -0.206 F 
ATOM     87  C   UNL     1      10.291  19.170   4.880  1.00  0.00     0.060 A 
BRANCH  87  88
ATOM     88  S   UNL     1      10.820  20.767   5.536  1.00  0.00     0.124 S 
ATOM     89  O   UNL     1       9.606  21.563   5.384  1.00  0.00    -0.237 OA
ATOM     90  O   UNL     1      11.193  20.436   6.908  1.00  0.00    -0.237 OA
ATOM     91  O   UNL     1      11.930  21.141   4.665  1.00  0.00    -0.744 OA
ENDBRANCH  87  88
ENDBRANCH  55  80
ENDBRANCH  29  30
ENDBRANCH  21  24
ENDBRANCH  19  20
ENDBRANCH   1  19
TORSDOF 15
