REMARK SMILES Cc1nc(NC2CCCCCC2)sc1C(=O)NCCCNC(=O)c1ccc(-c2c3nc(c(-c4c(F)cc(S(=O)(=O)[O-])cc4F)c4ccc([nH]4)c(-c4c(F)cc(S(=O)(=O)[O-])cc4F)c4nc(c(-c5c(F)cc(S(=O)(=O)[O-])cc5F)c5ccc2[nH]5)C=C4)C=C3)cc1
REMARK SMILES IDX 18 1 17 2 15 3 16 4 14 6 1 7 2 8 3 9 4 10 13 11 5 12 6 14
REMARK SMILES IDX 7 15 8 16 9 17 12 19 11 20 10 21 19 23 20 24 21 25 22 26
REMARK SMILES IDX 23 28 24 29 25 30 89 31 26 32 88 33 27 34 28 35 29 36 82 37
REMARK SMILES IDX 30 38 87 39 81 40 83 41 31 42 86 43 80 44 79 45 32 47 66 48
REMARK SMILES IDX 45 49 65 50 46 51 49 52 64 53 84 54 47 55 48 56 63 58 85 59
REMARK SMILES IDX 50 60 33 61 34 62 43 63 35 64 36 65 42 66 44 67 37 68 38 69
REMARK SMILES IDX 39 70 40 71 41 72 67 73 68 74 77 75 69 76 70 77 76 78 78 79
REMARK SMILES IDX 71 80 72 81 73 82 74 83 75 84 51 85 52 86 61 87 53 88 54 89
REMARK SMILES IDX 60 90 62 91 55 92 56 93 57 94 58 95 59 96
REMARK H PARENT 17 5 5 13 21 27 83 46 49 57
REMARK Flexibility Score: 90.00
ROOT
ATOM      1  C   UNL     1      -2.642  -2.917   0.632  1.00  0.00     0.118 C 
ENDROOT
BRANCH   1   2
ATOM      2  N   UNL     1      -1.303  -3.117   0.121  1.00  0.00    -0.351 N 
ATOM      3  C   UNL     1      -0.243  -2.276  -0.108  1.00  0.00     0.263 C 
ATOM      4  O   UNL     1       0.765  -2.870  -0.511  1.00  0.00    -0.268 OA
ATOM      5  H   UNL     1      -1.113  -4.054  -0.113  1.00  0.00     0.163 HD
BRANCH   3   6
ATOM      6  C   UNL     1      -0.257  -0.839   0.131  1.00  0.00     0.117 A 
ATOM      7  C   UNL     1      -2.631   0.281  -0.178  1.00  0.00     0.068 C 
ATOM      8  C   UNL     1      -1.190   0.192   0.142  1.00  0.00     0.063 A 
ATOM      9  N   UNL     1      -0.666   1.438   0.419  1.00  0.00    -0.225 NA
ATOM     10  C   UNL     1       0.633   1.447   0.365  1.00  0.00     0.183 A 
ATOM     11  S   UNL     1       1.324  -0.111   0.365  1.00  0.00    -0.092 S 
BRANCH  10  12
ATOM     12  N   UNL     1       1.369   2.573   0.268  1.00  0.00    -0.359 N 
ATOM     13  H   UNL     1       2.333   2.535   0.466  1.00  0.00     0.163 HD
BRANCH  12  14
ATOM     14  C   UNL     1       0.766   3.855  -0.126  1.00  0.00     0.081 C 
BRANCH  14  15
ATOM     15  C   UNL     1       0.183   3.802  -1.555  1.00  0.00     0.025 C 
BRANCH  15  16
ATOM     16  C   UNL     1      -1.331   3.647  -1.709  1.00  0.00     0.002 C 
BRANCH  16  17
ATOM     17  C   UNL     1      -2.123   4.933  -1.516  1.00  0.00     0.000 CG0
ATOM     18  G   UNL     1      -2.232   5.395  -0.069  1.00  0.00     0.000 G0
ENDBRANCH  16  17
ENDBRANCH  15  16
ENDBRANCH  14  15
BRANCH  14  19
ATOM     19  C   UNL     1      -0.129   4.417   0.988  1.00  0.00     0.025 C 
BRANCH  19  20
ATOM     20  C   UNL     1      -0.896   5.683   0.611  1.00  0.00     0.002 C 
BRANCH  20  21
ATOM     21  C   UNL     1      -2.232   5.395  -0.069  1.00  0.00     0.000 CG0
ATOM     22  G   UNL     1      -2.123   4.933  -1.516  1.00  0.00     0.000 G0
ENDBRANCH  20  21
ENDBRANCH  19  20
ENDBRANCH  14  19
ENDBRANCH  12  14
ENDBRANCH  10  12
ENDBRANCH   3   6
ENDBRANCH   1   2
BRANCH   1  23
ATOM     23  C   UNL     1      -3.659  -2.903  -0.511  1.00  0.00     0.042 C 
BRANCH  23  24
ATOM     24  C   UNL     1      -4.190  -4.273  -0.895  1.00  0.00     0.118 C 
BRANCH  24  25
ATOM     25  N   UNL     1      -5.170  -4.741   0.072  1.00  0.00    -0.352 N 
ATOM     26  C   UNL     1      -6.517  -4.967  -0.082  1.00  0.00     0.251 C 
ATOM     27  H   UNL     1      -4.815  -4.924   0.972  1.00  0.00     0.163 HD
ATOM     28  O   UNL     1      -7.218  -5.072   0.921  1.00  0.00    -0.269 OA
BRANCH  26  29
ATOM     29  C   UNL     1      -7.127  -5.080  -1.429  1.00  0.00     0.039 A 
ATOM     30  C   UNL     1      -8.428  -4.605  -1.623  1.00  0.00     0.014 A 
ATOM     31  C   UNL     1      -6.455  -5.705  -2.484  1.00  0.00     0.014 A 
ATOM     32  C   UNL     1      -9.035  -4.720  -2.878  1.00  0.00     0.010 A 
ATOM     33  C   UNL     1      -7.028  -5.744  -3.753  1.00  0.00     0.010 A 
ATOM     34  C   UNL     1      -8.330  -5.269  -3.960  1.00  0.00    -0.014 A 
BRANCH  34  35
ATOM     35  C   UNL     1      -8.941  -5.384  -5.309  1.00  0.00     0.031 A 
ATOM     36  C   UNL     1      -9.163  -6.743  -5.920  1.00  0.00     0.074 A 
ATOM     37  C   UNL     1      -9.226  -4.270  -6.011  1.00  0.00     0.049 A 
ATOM     38  N   UNL     1      -9.581  -7.052  -7.120  1.00  0.00    -0.248 NA
ATOM     39  C   UNL     1      -8.845  -7.909  -5.079  1.00  0.00     0.031 C 
ATOM     40  C   UNL     1      -9.013  -2.898  -5.545  1.00  0.00     0.029 A 
ATOM     41  N   UNL     1      -9.742  -4.114  -7.274  1.00  0.00    -0.354 N 
ATOM     42  C   UNL     1      -9.555  -8.441  -7.186  1.00  0.00     0.074 A 
ATOM     43  C   UNL     1      -9.035  -8.913  -5.921  1.00  0.00     0.031 C 
ATOM     44  C   UNL     1      -9.406  -2.042  -6.502  1.00  0.00     0.029 A 
ATOM     45  C   UNL     1      -9.864  -2.801  -7.662  1.00  0.00     0.049 A 
ATOM     46  H   UNL     1     -10.001  -4.872  -7.847  1.00  0.00     0.167 HD
ATOM     47  C   UNL     1      -9.950  -9.249  -8.199  1.00  0.00     0.037 A 
ATOM     48  C   UNL     1     -10.285  -2.268  -8.825  1.00  0.00     0.037 A 
ATOM     49  C   UNL     1     -10.498  -8.771  -9.441  1.00  0.00     0.049 A 
ATOM     50  C   UNL     1     -10.735  -3.185  -9.930  1.00  0.00     0.074 A 
ATOM     51  C   UNL     1     -10.981  -9.508 -10.509  1.00  0.00     0.029 A 
ATOM     52  N   UNL     1     -10.642  -7.434  -9.780  1.00  0.00    -0.354 N 
ATOM     53  N   UNL     1     -10.751  -4.496  -9.955  1.00  0.00    -0.248 NA
ATOM     54  C   UNL     1     -11.229  -2.552 -11.160  1.00  0.00     0.031 C 
ATOM     55  C   UNL     1     -11.385  -8.615 -11.507  1.00  0.00     0.029 A 
ATOM     56  C   UNL     1     -11.194  -7.323 -11.045  1.00  0.00     0.049 A 
ATOM     57  H   UNL     1     -10.389  -6.675  -9.206  1.00  0.00     0.167 HD
ATOM     58  C   UNL     1     -11.278  -4.846 -11.193  1.00  0.00     0.074 A 
ATOM     59  C   UNL     1     -11.578  -3.608 -11.883  1.00  0.00     0.031 C 
ATOM     60  C   UNL     1     -11.493  -6.080 -11.712  1.00  0.00     0.037 A 
BRANCH  47  61
ATOM     61  C   UNL     1      -9.810 -10.734  -8.001  1.00  0.00     0.058 A 
ATOM     62  C   UNL     1     -10.633 -11.438  -7.108  1.00  0.00     0.135 A 
ATOM     63  C   UNL     1      -8.864 -11.468  -8.735  1.00  0.00     0.135 A 
ATOM     64  F   UNL     1     -11.545 -10.784  -6.370  1.00  0.00    -0.206 F 
ATOM     65  C   UNL     1     -10.503 -12.811  -6.925  1.00  0.00     0.059 A 
ATOM     66  C   UNL     1      -8.734 -12.847  -8.588  1.00  0.00     0.059 A 
ATOM     67  F   UNL     1      -8.050 -10.846  -9.603  1.00  0.00    -0.206 F 
ATOM     68  C   UNL     1      -9.549 -13.507  -7.669  1.00  0.00     0.060 A 
BRANCH  68  69
ATOM     69  S   UNL     1      -9.393 -15.288  -7.421  1.00  0.00     0.124 S 
ATOM     70  O   UNL     1      -8.720 -15.343  -6.127  1.00  0.00    -0.237 OA
ATOM     71  O   UNL     1     -10.784 -15.729  -7.430  1.00  0.00    -0.237 OA
ATOM     72  O   UNL     1      -8.595 -15.722  -8.563  1.00  0.00    -0.744 OA
ENDBRANCH  68  69
ENDBRANCH  47  61
BRANCH  48  73
ATOM     73  C   UNL     1     -10.320  -0.791  -8.992  1.00  0.00     0.058 A 
ATOM     74  C   UNL     1     -11.539  -0.098  -9.016  1.00  0.00     0.135 A 
ATOM     75  C   UNL     1      -9.139  -0.042  -9.103  1.00  0.00     0.135 A 
ATOM     76  F   UNL     1     -12.695  -0.771  -8.919  1.00  0.00    -0.206 F 
ATOM     77  C   UNL     1     -11.588   1.285  -9.157  1.00  0.00     0.059 A 
ATOM     78  C   UNL     1      -9.160   1.344  -9.220  1.00  0.00     0.059 A 
ATOM     79  F   UNL     1      -7.946  -0.658  -9.066  1.00  0.00    -0.206 F 
ATOM     80  C   UNL     1     -10.391   1.998  -9.255  1.00  0.00     0.060 A 
BRANCH  80  81
ATOM     81  S   UNL     1     -10.463   3.799  -9.379  1.00  0.00     0.124 S 
ATOM     82  O   UNL     1     -10.897   3.981 -10.759  1.00  0.00    -0.237 OA
ATOM     83  O   UNL     1     -11.441   4.139  -8.350  1.00  0.00    -0.237 OA
ATOM     84  O   UNL     1      -9.092   4.208  -9.087  1.00  0.00    -0.744 OA
ENDBRANCH  80  81
ENDBRANCH  48  73
BRANCH  60  85
ATOM     85  C   UNL     1     -12.111  -6.156 -13.079  1.00  0.00     0.058 A 
ATOM     86  C   UNL     1     -11.375  -5.862 -14.237  1.00  0.00     0.135 A 
ATOM     87  C   UNL     1     -13.438  -6.587 -13.235  1.00  0.00     0.135 A 
ATOM     88  F   UNL     1     -10.104  -5.440 -14.140  1.00  0.00    -0.206 F 
ATOM     89  C   UNL     1     -11.939  -5.974 -15.503  1.00  0.00     0.059 A 
ATOM     90  C   UNL     1     -14.015  -6.730 -14.493  1.00  0.00     0.059 A 
ATOM     91  F   UNL     1     -14.182  -6.890 -12.159  1.00  0.00    -0.206 F 
ATOM     92  C   UNL     1     -13.260  -6.412 -15.621  1.00  0.00     0.060 A 
BRANCH  92  93
ATOM     93  S   UNL     1     -13.968  -6.594 -17.271  1.00  0.00     0.124 S 
ATOM     94  O   UNL     1     -14.213  -5.203 -17.641  1.00  0.00    -0.237 OA
ATOM     95  O   UNL     1     -12.896  -7.264 -18.000  1.00  0.00    -0.237 OA
ATOM     96  O   UNL     1     -15.162  -7.402 -17.041  1.00  0.00    -0.744 OA
ENDBRANCH  92  93
ENDBRANCH  60  85
ENDBRANCH  34  35
ENDBRANCH  26  29
ENDBRANCH  24  25
ENDBRANCH  23  24
ENDBRANCH   1  23
TORSDOF 15
