REMARK SMILES Cc1ccc(-c2c(C)sc(NC(=O)[C@H]3CC=CC[C@H]3C(=O)NCCCNC(=O)c3ccc(-c4c5nc(c(-c6c(F)cc(S(=O)(=O)[O-])cc6F)c6ccc([nH]6)c(-c6c(F)cc(S(=O)(=O)[O-])cc6F)c6nc(c(-c7c(F)cc(S(=O)(=O)[O-])cc7F)c7ccc4[nH]7)C=C6)C=C5)cc3)c2C(N)=O)cc1
REMARK SMILES IDX 24 1 23 2 22 3 20 4 21 5 19 7 14 8 15 9 16 10 18 11 17 12
REMARK SMILES IDX 12 13 11 14 13 16 10 17 6 18 7 19 95 20 8 21 9 22 5 23 1 24
REMARK SMILES IDX 2 25 3 26 100 27 4 28 99 29 96 30 97 31 98 32 25 35 26 36
REMARK SMILES IDX 27 37 28 39 29 40 30 41 94 42 31 43 93 44 32 45 33 46 34 47
REMARK SMILES IDX 87 48 35 49 92 50 86 51 88 52 36 53 91 54 85 55 84 56 37 58
REMARK SMILES IDX 71 59 50 60 70 61 51 62 54 63 69 64 89 65 52 66 53 67 68 69
REMARK SMILES IDX 90 70 55 71 38 72 39 73 48 74 40 75 41 76 47 77 49 78 42 79
REMARK SMILES IDX 43 80 44 81 45 82 46 83 72 84 73 85 82 86 74 87 75 88 81 89
REMARK SMILES IDX 83 90 76 91 77 92 78 93 79 94 80 95 56 96 57 97 66 98 58 99
REMARK SMILES IDX 59 100 65 101 67 102 60 103 61 104 62 105 63 106 64 107
REMARK H PARENT 22 6 11 15 97 33 97 34 26 38 88 57 54 68
REMARK Flexibility Score: inf
ROOT
ATOM      1  C   UNL     1      -7.709  -2.755   2.349  1.00  0.00     0.042 C 
ENDROOT
BRANCH   1   2
ATOM      2  C   UNL     1      -7.241  -3.228   0.983  1.00  0.00     0.117 C 
BRANCH   2   3
ATOM      3  N   UNL     1      -8.363  -3.251   0.073  1.00  0.00    -0.356 N 
ATOM      4  C   UNL     1      -8.914  -2.258  -0.660  1.00  0.00     0.224 C 
ATOM      5  O   UNL     1     -10.075  -2.439  -1.046  1.00  0.00    -0.275 OA
ATOM      6  H   UNL     1      -8.794  -4.130  -0.030  1.00  0.00     0.163 HD
BRANCH   4   7
ATOM      7  C   UNL     1      -8.180  -0.989  -1.078  1.00  0.00     0.095 C 
ATOM      8  C   UNL     1      -8.220   0.266  -0.186  1.00  0.00     0.095 C 
ATOM      9  C   UNL     1      -8.005   1.516  -1.067  1.00  0.00     0.041 C 
ATOM     10  C   UNL     1      -7.110   1.295  -2.272  1.00  0.00    -0.030 C 
ATOM     11  C   UNL     1      -6.871  -1.163  -1.836  1.00  0.00     0.041 C 
ATOM     12  C   UNL     1      -6.564   0.107  -2.591  1.00  0.00    -0.030 C 
BRANCH   8  13
ATOM     13  C   UNL     1      -7.551   0.288   1.214  1.00  0.00     0.229 C 
ATOM     14  N   UNL     1      -6.253   0.052   1.566  1.00  0.00    -0.317 N 
ATOM     15  H   UNL     1      -6.164  -0.393   2.439  1.00  0.00     0.170 HD
ATOM     16  O   UNL     1      -8.309   0.458   2.188  1.00  0.00    -0.274 OA
BRANCH  14  17
ATOM     17  C   UNL     1      -5.040   0.305   0.958  1.00  0.00     0.109 A 
ATOM     18  C   UNL     1      -2.792   0.406   0.319  1.00  0.00     0.010 A 
ATOM     19  C   UNL     1      -3.401   1.229  -0.614  1.00  0.00     0.012 A 
ATOM     20  C   UNL     1      -3.753  -0.132   1.277  1.00  0.00     0.082 A 
ATOM     21  C   UNL     1      -2.903   1.830  -1.884  1.00  0.00     0.057 C 
ATOM     22  S   UNL     1      -4.955   1.635  -0.080  1.00  0.00    -0.122 S 
BRANCH  18  23
ATOM     23  C   UNL     1      -1.354   0.175   0.256  1.00  0.00    -0.016 A 
ATOM     24  C   UNL     1       2.906  -0.354  -0.090  1.00  0.00     0.044 C 
ATOM     25  C   UNL     1       1.423  -0.166   0.025  1.00  0.00    -0.051 A 
ATOM     26  C   UNL     1       0.557  -1.262  -0.099  1.00  0.00     0.004 A 
ATOM     27  C   UNL     1       0.891   1.096   0.300  1.00  0.00     0.004 A 
ATOM     28  C   UNL     1      -0.827  -1.094   0.010  1.00  0.00     0.009 A 
ATOM     29  C   UNL     1      -0.487   1.263   0.422  1.00  0.00     0.009 A 
ENDBRANCH  18  23
BRANCH  20  30
ATOM     30  C   UNL     1      -3.364  -0.983   2.406  1.00  0.00     0.252 C 
ATOM     31  N   UNL     1      -4.245  -1.954   2.771  1.00  0.00    -0.365 N 
ATOM     32  O   UNL     1      -2.301  -0.869   3.000  1.00  0.00    -0.269 OA
ATOM     33  H   UNL     1      -5.101  -2.047   2.293  1.00  0.00     0.159 HD
ATOM     34  H   UNL     1      -4.026  -2.564   3.512  1.00  0.00     0.159 HD
ENDBRANCH  20  30
ENDBRANCH  14  17
ENDBRANCH   8  13
ENDBRANCH   4   7
ENDBRANCH   2   3
ENDBRANCH   1   2
BRANCH   1  35
ATOM     35  C   UNL     1      -8.281  -3.854   3.219  1.00  0.00     0.118 C 
BRANCH  35  36
ATOM     36  N   UNL     1      -7.334  -4.323   4.222  1.00  0.00    -0.352 N 
ATOM     37  C   UNL     1      -7.682  -4.609   5.542  1.00  0.00     0.251 C 
ATOM     38  H   UNL     1      -6.395  -4.444   3.953  1.00  0.00     0.163 HD
ATOM     39  O   UNL     1      -6.988  -4.348   6.497  1.00  0.00    -0.269 OA
BRANCH  37  40
ATOM     40  C   UNL     1      -8.932  -5.395   5.674  1.00  0.00     0.039 A 
ATOM     41  C   UNL     1      -8.823  -6.788   5.659  1.00  0.00     0.014 A 
ATOM     42  C   UNL     1     -10.136  -4.762   5.392  1.00  0.00     0.014 A 
ATOM     43  C   UNL     1      -9.890  -7.550   5.185  1.00  0.00     0.010 A 
ATOM     44  C   UNL     1     -11.129  -5.508   4.789  1.00  0.00     0.010 A 
ATOM     45  C   UNL     1     -11.008  -6.902   4.660  1.00  0.00    -0.014 A 
BRANCH  45  46
ATOM     46  C   UNL     1     -12.051  -7.564   3.875  1.00  0.00     0.031 A 
ATOM     47  C   UNL     1     -13.467  -7.547   4.340  1.00  0.00     0.074 A 
ATOM     48  C   UNL     1     -11.780  -8.131   2.675  1.00  0.00     0.049 A 
ATOM     49  N   UNL     1     -14.375  -8.364   3.917  1.00  0.00    -0.248 NA
ATOM     50  C   UNL     1     -13.973  -6.624   5.355  1.00  0.00     0.031 C 
ATOM     51  C   UNL     1     -12.752  -8.452   1.632  1.00  0.00     0.029 A 
ATOM     52  N   UNL     1     -10.593  -8.691   2.209  1.00  0.00    -0.354 N 
ATOM     53  C   UNL     1     -15.593  -7.920   4.374  1.00  0.00     0.074 A 
ATOM     54  C   UNL     1     -15.288  -6.850   5.293  1.00  0.00     0.031 C 
ATOM     55  C   UNL     1     -12.211  -9.328   0.775  1.00  0.00     0.029 A 
ATOM     56  C   UNL     1     -10.918  -9.716   1.303  1.00  0.00     0.049 A 
ATOM     57  H   UNL     1      -9.684  -8.417   2.469  1.00  0.00     0.167 HD
ATOM     58  C   UNL     1     -16.746  -8.420   3.850  1.00  0.00     0.037 A 
ATOM     59  C   UNL     1     -10.511 -11.009   1.480  1.00  0.00     0.037 A 
ATOM     60  C   UNL     1     -16.490  -9.440   2.845  1.00  0.00     0.049 A 
ATOM     61  C   UNL     1     -11.638 -12.008   1.621  1.00  0.00     0.074 A 
ATOM     62  C   UNL     1     -16.412  -9.399   1.462  1.00  0.00     0.029 A 
ATOM     63  N   UNL     1     -15.977 -10.670   3.232  1.00  0.00    -0.354 N 
ATOM     64  N   UNL     1     -12.886 -11.674   1.796  1.00  0.00    -0.248 NA
ATOM     65  C   UNL     1     -11.458 -13.459   1.610  1.00  0.00     0.031 C 
ATOM     66  C   UNL     1     -15.822 -10.606   1.017  1.00  0.00     0.029 A 
ATOM     67  C   UNL     1     -15.549 -11.382   2.129  1.00  0.00     0.049 A 
ATOM     68  H   UNL     1     -15.925 -10.989   4.162  1.00  0.00     0.167 HD
ATOM     69  C   UNL     1     -13.651 -12.798   1.983  1.00  0.00     0.074 A 
ATOM     70  C   UNL     1     -12.716 -13.893   1.813  1.00  0.00     0.031 C 
ATOM     71  C   UNL     1     -14.982 -12.713   2.283  1.00  0.00     0.037 A 
BRANCH  58  72
ATOM     72  C   UNL     1     -18.092  -7.784   4.085  1.00  0.00     0.058 A 
ATOM     73  C   UNL     1     -19.037  -7.676   3.043  1.00  0.00     0.135 A 
ATOM     74  C   UNL     1     -18.489  -7.227   5.316  1.00  0.00     0.135 A 
ATOM     75  F   UNL     1     -18.816  -8.212   1.836  1.00  0.00    -0.206 F 
ATOM     76  C   UNL     1     -20.241  -6.987   3.184  1.00  0.00     0.059 A 
ATOM     77  C   UNL     1     -19.664  -6.484   5.466  1.00  0.00     0.059 A 
ATOM     78  F   UNL     1     -17.747  -7.400   6.421  1.00  0.00    -0.206 F 
ATOM     79  C   UNL     1     -20.533  -6.364   4.389  1.00  0.00     0.060 A 
BRANCH  79  80
ATOM     80  S   UNL     1     -22.037  -5.378   4.510  1.00  0.00     0.124 S 
ATOM     81  O   UNL     1     -21.972  -4.561   3.300  1.00  0.00    -0.237 OA
ATOM     82  O   UNL     1     -23.072  -6.405   4.526  1.00  0.00    -0.237 OA
ATOM     83  O   UNL     1     -21.860  -4.642   5.759  1.00  0.00    -0.744 OA
ENDBRANCH  79  80
ENDBRANCH  58  72
BRANCH  59  84
ATOM     84  C   UNL     1      -9.160 -11.111   2.092  1.00  0.00     0.058 A 
ATOM     85  C   UNL     1      -8.075 -10.714   1.289  1.00  0.00     0.135 A 
ATOM     86  C   UNL     1      -8.999 -11.048   3.483  1.00  0.00     0.135 A 
ATOM     87  F   UNL     1      -8.165 -10.799  -0.049  1.00  0.00    -0.206 F 
ATOM     88  C   UNL     1      -6.972 -10.062   1.829  1.00  0.00     0.059 A 
ATOM     89  C   UNL     1      -7.894 -10.407   4.047  1.00  0.00     0.059 A 
ATOM     90  F   UNL     1      -9.992 -11.437   4.296  1.00  0.00    -0.206 F 
ATOM     91  C   UNL     1      -6.944  -9.829   3.202  1.00  0.00     0.060 A 
BRANCH  91  92
ATOM     92  S   UNL     1      -5.766  -8.606   3.831  1.00  0.00     0.124 S 
ATOM     93  O   UNL     1      -4.518  -9.021   3.201  1.00  0.00    -0.237 OA
ATOM     94  O   UNL     1      -6.333  -7.351   3.332  1.00  0.00    -0.237 OA
ATOM     95  O   UNL     1      -5.836  -8.789   5.275  1.00  0.00    -0.744 OA
ENDBRANCH  91  92
ENDBRANCH  59  84
BRANCH  71  96
ATOM     96  C   UNL     1     -15.909 -13.841   2.689  1.00  0.00     0.058 A 
ATOM     97  C   UNL     1     -15.499 -15.012   3.345  1.00  0.00     0.135 A 
ATOM     98  C   UNL     1     -17.314 -13.689   2.546  1.00  0.00     0.135 A 
ATOM     99  F   UNL     1     -14.209 -15.235   3.633  1.00  0.00    -0.206 F 
ATOM    100  C   UNL     1     -16.404 -15.983   3.784  1.00  0.00     0.059 A 
ATOM    101  C   UNL     1     -18.236 -14.617   3.026  1.00  0.00     0.059 A 
ATOM    102  F   UNL     1     -17.846 -12.615   1.944  1.00  0.00    -0.206 F 
ATOM    103  C   UNL     1     -17.771 -15.776   3.626  1.00  0.00     0.060 A 
BRANCH 103 104
ATOM    104  S   UNL     1     -18.955 -16.979   4.260  1.00  0.00     0.124 S 
ATOM    105  O   UNL     1     -19.224 -17.779   3.069  1.00  0.00    -0.237 OA
ATOM    106  O   UNL     1     -18.204 -17.655   5.314  1.00  0.00    -0.237 OA
ATOM    107  O   UNL     1     -20.057 -16.143   4.724  1.00  0.00    -0.744 OA
ENDBRANCH 103 104
ENDBRANCH  71  96
ENDBRANCH  45  46
ENDBRANCH  37  40
ENDBRANCH  35  36
ENDBRANCH   1  35
TORSDOF 17
