REMARK SMILES CC[C@]1(C(=O)NCCCNC(=O)c2ccc(-c3c4nc(c(-c5c(F)cc(S(=O)(=O)[O-])cc5F)c5ccc([nH]5)c(-c5c(F)cc(S(=O)(=O)[O-])cc5F)c5nc(c(-c6c(F)cc(S(=O)(=O)[O-])cc6F)c6ccc3[nH]6)C=C5)C=C4)cc2)CCN(C(=O)[C@]2(C)CCCO2)C1
REMARK SMILES IDX 8 1 7 2 6 3 4 4 5 5 3 7 79 8 90 9 80 10 81 11 2 12 1 13
REMARK SMILES IDX 82 14 83 15 84 16 86 17 89 18 85 19 87 20 88 21 9 22 10 23
REMARK SMILES IDX 11 24 12 26 13 27 14 28 78 29 15 30 77 31 16 32 17 33 18 34
REMARK SMILES IDX 71 35 19 36 76 37 70 38 72 39 20 40 75 41 69 42 68 43 21 45
REMARK SMILES IDX 55 46 34 47 54 48 35 49 38 50 53 51 73 52 36 53 37 54 52 56
REMARK SMILES IDX 74 57 39 58 22 59 23 60 32 61 24 62 25 63 31 64 33 65 26 66
REMARK SMILES IDX 27 67 28 68 29 69 30 70 56 71 57 72 66 73 58 74 59 75 65 76
REMARK SMILES IDX 67 77 60 78 61 79 62 80 63 81 64 82 40 83 41 84 50 85 42 86
REMARK SMILES IDX 43 87 49 88 51 89 44 90 45 91 46 92 47 93 48 94
REMARK H PARENT 6 6 10 25 72 44 38 55
REMARK Flexibility Score: inf
ROOT
ATOM      1  C   UNL     1       2.711  -7.547  -8.178  1.00  0.00     0.042 C 
ENDROOT
BRANCH   1   2
ATOM      2  C   UNL     1       3.179  -8.473  -7.066  1.00  0.00     0.117 C 
BRANCH   2   3
ATOM      3  N   UNL     1       4.259  -9.347  -7.496  1.00  0.00    -0.355 N 
ATOM      4  C   UNL     1       5.518  -9.554  -7.032  1.00  0.00     0.228 C 
ATOM      5  O   UNL     1       6.146 -10.458  -7.592  1.00  0.00    -0.274 OA
ATOM      6  H   UNL     1       4.031  -9.899  -8.279  1.00  0.00     0.163 HD
BRANCH   4   7
ATOM      7  C   UNL     1       6.139  -8.740  -5.886  1.00  0.00     0.068 C 
ATOM      8  C   UNL     1       6.199  -7.224  -6.168  1.00  0.00     0.040 C 
ATOM      9  C   UNL     1       5.237  -8.835  -4.621  1.00  0.00     0.136 C 
ATOM     10  C   UNL     1       6.058  -6.622  -4.783  1.00  0.00     0.121 C 
ATOM     11  N   UNL     1       5.029  -7.447  -4.201  1.00  0.00    -0.339 N 
BRANCH   7  12
ATOM     12  C   UNL     1       7.561  -9.286  -5.543  1.00  0.00     0.015 C 
ATOM     13  C   UNL     1       8.654  -8.988  -6.571  1.00  0.00     0.005 C 
ENDBRANCH   7  12
BRANCH  11  14
ATOM     14  C   UNL     1       3.892  -7.045  -3.524  1.00  0.00     0.254 C 
ATOM     15  O   UNL     1       2.995  -7.867  -3.301  1.00  0.00    -0.272 OA
BRANCH  14  16
ATOM     16  C   UNL     1       3.730  -5.545  -3.089  1.00  0.00     0.144 C 
ATOM     17  C   UNL     1       3.407  -4.598  -4.253  1.00  0.00     0.048 C 
ATOM     18  O   UNL     1       4.931  -5.067  -2.463  1.00  0.00    -0.365 OA
ATOM     19  C   UNL     1       2.603  -5.456  -2.045  1.00  0.00     0.053 C 
ATOM     20  C   UNL     1       4.498  -3.549  -4.251  1.00  0.00     0.032 C 
ATOM     21  C   UNL     1       5.270  -3.777  -2.972  1.00  0.00     0.162 C 
ENDBRANCH  14  16
ENDBRANCH  11  14
ENDBRANCH   4   7
ENDBRANCH   2   3
ENDBRANCH   1   2
BRANCH   1  22
ATOM     22  C   UNL     1       2.123  -8.273  -9.380  1.00  0.00     0.118 C 
BRANCH  22  23
ATOM     23  N   UNL     1       0.921  -9.027  -9.052  1.00  0.00    -0.352 N 
ATOM     24  C   UNL     1      -0.360  -8.898  -9.534  1.00  0.00     0.251 C 
ATOM     25  H   UNL     1       1.044  -9.737  -8.382  1.00  0.00     0.163 HD
ATOM     26  O   UNL     1      -1.275  -9.511  -8.999  1.00  0.00    -0.269 OA
BRANCH  24  27
ATOM     27  C   UNL     1      -0.634  -8.001 -10.678  1.00  0.00     0.039 A 
ATOM     28  C   UNL     1      -1.763  -7.180 -10.638  1.00  0.00     0.014 A 
ATOM     29  C   UNL     1       0.217  -7.967 -11.785  1.00  0.00     0.014 A 
ATOM     30  C   UNL     1      -1.997  -6.275 -11.676  1.00  0.00     0.010 A 
ATOM     31  C   UNL     1       0.036  -7.000 -12.768  1.00  0.00     0.010 A 
ATOM     32  C   UNL     1      -1.076  -6.147 -12.729  1.00  0.00    -0.014 A 
BRANCH  32  33
ATOM     33  C   UNL     1      -1.260  -5.132 -13.798  1.00  0.00     0.031 A 
ATOM     34  C   UNL     1      -1.420  -5.564 -15.232  1.00  0.00     0.074 A 
ATOM     35  C   UNL     1      -1.217  -3.821 -13.487  1.00  0.00     0.049 A 
ATOM     36  N   UNL     1      -1.522  -4.830 -16.309  1.00  0.00    -0.248 NA
ATOM     37  C   UNL     1      -1.439  -7.013 -15.492  1.00  0.00     0.031 C 
ATOM     38  C   UNL     1      -1.016  -3.276 -12.142  1.00  0.00     0.029 A 
ATOM     39  N   UNL     1      -1.330  -2.706 -14.280  1.00  0.00    -0.354 N 
ATOM     40  C   UNL     1      -1.604  -5.723 -17.371  1.00  0.00     0.074 A 
ATOM     41  C   UNL     1      -1.477  -7.052 -16.815  1.00  0.00     0.031 C 
ATOM     42  C   UNL     1      -1.047  -1.935 -12.200  1.00  0.00     0.029 A 
ATOM     43  C   UNL     1      -1.225  -1.522 -13.588  1.00  0.00     0.049 A 
ATOM     44  H   UNL     1      -1.474  -2.750 -15.253  1.00  0.00     0.167 HD
ATOM     45  C   UNL     1      -1.794  -5.461 -18.686  1.00  0.00     0.037 A 
ATOM     46  C   UNL     1      -1.258  -0.247 -14.024  1.00  0.00     0.037 A 
ATOM     47  C   UNL     1      -1.941  -4.135 -19.228  1.00  0.00     0.049 A 
ATOM     48  C   UNL     1      -1.460   0.020 -15.491  1.00  0.00     0.074 A 
ATOM     49  C   UNL     1      -2.194  -3.765 -20.537  1.00  0.00     0.029 A 
ATOM     50  N   UNL     1      -1.845  -2.962 -18.493  1.00  0.00    -0.354 N 
ATOM     51  N   UNL     1      -1.602  -0.839 -16.473  1.00  0.00    -0.248 NA
ATOM     52  C   UNL     1      -1.514   1.426 -15.910  1.00  0.00     0.031 C 
ATOM     53  C   UNL     1      -2.196  -2.368 -20.604  1.00  0.00     0.029 A 
ATOM     54  C   UNL     1      -2.007  -1.867 -19.325  1.00  0.00     0.049 A 
ATOM     55  H   UNL     1      -1.684  -2.916 -17.523  1.00  0.00     0.167 HD
ATOM     56  C   UNL     1      -1.792  -0.077 -17.620  1.00  0.00     0.074 A 
ATOM     57  C   UNL     1      -1.760   1.311 -17.208  1.00  0.00     0.031 C 
ATOM     58  C   UNL     1      -1.979  -0.489 -18.899  1.00  0.00     0.037 A 
BRANCH  45  59
ATOM     59  C   UNL     1      -1.855  -6.632 -19.631  1.00  0.00     0.058 A 
ATOM     60  C   UNL     1      -2.927  -7.539 -19.617  1.00  0.00     0.135 A 
ATOM     61  C   UNL     1      -0.847  -6.830 -20.590  1.00  0.00     0.135 A 
ATOM     62  F   UNL     1      -3.912  -7.409 -18.713  1.00  0.00    -0.206 F 
ATOM     63  C   UNL     1      -2.983  -8.616 -20.495  1.00  0.00     0.059 A 
ATOM     64  C   UNL     1      -0.898  -7.881 -21.500  1.00  0.00     0.059 A 
ATOM     65  F   UNL     1       0.202  -5.994 -20.650  1.00  0.00    -0.206 F 
ATOM     66  C   UNL     1      -1.963  -8.778 -21.435  1.00  0.00     0.060 A 
BRANCH  66  67
ATOM     67  S   UNL     1      -2.056 -10.177 -22.572  1.00  0.00     0.124 S 
ATOM     68  O   UNL     1      -1.773 -11.297 -21.680  1.00  0.00    -0.237 OA
ATOM     69  O   UNL     1      -3.428 -10.088 -23.062  1.00  0.00    -0.237 OA
ATOM     70  O   UNL     1      -1.021  -9.884 -23.558  1.00  0.00    -0.744 OA
ENDBRANCH  66  67
ENDBRANCH  45  59
BRANCH  46  71
ATOM     71  C   UNL     1      -1.114   0.874 -13.055  1.00  0.00     0.058 A 
ATOM     72  C   UNL     1      -2.194   1.719 -12.760  1.00  0.00     0.135 A 
ATOM     73  C   UNL     1       0.101   1.115 -12.395  1.00  0.00     0.135 A 
ATOM     74  F   UNL     1      -3.376   1.534 -13.369  1.00  0.00    -0.206 F 
ATOM     75  C   UNL     1      -2.072   2.774 -11.861  1.00  0.00     0.059 A 
ATOM     76  C   UNL     1       0.240   2.146 -11.470  1.00  0.00     0.059 A 
ATOM     77  F   UNL     1       1.161   0.326 -12.626  1.00  0.00    -0.206 F 
ATOM     78  C   UNL     1      -0.851   2.976 -11.217  1.00  0.00     0.060 A 
BRANCH  78  79
ATOM     79  S   UNL     1      -0.716   4.317 -10.015  1.00  0.00     0.124 S 
ATOM     80  O   UNL     1      -0.736   5.491 -10.880  1.00  0.00    -0.237 OA
ATOM     81  O   UNL     1      -1.903   4.108  -9.191  1.00  0.00    -0.237 OA
ATOM     82  O   UNL     1       0.554   4.044  -9.349  1.00  0.00    -0.744 OA
ENDBRANCH  78  79
ENDBRANCH  46  71
BRANCH  58  83
ATOM     83  C   UNL     1      -2.203   0.570 -19.945  1.00  0.00     0.058 A 
ATOM     84  C   UNL     1      -1.170   1.416 -20.376  1.00  0.00     0.135 A 
ATOM     85  C   UNL     1      -3.459   0.702 -20.560  1.00  0.00     0.135 A 
ATOM     86  F   UNL     1       0.048   1.336 -19.817  1.00  0.00    -0.206 F 
ATOM     87  C   UNL     1      -1.380   2.373 -21.363  1.00  0.00     0.059 A 
ATOM     88  C   UNL     1      -3.683   1.631 -21.572  1.00  0.00     0.059 A 
ATOM     89  F   UNL     1      -4.479  -0.089 -20.193  1.00  0.00    -0.206 F 
ATOM     90  C   UNL     1      -2.640   2.471 -21.958  1.00  0.00     0.060 A 
BRANCH  90  91
ATOM     91  S   UNL     1      -2.889   3.695 -23.260  1.00  0.00     0.124 S 
ATOM     92  O   UNL     1      -2.889   4.940 -22.498  1.00  0.00    -0.237 OA
ATOM     93  O   UNL     1      -1.729   3.477 -24.118  1.00  0.00    -0.237 OA
ATOM     94  O   UNL     1      -4.173   3.317 -23.843  1.00  0.00    -0.744 OA
ENDBRANCH  90  91
ENDBRANCH  58  83
ENDBRANCH  32  33
ENDBRANCH  24  27
ENDBRANCH  22  23
ENDBRANCH   1  22
TORSDOF 16
