REMARK SMILES CN1C(=O)/C(=C\c2ccc(C(=O)Nc3ccc(O)cc3C(=O)NCCCNC(=O)c3ccc(-c4c5nc(c(-c6c(F)cc(S(=O)(=O)[O-])cc6F)c6ccc([nH]6)c(-c6c(F)cc(S(=O)(=O)[O-])cc6F)c6nc(c(-c7c(F)cc(S(=O)(=O)[O-])cc7F)c7ccc4[nH]7)C=C6)C=C5)cc3)cc2)SC1=S
REMARK SMILES IDX 25 1 24 2 23 3 21 4 22 5 20 7 14 8 15 9 16 10 19 11 17 12
REMARK SMILES IDX 13 13 11 14 12 15 10 17 7 18 8 19 97 20 9 21 96 22 6 23 1 24
REMARK SMILES IDX 2 25 3 26 99 27 4 28 5 29 98 30 100 31 18 32 26 34 27 35
REMARK SMILES IDX 28 36 29 38 30 39 31 40 95 41 32 42 94 43 33 44 34 45 35 46
REMARK SMILES IDX 88 47 36 48 93 49 87 50 89 51 37 52 92 53 86 54 85 55 38 57
REMARK SMILES IDX 72 58 51 59 71 60 52 61 55 62 70 63 90 64 53 65 54 66 69 68
REMARK SMILES IDX 91 69 56 70 39 71 40 72 49 73 41 74 42 75 48 76 50 77 43 78
REMARK SMILES IDX 44 79 45 80 46 81 47 82 73 83 74 84 83 85 75 86 76 87 82 88
REMARK SMILES IDX 84 89 77 90 78 91 79 92 80 93 81 94 57 95 58 96 67 97 59 98
REMARK SMILES IDX 60 99 66 100 68 101 61 102 62 103 63 104 64 105 65 106
REMARK H PARENT 23 6 13 16 18 33 27 37 89 56 55 67
REMARK Flexibility Score: inf
ROOT
ATOM      1  C   UNL     1       4.739 -10.142  -0.270  1.00  0.00     0.042 C 
ENDROOT
BRANCH   1   2
ATOM      2  C   UNL     1       4.868  -8.737   0.271  1.00  0.00     0.118 C 
BRANCH   2   3
ATOM      3  N   UNL     1       4.084  -8.454   1.452  1.00  0.00    -0.352 N 
ATOM      4  C   UNL     1       4.268  -7.491   2.412  1.00  0.00     0.253 C 
ATOM      5  O   UNL     1       3.421  -7.415   3.307  1.00  0.00    -0.269 OA
ATOM      6  H   UNL     1       3.303  -9.038   1.587  1.00  0.00     0.163 HD
BRANCH   4   7
ATOM      7  C   UNL     1       5.474  -6.601   2.482  1.00  0.00     0.067 A 
ATOM      8  C   UNL     1       6.243  -6.065   1.426  1.00  0.00     0.054 A 
ATOM      9  C   UNL     1       7.471  -5.444   1.725  1.00  0.00     0.031 A 
ATOM     10  C   UNL     1       7.830  -5.154   3.039  1.00  0.00     0.048 A 
ATOM     11  C   UNL     1       5.840  -6.267   3.807  1.00  0.00     0.062 A 
ATOM     12  C   UNL     1       6.979  -5.514   4.067  1.00  0.00     0.116 A 
BRANCH   8  13
ATOM     13  N   UNL     1       5.896  -5.939   0.062  1.00  0.00    -0.321 N 
ATOM     14  C   UNL     1       4.697  -5.699  -0.575  1.00  0.00     0.255 C 
ATOM     15  O   UNL     1       4.662  -5.753  -1.804  1.00  0.00    -0.269 OA
ATOM     16  H   UNL     1       6.659  -6.042  -0.552  1.00  0.00     0.170 HD
BRANCH  14  17
ATOM     17  C   UNL     1       3.463  -5.357   0.161  1.00  0.00     0.040 A 
ATOM     18  C   UNL     1       1.111  -4.681   1.488  1.00  0.00    -0.024 A 
ATOM     19  C   UNL     1       1.046  -5.408   0.295  1.00  0.00     0.009 A 
ATOM     20  C   UNL     1       2.349  -4.344   2.042  1.00  0.00     0.009 A 
ATOM     21  C   UNL     1       2.227  -5.758  -0.363  1.00  0.00     0.014 A 
ATOM     22  C   UNL     1       3.511  -4.602   1.332  1.00  0.00     0.014 A 
BRANCH  18  23
ATOM     23  C   UNL     1      -0.083  -4.054   2.048  1.00  0.00     0.029 C 
ATOM     24  C   UNL     1       0.657   0.534   0.419  1.00  0.00     0.155 C 
ATOM     25  N   UNL     1      -0.024  -0.502   1.179  1.00  0.00    -0.296 N 
ATOM     26  C   UNL     1       0.579  -1.746   1.203  1.00  0.00     0.265 C 
ATOM     27  C   UNL     1      -1.225  -0.381   1.833  1.00  0.00     0.148 C 
ATOM     28  O   UNL     1       1.662  -1.973   0.701  1.00  0.00    -0.268 OA
ATOM     29  C   UNL     1      -0.294  -2.734   1.922  1.00  0.00     0.081 C 
ATOM     30  S   UNL     1      -1.675  -1.924   2.556  1.00  0.00    -0.054 SA
ATOM     31  S   UNL     1      -2.186   0.976   1.964  1.00  0.00    -0.052 S 
ENDBRANCH  18  23
ENDBRANCH  14  17
ENDBRANCH   8  13
BRANCH  12  32
ATOM     32  O   UNL     1       7.289  -5.101   5.327  1.00  0.00    -0.508 OA
ATOM     33  H   UNL     1       8.063  -4.594   5.477  1.00  0.00     0.293 HD
ENDBRANCH  12  32
ENDBRANCH   4   7
ENDBRANCH   2   3
ENDBRANCH   1   2
BRANCH   1  34
ATOM     34  C   UNL     1       3.377 -10.471  -0.865  1.00  0.00     0.118 C 
BRANCH  34  35
ATOM     35  N   UNL     1       2.942  -9.615  -1.971  1.00  0.00    -0.352 N 
ATOM     36  C   UNL     1       2.624  -9.911  -3.281  1.00  0.00     0.251 C 
ATOM     37  H   UNL     1       2.863  -8.662  -1.740  1.00  0.00     0.163 HD
ATOM     38  O   UNL     1       2.254  -9.021  -4.042  1.00  0.00    -0.269 OA
BRANCH  36  39
ATOM     39  C   UNL     1       2.795 -11.288  -3.789  1.00  0.00     0.039 A 
ATOM     40  C   UNL     1       3.466 -11.491  -4.998  1.00  0.00     0.014 A 
ATOM     41  C   UNL     1       2.394 -12.378  -3.023  1.00  0.00     0.014 A 
ATOM     42  C   UNL     1       3.868 -12.781  -5.353  1.00  0.00     0.010 A 
ATOM     43  C   UNL     1       2.924 -13.629  -3.297  1.00  0.00     0.010 A 
ATOM     44  C   UNL     1       3.676 -13.848  -4.460  1.00  0.00    -0.014 A 
BRANCH  44  45
ATOM     45  C   UNL     1       4.259 -15.195  -4.700  1.00  0.00     0.031 A 
ATOM     46  C   UNL     1       3.363 -16.406  -4.707  1.00  0.00     0.074 A 
ATOM     47  C   UNL     1       5.598 -15.341  -4.800  1.00  0.00     0.049 A 
ATOM     48  N   UNL     1       3.685 -17.673  -4.758  1.00  0.00    -0.248 NA
ATOM     49  C   UNL     1       1.915 -16.164  -4.588  1.00  0.00     0.031 C 
ATOM     50  C   UNL     1       6.581 -14.256  -4.727  1.00  0.00     0.029 A 
ATOM     51  N   UNL     1       6.367 -16.466  -4.971  1.00  0.00    -0.354 N 
ATOM     52  C   UNL     1       2.488 -18.370  -4.646  1.00  0.00     0.074 A 
ATOM     53  C   UNL     1       1.443 -17.392  -4.448  1.00  0.00     0.031 C 
ATOM     54  C   UNL     1       7.814 -14.762  -4.893  1.00  0.00     0.029 A 
ATOM     55  C   UNL     1       7.718 -16.210  -5.035  1.00  0.00     0.049 A 
ATOM     56  H   UNL     1       5.987 -17.371  -5.041  1.00  0.00     0.167 HD
ATOM     57  C   UNL     1       2.272 -19.704  -4.736  1.00  0.00     0.037 A 
ATOM     58  C   UNL     1       8.762 -17.049  -5.188  1.00  0.00     0.037 A 
ATOM     59  C   UNL     1       3.310 -20.665  -4.990  1.00  0.00     0.049 A 
ATOM     60  C   UNL     1       8.495 -18.524  -5.323  1.00  0.00     0.074 A 
ATOM     61  C   UNL     1       3.191 -22.030  -5.181  1.00  0.00     0.029 A 
ATOM     62  N   UNL     1       4.659 -20.361  -5.100  1.00  0.00    -0.354 N 
ATOM     63  N   UNL     1       7.347 -19.159  -5.284  1.00  0.00    -0.248 NA
ATOM     64  C   UNL     1       9.659 -19.395  -5.528  1.00  0.00     0.031 C 
ATOM     65  C   UNL     1       4.473 -22.557  -5.367  1.00  0.00     0.029 A 
ATOM     66  C   UNL     1       5.386 -21.514  -5.340  1.00  0.00     0.049 A 
ATOM     67  H   UNL     1       5.043 -19.458  -5.018  1.00  0.00     0.167 HD
ATOM     68  C   UNL     1       7.649 -20.502  -5.484  1.00  0.00     0.074 A 
ATOM     69  C   UNL     1       9.085 -20.584  -5.659  1.00  0.00     0.031 C 
ATOM     70  C   UNL     1       6.815 -21.570  -5.519  1.00  0.00     0.037 A 
BRANCH  57  71
ATOM     71  C   UNL     1       0.857 -20.191  -4.582  1.00  0.00     0.058 A 
ATOM     72  C   UNL     1      -0.126 -19.917  -5.548  1.00  0.00     0.135 A 
ATOM     73  C   UNL     1       0.480 -20.953  -3.465  1.00  0.00     0.135 A 
ATOM     74  F   UNL     1       0.173 -19.176  -6.627  1.00  0.00    -0.206 F 
ATOM     75  C   UNL     1      -1.439 -20.349  -5.394  1.00  0.00     0.059 A 
ATOM     76  C   UNL     1      -0.820 -21.425  -3.307  1.00  0.00     0.059 A 
ATOM     77  F   UNL     1       1.378 -21.243  -2.510  1.00  0.00    -0.206 F 
ATOM     78  C   UNL     1      -1.776 -21.103  -4.269  1.00  0.00     0.060 A 
BRANCH  78  79
ATOM     79  S   UNL     1      -3.483 -21.660  -4.088  1.00  0.00     0.124 S 
ATOM     80  O   UNL     1      -4.159 -20.415  -3.732  1.00  0.00    -0.237 OA
ATOM     81  O   UNL     1      -3.783 -22.185  -5.416  1.00  0.00    -0.237 OA
ATOM     82  O   UNL     1      -3.405 -22.657  -3.025  1.00  0.00    -0.744 OA
ENDBRANCH  78  79
ENDBRANCH  57  71
BRANCH  58  83
ATOM     83  C   UNL     1      10.149 -16.514  -5.255  1.00  0.00     0.058 A 
ATOM     84  C   UNL     1      10.869 -16.527  -6.459  1.00  0.00     0.135 A 
ATOM     85  C   UNL     1      10.781 -15.967  -4.126  1.00  0.00     0.135 A 
ATOM     86  F   UNL     1      10.312 -17.044  -7.566  1.00  0.00    -0.206 F 
ATOM     87  C   UNL     1      12.168 -16.037  -6.541  1.00  0.00     0.059 A 
ATOM     88  C   UNL     1      12.071 -15.448  -4.188  1.00  0.00     0.059 A 
ATOM     89  F   UNL     1      10.132 -15.913  -2.953  1.00  0.00    -0.206 F 
ATOM     90  C   UNL     1      12.761 -15.497  -5.399  1.00  0.00     0.060 A 
BRANCH  90  91
ATOM     91  S   UNL     1      14.431 -14.820  -5.527  1.00  0.00     0.124 S 
ATOM     92  O   UNL     1      15.233 -16.033  -5.629  1.00  0.00    -0.237 OA
ATOM     93  O   UNL     1      14.342 -14.009  -6.737  1.00  0.00    -0.237 OA
ATOM     94  O   UNL     1      14.582 -14.065  -4.286  1.00  0.00    -0.744 OA
ENDBRANCH  90  91
ENDBRANCH  58  83
BRANCH  70  95
ATOM     95  C   UNL     1       7.428 -22.916  -5.787  1.00  0.00     0.058 A 
ATOM     96  C   UNL     1       8.187 -23.585  -4.815  1.00  0.00     0.135 A 
ATOM     97  C   UNL     1       7.201 -23.567  -7.010  1.00  0.00     0.135 A 
ATOM     98  F   UNL     1       8.436 -23.003  -3.632  1.00  0.00    -0.206 F 
ATOM     99  C   UNL     1       8.719 -24.847  -5.055  1.00  0.00     0.059 A 
ATOM    100  C   UNL     1       7.700 -24.841  -7.261  1.00  0.00     0.059 A 
ATOM    101  F   UNL     1       6.472 -22.974  -7.968  1.00  0.00    -0.206 F 
ATOM    102  C   UNL     1       8.468 -25.468  -6.280  1.00  0.00     0.060 A 
BRANCH 102 103
ATOM    103  S   UNL     1       9.134 -27.122  -6.564  1.00  0.00     0.124 S 
ATOM    104  O   UNL     1      10.550 -26.836  -6.773  1.00  0.00    -0.237 OA
ATOM    105  O   UNL     1       8.802 -27.810  -5.321  1.00  0.00    -0.237 OA
ATOM    106  O   UNL     1       8.406 -27.583  -7.742  1.00  0.00    -0.744 OA
ENDBRANCH 102 103
ENDBRANCH  70  95
ENDBRANCH  44  45
ENDBRANCH  36  39
ENDBRANCH  34  35
ENDBRANCH   1  34
TORSDOF 17
