REMARK SMILES COc1ccc(OC)c(/C=C2\S/C(=[NH+]\c3ccc(C(=O)NCCCNC(=O)c4ccc(-c5c6nc(c(-c7c(F)cc(S(=O)(=O)[O-])cc7F)c7ccc([nH]7)c(-c7c(F)cc(S(=O)(=O)[O-])cc7F)c7nc(c(-c8c(F)cc(S(=O)(=O)[O-])cc8F)c8ccc5[nH]8)C=C7)C=C6)cc4)cc3)N(C)C2=O)c1
REMARK SMILES IDX 23 1 22 2 21 3 19 4 20 5 18 7 15 8 16 9 95 10 17 11 94 12
REMARK SMILES IDX 14 13 10 14 11 15 12 16 98 17 13 18 96 19 99 20 97 21 9 23
REMARK SMILES IDX 3 24 4 25 100 26 5 27 6 28 2 29 1 30 7 31 8 32 24 33 25 34
REMARK SMILES IDX 26 35 27 37 28 38 29 39 93 40 30 41 92 42 31 43 32 44 33 45
REMARK SMILES IDX 86 46 34 47 91 48 85 49 87 50 35 51 90 52 84 53 83 54 36 56
REMARK SMILES IDX 70 57 49 58 69 59 50 60 53 61 68 62 88 63 51 64 52 65 67 67
REMARK SMILES IDX 89 68 54 69 37 70 38 71 47 72 39 73 40 74 46 75 48 76 41 77
REMARK SMILES IDX 42 78 43 79 44 80 45 81 71 82 72 83 81 84 73 85 74 86 80 87
REMARK SMILES IDX 82 88 75 89 76 90 77 91 78 92 79 93 55 94 56 95 65 96 57 97
REMARK SMILES IDX 58 98 64 99 66 100 59 101 60 102 61 103 62 104 63 105
REMARK H PARENT 21 6 14 22 25 36 87 55 53 66
REMARK Flexibility Score: inf
ROOT
ATOM      1  C   UNL     1      -1.632  -5.447  10.139  1.00  0.00     0.042 C 
ENDROOT
BRANCH   1   2
ATOM      2  C   UNL     1      -1.410  -4.207   9.274  1.00  0.00     0.118 C 
BRANCH   2   3
ATOM      3  N   UNL     1      -1.259  -3.008  10.078  1.00  0.00    -0.352 N 
ATOM      4  C   UNL     1      -0.174  -2.214  10.352  1.00  0.00     0.251 C 
ATOM      5  O   UNL     1      -0.379  -1.158  10.951  1.00  0.00    -0.269 OA
ATOM      6  H   UNL     1      -2.093  -2.708  10.508  1.00  0.00     0.163 HD
BRANCH   4   7
ATOM      7  C   UNL     1       1.217  -2.542   9.930  1.00  0.00     0.040 A 
ATOM      8  C   UNL     1       3.904  -2.976   9.143  1.00  0.00     0.125 A 
ATOM      9  C   UNL     1       3.386  -1.679   9.241  1.00  0.00     0.052 A 
ATOM     10  C   UNL     1       3.085  -4.048   9.506  1.00  0.00     0.052 A 
ATOM     11  C   UNL     1       2.059  -1.462   9.629  1.00  0.00     0.018 A 
ATOM     12  C   UNL     1       1.751  -3.834   9.898  1.00  0.00     0.018 A 
BRANCH   8  13
ATOM     13  N   UNL     1       5.206  -3.143   8.617  1.00  0.00    -0.234 N 
ATOM     14  C   UNL     1       4.081  -2.196   4.106  1.00  0.00     0.036 C 
ATOM     15  C   UNL     1       4.692  -2.954   5.030  1.00  0.00     0.110 C 
ATOM     16  S   UNL     1       4.025  -3.894   6.278  1.00  0.00     0.007 SA
ATOM     17  C   UNL     1       6.176  -2.912   5.273  1.00  0.00     0.348 C 
ATOM     18  C   UNL     1       5.299  -3.405   7.353  1.00  0.00     0.324 C 
ATOM     19  N   UNL     1       6.426  -3.231   6.600  1.00  0.00    -0.189 N 
ATOM     20  O   UNL     1       6.994  -2.549   4.437  1.00  0.00    -0.240 OA
ATOM     21  C   UNL     1       7.747  -3.149   7.176  1.00  0.00     0.301 C 
ATOM     22  H   UNL     1       6.005  -3.064   9.187  1.00  0.00     0.313 HD
BRANCH  14  23
ATOM     23  C   UNL     1       2.655  -1.860   3.788  1.00  0.00     0.022 A 
ATOM     24  C   UNL     1       1.241  -0.578   2.231  1.00  0.00     0.119 A 
ATOM     25  C   UNL     1       0.124  -0.792   3.022  1.00  0.00     0.050 A 
ATOM     26  C   UNL     1       2.485  -1.102   2.604  1.00  0.00     0.058 A 
ATOM     27  C   UNL     1       0.246  -1.554   4.175  1.00  0.00     0.051 A 
ATOM     28  C   UNL     1       1.491  -2.087   4.555  1.00  0.00     0.126 A 
BRANCH  24  29
ATOM     29  O   UNL     1       1.085   0.272   1.170  1.00  0.00    -0.497 OA
ATOM     30  C   UNL     1       1.470  -0.320  -0.066  1.00  0.00     0.278 C 
ENDBRANCH  24  29
BRANCH  28  31
ATOM     31  O   UNL     1       1.512  -2.690   5.783  1.00  0.00    -0.496 OA
ATOM     32  C   UNL     1       0.881  -3.975   5.752  1.00  0.00     0.278 C 
ENDBRANCH  28  31
ENDBRANCH  14  23
ENDBRANCH   8  13
ENDBRANCH   4   7
ENDBRANCH   2   3
ENDBRANCH   1   2
BRANCH   1  33
ATOM     33  C   UNL     1      -3.021  -5.531  10.776  1.00  0.00     0.118 C 
BRANCH  33  34
ATOM     34  N   UNL     1      -4.066  -5.797   9.797  1.00  0.00    -0.352 N 
ATOM     35  C   UNL     1      -4.971  -6.826   9.710  1.00  0.00     0.251 C 
ATOM     36  H   UNL     1      -4.135  -5.127   9.078  1.00  0.00     0.163 HD
ATOM     37  O   UNL     1      -5.624  -6.950   8.675  1.00  0.00    -0.269 OA
BRANCH  35  38
ATOM     38  C   UNL     1      -5.168  -7.789  10.821  1.00  0.00     0.039 A 
ATOM     39  C   UNL     1      -5.414  -9.130  10.506  1.00  0.00     0.014 A 
ATOM     40  C   UNL     1      -5.186  -7.383  12.158  1.00  0.00     0.014 A 
ATOM     41  C   UNL     1      -5.626 -10.065  11.525  1.00  0.00     0.010 A 
ATOM     42  C   UNL     1      -5.333  -8.328  13.178  1.00  0.00     0.010 A 
ATOM     43  C   UNL     1      -5.561  -9.678  12.873  1.00  0.00    -0.014 A 
BRANCH  43  44
ATOM     44  C   UNL     1      -5.723 -10.679  13.963  1.00  0.00     0.031 A 
ATOM     45  C   UNL     1      -6.892 -10.602  14.911  1.00  0.00     0.074 A 
ATOM     46  C   UNL     1      -4.790 -11.639  14.127  1.00  0.00     0.049 A 
ATOM     47  N   UNL     1      -7.182 -11.372  15.929  1.00  0.00    -0.248 NA
ATOM     48  C   UNL     1      -7.847  -9.503  14.701  1.00  0.00     0.031 C 
ATOM     49  C   UNL     1      -3.585 -11.792  13.308  1.00  0.00     0.029 A 
ATOM     50  N   UNL     1      -4.704 -12.664  15.036  1.00  0.00    -0.354 N 
ATOM     51  C   UNL     1      -8.342 -10.847  16.487  1.00  0.00     0.074 A 
ATOM     52  C   UNL     1      -8.675  -9.663  15.724  1.00  0.00     0.031 C 
ATOM     53  C   UNL     1      -2.895 -12.861  13.736  1.00  0.00     0.029 A 
ATOM     54  C   UNL     1      -3.588 -13.451  14.877  1.00  0.00     0.049 A 
ATOM     55  H   UNL     1      -5.378 -12.820  15.737  1.00  0.00     0.167 HD
ATOM     56  C   UNL     1      -9.076 -11.319  17.524  1.00  0.00     0.037 A 
ATOM     57  C   UNL     1      -3.166 -14.527  15.571  1.00  0.00     0.037 A 
ATOM     58  C   UNL     1      -8.753 -12.511  18.267  1.00  0.00     0.049 A 
ATOM     59  C   UNL     1      -4.003 -15.040  16.711  1.00  0.00     0.074 A 
ATOM     60  C   UNL     1      -9.462 -13.102  19.298  1.00  0.00     0.029 A 
ATOM     61  N   UNL     1      -7.626 -13.294  18.060  1.00  0.00    -0.354 N 
ATOM     62  N   UNL     1      -5.132 -14.568  17.182  1.00  0.00    -0.248 NA
ATOM     63  C   UNL     1      -3.515 -16.239  17.407  1.00  0.00     0.031 C 
ATOM     64  C   UNL     1      -8.744 -14.218  19.742  1.00  0.00     0.029 A 
ATOM     65  C   UNL     1      -7.612 -14.352  18.954  1.00  0.00     0.049 A 
ATOM     66  H   UNL     1      -6.937 -13.122  17.378  1.00  0.00     0.167 HD
ATOM     67  C   UNL     1      -5.505 -15.428  18.209  1.00  0.00     0.074 A 
ATOM     68  C   UNL     1      -4.486 -16.454  18.285  1.00  0.00     0.031 C 
ATOM     69  C   UNL     1      -6.595 -15.372  19.014  1.00  0.00     0.037 A 
BRANCH  56  70
ATOM     70  C   UNL     1     -10.307 -10.547  17.918  1.00  0.00     0.058 A 
ATOM     71  C   UNL     1     -11.450 -10.515  17.101  1.00  0.00     0.135 A 
ATOM     72  C   UNL     1     -10.361  -9.858  19.141  1.00  0.00     0.135 A 
ATOM     73  F   UNL     1     -11.451 -11.145  15.915  1.00  0.00    -0.206 F 
ATOM     74  C   UNL     1     -12.587  -9.800  17.465  1.00  0.00     0.059 A 
ATOM     75  C   UNL     1     -11.499  -9.161  19.539  1.00  0.00     0.059 A 
ATOM     76  F   UNL     1      -9.301  -9.858  19.964  1.00  0.00    -0.206 F 
ATOM     77  C   UNL     1     -12.601  -9.124  18.686  1.00  0.00     0.060 A 
BRANCH  77  78
ATOM     78  S   UNL     1     -14.082  -8.199  19.142  1.00  0.00     0.124 S 
ATOM     79  O   UNL     1     -13.988  -7.043  18.255  1.00  0.00    -0.237 OA
ATOM     80  O   UNL     1     -15.150  -9.146  18.836  1.00  0.00    -0.237 OA
ATOM     81  O   UNL     1     -13.885  -7.918  20.561  1.00  0.00    -0.744 OA
ENDBRANCH  77  78
ENDBRANCH  56  70
BRANCH  57  82
ATOM     82  C   UNL     1      -1.904 -15.210  15.181  1.00  0.00     0.058 A 
ATOM     83  C   UNL     1      -1.926 -16.473  14.571  1.00  0.00     0.135 A 
ATOM     84  C   UNL     1      -0.654 -14.605  15.385  1.00  0.00     0.135 A 
ATOM     85  F   UNL     1      -3.096 -17.095  14.360  1.00  0.00    -0.206 F 
ATOM     86  C   UNL     1      -0.755 -17.119  14.189  1.00  0.00     0.059 A 
ATOM     87  C   UNL     1       0.529 -15.220  14.989  1.00  0.00     0.059 A 
ATOM     88  F   UNL     1      -0.580 -13.389  15.948  1.00  0.00    -0.206 F 
ATOM     89  C   UNL     1       0.469 -16.482  14.399  1.00  0.00     0.060 A 
BRANCH  89  90
ATOM     90  S   UNL     1       1.979 -17.302  13.844  1.00  0.00     0.124 S 
ATOM     91  O   UNL     1       2.127 -18.353  14.844  1.00  0.00    -0.237 OA
ATOM     92  O   UNL     1       1.613 -17.744  12.502  1.00  0.00    -0.237 OA
ATOM     93  O   UNL     1       2.976 -16.237  13.893  1.00  0.00    -0.744 OA
ENDBRANCH  89  90
ENDBRANCH  57  82
BRANCH  69  94
ATOM     94  C   UNL     1      -6.766 -16.474  20.024  1.00  0.00     0.058 A 
ATOM     95  C   UNL     1      -5.965 -16.556  21.173  1.00  0.00     0.135 A 
ATOM     96  C   UNL     1      -7.780 -17.432  19.862  1.00  0.00     0.135 A 
ATOM     97  F   UNL     1      -4.977 -15.669  21.373  1.00  0.00    -0.206 F 
ATOM     98  C   UNL     1      -6.146 -17.564  22.115  1.00  0.00     0.059 A 
ATOM     99  C   UNL     1      -7.997 -18.433  20.804  1.00  0.00     0.059 A 
ATOM    100  F   UNL     1      -8.582 -17.393  18.786  1.00  0.00    -0.206 F 
ATOM    101  C   UNL     1      -7.166 -18.498  21.922  1.00  0.00     0.060 A 
BRANCH 101 102
ATOM    102  S   UNL     1      -7.412 -19.783  23.166  1.00  0.00     0.124 S 
ATOM    103  O   UNL     1      -6.290 -20.674  22.893  1.00  0.00    -0.237 OA
ATOM    104  O   UNL     1      -7.335 -19.030  24.414  1.00  0.00    -0.237 OA
ATOM    105  O   UNL     1      -8.732 -20.318  22.845  1.00  0.00    -0.744 OA
ENDBRANCH 101 102
ENDBRANCH  69  94
ENDBRANCH  43  44
ENDBRANCH  35  38
ENDBRANCH  33  34
ENDBRANCH   1  33
TORSDOF 17
