REMARK SMILES COC(CNS(=O)(=O)c1ccc(Cl)c(C(=O)NCCCNC(=O)c2ccc(-c3c4nc(c(-c5c(F)cc(S(=O)(=O)[O-])cc5F)c5ccc([nH]5)c(-c5c(F)cc(S(=O)(=O)[O-])cc5F)c5nc(c(-c6c(F)cc(S(=O)(=O)[O-])cc6F)c6ccc3[nH]6)C=C5)C=C4)cc2)c1Cl)OC
REMARK SMILES IDX 18 1 17 2 15 3 16 4 14 6 9 7 10 8 90 9 11 10 91 11 12 12
REMARK SMILES IDX 13 13 6 14 7 15 8 16 5 17 4 19 3 20 2 21 1 22 92 23 93 24
REMARK SMILES IDX 19 25 20 26 21 27 22 28 23 30 24 31 25 32 89 33 26 34 88 35
REMARK SMILES IDX 27 36 28 37 29 38 82 39 30 40 87 41 81 42 83 43 31 44 86 45
REMARK SMILES IDX 80 46 79 47 32 49 66 50 45 51 65 52 46 53 49 54 64 55 84 56
REMARK SMILES IDX 47 57 48 58 63 60 85 61 50 62 33 63 34 64 43 65 35 66 36 67
REMARK SMILES IDX 42 68 44 69 37 70 38 71 39 72 40 73 41 74 67 75 68 76 77 77
REMARK SMILES IDX 69 78 70 79 76 80 78 81 71 82 72 83 73 84 74 85 75 86 51 87
REMARK SMILES IDX 52 88 61 89 53 90 54 91 60 92 62 93 55 94 56 95 57 96 58 97
REMARK SMILES IDX 59 98
REMARK H PARENT 17 5 5 18 21 29 83 48 49 59
REMARK Flexibility Score: inf
ROOT
ATOM      1  C   UNL     1       2.071   4.611  -8.642  1.00  0.00     0.118 C 
ENDROOT
BRANCH   1   2
ATOM      2  N   UNL     1       2.293   3.556  -7.674  1.00  0.00    -0.352 N 
ATOM      3  C   UNL     1       2.229   3.384  -6.322  1.00  0.00     0.254 C 
ATOM      4  O   UNL     1       2.376   2.194  -6.019  1.00  0.00    -0.269 OA
ATOM      5  H   UNL     1       2.568   2.723  -8.121  1.00  0.00     0.163 HD
BRANCH   3   6
ATOM      6  C   UNL     1       1.859   4.366  -5.235  1.00  0.00     0.078 A 
ATOM      7  C   UNL     1       0.789   4.374  -3.021  1.00  0.00     0.101 A 
ATOM      8  C   UNL     1       0.275   5.647  -3.274  1.00  0.00     0.025 A 
ATOM      9  C   UNL     1       1.669   3.794  -3.940  1.00  0.00     0.075 A 
ATOM     10  C   UNL     1       0.700   6.339  -4.399  1.00  0.00     0.023 A 
ATOM     11  Cl  UNL     1       2.893   2.694  -3.348  1.00  0.00    -0.082 Cl
ATOM     12  C   UNL     1       1.501   5.713  -5.368  1.00  0.00     0.055 A 
ATOM     13  Cl  UNL     1       2.207   6.829  -6.473  1.00  0.00    -0.083 Cl
BRANCH   7  14
ATOM     14  S   UNL     1       0.190   3.615  -1.538  1.00  0.00     0.242 S 
ATOM     15  O   UNL     1      -1.247   3.495  -1.689  1.00  0.00    -0.207 OA
ATOM     16  O   UNL     1       0.762   4.359  -0.440  1.00  0.00    -0.207 OA
BRANCH  14  17
ATOM     17  N   UNL     1       0.791   2.075  -1.382  1.00  0.00    -0.206 NA
ATOM     18  H   UNL     1       1.767   2.114  -1.677  1.00  0.00     0.141 HD
BRANCH  17  19
ATOM     19  C   UNL     1       0.179   0.946  -2.104  1.00  0.00     0.161 C 
BRANCH  19  20
ATOM     20  C   UNL     1       0.880  -0.425  -1.857  1.00  0.00     0.263 C 
BRANCH  20  21
ATOM     21  O   UNL     1       0.561  -1.131  -0.655  1.00  0.00    -0.355 OA
ATOM     22  C   UNL     1       0.448  -0.382   0.538  1.00  0.00     0.198 C 
ENDBRANCH  20  21
BRANCH  20  23
ATOM     23  O   UNL     1       2.259  -0.464  -2.227  1.00  0.00    -0.355 OA
ATOM     24  C   UNL     1       3.201  -0.125  -1.231  1.00  0.00     0.198 C 
ENDBRANCH  20  23
ENDBRANCH  19  20
ENDBRANCH  17  19
ENDBRANCH  14  17
ENDBRANCH   7  14
ENDBRANCH   3   6
ENDBRANCH   1   2
BRANCH   1  25
ATOM     25  C   UNL     1       3.384   5.294  -9.022  1.00  0.00     0.042 C 
BRANCH  25  26
ATOM     26  C   UNL     1       4.236   4.476  -9.989  1.00  0.00     0.118 C 
BRANCH  26  27
ATOM     27  N   UNL     1       3.679   4.478 -11.334  1.00  0.00    -0.352 N 
ATOM     28  C   UNL     1       4.115   5.114 -12.470  1.00  0.00     0.251 C 
ATOM     29  H   UNL     1       2.862   3.939 -11.446  1.00  0.00     0.163 HD
ATOM     30  O   UNL     1       3.351   5.214 -13.428  1.00  0.00    -0.269 OA
BRANCH  28  31
ATOM     31  C   UNL     1       5.483   5.675 -12.556  1.00  0.00     0.039 A 
ATOM     32  C   UNL     1       5.675   6.890 -13.224  1.00  0.00     0.014 A 
ATOM     33  C   UNL     1       6.587   4.981 -12.052  1.00  0.00     0.014 A 
ATOM     34  C   UNL     1       6.960   7.426 -13.345  1.00  0.00     0.010 A 
ATOM     35  C   UNL     1       7.859   5.548 -12.114  1.00  0.00     0.010 A 
ATOM     36  C   UNL     1       8.061   6.770 -12.772  1.00  0.00    -0.014 A 
BRANCH  36  37
ATOM     37  C   UNL     1       9.436   7.324 -12.878  1.00  0.00     0.031 A 
ATOM     38  C   UNL     1      10.488   6.576 -13.655  1.00  0.00     0.074 A 
ATOM     39  C   UNL     1       9.753   8.464 -12.233  1.00  0.00     0.049 A 
ATOM     40  N   UNL     1      11.767   6.826 -13.769  1.00  0.00    -0.248 NA
ATOM     41  C   UNL     1      10.046   5.373 -14.380  1.00  0.00     0.031 C 
ATOM     42  C   UNL     1       8.832   9.262 -11.420  1.00  0.00     0.029 A 
ATOM     43  N   UNL     1      10.943   9.143 -12.147  1.00  0.00    -0.354 N 
ATOM     44  C   UNL     1      12.284   5.809 -14.564  1.00  0.00     0.074 A 
ATOM     45  C   UNL     1      11.189   4.912 -14.867  1.00  0.00     0.031 C 
ATOM     46  C   UNL     1       9.489  10.325 -10.926  1.00  0.00     0.029 A 
ATOM     47  C   UNL     1      10.882  10.268 -11.358  1.00  0.00     0.049 A 
ATOM     48  H   UNL     1      11.763   8.851 -12.606  1.00  0.00     0.167 HD
ATOM     49  C   UNL     1      13.549   5.650 -15.021  1.00  0.00     0.037 A 
ATOM     50  C   UNL     1      11.844  11.146 -11.014  1.00  0.00     0.037 A 
ATOM     51  C   UNL     1      14.629   6.559 -14.742  1.00  0.00     0.049 A 
ATOM     52  C   UNL     1      13.238  10.953 -11.545  1.00  0.00     0.074 A 
ATOM     53  C   UNL     1      15.944   6.494 -15.168  1.00  0.00     0.029 A 
ATOM     54  N   UNL     1      14.513   7.712 -13.980  1.00  0.00    -0.354 N 
ATOM     55  N   UNL     1      13.703   9.992 -12.309  1.00  0.00    -0.248 NA
ATOM     56  C   UNL     1      14.238  11.964 -11.175  1.00  0.00     0.031 C 
ATOM     57  C   UNL     1      16.628   7.600 -14.651  1.00  0.00     0.029 A 
ATOM     58  C   UNL     1      15.730   8.369 -13.928  1.00  0.00     0.049 A 
ATOM     59  H   UNL     1      13.686   8.018 -13.540  1.00  0.00     0.167 HD
ATOM     60  C   UNL     1      15.041  10.298 -12.530  1.00  0.00     0.074 A 
ATOM     61  C   UNL     1      15.309  11.538 -11.830  1.00  0.00     0.031 C 
ATOM     62  C   UNL     1      15.967   9.614 -13.244  1.00  0.00     0.037 A 
BRANCH  49  63
ATOM     63  C   UNL     1      13.829   4.457 -15.893  1.00  0.00     0.058 A 
ATOM     64  C   UNL     1      13.367   4.400 -17.217  1.00  0.00     0.135 A 
ATOM     65  C   UNL     1      14.599   3.383 -15.420  1.00  0.00     0.135 A 
ATOM     66  F   UNL     1      12.612   5.393 -17.713  1.00  0.00    -0.206 F 
ATOM     67  C   UNL     1      13.641   3.311 -18.037  1.00  0.00     0.059 A 
ATOM     68  C   UNL     1      14.905   2.292 -16.231  1.00  0.00     0.059 A 
ATOM     69  F   UNL     1      15.065   3.386 -14.161  1.00  0.00    -0.206 F 
ATOM     70  C   UNL     1      14.411   2.261 -17.534  1.00  0.00     0.060 A 
BRANCH  70  71
ATOM     71  S   UNL     1      14.770   0.861 -18.616  1.00  0.00     0.124 S 
ATOM     72  O   UNL     1      13.490   0.160 -18.619  1.00  0.00    -0.237 OA
ATOM     73  O   UNL     1      15.136   1.516 -19.867  1.00  0.00    -0.237 OA
ATOM     74  O   UNL     1      15.860   0.173 -17.930  1.00  0.00    -0.744 OA
ENDBRANCH  70  71
ENDBRANCH  49  63
BRANCH  50  75
ATOM     75  C   UNL     1      11.527  12.296 -10.127  1.00  0.00     0.058 A 
ATOM     76  C   UNL     1      11.492  13.605 -10.630  1.00  0.00     0.135 A 
ATOM     77  C   UNL     1      11.273  12.114  -8.760  1.00  0.00     0.135 A 
ATOM     78  F   UNL     1      11.733  13.830 -11.931  1.00  0.00    -0.206 F 
ATOM     79  C   UNL     1      11.249  14.697  -9.804  1.00  0.00     0.059 A 
ATOM     80  C   UNL     1      11.004  13.188  -7.917  1.00  0.00     0.059 A 
ATOM     81  F   UNL     1      11.274  10.879  -8.234  1.00  0.00    -0.206 F 
ATOM     82  C   UNL     1      11.012  14.478  -8.446  1.00  0.00     0.060 A 
BRANCH  82  83
ATOM     83  S   UNL     1      10.679  15.897  -7.379  1.00  0.00     0.124 S 
ATOM     84  O   UNL     1      12.023  16.417  -7.158  1.00  0.00    -0.237 OA
ATOM     85  O   UNL     1       9.806  16.717  -8.213  1.00  0.00    -0.237 OA
ATOM     86  O   UNL     1      10.034  15.293  -6.216  1.00  0.00    -0.744 OA
ENDBRANCH  82  83
ENDBRANCH  50  75
BRANCH  62  87
ATOM     87  C   UNL     1      17.341  10.211 -13.339  1.00  0.00     0.058 A 
ATOM     88  C   UNL     1      18.244  10.153 -12.267  1.00  0.00     0.135 A 
ATOM     89  C   UNL     1      17.773  10.808 -14.534  1.00  0.00     0.135 A 
ATOM     90  F   UNL     1      17.874   9.597 -11.102  1.00  0.00    -0.206 F 
ATOM     91  C   UNL     1      19.524  10.684 -12.369  1.00  0.00     0.059 A 
ATOM     92  C   UNL     1      19.056  11.328 -14.665  1.00  0.00     0.059 A 
ATOM     93  F   UNL     1      16.948  10.880 -15.591  1.00  0.00    -0.206 F 
ATOM     94  C   UNL     1      19.922  11.271 -13.573  1.00  0.00     0.060 A 
BRANCH  94  95
ATOM     95  S   UNL     1      21.598  11.928 -13.707  1.00  0.00     0.124 S 
ATOM     96  O   UNL     1      21.475  13.193 -12.991  1.00  0.00    -0.237 OA
ATOM     97  O   UNL     1      22.394  10.899 -13.045  1.00  0.00    -0.237 OA
ATOM     98  O   UNL     1      21.803  12.039 -15.149  1.00  0.00    -0.744 OA
ENDBRANCH  94  95
ENDBRANCH  62  87
ENDBRANCH  36  37
ENDBRANCH  28  31
ENDBRANCH  26  27
ENDBRANCH  25  26
ENDBRANCH   1  25
TORSDOF 19
