REMARK SMILES C[C@@H]1CN(C(=O)Nc2ccc(O)c(C(=O)NCCCNC(=O)c3ccc(-c4c5nc(c(-c6c(F)cc(S(=O)(=O)[O-])cc6F)c6ccc([nH]6)c(-c6c(F)cc(S(=O)(=O)[O-])cc6F)c6nc(c(-c7c(F)cc(S(=O)(=O)[O-])cc7F)c7ccc4[nH]7)C=C6)C=C5)cc3)c2)C[C@@H]1C
REMARK SMILES IDX 18 1 17 2 16 3 14 4 15 5 13 7 8 8 9 9 89 10 10 11 11 12 7 13
REMARK SMILES IDX 5 14 6 15 4 17 1 18 2 19 3 20 91 21 90 22 92 23 12 24 19 26
REMARK SMILES IDX 20 27 21 28 22 30 23 31 24 32 88 33 25 34 87 35 26 36 27 37
REMARK SMILES IDX 28 38 81 39 29 40 86 41 80 42 82 43 30 44 85 45 79 46 78 47
REMARK SMILES IDX 31 49 65 50 44 51 64 52 45 53 48 54 63 55 83 56 46 57 47 58
REMARK SMILES IDX 62 60 84 61 49 62 32 63 33 64 42 65 34 66 35 67 41 68 43 69
REMARK SMILES IDX 36 70 37 71 38 72 39 73 40 74 66 75 67 76 76 77 68 78 69 79
REMARK SMILES IDX 75 80 77 81 70 82 71 83 72 84 73 85 74 86 50 87 51 88 60 89
REMARK SMILES IDX 52 90 53 91 59 92 61 93 54 94 55 95 56 96 57 97 58 98
REMARK H PARENT 16 6 7 16 12 25 20 29 82 48 48 59
REMARK Flexibility Score: inf
ROOT
ATOM      1  C   UNL     1      -3.099   4.526   3.796  1.00  0.00     0.042 C 
ENDROOT
BRANCH   1   2
ATOM      2  C   UNL     1      -1.881   3.638   4.044  1.00  0.00     0.118 C 
BRANCH   2   3
ATOM      3  N   UNL     1      -2.148   2.641   5.061  1.00  0.00    -0.352 N 
ATOM      4  C   UNL     1      -2.502   1.320   4.993  1.00  0.00     0.255 C 
ATOM      5  O   UNL     1      -2.602   0.727   6.072  1.00  0.00    -0.269 OA
ATOM      6  H   UNL     1      -2.057   2.980   5.981  1.00  0.00     0.163 HD
BRANCH   4   7
ATOM      7  C   UNL     1      -2.692   0.524   3.743  1.00  0.00     0.083 A 
ATOM      8  C   UNL     1      -2.398  -1.700   2.774  1.00  0.00     0.043 A 
ATOM      9  C   UNL     1      -3.073  -1.303   1.627  1.00  0.00     0.030 A 
ATOM     10  C   UNL     1      -2.289  -0.823   3.853  1.00  0.00     0.044 A 
ATOM     11  C   UNL     1      -3.484   0.018   1.495  1.00  0.00     0.049 A 
ATOM     12  C   UNL     1      -3.263   0.934   2.531  1.00  0.00     0.128 A 
BRANCH   8  13
ATOM     13  N   UNL     1      -1.813  -2.962   2.881  1.00  0.00    -0.308 N 
ATOM     14  C   UNL     1      -1.108  -3.702   1.978  1.00  0.00     0.321 C 
ATOM     15  O   UNL     1      -1.006  -4.913   2.194  1.00  0.00    -0.248 OA
ATOM     16  H   UNL     1      -1.929  -3.393   3.758  1.00  0.00     0.171 HD
BRANCH  14  17
ATOM     17  N   UNL     1      -0.401  -3.091   0.969  1.00  0.00    -0.324 N 
ATOM     18  C   UNL     1       1.624  -0.259  -0.320  1.00  0.00     0.010 C 
ATOM     19  C   UNL     1       0.877  -1.581  -0.361  1.00  0.00     0.010 C 
ATOM     20  C   UNL     1      -0.214  -1.666   0.703  1.00  0.00     0.125 C 
ATOM     21  C   UNL     1       1.688  -2.861  -0.127  1.00  0.00     0.010 C 
ATOM     22  C   UNL     1       0.571  -3.864   0.203  1.00  0.00     0.125 C 
ATOM     23  C   UNL     1       2.702  -2.767   1.015  1.00  0.00     0.010 C 
ENDBRANCH  14  17
ENDBRANCH   8  13
BRANCH  12  24
ATOM     24  O   UNL     1      -3.656   2.213   2.299  1.00  0.00    -0.507 OA
ATOM     25  H   UNL     1      -4.034   2.445   1.473  1.00  0.00     0.293 HD
ENDBRANCH  12  24
ENDBRANCH   4   7
ENDBRANCH   2   3
ENDBRANCH   1   2
BRANCH   1  26
ATOM     26  C   UNL     1      -3.354   5.568   4.875  1.00  0.00     0.118 C 
BRANCH  26  27
ATOM     27  N   UNL     1      -2.410   6.670   4.812  1.00  0.00    -0.352 N 
ATOM     28  C   UNL     1      -2.625   8.004   4.562  1.00  0.00     0.251 C 
ATOM     29  H   UNL     1      -1.470   6.423   4.974  1.00  0.00     0.163 HD
ATOM     30  O   UNL     1      -1.659   8.729   4.334  1.00  0.00    -0.269 OA
BRANCH  28  31
ATOM     31  C   UNL     1      -3.995   8.573   4.550  1.00  0.00     0.039 A 
ATOM     32  C   UNL     1      -4.299   9.570   3.616  1.00  0.00     0.014 A 
ATOM     33  C   UNL     1      -4.964   8.178   5.476  1.00  0.00     0.014 A 
ATOM     34  C   UNL     1      -5.579  10.130   3.580  1.00  0.00     0.010 A 
ATOM     35  C   UNL     1      -6.262   8.678   5.388  1.00  0.00     0.010 A 
ATOM     36  C   UNL     1      -6.581   9.670   4.449  1.00  0.00    -0.014 A 
BRANCH  36  37
ATOM     37  C   UNL     1      -7.959  10.224   4.403  1.00  0.00     0.031 A 
ATOM     38  C   UNL     1      -8.515  10.971   5.585  1.00  0.00     0.074 A 
ATOM     39  C   UNL     1      -8.734   9.996   3.325  1.00  0.00     0.049 A 
ATOM     40  N   UNL     1      -9.714  11.466   5.763  1.00  0.00    -0.248 NA
ATOM     41  C   UNL     1      -7.612  11.163   6.731  1.00  0.00     0.031 C 
ATOM     42  C   UNL     1      -8.328   9.240   2.138  1.00  0.00     0.029 A 
ATOM     43  N   UNL     1     -10.028  10.364   3.057  1.00  0.00    -0.354 N 
ATOM     44  C   UNL     1      -9.714  12.009   7.042  1.00  0.00     0.074 A 
ATOM     45  C   UNL     1      -8.414  11.738   7.615  1.00  0.00     0.031 C 
ATOM     46  C   UNL     1      -9.347   9.212   1.265  1.00  0.00     0.029 A 
ATOM     47  C   UNL     1     -10.489   9.917   1.841  1.00  0.00     0.049 A 
ATOM     48  H   UNL     1     -10.576  10.899   3.676  1.00  0.00     0.167 HD
ATOM     49  C   UNL     1     -10.700  12.692   7.675  1.00  0.00     0.037 A 
ATOM     50  C   UNL     1     -11.696  10.051   1.258  1.00  0.00     0.037 A 
ATOM     51  C   UNL     1     -11.985  12.976   7.091  1.00  0.00     0.049 A 
ATOM     52  C   UNL     1     -12.771  10.825   1.967  1.00  0.00     0.074 A 
ATOM     53  C   UNL     1     -13.031  13.708   7.623  1.00  0.00     0.029 A 
ATOM     54  N   UNL     1     -12.401  12.535   5.842  1.00  0.00    -0.354 N 
ATOM     55  N   UNL     1     -12.734  11.389   3.151  1.00  0.00    -0.248 NA
ATOM     56  C   UNL     1     -14.048  10.992   1.260  1.00  0.00     0.031 C 
ATOM     57  C   UNL     1     -14.094  13.679   6.712  1.00  0.00     0.029 A 
ATOM     58  C   UNL     1     -13.694  12.965   5.593  1.00  0.00     0.049 A 
ATOM     59  H   UNL     1     -11.857  11.996   5.223  1.00  0.00     0.167 HD
ATOM     60  C   UNL     1     -13.974  11.993   3.325  1.00  0.00     0.074 A 
ATOM     61  C   UNL     1     -14.734  11.736   2.118  1.00  0.00     0.031 C 
ATOM     62  C   UNL     1     -14.439  12.698   4.386  1.00  0.00     0.037 A 
BRANCH  49  63
ATOM     63  C   UNL     1     -10.418  13.171   9.074  1.00  0.00     0.058 A 
ATOM     64  C   UNL     1      -9.491  14.195   9.330  1.00  0.00     0.135 A 
ATOM     65  C   UNL     1     -11.076  12.598  10.174  1.00  0.00     0.135 A 
ATOM     66  F   UNL     1      -8.823  14.771   8.317  1.00  0.00    -0.206 F 
ATOM     67  C   UNL     1      -9.188  14.598  10.626  1.00  0.00     0.059 A 
ATOM     68  C   UNL     1     -10.811  13.006  11.479  1.00  0.00     0.059 A 
ATOM     69  F   UNL     1     -11.976  11.620   9.989  1.00  0.00    -0.206 F 
ATOM     70  C   UNL     1      -9.847  13.990  11.696  1.00  0.00     0.060 A 
BRANCH  70  71
ATOM     71  S   UNL     1      -9.419  14.497  13.375  1.00  0.00     0.124 S 
ATOM     72  O   UNL     1      -8.131  13.835  13.558  1.00  0.00    -0.237 OA
ATOM     73  O   UNL     1      -9.374  15.951  13.263  1.00  0.00    -0.237 OA
ATOM     74  O   UNL     1     -10.517  13.968  14.179  1.00  0.00    -0.744 OA
ENDBRANCH  70  71
ENDBRANCH  49  63
BRANCH  50  75
ATOM     75  C   UNL     1     -11.927   9.456  -0.084  1.00  0.00     0.058 A 
ATOM     76  C   UNL     1     -11.996  10.264  -1.228  1.00  0.00     0.135 A 
ATOM     77  C   UNL     1     -12.020   8.066  -0.257  1.00  0.00     0.135 A 
ATOM     78  F   UNL     1     -11.919  11.599  -1.112  1.00  0.00    -0.206 F 
ATOM     79  C   UNL     1     -12.145   9.717  -2.498  1.00  0.00     0.059 A 
ATOM     80  C   UNL     1     -12.148   7.494  -1.519  1.00  0.00     0.059 A 
ATOM     81  F   UNL     1     -11.942   7.250   0.805  1.00  0.00    -0.206 F 
ATOM     82  C   UNL     1     -12.210   8.329  -2.634  1.00  0.00     0.060 A 
BRANCH  82  83
ATOM     83  S   UNL     1     -12.307   7.624  -4.295  1.00  0.00     0.124 S 
ATOM     84  O   UNL     1     -13.688   7.916  -4.659  1.00  0.00    -0.237 OA
ATOM     85  O   UNL     1     -11.283   8.381  -5.009  1.00  0.00    -0.237 OA
ATOM     86  O   UNL     1     -11.993   6.214  -4.079  1.00  0.00    -0.744 OA
ENDBRANCH  82  83
ENDBRANCH  50  75
BRANCH  62  87
ATOM     87  C   UNL     1     -15.829  13.261   4.285  1.00  0.00     0.058 A 
ATOM     88  C   UNL     1     -16.964  12.443   4.389  1.00  0.00     0.135 A 
ATOM     89  C   UNL     1     -16.026  14.643   4.133  1.00  0.00     0.135 A 
ATOM     90  F   UNL     1     -16.830  11.115   4.527  1.00  0.00    -0.206 F 
ATOM     91  C   UNL     1     -18.249  12.974   4.327  1.00  0.00     0.059 A 
ATOM     92  C   UNL     1     -17.302  15.198   4.094  1.00  0.00     0.059 A 
ATOM     93  F   UNL     1     -14.973  15.470   4.038  1.00  0.00    -0.206 F 
ATOM     94  C   UNL     1     -18.407  14.353   4.181  1.00  0.00     0.060 A 
BRANCH  94  95
ATOM     95  S   UNL     1     -20.079  15.034   4.138  1.00  0.00     0.124 S 
ATOM     96  O   UNL     1     -20.512  14.663   2.795  1.00  0.00    -0.237 OA
ATOM     97  O   UNL     1     -20.735  14.326   5.233  1.00  0.00    -0.237 OA
ATOM     98  O   UNL     1     -19.870  16.462   4.359  1.00  0.00    -0.744 OA
ENDBRANCH  94  95
ENDBRANCH  62  87
ENDBRANCH  36  37
ENDBRANCH  28  31
ENDBRANCH  26  27
ENDBRANCH   1  26
TORSDOF 16
