REMARK SMILES C[C@H]([C@@H](C)C(=O)NCCCNC(=O)c1ccc(-c2c3nc(c(-c4c(F)cc(S(=O)(=O)[O-])cc4F)c4ccc([nH]4)c(-c4c(F)cc(S(=O)(=O)[O-])cc4F)c4nc(c(-c5c(F)cc(S(=O)(=O)[O-])cc5F)c5ccc2[nH]5)C=C4)C=C3)cc1)[S@@](=O)c1ccc2ccccc2c1
REMARK SMILES IDX 9 1 8 2 7 3 5 4 6 5 3 7 4 8 2 9 1 10 80 11 81 12 82 13 83 14
REMARK SMILES IDX 91 15 84 16 90 17 85 18 89 19 86 20 88 21 87 22 10 23 11 24
REMARK SMILES IDX 12 25 13 27 14 28 15 29 79 30 16 31 78 32 17 33 18 34 19 35
REMARK SMILES IDX 72 36 20 37 77 38 71 39 73 40 21 41 76 42 70 43 69 44 22 46
REMARK SMILES IDX 56 47 35 48 55 49 36 50 39 51 54 52 74 53 37 54 38 55 53 57
REMARK SMILES IDX 75 58 40 59 23 60 24 61 33 62 25 63 26 64 32 65 34 66 27 67
REMARK SMILES IDX 28 68 29 69 30 70 31 71 57 72 58 73 67 74 59 75 60 76 66 77
REMARK SMILES IDX 68 78 61 79 62 80 63 81 64 82 65 83 41 84 42 85 51 86 43 87
REMARK SMILES IDX 44 88 50 89 52 90 45 91 46 92 47 93 48 94 49 95
REMARK H PARENT 7 6 11 26 73 45 39 56
REMARK Flexibility Score: inf
ROOT
ATOM      1  C   UNL     1       3.840  -0.222   2.796  1.00  0.00     0.042 C 
ENDROOT
BRANCH   1   2
ATOM      2  C   UNL     1       3.588   0.494   1.479  1.00  0.00     0.117 C 
BRANCH   2   3
ATOM      3  N   UNL     1       3.318  -0.468   0.427  1.00  0.00    -0.356 N 
ATOM      4  C   UNL     1       2.159  -0.866  -0.156  1.00  0.00     0.224 C 
ATOM      5  O   UNL     1       2.210  -1.841  -0.910  1.00  0.00    -0.275 OA
ATOM      6  H   UNL     1       4.122  -0.911   0.071  1.00  0.00     0.163 HD
BRANCH   4   7
ATOM      7  C   UNL     1       0.853  -0.097   0.008  1.00  0.00     0.091 C 
ATOM      8  C   UNL     1       1.094   1.333  -0.492  1.00  0.00     0.019 C 
BRANCH   7   9
ATOM      9  C   UNL     1       0.060  -0.450   1.310  1.00  0.00     0.093 C 
ATOM     10  C   UNL     1       0.501   0.016   2.698  1.00  0.00     0.023 C 
BRANCH   9  11
ATOM     11  S   UNL     1      -1.775  -0.238   1.115  1.00  0.00     0.057 S 
ATOM     12  O   UNL     1      -2.456  -0.899   2.277  1.00  0.00    -0.254 OA
BRANCH  11  13
ATOM     13  C   UNL     1      -2.082   1.529   1.328  1.00  0.00     0.040 A 
ATOM     14  C   UNL     1      -1.066   2.468   1.263  1.00  0.00     0.018 A 
ATOM     15  C   UNL     1      -3.391   2.008   1.435  1.00  0.00     0.026 A 
ATOM     16  C   UNL     1      -1.310   3.794   0.948  1.00  0.00     0.010 A 
ATOM     17  C   UNL     1      -3.654   3.394   1.338  1.00  0.00    -0.017 A 
ATOM     18  C   UNL     1      -2.609   4.263   0.954  1.00  0.00    -0.018 A 
ATOM     19  C   UNL     1      -4.900   3.966   1.629  1.00  0.00     0.009 A 
ATOM     20  C   UNL     1      -2.850   5.607   0.673  1.00  0.00     0.009 A 
ATOM     21  C   UNL     1      -5.094   5.346   1.496  1.00  0.00     0.001 A 
ATOM     22  C   UNL     1      -4.090   6.155   0.966  1.00  0.00     0.001 A 
ENDBRANCH  11  13
ENDBRANCH   9  11
ENDBRANCH   7   9
ENDBRANCH   4   7
ENDBRANCH   2   3
ENDBRANCH   1   2
BRANCH   1  23
ATOM     23  C   UNL     1       5.231  -0.817   2.881  1.00  0.00     0.118 C 
BRANCH  23  24
ATOM     24  N   UNL     1       6.252   0.208   3.041  1.00  0.00    -0.352 N 
ATOM     25  C   UNL     1       7.146   0.377   4.068  1.00  0.00     0.251 C 
ATOM     26  H   UNL     1       6.309   0.869   2.314  1.00  0.00     0.163 HD
ATOM     27  O   UNL     1       7.790   1.423   4.149  1.00  0.00    -0.269 OA
BRANCH  25  28
ATOM     28  C   UNL     1       7.311  -0.688   5.079  1.00  0.00     0.039 A 
ATOM     29  C   UNL     1       7.430  -0.342   6.427  1.00  0.00     0.014 A 
ATOM     30  C   UNL     1       7.336  -2.031   4.693  1.00  0.00     0.014 A 
ATOM     31  C   UNL     1       7.517  -1.349   7.392  1.00  0.00     0.010 A 
ATOM     32  C   UNL     1       7.312  -3.027   5.658  1.00  0.00     0.010 A 
ATOM     33  C   UNL     1       7.428  -2.698   7.016  1.00  0.00    -0.014 A 
BRANCH  33  34
ATOM     34  C   UNL     1       7.507  -3.801   8.006  1.00  0.00     0.031 A 
ATOM     35  C   UNL     1       8.619  -4.809   7.895  1.00  0.00     0.074 A 
ATOM     36  C   UNL     1       6.540  -3.952   8.931  1.00  0.00     0.049 A 
ATOM     37  N   UNL     1       8.792  -5.928   8.547  1.00  0.00    -0.248 NA
ATOM     38  C   UNL     1       9.655  -4.539   6.883  1.00  0.00     0.031 C 
ATOM     39  C   UNL     1       5.392  -3.061   9.111  1.00  0.00     0.029 A 
ATOM     40  N   UNL     1       6.356  -4.926   9.880  1.00  0.00    -0.354 N 
ATOM     41  C   UNL     1       9.934  -6.507   8.006  1.00  0.00     0.074 A 
ATOM     42  C   UNL     1      10.375  -5.648   6.930  1.00  0.00     0.031 C 
ATOM     43  C   UNL     1       4.631  -3.523  10.116  1.00  0.00     0.029 A 
ATOM     44  C   UNL     1       5.208  -4.767  10.618  1.00  0.00     0.049 A 
ATOM     45  H   UNL     1       6.988  -5.668  10.019  1.00  0.00     0.167 HD
ATOM     46  C   UNL     1      10.572  -7.639   8.387  1.00  0.00     0.037 A 
ATOM     47  C   UNL     1       4.670  -5.547  11.577  1.00  0.00     0.037 A 
ATOM     48  C   UNL     1      10.134  -8.472   9.475  1.00  0.00     0.049 A 
ATOM     49  C   UNL     1       5.388  -6.805  11.984  1.00  0.00     0.074 A 
ATOM     50  C   UNL     1      10.732  -9.612   9.981  1.00  0.00     0.029 A 
ATOM     51  N   UNL     1       8.984  -8.257  10.224  1.00  0.00    -0.354 N 
ATOM     52  N   UNL     1       6.495  -7.315  11.498  1.00  0.00    -0.248 NA
ATOM     53  C   UNL     1       4.790  -7.591  13.071  1.00  0.00     0.031 C 
ATOM     54  C   UNL     1       9.916 -10.116  10.999  1.00  0.00     0.029 A 
ATOM     55  C   UNL     1       8.845  -9.253  11.175  1.00  0.00     0.049 A 
ATOM     56  H   UNL     1       8.361  -7.505  10.097  1.00  0.00     0.167 HD
ATOM     57  C   UNL     1       6.748  -8.460  12.245  1.00  0.00     0.074 A 
ATOM     58  C   UNL     1       5.676  -8.569  13.214  1.00  0.00     0.031 C 
ATOM     59  C   UNL     1       7.779  -9.336  12.144  1.00  0.00     0.037 A 
BRANCH  46  60
ATOM     60  C   UNL     1      11.799  -8.040   7.611  1.00  0.00     0.058 A 
ATOM     61  C   UNL     1      12.978  -7.276   7.640  1.00  0.00     0.135 A 
ATOM     62  C   UNL     1      11.795  -9.201   6.822  1.00  0.00     0.135 A 
ATOM     63  F   UNL     1      13.036  -6.147   8.366  1.00  0.00    -0.206 F 
ATOM     64  C   UNL     1      14.088  -7.619   6.876  1.00  0.00     0.059 A 
ATOM     65  C   UNL     1      12.908  -9.585   6.078  1.00  0.00     0.059 A 
ATOM     66  F   UNL     1      10.699  -9.973   6.756  1.00  0.00    -0.206 F 
ATOM     67  C   UNL     1      14.041  -8.774   6.093  1.00  0.00     0.060 A 
BRANCH  67  68
ATOM     68  S   UNL     1      15.480  -9.190   5.087  1.00  0.00     0.124 S 
ATOM     69  O   UNL     1      15.404  -8.176   4.039  1.00  0.00    -0.237 OA
ATOM     70  O   UNL     1      16.579  -9.038   6.035  1.00  0.00    -0.237 OA
ATOM     71  O   UNL     1      15.211 -10.558   4.657  1.00  0.00    -0.744 OA
ENDBRANCH  67  68
ENDBRANCH  46  60
BRANCH  47  72
ATOM     72  C   UNL     1       3.397  -5.136  12.228  1.00  0.00     0.058 A 
ATOM     73  C   UNL     1       3.380  -4.677  13.553  1.00  0.00     0.135 A 
ATOM     74  C   UNL     1       2.181  -5.148  11.526  1.00  0.00     0.135 A 
ATOM     75  F   UNL     1       4.515  -4.654  14.269  1.00  0.00    -0.206 F 
ATOM     76  C   UNL     1       2.206  -4.247  14.161  1.00  0.00     0.059 A 
ATOM     77  C   UNL     1       0.998  -4.697  12.103  1.00  0.00     0.059 A 
ATOM     78  F   UNL     1       2.146  -5.562  10.250  1.00  0.00    -0.206 F 
ATOM     79  C   UNL     1       1.020  -4.252  13.424  1.00  0.00     0.060 A 
BRANCH  79  80
ATOM     80  S   UNL     1      -0.482  -3.617  14.202  1.00  0.00     0.124 S 
ATOM     81  O   UNL     1      -0.770  -4.658  15.181  1.00  0.00    -0.237 OA
ATOM     82  O   UNL     1      -0.027  -2.339  14.743  1.00  0.00    -0.237 OA
ATOM     83  O   UNL     1      -1.421  -3.518  13.089  1.00  0.00    -0.744 OA
ENDBRANCH  79  80
ENDBRANCH  47  72
BRANCH  59  84
ATOM     84  C   UNL     1       7.842 -10.463  13.139  1.00  0.00     0.058 A 
ATOM     85  C   UNL     1       6.966 -11.557  13.083  1.00  0.00     0.135 A 
ATOM     86  C   UNL     1       8.857 -10.484  14.110  1.00  0.00     0.135 A 
ATOM     87  F   UNL     1       5.974 -11.584  12.179  1.00  0.00    -0.206 F 
ATOM     88  C   UNL     1       7.087 -12.628  13.963  1.00  0.00     0.059 A 
ATOM     89  C   UNL     1       9.015 -11.558  14.980  1.00  0.00     0.059 A 
ATOM     90  F   UNL     1       9.728  -9.466  14.200  1.00  0.00    -0.206 F 
ATOM     91  C   UNL     1       8.120 -12.623  14.903  1.00  0.00     0.060 A 
BRANCH  91  92
ATOM     92  S   UNL     1       8.302 -14.047  15.998  1.00  0.00     0.124 S 
ATOM     93  O   UNL     1       7.161 -13.879  16.891  1.00  0.00    -0.237 OA
ATOM     94  O   UNL     1       8.220 -15.168  15.066  1.00  0.00    -0.237 OA
ATOM     95  O   UNL     1       9.612 -13.842  16.608  1.00  0.00    -0.744 OA
ENDBRANCH  91  92
ENDBRANCH  59  84
ENDBRANCH  33  34
ENDBRANCH  25  28
ENDBRANCH  23  24
ENDBRANCH   1  23
TORSDOF 16
