REMARK SMILES C[C@@H]1[C@@H](C(=O)NCCCNC(=O)c2ccc(-c3c4nc(c(-c5c(F)cc(S(=O)(=O)[O-])cc5F)c5ccc([nH]5)c(-c5c(F)cc(S(=O)(=O)[O-])cc5F)c5nc(c(-c6c(F)cc(S(=O)(=O)[O-])cc6F)c6ccc3[nH]6)C=C5)C=C4)cc2)CCN1C(=O)N(C)Cc1ccsc1
REMARK SMILES IDX 7 1 6 2 4 3 5 4 3 6 1 7 2 8 81 9 79 10 80 11 82 12 83 13
REMARK SMILES IDX 84 14 85 15 86 16 87 17 88 18 91 19 89 20 90 21 8 22 9 23
REMARK SMILES IDX 10 24 11 25 12 27 13 28 14 29 78 30 15 31 77 32 16 33 17 34
REMARK SMILES IDX 18 35 71 36 19 37 76 38 70 39 72 40 20 41 75 42 69 43 68 44
REMARK SMILES IDX 21 46 55 47 34 48 54 49 35 50 38 51 53 52 73 53 36 54 37 55
REMARK SMILES IDX 52 57 74 58 39 59 22 60 23 61 32 62 24 63 25 64 31 65 33 66
REMARK SMILES IDX 26 67 27 68 28 69 29 70 30 71 56 72 57 73 66 74 58 75 59 76
REMARK SMILES IDX 65 77 67 78 60 79 61 80 62 81 63 82 64 83 40 84 41 85 50 86
REMARK SMILES IDX 42 87 43 88 49 89 51 90 44 91 45 92 46 93 47 94 48 95
REMARK H PARENT 6 5 10 26 72 45 38 56
REMARK Flexibility Score: inf
ROOT
ATOM      1  C   UNL     1      -2.670   2.787  -0.757  1.00  0.00     0.117 C 
ENDROOT
BRANCH   1   2
ATOM      2  N   UNL     1      -1.884   2.109  -1.770  1.00  0.00    -0.356 N 
ATOM      3  C   UNL     1      -0.800   1.299  -1.642  1.00  0.00     0.225 C 
ATOM      4  O   UNL     1      -0.288   0.886  -2.683  1.00  0.00    -0.275 OA
ATOM      5  H   UNL     1      -2.183   2.259  -2.696  1.00  0.00     0.163 HD
BRANCH   3   6
ATOM      6  C   UNL     1      -0.225   1.003  -0.260  1.00  0.00     0.102 C 
ATOM      7  C   UNL     1       1.878   0.057   0.786  1.00  0.00     0.032 C 
ATOM      8  C   UNL     1       0.862  -0.098  -0.354  1.00  0.00     0.096 C 
ATOM      9  N   UNL     1       0.104  -1.355  -0.245  1.00  0.00    -0.321 N 
ATOM     10  C   UNL     1      -1.226   0.365   0.703  1.00  0.00     0.037 C 
ATOM     11  C   UNL     1      -1.230  -1.083   0.270  1.00  0.00     0.122 C 
BRANCH   9  12
ATOM     12  C   UNL     1       0.321  -2.641  -0.657  1.00  0.00     0.320 C 
ATOM     13  O   UNL     1      -0.633  -3.432  -0.605  1.00  0.00    -0.248 OA
BRANCH  12  14
ATOM     14  N   UNL     1       1.551  -3.111  -1.051  1.00  0.00    -0.323 N 
ATOM     15  C   UNL     1       2.789  -2.418  -1.362  1.00  0.00     0.149 C 
BRANCH  14  16
ATOM     16  C   UNL     1       1.633  -4.564  -1.210  1.00  0.00     0.157 C 
BRANCH  16  17
ATOM     17  C   UNL     1       1.713  -5.283   0.120  1.00  0.00    -0.018 A 
ATOM     18  C   UNL     1       1.713  -6.717   0.231  1.00  0.00     0.017 A 
ATOM     19  C   UNL     1       1.746  -4.710   1.381  1.00  0.00     0.070 A 
ATOM     20  C   UNL     1       1.728  -7.155   1.536  1.00  0.00     0.065 A 
ATOM     21  S   UNL     1       1.762  -5.859   2.646  1.00  0.00    -0.152 S 
ENDBRANCH  16  17
ENDBRANCH  14  16
ENDBRANCH  12  14
ENDBRANCH   9  12
ENDBRANCH   3   6
ENDBRANCH   1   2
BRANCH   1  22
ATOM     22  C   UNL     1      -3.007   4.218  -1.132  1.00  0.00     0.042 C 
BRANCH  22  23
ATOM     23  C   UNL     1      -3.732   4.370  -2.460  1.00  0.00     0.118 C 
BRANCH  23  24
ATOM     24  N   UNL     1      -5.046   3.742  -2.480  1.00  0.00    -0.352 N 
ATOM     25  C   UNL     1      -6.301   4.308  -2.532  1.00  0.00     0.251 C 
ATOM     26  H   UNL     1      -5.036   2.758  -2.451  1.00  0.00     0.163 HD
ATOM     27  O   UNL     1      -7.291   3.602  -2.390  1.00  0.00    -0.269 OA
BRANCH  25  28
ATOM     28  C   UNL     1      -6.447   5.770  -2.717  1.00  0.00     0.039 A 
ATOM     29  C   UNL     1      -7.374   6.463  -1.935  1.00  0.00     0.014 A 
ATOM     30  C   UNL     1      -5.661   6.460  -3.639  1.00  0.00     0.014 A 
ATOM     31  C   UNL     1      -7.440   7.857  -2.012  1.00  0.00     0.010 A 
ATOM     32  C   UNL     1      -5.645   7.850  -3.631  1.00  0.00     0.010 A 
ATOM     33  C   UNL     1      -6.537   8.567  -2.821  1.00  0.00    -0.014 A 
BRANCH  33  34
ATOM     34  C   UNL     1      -6.511  10.053  -2.848  1.00  0.00     0.031 A 
ATOM     35  C   UNL     1      -6.748  10.786  -4.143  1.00  0.00     0.074 A 
ATOM     36  C   UNL     1      -6.196  10.740  -1.731  1.00  0.00     0.049 A 
ATOM     37  N   UNL     1      -6.662  12.066  -4.396  1.00  0.00    -0.248 NA
ATOM     38  C   UNL     1      -7.089   9.966  -5.318  1.00  0.00     0.031 C 
ATOM     39  C   UNL     1      -5.888  10.146  -0.427  1.00  0.00     0.029 A 
ATOM     40  N   UNL     1      -6.071  12.089  -1.514  1.00  0.00    -0.354 N 
ATOM     41  C   UNL     1      -6.915  12.201  -5.756  1.00  0.00     0.074 A 
ATOM     42  C   UNL     1      -7.096  10.869  -6.287  1.00  0.00     0.031 C 
ATOM     43  C   UNL     1      -5.641  11.126   0.457  1.00  0.00     0.029 A 
ATOM     44  C   UNL     1      -5.729  12.414  -0.222  1.00  0.00     0.049 A 
ATOM     45  H   UNL     1      -6.212  12.763  -2.219  1.00  0.00     0.167 HD
ATOM     46  C   UNL     1      -7.018  13.334  -6.492  1.00  0.00     0.037 A 
ATOM     47  C   UNL     1      -5.507  13.613   0.350  1.00  0.00     0.037 A 
ATOM     48  C   UNL     1      -6.879  14.659  -5.950  1.00  0.00     0.049 A 
ATOM     49  C   UNL     1      -5.642  14.859  -0.483  1.00  0.00     0.074 A 
ATOM     50  C   UNL     1      -7.027  15.873  -6.598  1.00  0.00     0.029 A 
ATOM     51  N   UNL     1      -6.567  14.946  -4.629  1.00  0.00    -0.354 N 
ATOM     52  N   UNL     1      -5.938  14.969  -1.756  1.00  0.00    -0.248 NA
ATOM     53  C   UNL     1      -5.420  16.142   0.197  1.00  0.00     0.031 C 
ATOM     54  C   UNL     1      -6.768  16.894  -5.677  1.00  0.00     0.029 A 
ATOM     55  C   UNL     1      -6.504  16.317  -4.445  1.00  0.00     0.049 A 
ATOM     56  H   UNL     1      -6.413  14.274  -3.927  1.00  0.00     0.167 HD
ATOM     57  C   UNL     1      -5.965  16.334  -2.023  1.00  0.00     0.074 A 
ATOM     58  C   UNL     1      -5.665  17.008  -0.776  1.00  0.00     0.031 C 
ATOM     59  C   UNL     1      -6.215  16.971  -3.193  1.00  0.00     0.037 A 
BRANCH  46  60
ATOM     60  C   UNL     1      -7.309  13.186  -7.960  1.00  0.00     0.058 A 
ATOM     61  C   UNL     1      -8.559  12.741  -8.422  1.00  0.00     0.135 A 
ATOM     62  C   UNL     1      -6.338  13.516  -8.920  1.00  0.00     0.135 A 
ATOM     63  F   UNL     1      -9.518  12.394  -7.548  1.00  0.00    -0.206 F 
ATOM     64  C   UNL     1      -8.825  12.597  -9.779  1.00  0.00     0.059 A 
ATOM     65  C   UNL     1      -6.593  13.409 -10.284  1.00  0.00     0.059 A 
ATOM     66  F   UNL     1      -5.126  13.946  -8.535  1.00  0.00    -0.206 F 
ATOM     67  C   UNL     1      -7.834  12.933 -10.703  1.00  0.00     0.060 A 
BRANCH  67  68
ATOM     68  S   UNL     1      -8.197  12.744 -12.461  1.00  0.00     0.124 S 
ATOM     69  O   UNL     1      -8.148  11.293 -12.613  1.00  0.00    -0.237 OA
ATOM     70  O   UNL     1      -9.521  13.348 -12.574  1.00  0.00    -0.237 OA
ATOM     71  O   UNL     1      -7.118  13.480 -13.112  1.00  0.00    -0.744 OA
ENDBRANCH  67  68
ENDBRANCH  46  60
BRANCH  47  72
ATOM     72  C   UNL     1      -5.163  13.696   1.795  1.00  0.00     0.058 A 
ATOM     73  C   UNL     1      -6.083  14.204   2.725  1.00  0.00     0.135 A 
ATOM     74  C   UNL     1      -3.919  13.261   2.278  1.00  0.00     0.135 A 
ATOM     75  F   UNL     1      -7.283  14.638   2.312  1.00  0.00    -0.206 F 
ATOM     76  C   UNL     1      -5.778  14.292   4.080  1.00  0.00     0.059 A 
ATOM     77  C   UNL     1      -3.600  13.316   3.631  1.00  0.00     0.059 A 
ATOM     78  F   UNL     1      -3.010  12.750   1.432  1.00  0.00    -0.206 F 
ATOM     79  C   UNL     1      -4.533  13.844   4.524  1.00  0.00     0.060 A 
BRANCH  79  80
ATOM     80  S   UNL     1      -4.165  13.917   6.290  1.00  0.00     0.124 S 
ATOM     81  O   UNL     1      -3.945  15.345   6.485  1.00  0.00    -0.237 OA
ATOM     82  O   UNL     1      -5.384  13.371   6.880  1.00  0.00    -0.237 OA
ATOM     83  O   UNL     1      -2.983  13.071   6.421  1.00  0.00    -0.744 OA
ENDBRANCH  79  80
ENDBRANCH  47  72
BRANCH  59  84
ATOM     84  C   UNL     1      -6.215  18.474  -3.177  1.00  0.00     0.058 A 
ATOM     85  C   UNL     1      -5.025  19.210  -3.081  1.00  0.00     0.135 A 
ATOM     86  C   UNL     1      -7.418  19.184  -3.317  1.00  0.00     0.135 A 
ATOM     87  F   UNL     1      -3.849  18.579  -2.940  1.00  0.00    -0.206 F 
ATOM     88  C   UNL     1      -5.029  20.601  -3.103  1.00  0.00     0.059 A 
ATOM     89  C   UNL     1      -7.444  20.574  -3.368  1.00  0.00     0.059 A 
ATOM     90  F   UNL     1      -8.584  18.526  -3.423  1.00  0.00    -0.206 F 
ATOM     91  C   UNL     1      -6.244  21.274  -3.249  1.00  0.00     0.060 A 
BRANCH  91  92
ATOM     92  S   UNL     1      -6.232  23.078  -3.313  1.00  0.00     0.124 S 
ATOM     93  O   UNL     1      -5.995  23.420  -1.914  1.00  0.00    -0.237 OA
ATOM     94  O   UNL     1      -5.128  23.351  -4.228  1.00  0.00    -0.237 OA
ATOM     95  O   UNL     1      -7.559  23.408  -3.824  1.00  0.00    -0.744 OA
ENDBRANCH  91  92
ENDBRANCH  59  84
ENDBRANCH  33  34
ENDBRANCH  25  28
ENDBRANCH  23  24
ENDBRANCH  22  23
ENDBRANCH   1  22
TORSDOF 17
