REMARK SMILES CC[C@H]1CC[C@](C(=O)NCCCNC(=O)c2ccc(-c3c4nc(c(-c5c(F)cc(S(=O)(=O)[O-])cc5F)c5ccc([nH]5)c(-c5c(F)cc(S(=O)(=O)[O-])cc5F)c5nc(c(-c6c(F)cc(S(=O)(=O)[O-])cc6F)c6ccc3[nH]6)C=C5)C=C4)cc2)([C@H]2CCC[C@@H](S(C)(=O)=O)C2)CC1
REMARK SMILES IDX 11 1 10 2 9 3 7 4 8 5 6 7 3 8 93 9 4 10 92 11 5 12 2 13 1 14
REMARK SMILES IDX 82 15 83 16 91 17 84 18 86 19 85 20 87 21 88 22 89 23 90 24
REMARK SMILES IDX 12 25 13 26 14 27 15 29 16 30 17 31 81 32 18 33 80 34 19 35
REMARK SMILES IDX 20 36 21 37 74 38 22 39 79 40 73 41 75 42 23 43 78 44 72 45
REMARK SMILES IDX 71 46 24 48 58 49 37 50 57 51 38 52 41 53 56 54 76 55 39 56
REMARK SMILES IDX 40 57 55 59 77 60 42 61 25 62 26 63 35 64 27 65 28 66 34 67
REMARK SMILES IDX 36 68 29 69 30 70 31 71 32 72 33 73 59 74 60 75 69 76 61 77
REMARK SMILES IDX 62 78 68 79 70 80 63 81 64 82 65 83 66 84 67 85 43 86 44 87
REMARK SMILES IDX 53 88 45 89 46 90 52 91 54 92 47 93 48 94 49 95 50 96 51 97
REMARK H PARENT 9 6 13 28 75 47 41 58
REMARK Flexibility Score: inf
ROOT
ATOM      1  C   UNL     1       2.715  11.771  -0.469  1.00  0.00     0.042 C 
ENDROOT
BRANCH   1   2
ATOM      2  C   UNL     1       1.903  10.828  -1.332  1.00  0.00     0.117 C 
BRANCH   2   3
ATOM      3  N   UNL     1       2.500   9.522  -1.381  1.00  0.00    -0.356 N 
ATOM      4  C   UNL     1       1.781   8.493  -1.905  1.00  0.00     0.226 C 
ATOM      5  O   UNL     1       1.024   8.658  -2.860  1.00  0.00    -0.274 OA
ATOM      6  H   UNL     1       3.412   9.374  -1.041  1.00  0.00     0.163 HD
BRANCH   4   7
ATOM      7  C   UNL     1       1.896   7.162  -1.170  1.00  0.00     0.052 C 
ATOM      8  C   UNL     1       0.209   8.183   1.183  1.00  0.00    -0.011 C 
ATOM      9  C   UNL     1      -0.396   7.759  -0.171  1.00  0.00     0.005 C 
ATOM     10  C   UNL     1       1.741   8.212   1.217  1.00  0.00     0.005 C 
ATOM     11  C   UNL     1       0.417   6.712  -0.967  1.00  0.00     0.017 C 
ATOM     12  C   UNL     1       2.455   7.235   0.285  1.00  0.00     0.017 C 
BRANCH   8  13
ATOM     13  C   UNL     1      -0.405   9.541   1.627  1.00  0.00    -0.000 C 
ATOM     14  C   UNL     1       0.272  10.222   2.813  1.00  0.00     0.004 C 
ENDBRANCH   8  13
BRANCH   7  15
ATOM     15  C   UNL     1       2.797   6.183  -2.019  1.00  0.00     0.006 C 
ATOM     16  C   UNL     1       2.200   5.603  -3.314  1.00  0.00     0.005 C 
ATOM     17  C   UNL     1       4.267   6.667  -2.224  1.00  0.00     0.024 C 
ATOM     18  C   UNL     1       2.531   6.363  -4.591  1.00  0.00     0.002 C 
ATOM     19  C   UNL     1       4.738   7.145  -3.612  1.00  0.00     0.108 C 
ATOM     20  C   UNL     1       4.030   6.497  -4.792  1.00  0.00     0.020 C 
BRANCH  19  21
ATOM     21  S   UNL     1       5.044   8.922  -3.793  1.00  0.00     0.150 S 
ATOM     22  C   UNL     1       3.690   9.679  -4.670  1.00  0.00     0.158 C 
ATOM     23  O   UNL     1       5.115   9.524  -2.480  1.00  0.00    -0.229 OA
ATOM     24  O   UNL     1       6.191   9.039  -4.689  1.00  0.00    -0.229 OA
ENDBRANCH  19  21
ENDBRANCH   7  15
ENDBRANCH   4   7
ENDBRANCH   2   3
ENDBRANCH   1   2
BRANCH   1  25
ATOM     25  C   UNL     1       3.372  12.809  -1.353  1.00  0.00     0.118 C 
BRANCH  25  26
ATOM     26  N   UNL     1       2.372  13.753  -1.855  1.00  0.00    -0.352 N 
ATOM     27  C   UNL     1       2.013  14.980  -1.353  1.00  0.00     0.251 C 
ATOM     28  H   UNL     1       1.890  13.469  -2.665  1.00  0.00     0.163 HD
ATOM     29  O   UNL     1       0.938  15.485  -1.667  1.00  0.00    -0.269 OA
BRANCH  27  30
ATOM     30  C   UNL     1       2.928  15.672  -0.426  1.00  0.00     0.039 A 
ATOM     31  C   UNL     1       2.421  16.371   0.671  1.00  0.00     0.014 A 
ATOM     32  C   UNL     1       4.304  15.612  -0.646  1.00  0.00     0.014 A 
ATOM     33  C   UNL     1       3.307  16.953   1.580  1.00  0.00     0.010 A 
ATOM     34  C   UNL     1       5.177  16.060   0.329  1.00  0.00     0.010 A 
ATOM     35  C   UNL     1       4.693  16.769   1.435  1.00  0.00    -0.014 A 
BRANCH  35  36
ATOM     36  C   UNL     1       5.673  17.341   2.389  1.00  0.00     0.031 A 
ATOM     37  C   UNL     1       6.741  18.276   1.882  1.00  0.00     0.074 A 
ATOM     38  C   UNL     1       5.671  16.939   3.674  1.00  0.00     0.049 A 
ATOM     39  N   UNL     1       7.767  18.782   2.514  1.00  0.00    -0.248 NA
ATOM     40  C   UNL     1       6.679  18.645   0.456  1.00  0.00     0.031 C 
ATOM     41  C   UNL     1       4.740  15.972   4.260  1.00  0.00     0.029 A 
ATOM     42  N   UNL     1       6.491  17.283   4.717  1.00  0.00    -0.354 N 
ATOM     43  C   UNL     1       8.489  19.486   1.557  1.00  0.00     0.074 A 
ATOM     44  C   UNL     1       7.826  19.283   0.290  1.00  0.00     0.031 C 
ATOM     45  C   UNL     1       5.023  15.823   5.563  1.00  0.00     0.029 A 
ATOM     46  C   UNL     1       6.177  16.652   5.896  1.00  0.00     0.049 A 
ATOM     47  H   UNL     1       7.235  17.922   4.630  1.00  0.00     0.167 HD
ATOM     48  C   UNL     1       9.588  20.259   1.723  1.00  0.00     0.037 A 
ATOM     49  C   UNL     1       6.757  16.732   7.109  1.00  0.00     0.037 A 
ATOM     50  C   UNL     1      10.200  20.502   3.001  1.00  0.00     0.049 A 
ATOM     51  C   UNL     1       7.931  17.651   7.293  1.00  0.00     0.074 A 
ATOM     52  C   UNL     1      11.251  21.346   3.308  1.00  0.00     0.029 A 
ATOM     53  N   UNL     1       9.809  19.898   4.189  1.00  0.00    -0.354 N 
ATOM     54  N   UNL     1       8.553  18.380   6.396  1.00  0.00    -0.248 NA
ATOM     55  C   UNL     1       8.475  17.771   8.651  1.00  0.00     0.031 C 
ATOM     56  C   UNL     1      11.520  21.225   4.676  1.00  0.00     0.029 A 
ATOM     57  C   UNL     1      10.608  20.339   5.229  1.00  0.00     0.049 A 
ATOM     58  H   UNL     1       9.072  19.252   4.278  1.00  0.00     0.167 HD
ATOM     59  C   UNL     1       9.553  19.058   7.082  1.00  0.00     0.074 A 
ATOM     60  C   UNL     1       9.441  18.663   8.473  1.00  0.00     0.031 C 
ATOM     61  C   UNL     1      10.479  19.928   6.606  1.00  0.00     0.037 A 
BRANCH  48  62
ATOM     62  C   UNL     1      10.178  20.896   0.493  1.00  0.00     0.058 A 
ATOM     63  C   UNL     1       9.498  21.895  -0.224  1.00  0.00     0.135 A 
ATOM     64  C   UNL     1      11.431  20.486   0.010  1.00  0.00     0.135 A 
ATOM     65  F   UNL     1       8.290  22.316   0.183  1.00  0.00    -0.206 F 
ATOM     66  C   UNL     1      10.010  22.422  -1.405  1.00  0.00     0.059 A 
ATOM     67  C   UNL     1      11.979  21.024  -1.152  1.00  0.00     0.059 A 
ATOM     68  F   UNL     1      12.129  19.538   0.655  1.00  0.00    -0.206 F 
ATOM     69  C   UNL     1      11.248  21.973  -1.866  1.00  0.00     0.060 A 
BRANCH  69  70
ATOM     70  S   UNL     1      11.886  22.641  -3.417  1.00  0.00     0.124 S 
ATOM     71  O   UNL     1      11.067  21.933  -4.396  1.00  0.00    -0.237 OA
ATOM     72  O   UNL     1      11.615  24.069  -3.280  1.00  0.00    -0.237 OA
ATOM     73  O   UNL     1      13.297  22.270  -3.392  1.00  0.00    -0.744 OA
ENDBRANCH  69  70
ENDBRANCH  48  62
BRANCH  49  74
ATOM     74  C   UNL     1       6.192  15.950   8.240  1.00  0.00     0.058 A 
ATOM     75  C   UNL     1       5.440  16.577   9.243  1.00  0.00     0.135 A 
ATOM     76  C   UNL     1       6.326  14.553   8.299  1.00  0.00     0.135 A 
ATOM     77  F   UNL     1       5.287  17.910   9.230  1.00  0.00    -0.206 F 
ATOM     78  C   UNL     1       4.835  15.851  10.263  1.00  0.00     0.059 A 
ATOM     79  C   UNL     1       5.713  13.802   9.297  1.00  0.00     0.059 A 
ATOM     80  F   UNL     1       7.019  13.904   7.351  1.00  0.00    -0.206 F 
ATOM     81  C   UNL     1       4.969  14.461  10.276  1.00  0.00     0.060 A 
BRANCH  81  82
ATOM     82  S   UNL     1       4.098  13.519  11.548  1.00  0.00     0.124 S 
ATOM     83  O   UNL     1       4.896  13.815  12.732  1.00  0.00    -0.237 OA
ATOM     84  O   UNL     1       2.765  14.114  11.511  1.00  0.00    -0.237 OA
ATOM     85  O   UNL     1       4.175  12.146  11.060  1.00  0.00    -0.744 OA
ENDBRANCH  81  82
ENDBRANCH  49  74
BRANCH  61  86
ATOM     86  C   UNL     1      11.434  20.528   7.598  1.00  0.00     0.058 A 
ATOM     87  C   UNL     1      12.485  19.780   8.150  1.00  0.00     0.135 A 
ATOM     88  C   UNL     1      11.331  21.883   7.953  1.00  0.00     0.135 A 
ATOM     89  F   UNL     1      12.622  18.480   7.846  1.00  0.00    -0.206 F 
ATOM     90  C   UNL     1      13.393  20.351   9.035  1.00  0.00     0.059 A 
ATOM     91  C   UNL     1      12.243  22.480   8.816  1.00  0.00     0.059 A 
ATOM     92  F   UNL     1      10.349  22.643   7.443  1.00  0.00    -0.206 F 
ATOM     93  C   UNL     1      13.265  21.703   9.360  1.00  0.00     0.060 A 
BRANCH  93  94
ATOM     94  S   UNL     1      14.471  22.442  10.481  1.00  0.00     0.124 S 
ATOM     95  O   UNL     1      14.044  21.903  11.768  1.00  0.00    -0.237 OA
ATOM     96  O   UNL     1      15.735  21.927   9.965  1.00  0.00    -0.237 OA
ATOM     97  O   UNL     1      14.267  23.877  10.302  1.00  0.00    -0.744 OA
ENDBRANCH  93  94
ENDBRANCH  61  86
ENDBRANCH  35  36
ENDBRANCH  27  30
ENDBRANCH  25  26
ENDBRANCH   1  25
TORSDOF 16
