REMARK SMILES CC1(C)S[C@H](c2ccc(-c3cccc([N+](=O)[O-])c3)o2)[NH2+][C@@H]1C(=O)NCCCNC(=O)c1ccc(-c2c3nc(c(-c4c(F)cc(S(=O)(=O)[O-])cc4F)c4ccc([nH]4)c(-c4c(F)cc(S(=O)(=O)[O-])cc4F)c4nc(c(-c5c(F)cc(S(=O)(=O)[O-])cc5F)c5ccc2[nH]5)C=C4)C=C3)cc1
REMARK SMILES IDX 26 1 25 2 24 3 22 4 23 5 21 7 1 8 2 9 3 10 4 11 5 12 20 13
REMARK SMILES IDX 6 16 7 17 19 18 8 19 9 20 10 21 11 22 18 23 12 24 14 25
REMARK SMILES IDX 13 26 15 27 16 28 17 29 27 30 28 31 29 32 30 34 31 35 32 36
REMARK SMILES IDX 96 37 33 38 95 39 34 40 35 41 36 42 89 43 37 44 94 45 88 46
REMARK SMILES IDX 90 47 38 48 93 49 87 50 86 51 39 53 73 54 52 55 72 56 53 57
REMARK SMILES IDX 56 58 71 59 91 60 54 61 55 62 70 64 92 65 57 66 40 67 41 68
REMARK SMILES IDX 50 69 42 70 43 71 49 72 51 73 44 74 45 75 46 76 47 77 48 78
REMARK SMILES IDX 74 79 75 80 84 81 76 82 77 83 83 84 85 85 78 86 79 87 80 88
REMARK SMILES IDX 81 89 82 90 58 91 59 92 68 93 60 94 61 95 67 96 69 97 62 98
REMARK SMILES IDX 63 99 64 100 65 101 66 102
REMARK H PARENT 24 6 20 14 20 15 28 33 90 52 56 63
REMARK Flexibility Score: inf
ROOT
ATOM      1  C   UNL     1      -2.917   4.114  -2.253  1.00  0.00     0.042 C 
ENDROOT
BRANCH   1   2
ATOM      2  C   UNL     1      -2.304   2.847  -1.687  1.00  0.00     0.118 C 
BRANCH   2   3
ATOM      3  N   UNL     1      -1.222   2.309  -2.491  1.00  0.00    -0.351 N 
ATOM      4  C   UNL     1      -0.308   1.357  -2.105  1.00  0.00     0.279 C 
ATOM      5  O   UNL     1       0.425   0.893  -2.977  1.00  0.00    -0.268 OA
ATOM      6  H   UNL     1      -1.133   2.662  -3.406  1.00  0.00     0.163 HD
BRANCH   4   7
ATOM      7  C   UNL     1      -0.182   1.032  -0.593  1.00  0.00     0.289 C 
ATOM      8  C   UNL     1       1.268   0.276   1.337  1.00  0.00     0.030 C 
ATOM      9  C   UNL     1       0.885   0.008  -0.136  1.00  0.00     0.078 C 
ATOM     10  C   UNL     1       2.174  -0.070  -0.954  1.00  0.00     0.030 C 
ATOM     11  S   UNL     1       0.012  -1.593  -0.209  1.00  0.00    -0.078 SA
ATOM     12  C   UNL     1      -1.633  -0.847  -0.202  1.00  0.00     0.311 C 
ATOM     13  N   UNL     1      -1.500   0.603  -0.029  1.00  0.00    -0.317 N 
ATOM     14  H   UNL     1      -1.542   0.836   0.963  1.00  0.00     0.348 HD
ATOM     15  H   UNL     1      -2.259   1.082  -0.514  1.00  0.00     0.348 HD
BRANCH  12  16
ATOM     16  C   UNL     1      -2.473  -1.293  -1.360  1.00  0.00     0.172 A 
ATOM     17  C   UNL     1      -3.231  -2.436  -1.534  1.00  0.00     0.054 A 
ATOM     18  O   UNL     1      -2.607  -0.489  -2.464  1.00  0.00    -0.454 OA
ATOM     19  C   UNL     1      -3.875  -2.316  -2.784  1.00  0.00     0.051 A 
ATOM     20  C   UNL     1      -3.471  -1.112  -3.321  1.00  0.00     0.134 A 
BRANCH  20  21
ATOM     21  C   UNL     1      -3.826  -0.404  -4.544  1.00  0.00     0.024 A 
ATOM     22  C   UNL     1      -2.870   0.296  -5.294  1.00  0.00     0.012 A 
ATOM     23  C   UNL     1      -5.154  -0.432  -4.997  1.00  0.00     0.097 A 
ATOM     24  C   UNL     1      -3.232   0.963  -6.473  1.00  0.00     0.008 A 
ATOM     25  C   UNL     1      -5.513   0.246  -6.170  1.00  0.00     0.270 A 
ATOM     26  C   UNL     1      -4.556   0.944  -6.914  1.00  0.00     0.085 A 
BRANCH  25  27
ATOM     27  N   UNL     1      -6.915   0.238  -6.606  1.00  0.00     0.062 N 
ATOM     28  O   UNL     1      -7.252   1.052  -7.479  1.00  0.00    -0.258 OA
ATOM     29  O   UNL     1      -7.665  -0.621  -6.117  1.00  0.00    -0.258 OA
ENDBRANCH  25  27
ENDBRANCH  20  21
ENDBRANCH  12  16
ENDBRANCH   4   7
ENDBRANCH   2   3
ENDBRANCH   1   2
BRANCH   1  30
ATOM     30  C   UNL     1      -3.548   3.965  -3.627  1.00  0.00     0.118 C 
BRANCH  30  31
ATOM     31  N   UNL     1      -4.649   3.015  -3.682  1.00  0.00    -0.352 N 
ATOM     32  C   UNL     1      -5.860   3.114  -4.331  1.00  0.00     0.251 C 
ATOM     33  H   UNL     1      -4.508   2.180  -3.181  1.00  0.00     0.163 HD
ATOM     34  O   UNL     1      -6.702   2.234  -4.188  1.00  0.00    -0.269 OA
BRANCH  32  35
ATOM     35  C   UNL     1      -6.166   4.303  -5.159  1.00  0.00     0.039 A 
ATOM     36  C   UNL     1      -7.438   4.871  -5.051  1.00  0.00     0.014 A 
ATOM     37  C   UNL     1      -5.197   4.908  -5.962  1.00  0.00     0.014 A 
ATOM     38  C   UNL     1      -7.682   6.122  -5.615  1.00  0.00     0.010 A 
ATOM     39  C   UNL     1      -5.406   6.200  -6.433  1.00  0.00     0.010 A 
ATOM     40  C   UNL     1      -6.639   6.834  -6.229  1.00  0.00    -0.014 A 
BRANCH  40  41
ATOM     41  C   UNL     1      -6.797   8.271  -6.567  1.00  0.00     0.031 A 
ATOM     42  C   UNL     1      -6.658   8.746  -7.984  1.00  0.00     0.074 A 
ATOM     43  C   UNL     1      -6.984   9.155  -5.564  1.00  0.00     0.049 A 
ATOM     44  N   UNL     1      -6.724   9.966  -8.452  1.00  0.00    -0.248 NA
ATOM     45  C   UNL     1      -6.375   7.726  -9.005  1.00  0.00     0.031 C 
ATOM     46  C   UNL     1      -7.047   8.817  -4.138  1.00  0.00     0.029 A 
ATOM     47  N   UNL     1      -7.157  10.516  -5.584  1.00  0.00    -0.354 N 
ATOM     48  C   UNL     1      -6.484   9.861  -9.816  1.00  0.00     0.074 A 
ATOM     49  C   UNL     1      -6.210   8.467 -10.091  1.00  0.00     0.031 C 
ATOM     50  C   UNL     1      -7.289   9.930  -3.428  1.00  0.00     0.029 A 
ATOM     51  C   UNL     1      -7.361  11.066  -4.339  1.00  0.00     0.049 A 
ATOM     52  H   UNL     1      -7.136  11.049  -6.411  1.00  0.00     0.167 HD
ATOM     53  C   UNL     1      -6.519  10.835 -10.757  1.00  0.00     0.037 A 
ATOM     54  C   UNL     1      -7.588  12.342  -3.973  1.00  0.00     0.037 A 
ATOM     55  C   UNL     1      -6.819  12.214 -10.473  1.00  0.00     0.049 A 
ATOM     56  C   UNL     1      -7.654  13.398  -5.039  1.00  0.00     0.074 A 
ATOM     57  C   UNL     1      -6.933  13.271 -11.358  1.00  0.00     0.029 A 
ATOM     58  N   UNL     1      -7.056  12.727  -9.205  1.00  0.00    -0.354 N 
ATOM     59  N   UNL     1      -7.493  13.269  -6.335  1.00  0.00    -0.248 NA
ATOM     60  C   UNL     1      -7.939  14.770  -4.599  1.00  0.00     0.031 C 
ATOM     61  C   UNL     1      -7.208  14.429 -10.623  1.00  0.00     0.029 A 
ATOM     62  C   UNL     1      -7.305  14.087  -9.283  1.00  0.00     0.049 A 
ATOM     63  H   UNL     1      -7.048  12.201  -8.373  1.00  0.00     0.167 HD
ATOM     64  C   UNL     1      -7.679  14.538  -6.868  1.00  0.00     0.074 A 
ATOM     65  C   UNL     1      -7.979  15.418  -5.756  1.00  0.00     0.031 C 
ATOM     66  C   UNL     1      -7.606  14.941  -8.161  1.00  0.00     0.037 A 
BRANCH  53  67
ATOM     67  C   UNL     1      -6.241  10.433 -12.179  1.00  0.00     0.058 A 
ATOM     68  C   UNL     1      -7.152   9.657 -12.913  1.00  0.00     0.135 A 
ATOM     69  C   UNL     1      -5.062  10.840 -12.824  1.00  0.00     0.135 A 
ATOM     70  F   UNL     1      -8.288   9.227 -12.341  1.00  0.00    -0.206 F 
ATOM     71  C   UNL     1      -6.890   9.268 -14.223  1.00  0.00     0.059 A 
ATOM     72  C   UNL     1      -4.791  10.486 -14.143  1.00  0.00     0.059 A 
ATOM     73  F   UNL     1      -4.155  11.583 -12.170  1.00  0.00    -0.206 F 
ATOM     74  C   UNL     1      -5.704   9.685 -14.828  1.00  0.00     0.060 A 
BRANCH  74  75
ATOM     75  S   UNL     1      -5.373   9.167 -16.526  1.00  0.00     0.124 S 
ATOM     76  O   UNL     1      -5.014   7.765 -16.337  1.00  0.00    -0.237 OA
ATOM     77  O   UNL     1      -6.654   9.409 -17.182  1.00  0.00    -0.237 OA
ATOM     78  O   UNL     1      -4.284  10.043 -16.942  1.00  0.00    -0.744 OA
ENDBRANCH  74  75
ENDBRANCH  53  67
BRANCH  54  79
ATOM     79  C   UNL     1      -7.810  12.678  -2.541  1.00  0.00     0.058 A 
ATOM     80  C   UNL     1      -9.084  13.037  -2.076  1.00  0.00     0.135 A 
ATOM     81  C   UNL     1      -6.765  12.625  -1.606  1.00  0.00     0.135 A 
ATOM     82  F   UNL     1     -10.115  13.104  -2.932  1.00  0.00    -0.206 F 
ATOM     83  C   UNL     1      -9.313  13.349  -0.740  1.00  0.00     0.059 A 
ATOM     84  C   UNL     1      -6.973  12.910  -0.259  1.00  0.00     0.059 A 
ATOM     85  F   UNL     1      -5.532  12.266  -1.994  1.00  0.00    -0.206 F 
ATOM     86  C   UNL     1      -8.250  13.281   0.162  1.00  0.00     0.060 A 
BRANCH  86  87
ATOM     87  S   UNL     1      -8.566  13.640   1.905  1.00  0.00     0.124 S 
ATOM     88  O   UNL     1      -8.695  15.092   1.886  1.00  0.00    -0.237 OA
ATOM     89  O   UNL     1      -9.793  12.891   2.156  1.00  0.00    -0.237 OA
ATOM     90  O   UNL     1      -7.377  13.119   2.573  1.00  0.00    -0.744 OA
ENDBRANCH  86  87
ENDBRANCH  54  79
BRANCH  66  91
ATOM     91  C   UNL     1      -7.882  16.390  -8.443  1.00  0.00     0.058 A 
ATOM     92  C   UNL     1      -6.948  17.389  -8.128  1.00  0.00     0.135 A 
ATOM     93  C   UNL     1      -9.073  16.776  -9.076  1.00  0.00     0.135 A 
ATOM     94  F   UNL     1      -5.798  17.070  -7.514  1.00  0.00    -0.206 F 
ATOM     95  C   UNL     1      -7.197  18.727  -8.412  1.00  0.00     0.059 A 
ATOM     96  C   UNL     1      -9.332  18.106  -9.392  1.00  0.00     0.059 A 
ATOM     97  F   UNL     1      -9.994  15.856  -9.405  1.00  0.00    -0.206 F 
ATOM     98  C   UNL     1      -8.392  19.076  -9.045  1.00  0.00     0.060 A 
BRANCH  98  99
ATOM     99  S   UNL     1      -8.688  20.812  -9.440  1.00  0.00     0.124 S 
ATOM    100  O   UNL     1      -9.036  21.355  -8.132  1.00  0.00    -0.237 OA
ATOM    101  O   UNL     1      -7.400  21.235  -9.980  1.00  0.00    -0.237 OA
ATOM    102  O   UNL     1      -9.779  20.757 -10.409  1.00  0.00    -0.744 OA
ENDBRANCH  98  99
ENDBRANCH  66  91
ENDBRANCH  40  41
ENDBRANCH  32  35
ENDBRANCH  30  31
ENDBRANCH   1  30
TORSDOF 16
