REMARK SMILES Cc1c(Cl)cccc1NC(=O)C[C@](C)(C(=O)NCCCNC(=O)c1ccc(-c2c3nc(c(-c4c(F)cc(S(=O)(=O)[O-])cc4F)c4ccc([nH]4)c(-c4c(F)cc(S(=O)(=O)[O-])cc4F)c4nc(c(-c5c(F)cc(S(=O)(=O)[O-])cc5F)c5ccc2[nH]5)C=C4)C=C3)cc1)c1ccccc1
REMARK SMILES IDX 19 1 18 2 17 3 15 4 16 5 13 7 14 8 12 9 10 10 9 11 11 13
REMARK SMILES IDX 8 14 1 15 2 16 3 17 4 18 5 19 7 20 6 21 90 22 91 23 95 24
REMARK SMILES IDX 92 25 94 26 93 27 20 28 21 29 22 30 23 32 24 33 25 34 89 35
REMARK SMILES IDX 26 36 88 37 27 38 28 39 29 40 82 41 30 42 87 43 81 44 83 45
REMARK SMILES IDX 31 46 86 47 80 48 79 49 32 51 66 52 45 53 65 54 46 55 49 56
REMARK SMILES IDX 64 57 84 58 47 59 48 60 63 62 85 63 50 64 33 65 34 66 43 67
REMARK SMILES IDX 35 68 36 69 42 70 44 71 37 72 38 73 39 74 40 75 41 76 67 77
REMARK SMILES IDX 68 78 77 79 69 80 70 81 76 82 78 83 71 84 72 85 73 86 74 87
REMARK SMILES IDX 75 88 51 89 52 90 61 91 53 92 54 93 60 94 62 95 55 96 56 97
REMARK SMILES IDX 57 98 58 99 59 100
REMARK H PARENT 17 6 9 12 21 31 83 50 49 61
REMARK Flexibility Score: inf
ROOT
ATOM      1  C   UNL     1      -4.451  -1.814   3.279  1.00  0.00     0.042 C 
ENDROOT
BRANCH   1   2
ATOM      2  C   UNL     1      -4.286  -2.215   1.631  1.00  0.00     0.117 C 
BRANCH   2   3
ATOM      3  N   UNL     1      -5.143  -1.461  -0.121  1.00  0.00    -0.355 N 
ATOM      4  C   UNL     1      -5.169  -0.603  -1.274  1.00  0.00     0.230 C 
ATOM      5  O   UNL     1      -6.156  -0.896  -1.976  1.00  0.00    -0.274 OA
ATOM      6  H   UNL     1      -5.983  -1.969  -0.198  1.00  0.00     0.163 HD
BRANCH   4   7
ATOM      7  C   UNL     1      -4.225   0.648  -1.705  1.00  0.00     0.080 C 
ATOM      8  C   UNL     1      -4.559   1.817  -0.702  1.00  0.00     0.027 C 
BRANCH   7   9
ATOM      9  C   UNL     1      -2.683   0.372  -1.829  1.00  0.00     0.121 C 
BRANCH   9  10
ATOM     10  C   UNL     1      -2.196  -1.025  -2.166  1.00  0.00     0.225 C 
ATOM     11  N   UNL     1      -2.318  -2.043  -1.268  1.00  0.00    -0.326 N 
ATOM     12  H   UNL     1      -1.738  -2.831  -1.375  1.00  0.00     0.169 HD
ATOM     13  O   UNL     1      -1.640  -1.263  -3.241  1.00  0.00    -0.275 OA
BRANCH  11  14
ATOM     14  C   UNL     1      -3.219  -2.027  -0.211  1.00  0.00     0.045 A 
ATOM     15  C   UNL     1      -3.941  -4.787  -0.545  1.00  0.00     0.048 C 
ATOM     16  C   UNL     1      -4.401  -3.399  -0.190  1.00  0.00    -0.009 A 
ATOM     17  C   UNL     1      -5.965  -3.226   0.701  1.00  0.00     0.046 A 
ATOM     18  Cl  UNL     1      -7.030  -4.563   0.881  1.00  0.00    -0.084 Cl
ATOM     19  C   UNL     1      -6.378  -1.678   1.515  1.00  0.00     0.021 A 
ATOM     20  C   UNL     1      -3.579  -0.491   0.725  1.00  0.00     0.026 A 
ATOM     21  C   UNL     1      -5.200  -0.302   1.525  1.00  0.00     0.004 A 
ENDBRANCH  11  14
ENDBRANCH   9  10
ENDBRANCH   7   9
BRANCH   7  22
ATOM     22  C   UNL     1      -4.569   1.341  -3.091  1.00  0.00    -0.032 A 
ATOM     23  C   UNL     1      -4.090   2.666  -3.313  1.00  0.00     0.005 A 
ATOM     24  C   UNL     1      -5.310   0.764  -4.124  1.00  0.00     0.005 A 
ATOM     25  C   UNL     1      -4.443   3.416  -4.430  1.00  0.00     0.000 A 
ATOM     26  C   UNL     1      -5.656   1.516  -5.259  1.00  0.00     0.000 A 
ATOM     27  C   UNL     1      -5.247   2.842  -5.400  1.00  0.00     0.000 A 
ENDBRANCH   7  22
ENDBRANCH   4   7
ENDBRANCH   2   3
ENDBRANCH   1   2
BRANCH   1  28
ATOM     28  C   UNL     1      -4.928  -3.016   4.073  1.00  0.00     0.118 C 
BRANCH  28  29
ATOM     29  N   UNL     1      -4.140  -4.228   3.884  1.00  0.00    -0.352 N 
ATOM     30  C   UNL     1      -4.416  -5.449   4.453  1.00  0.00     0.251 C 
ATOM     31  H   UNL     1      -3.348  -4.167   3.302  1.00  0.00     0.163 HD
ATOM     32  O   UNL     1      -3.775  -6.456   4.192  1.00  0.00    -0.269 OA
BRANCH  30  33
ATOM     33  C   UNL     1      -5.452  -5.422   5.493  1.00  0.00     0.039 A 
ATOM     34  C   UNL     1      -4.997  -5.319   6.808  1.00  0.00     0.014 A 
ATOM     35  C   UNL     1      -6.766  -5.113   5.137  1.00  0.00     0.014 A 
ATOM     36  C   UNL     1      -5.871  -4.862   7.781  1.00  0.00     0.010 A 
ATOM     37  C   UNL     1      -7.592  -4.537   6.091  1.00  0.00     0.010 A 
ATOM     38  C   UNL     1      -7.162  -4.440   7.425  1.00  0.00    -0.014 A 
BRANCH  38  39
ATOM     39  C   UNL     1      -8.098  -3.998   8.480  1.00  0.00     0.031 A 
ATOM     40  C   UNL     1      -9.320  -4.830   8.741  1.00  0.00     0.074 A 
ATOM     41  C   UNL     1      -7.820  -2.904   9.216  1.00  0.00     0.049 A 
ATOM     42  N   UNL     1     -10.226  -4.690   9.669  1.00  0.00    -0.248 NA
ATOM     43  C   UNL     1      -9.572  -5.959   7.826  1.00  0.00     0.031 C 
ATOM     44  C   UNL     1      -6.679  -2.006   9.008  1.00  0.00     0.029 A 
ATOM     45  N   UNL     1      -8.462  -2.372  10.304  1.00  0.00    -0.354 N 
ATOM     46  C   UNL     1     -11.148  -5.704   9.442  1.00  0.00     0.074 A 
ATOM     47  C   UNL     1     -10.745  -6.399   8.246  1.00  0.00     0.031 C 
ATOM     48  C   UNL     1      -6.677  -1.066   9.967  1.00  0.00     0.029 A 
ATOM     49  C   UNL     1      -7.833  -1.270  10.835  1.00  0.00     0.049 A 
ATOM     50  H   UNL     1      -9.296  -2.744  10.672  1.00  0.00     0.167 HD
ATOM     51  C   UNL     1     -12.216  -6.051  10.192  1.00  0.00     0.037 A 
ATOM     52  C   UNL     1      -8.156  -0.518  11.906  1.00  0.00     0.037 A 
ATOM     53  C   UNL     1     -12.586  -5.363  11.396  1.00  0.00     0.049 A 
ATOM     54  C   UNL     1      -9.361  -0.916  12.718  1.00  0.00     0.074 A 
ATOM     55  C   UNL     1     -13.621  -5.649  12.265  1.00  0.00     0.029 A 
ATOM     56  N   UNL     1     -11.935  -4.243  11.895  1.00  0.00    -0.354 N 
ATOM     57  N   UNL     1     -10.182  -1.925  12.535  1.00  0.00    -0.248 NA
ATOM     58  C   UNL     1      -9.681  -0.086  13.886  1.00  0.00     0.031 C 
ATOM     59  C   UNL     1     -13.641  -4.658  13.250  1.00  0.00     0.029 A 
ATOM     60  C   UNL     1     -12.569  -3.802  13.041  1.00  0.00     0.049 A 
ATOM     61  H   UNL     1     -11.140  -3.824  11.492  1.00  0.00     0.167 HD
ATOM     62  C   UNL     1     -11.098  -1.867  13.579  1.00  0.00     0.074 A 
ATOM     63  C   UNL     1     -10.716  -0.736  14.400  1.00  0.00     0.031 C 
ATOM     64  C   UNL     1     -12.160  -2.672  13.838  1.00  0.00     0.037 A 
BRANCH  51  65
ATOM     65  C   UNL     1     -13.054  -7.207   9.722  1.00  0.00     0.058 A 
ATOM     66  C   UNL     1     -12.569  -8.526   9.710  1.00  0.00     0.135 A 
ATOM     67  C   UNL     1     -14.372  -6.992   9.291  1.00  0.00     0.135 A 
ATOM     68  F   UNL     1     -11.305  -8.787  10.081  1.00  0.00    -0.206 F 
ATOM     69  C   UNL     1     -13.353  -9.586   9.269  1.00  0.00     0.059 A 
ATOM     70  C   UNL     1     -15.187  -8.042   8.880  1.00  0.00     0.059 A 
ATOM     71  F   UNL     1     -14.881  -5.750   9.265  1.00  0.00    -0.206 F 
ATOM     72  C   UNL     1     -14.665  -9.334   8.864  1.00  0.00     0.060 A 
BRANCH  72  73
ATOM     73  S   UNL     1     -15.681 -10.726   8.331  1.00  0.00     0.124 S 
ATOM     74  O   UNL     1     -15.043 -11.088   7.069  1.00  0.00    -0.237 OA
ATOM     75  O   UNL     1     -15.504 -11.674   9.425  1.00  0.00    -0.237 OA
ATOM     76  O   UNL     1     -17.016 -10.148   8.214  1.00  0.00    -0.744 OA
ENDBRANCH  72  73
ENDBRANCH  51  65
BRANCH  52  77
ATOM     77  C   UNL     1      -7.334   0.670  12.269  1.00  0.00     0.058 A 
ATOM     78  C   UNL     1      -6.595   0.720  13.462  1.00  0.00     0.135 A 
ATOM     79  C   UNL     1      -7.272   1.790  11.423  1.00  0.00     0.135 A 
ATOM     80  F   UNL     1      -6.620  -0.320  14.310  1.00  0.00    -0.206 F 
ATOM     81  C   UNL     1      -5.846   1.840  13.813  1.00  0.00     0.059 A 
ATOM     82  C   UNL     1      -6.505   2.907  11.736  1.00  0.00     0.059 A 
ATOM     83  F   UNL     1      -7.945   1.793  10.261  1.00  0.00    -0.206 F 
ATOM     84  C   UNL     1      -5.805   2.929  12.940  1.00  0.00     0.060 A 
BRANCH  84  85
ATOM     85  S   UNL     1      -4.798   4.361  13.383  1.00  0.00     0.124 S 
ATOM     86  O   UNL     1      -5.553   4.918  14.499  1.00  0.00    -0.237 OA
ATOM     87  O   UNL     1      -3.520   3.742  13.720  1.00  0.00    -0.237 OA
ATOM     88  O   UNL     1      -4.796   5.161  12.162  1.00  0.00    -0.744 OA
ENDBRANCH  84  85
ENDBRANCH  52  77
BRANCH  64  89
ATOM     89  C   UNL     1     -12.960  -2.381  15.077  1.00  0.00     0.058 A 
ATOM     90  C   UNL     1     -13.774  -1.243  15.184  1.00  0.00     0.135 A 
ATOM     91  C   UNL     1     -12.957  -3.291  16.148  1.00  0.00     0.135 A 
ATOM     92  F   UNL     1     -13.810  -0.341  14.191  1.00  0.00    -0.206 F 
ATOM     93  C   UNL     1     -14.530  -0.999  16.324  1.00  0.00     0.059 A 
ATOM     94  C   UNL     1     -13.738  -3.088  17.279  1.00  0.00     0.059 A 
ATOM     95  F   UNL     1     -12.209  -4.404  16.089  1.00  0.00    -0.206 F 
ATOM     96  C   UNL     1     -14.509  -1.930  17.365  1.00  0.00     0.060 A 
BRANCH  96  97
ATOM     97  S   UNL     1     -15.518  -1.613  18.825  1.00  0.00     0.124 S 
ATOM     98  O   UNL     1     -14.803  -0.499  19.439  1.00  0.00    -0.237 OA
ATOM     99  O   UNL     1     -16.816  -1.290  18.241  1.00  0.00    -0.237 OA
ATOM    100  O   UNL     1     -15.462  -2.874  19.559  1.00  0.00    -0.744 OA
ENDBRANCH  96  97
ENDBRANCH  64  89
ENDBRANCH  38  39
ENDBRANCH  30  33
ENDBRANCH  28  29
ENDBRANCH   1  28
TORSDOF 17
