REMARK SMILES Cc1noc(C)c1[C@H](C)NC(=O)N1CC[C@H](C(=O)NCCCNC(=O)c2ccc(-c3c4nc(c(-c5c(F)cc(S(=O)(=O)[O-])cc5F)c5ccc([nH]5)c(-c5c(F)cc(S(=O)(=O)[O-])cc5F)c5nc(c(-c6c(F)cc(S(=O)(=O)[O-])cc6F)c6ccc3[nH]6)C=C5)C=C4)cc2)[C@@H]1C
REMARK SMILES IDX 21 1 20 2 19 3 17 4 18 5 16 7 13 8 14 9 92 10 15 11 93 12
REMARK SMILES IDX 11 13 10 14 12 16 8 17 9 18 7 19 1 20 2 21 3 22 4 23 5 24
REMARK SMILES IDX 6 25 22 26 23 27 24 28 25 30 26 31 27 32 91 33 28 34 90 35
REMARK SMILES IDX 29 36 30 37 31 38 84 39 32 40 89 41 83 42 85 43 33 44 88 45
REMARK SMILES IDX 82 46 81 47 34 49 68 50 47 51 67 52 48 53 51 54 66 55 86 56
REMARK SMILES IDX 49 57 50 58 65 60 87 61 52 62 35 63 36 64 45 65 37 66 38 67
REMARK SMILES IDX 44 68 46 69 39 70 40 71 41 72 42 73 43 74 69 75 70 76 79 77
REMARK SMILES IDX 71 78 72 79 78 80 80 81 73 82 74 83 75 84 76 85 77 86 53 87
REMARK SMILES IDX 54 88 63 89 55 90 56 91 62 92 64 93 57 94 58 95 59 96 60 97
REMARK SMILES IDX 61 98
REMARK H PARENT 19 6 10 15 23 29 85 48 51 59
REMARK Flexibility Score: inf
ROOT
ATOM      1  C   UNL     1       5.410   5.670   4.145  1.00  0.00     0.042 C 
ENDROOT
BRANCH   1   2
ATOM      2  C   UNL     1       4.361   6.455   3.374  1.00  0.00     0.117 C 
BRANCH   2   3
ATOM      3  N   UNL     1       4.706   6.588   1.975  1.00  0.00    -0.356 N 
ATOM      4  C   UNL     1       4.390   5.839   0.893  1.00  0.00     0.225 C 
ATOM      5  O   UNL     1       4.834   6.231  -0.193  1.00  0.00    -0.275 OA
ATOM      6  H   UNL     1       5.274   7.367   1.773  1.00  0.00     0.163 HD
BRANCH   4   7
ATOM      7  C   UNL     1       3.458   4.637   0.918  1.00  0.00     0.102 C 
ATOM      8  N   UNL     1       1.317   4.061   1.756  1.00  0.00    -0.321 N 
ATOM      9  C   UNL     1       2.242   3.632   2.772  1.00  0.00     0.122 C 
ATOM     10  C   UNL     1       1.961   4.969   0.800  1.00  0.00     0.096 C 
ATOM     11  C   UNL     1       3.558   3.574   2.018  1.00  0.00     0.037 C 
ATOM     12  C   UNL     1       1.563   6.427   1.033  1.00  0.00     0.032 C 
BRANCH   8  13
ATOM     13  C   UNL     1      -0.013   3.811   1.886  1.00  0.00     0.318 C 
ATOM     14  N   UNL     1      -0.690   3.413   0.779  1.00  0.00    -0.331 N 
ATOM     15  H   UNL     1      -1.643   3.658   0.726  1.00  0.00     0.165 HD
ATOM     16  O   UNL     1      -0.597   3.843   2.966  1.00  0.00    -0.249 OA
BRANCH  14  17
ATOM     17  C   UNL     1      -0.138   2.658  -0.337  1.00  0.00     0.116 C 
ATOM     18  C   UNL     1      -0.021   1.184   0.052  1.00  0.00     0.036 C 
BRANCH  17  19
ATOM     19  C   UNL     1      -0.962   2.966  -1.549  1.00  0.00     0.040 A 
ATOM     20  C   UNL     1      -0.743   5.591  -1.640  1.00  0.00     0.071 C 
ATOM     21  C   UNL     1      -1.202   4.263  -2.113  1.00  0.00     0.086 A 
ATOM     22  N   UNL     1      -1.953   4.191  -3.216  1.00  0.00    -0.085 NA
ATOM     23  O   UNL     1      -2.226   2.857  -3.397  1.00  0.00    -0.361 OA
ATOM     24  C   UNL     1      -1.642   2.127  -2.413  1.00  0.00     0.139 A 
ATOM     25  C   UNL     1      -1.865   0.671  -2.507  1.00  0.00     0.091 C 
ENDBRANCH  17  19
ENDBRANCH  14  17
ENDBRANCH   8  13
ENDBRANCH   4   7
ENDBRANCH   2   3
ENDBRANCH   1   2
BRANCH   1  26
ATOM     26  C   UNL     1       6.692   6.452   4.362  1.00  0.00     0.118 C 
BRANCH  26  27
ATOM     27  N   UNL     1       6.529   7.496   5.360  1.00  0.00    -0.352 N 
ATOM     28  C   UNL     1       7.108   7.607   6.599  1.00  0.00     0.251 C 
ATOM     29  H   UNL     1       5.916   8.225   5.113  1.00  0.00     0.163 HD
ATOM     30  O   UNL     1       6.667   8.430   7.401  1.00  0.00    -0.269 OA
BRANCH  28  31
ATOM     31  C   UNL     1       8.239   6.730   6.973  1.00  0.00     0.039 A 
ATOM     32  C   UNL     1       8.294   6.206   8.266  1.00  0.00     0.014 A 
ATOM     33  C   UNL     1       9.248   6.429   6.054  1.00  0.00     0.014 A 
ATOM     34  C   UNL     1       9.331   5.338   8.617  1.00  0.00     0.010 A 
ATOM     35  C   UNL     1      10.216   5.483   6.370  1.00  0.00     0.010 A 
ATOM     36  C   UNL     1      10.282   4.942   7.661  1.00  0.00    -0.014 A 
BRANCH  36  37
ATOM     37  C   UNL     1      11.373   3.993   7.998  1.00  0.00     0.031 A 
ATOM     38  C   UNL     1      12.809   4.434   7.890  1.00  0.00     0.074 A 
ATOM     39  C   UNL     1      11.074   2.725   8.348  1.00  0.00     0.049 A 
ATOM     40  N   UNL     1      13.902   3.738   8.065  1.00  0.00    -0.248 NA
ATOM     41  C   UNL     1      13.050   5.836   7.506  1.00  0.00     0.031 C 
ATOM     42  C   UNL     1       9.721   2.169   8.444  1.00  0.00     0.029 A 
ATOM     43  N   UNL     1      11.887   1.672   8.681  1.00  0.00    -0.354 N 
ATOM     44  C   UNL     1      14.953   4.610   7.803  1.00  0.00     0.074 A 
ATOM     45  C   UNL     1      14.369   5.866   7.392  1.00  0.00     0.031 C 
ATOM     46  C   UNL     1       9.798   0.888   8.839  1.00  0.00     0.029 A 
ATOM     47  C   UNL     1      11.202   0.516   8.980  1.00  0.00     0.049 A 
ATOM     48  H   UNL     1      12.869   1.736   8.704  1.00  0.00     0.167 HD
ATOM     49  C   UNL     1      16.284   4.393   7.925  1.00  0.00     0.037 A 
ATOM     50  C   UNL     1      11.656  -0.706   9.321  1.00  0.00     0.037 A 
ATOM     51  C   UNL     1      16.856   3.147   8.363  1.00  0.00     0.049 A 
ATOM     52  C   UNL     1      13.142  -0.925   9.432  1.00  0.00     0.074 A 
ATOM     53  C   UNL     1      18.189   2.837   8.564  1.00  0.00     0.029 A 
ATOM     54  N   UNL     1      16.129   2.007   8.670  1.00  0.00    -0.354 N 
ATOM     55  N   UNL     1      14.119  -0.072   9.234  1.00  0.00    -0.248 NA
ATOM     56  C   UNL     1      13.589  -2.271   9.818  1.00  0.00     0.031 C 
ATOM     57  C   UNL     1      18.272   1.495   8.947  1.00  0.00     0.029 A 
ATOM     58  C   UNL     1      16.986   0.986   9.041  1.00  0.00     0.049 A 
ATOM     59  H   UNL     1      15.148   1.935   8.631  1.00  0.00     0.167 HD
ATOM     60  C   UNL     1      15.292  -0.767   9.505  1.00  0.00     0.074 A 
ATOM     61  C   UNL     1      14.902  -2.107   9.892  1.00  0.00     0.031 C 
ATOM     62  C   UNL     1      16.577  -0.338   9.440  1.00  0.00     0.037 A 
BRANCH  49  63
ATOM     63  C   UNL     1      17.214   5.530   7.597  1.00  0.00     0.058 A 
ATOM     64  C   UNL     1      17.298   6.671   8.412  1.00  0.00     0.135 A 
ATOM     65  C   UNL     1      18.070   5.458   6.486  1.00  0.00     0.135 A 
ATOM     66  F   UNL     1      16.490   6.803   9.477  1.00  0.00    -0.206 F 
ATOM     67  C   UNL     1      18.180   7.707   8.126  1.00  0.00     0.059 A 
ATOM     68  C   UNL     1      18.983   6.469   6.198  1.00  0.00     0.059 A 
ATOM     69  F   UNL     1      18.030   4.393   5.670  1.00  0.00    -0.206 F 
ATOM     70  C   UNL     1      19.022   7.595   7.019  1.00  0.00     0.060 A 
BRANCH  70  71
ATOM     71  S   UNL     1      20.179   8.938   6.681  1.00  0.00     0.124 S 
ATOM     72  O   UNL     1      19.277   9.993   6.229  1.00  0.00    -0.237 OA
ATOM     73  O   UNL     1      20.799   9.150   7.985  1.00  0.00    -0.237 OA
ATOM     74  O   UNL     1      21.056   8.383   5.655  1.00  0.00    -0.744 OA
ENDBRANCH  70  71
ENDBRANCH  49  63
BRANCH  50  75
ATOM     75  C   UNL     1      10.700  -1.813   9.594  1.00  0.00     0.058 A 
ATOM     76  C   UNL     1      10.559  -2.345  10.885  1.00  0.00     0.135 A 
ATOM     77  C   UNL     1       9.918  -2.373   8.571  1.00  0.00     0.135 A 
ATOM     78  F   UNL     1      11.286  -1.848  11.898  1.00  0.00    -0.206 F 
ATOM     79  C   UNL     1       9.703  -3.410  11.148  1.00  0.00     0.059 A 
ATOM     80  C   UNL     1       9.032  -3.417   8.815  1.00  0.00     0.059 A 
ATOM     81  F   UNL     1       9.998  -1.889   7.322  1.00  0.00    -0.206 F 
ATOM     82  C   UNL     1       8.944  -3.940  10.104  1.00  0.00     0.060 A 
BRANCH  82  83
ATOM     83  S   UNL     1       7.821  -5.309  10.458  1.00  0.00     0.124 S 
ATOM     84  O   UNL     1       8.755  -6.411  10.658  1.00  0.00    -0.237 OA
ATOM     85  O   UNL     1       7.126  -4.835  11.650  1.00  0.00    -0.237 OA
ATOM     86  O   UNL     1       7.000  -5.389   9.253  1.00  0.00    -0.744 OA
ENDBRANCH  82  83
ENDBRANCH  50  75
BRANCH  62  87
ATOM     87  C   UNL     1      17.655  -1.307   9.840  1.00  0.00     0.058 A 
ATOM     88  C   UNL     1      17.999  -2.405   9.037  1.00  0.00     0.135 A 
ATOM     89  C   UNL     1      18.393  -1.098  11.017  1.00  0.00     0.135 A 
ATOM     90  F   UNL     1      17.321  -2.653   7.905  1.00  0.00    -0.206 F 
ATOM     91  C   UNL     1      19.022  -3.275   9.397  1.00  0.00     0.059 A 
ATOM     92  C   UNL     1      19.440  -1.937  11.381  1.00  0.00     0.059 A 
ATOM     93  F   UNL     1      18.111  -0.057  11.816  1.00  0.00    -0.206 F 
ATOM     94  C   UNL     1      19.740  -3.030  10.570  1.00  0.00     0.060 A 
BRANCH  94  95
ATOM     95  S   UNL     1      21.091  -4.146  11.004  1.00  0.00     0.124 S 
ATOM     96  O   UNL     1      20.364  -5.341  11.418  1.00  0.00    -0.237 OA
ATOM     97  O   UNL     1      21.823  -4.253   9.745  1.00  0.00    -0.237 OA
ATOM     98  O   UNL     1      21.791  -3.435  12.070  1.00  0.00    -0.744 OA
ENDBRANCH  94  95
ENDBRANCH  62  87
ENDBRANCH  36  37
ENDBRANCH  28  31
ENDBRANCH  26  27
ENDBRANCH   1  26
TORSDOF 16
