REMARK SMILES COC(=O)c1ccc(NC(=O)[C@@H]2CC=CC[C@@H]2C(=O)NCCCNC(=O)c2ccc(-c3c4nc(c(-c5c(F)cc(S(=O)(=O)[O-])cc5F)c5ccc([nH]5)c(-c5c(F)cc(S(=O)(=O)[O-])cc5F)c5nc(c(-c6c(F)cc(S(=O)(=O)[O-])cc6F)c6ccc3[nH]6)C=C5)C=C4)cc2)c(C)c1
REMARK SMILES IDX 21 1 20 2 18 3 19 4 17 6 12 7 13 8 14 9 16 10 15 11 10 12
REMARK SMILES IDX 9 13 11 15 8 16 5 17 6 18 95 19 7 20 93 21 94 22 3 23 4 24
REMARK SMILES IDX 2 25 1 26 22 27 23 28 24 29 25 30 26 32 27 33 28 34 92 35
REMARK SMILES IDX 29 36 91 37 30 38 31 39 32 40 85 41 33 42 90 43 84 44 86 45
REMARK SMILES IDX 34 46 89 47 83 48 82 49 35 51 69 52 48 53 68 54 49 55 52 56
REMARK SMILES IDX 67 57 87 58 50 59 51 60 66 62 88 63 53 64 36 65 37 66 46 67
REMARK SMILES IDX 38 68 39 69 45 70 47 71 40 72 41 73 42 74 43 75 44 76 70 77
REMARK SMILES IDX 71 78 80 79 72 80 73 81 79 82 81 83 74 84 75 85 76 86 77 87
REMARK SMILES IDX 78 88 54 89 55 90 64 91 56 92 57 93 63 94 65 95 58 96 59 97
REMARK SMILES IDX 60 98 61 99 62 100
REMARK H PARENT 20 5 9 14 24 31 86 50 52 61
REMARK Flexibility Score: inf
ROOT
ATOM      1  C   UNL     1       1.774   4.042   2.360  1.00  0.00     0.117 C 
ENDROOT
BRANCH   1   2
ATOM      2  N   UNL     1       2.079   4.478   3.718  1.00  0.00    -0.356 N 
ATOM      3  C   UNL     1       3.210   4.554   4.457  1.00  0.00     0.224 C 
ATOM      4  O   UNL     1       3.086   5.094   5.565  1.00  0.00    -0.275 OA
ATOM      5  H   UNL     1       1.283   4.787   4.207  1.00  0.00     0.163 HD
BRANCH   3   6
ATOM      6  C   UNL     1       4.590   3.980   4.090  1.00  0.00     0.095 C 
ATOM      7  C   UNL     1       5.693   5.068   4.171  1.00  0.00     0.095 C 
ATOM      8  C   UNL     1       5.434   6.106   3.057  1.00  0.00     0.041 C 
ATOM      9  C   UNL     1       5.269   5.435   1.718  1.00  0.00    -0.030 C 
ATOM     10  C   UNL     1       4.833   3.221   2.781  1.00  0.00     0.041 C 
ATOM     11  C   UNL     1       5.043   4.118   1.593  1.00  0.00    -0.030 C 
BRANCH   7  12
ATOM     12  C   UNL     1       5.932   5.734   5.517  1.00  0.00     0.228 C 
ATOM     13  N   UNL     1       6.298   5.050   6.639  1.00  0.00    -0.326 N 
ATOM     14  H   UNL     1       6.395   5.641   7.420  1.00  0.00     0.169 HD
ATOM     15  O   UNL     1       5.867   6.964   5.631  1.00  0.00    -0.274 OA
BRANCH  13  16
ATOM     16  C   UNL     1       6.572   3.704   6.953  1.00  0.00     0.044 A 
ATOM     17  C   UNL     1       6.614   0.972   7.643  1.00  0.00     0.060 A 
ATOM     18  C   UNL     1       6.883   1.365   6.335  1.00  0.00     0.018 A 
ATOM     19  C   UNL     1       6.478   1.952   8.632  1.00  0.00     0.021 A 
ATOM     20  C   UNL     1       6.894   2.727   6.005  1.00  0.00     0.027 A 
ATOM     21  C   UNL     1       6.468   3.317   8.305  1.00  0.00    -0.027 A 
ATOM     22  C   UNL     1       6.236   4.298   9.424  1.00  0.00     0.046 C 
BRANCH  17  23
ATOM     23  C   UNL     1       6.316  -0.457   7.929  1.00  0.00     0.337 C 
ATOM     24  O   UNL     1       6.207  -1.323   7.077  1.00  0.00    -0.246 OA
BRANCH  23  25
ATOM     25  O   UNL     1       6.021  -0.581   9.245  1.00  0.00    -0.465 OA
ATOM     26  C   UNL     1       4.914  -1.429   9.546  1.00  0.00     0.282 C 
ENDBRANCH  23  25
ENDBRANCH  17  23
ENDBRANCH  13  16
ENDBRANCH   7  12
ENDBRANCH   3   6
ENDBRANCH   1   2
BRANCH   1  27
ATOM     27  C   UNL     1       1.626   2.527   2.244  1.00  0.00     0.042 C 
BRANCH  27  28
ATOM     28  C   UNL     1       0.181   2.066   2.204  1.00  0.00     0.118 C 
BRANCH  28  29
ATOM     29  N   UNL     1      -0.237   1.538   0.910  1.00  0.00    -0.352 N 
ATOM     30  C   UNL     1      -1.479   1.009   0.588  1.00  0.00     0.251 C 
ATOM     31  H   UNL     1       0.432   1.559   0.189  1.00  0.00     0.163 HD
ATOM     32  O   UNL     1      -1.695   0.451  -0.470  1.00  0.00    -0.269 OA
BRANCH  30  33
ATOM     33  C   UNL     1      -2.556   1.229   1.577  1.00  0.00     0.039 A 
ATOM     34  C   UNL     1      -3.526   2.187   1.264  1.00  0.00     0.014 A 
ATOM     35  C   UNL     1      -2.381   0.773   2.880  1.00  0.00     0.014 A 
ATOM     36  C   UNL     1      -4.200   2.835   2.296  1.00  0.00     0.010 A 
ATOM     37  C   UNL     1      -2.976   1.487   3.901  1.00  0.00     0.010 A 
ATOM     38  C   UNL     1      -3.853   2.548   3.614  1.00  0.00    -0.014 A 
BRANCH  38  39
ATOM     39  C   UNL     1      -4.290   3.338   4.763  1.00  0.00     0.031 A 
ATOM     40  C   UNL     1      -5.192   2.731   5.774  1.00  0.00     0.074 A 
ATOM     41  C   UNL     1      -3.801   4.579   4.978  1.00  0.00     0.049 A 
ATOM     42  N   UNL     1      -5.836   3.385   6.682  1.00  0.00    -0.248 NA
ATOM     43  C   UNL     1      -5.495   1.306   5.786  1.00  0.00     0.031 C 
ATOM     44  C   UNL     1      -3.801   5.309   6.243  1.00  0.00     0.029 A 
ATOM     45  N   UNL     1      -3.377   5.518   4.042  1.00  0.00    -0.354 N 
ATOM     46  C   UNL     1      -6.377   2.474   7.564  1.00  0.00     0.074 A 
ATOM     47  C   UNL     1      -6.209   1.200   6.908  1.00  0.00     0.031 C 
ATOM     48  C   UNL     1      -3.622   6.614   5.998  1.00  0.00     0.029 A 
ATOM     49  C   UNL     1      -3.659   6.796   4.559  1.00  0.00     0.049 A 
ATOM     50  H   UNL     1      -2.955   5.323   3.174  1.00  0.00     0.167 HD
ATOM     51  C   UNL     1      -6.772   2.901   8.800  1.00  0.00     0.037 A 
ATOM     52  C   UNL     1      -4.500   7.660   3.916  1.00  0.00     0.037 A 
ATOM     53  C   UNL     1      -6.761   4.366   8.873  1.00  0.00     0.049 A 
ATOM     54  C   UNL     1      -5.738   8.031   4.700  1.00  0.00     0.074 A 
ATOM     55  C   UNL     1      -5.876   5.283   9.418  1.00  0.00     0.029 A 
ATOM     56  N   UNL     1      -7.638   5.098   8.076  1.00  0.00    -0.354 N 
ATOM     57  N   UNL     1      -6.135   7.411   5.776  1.00  0.00    -0.248 NA
ATOM     58  C   UNL     1      -6.646   9.112   4.320  1.00  0.00     0.031 C 
ATOM     59  C   UNL     1      -6.190   6.564   8.896  1.00  0.00     0.029 A 
ATOM     60  C   UNL     1      -7.274   6.431   8.046  1.00  0.00     0.049 A 
ATOM     61  H   UNL     1      -8.411   4.718   7.600  1.00  0.00     0.167 HD
ATOM     62  C   UNL     1      -7.335   7.927   6.193  1.00  0.00     0.074 A 
ATOM     63  C   UNL     1      -7.590   9.019   5.273  1.00  0.00     0.031 C 
ATOM     64  C   UNL     1      -8.024   7.391   7.245  1.00  0.00     0.037 A 
BRANCH  51  65
ATOM     65  C   UNL     1      -6.872   2.000  10.029  1.00  0.00     0.058 A 
ATOM     66  C   UNL     1      -6.715   2.535  11.330  1.00  0.00     0.135 A 
ATOM     67  C   UNL     1      -7.018   0.598  10.008  1.00  0.00     0.135 A 
ATOM     68  F   UNL     1      -6.681   3.857  11.546  1.00  0.00    -0.206 F 
ATOM     69  C   UNL     1      -6.579   1.745  12.477  1.00  0.00     0.059 A 
ATOM     70  C   UNL     1      -6.839  -0.218  11.130  1.00  0.00     0.059 A 
ATOM     71  F   UNL     1      -7.409  -0.055   8.911  1.00  0.00    -0.206 F 
ATOM     72  C   UNL     1      -6.599   0.364  12.363  1.00  0.00     0.060 A 
BRANCH  72  73
ATOM     73  S   UNL     1      -6.335  -0.651  13.828  1.00  0.00     0.124 S 
ATOM     74  O   UNL     1      -5.030  -0.189  14.290  1.00  0.00    -0.237 OA
ATOM     75  O   UNL     1      -7.473  -0.284  14.663  1.00  0.00    -0.237 OA
ATOM     76  O   UNL     1      -6.358  -2.015  13.306  1.00  0.00    -0.744 OA
ENDBRANCH  72  73
ENDBRANCH  51  65
BRANCH  52  77
ATOM     77  C   UNL     1      -4.409   7.562   2.434  1.00  0.00     0.058 A 
ATOM     78  C   UNL     1      -3.212   7.998   1.837  1.00  0.00     0.135 A 
ATOM     79  C   UNL     1      -5.204   6.655   1.721  1.00  0.00     0.135 A 
ATOM     80  F   UNL     1      -2.429   8.886   2.472  1.00  0.00    -0.206 F 
ATOM     81  C   UNL     1      -2.723   7.410   0.678  1.00  0.00     0.059 A 
ATOM     82  C   UNL     1      -4.737   6.058   0.549  1.00  0.00     0.059 A 
ATOM     83  F   UNL     1      -6.360   6.215   2.239  1.00  0.00    -0.206 F 
ATOM     84  C   UNL     1      -3.459   6.384   0.089  1.00  0.00     0.060 A 
BRANCH  84  85
ATOM     85  S   UNL     1      -2.617   5.346  -1.129  1.00  0.00     0.124 S 
ATOM     86  O   UNL     1      -2.211   6.321  -2.135  1.00  0.00    -0.237 OA
ATOM     87  O   UNL     1      -1.536   4.779  -0.324  1.00  0.00    -0.237 OA
ATOM     88  O   UNL     1      -3.653   4.406  -1.542  1.00  0.00    -0.744 OA
ENDBRANCH  84  85
ENDBRANCH  52  77
BRANCH  64  89
ATOM     89  C   UNL     1      -9.428   7.760   7.671  1.00  0.00     0.058 A 
ATOM     90  C   UNL     1     -10.431   8.204   6.792  1.00  0.00     0.135 A 
ATOM     91  C   UNL     1      -9.847   7.537   9.006  1.00  0.00     0.135 A 
ATOM     92  F   UNL     1     -10.195   8.346   5.480  1.00  0.00    -0.206 F 
ATOM     93  C   UNL     1     -11.735   8.476   7.216  1.00  0.00     0.059 A 
ATOM     94  C   UNL     1     -11.155   7.749   9.438  1.00  0.00     0.059 A 
ATOM     95  F   UNL     1      -8.994   7.092   9.941  1.00  0.00    -0.206 F 
ATOM     96  C   UNL     1     -12.089   8.245   8.541  1.00  0.00     0.060 A 
BRANCH  96  97
ATOM     97  S   UNL     1     -13.783   8.527   9.090  1.00  0.00     0.124 S 
ATOM     98  O   UNL     1     -13.696   9.883   9.621  1.00  0.00    -0.237 OA
ATOM     99  O   UNL     1     -14.556   8.382   7.860  1.00  0.00    -0.237 OA
ATOM    100  O   UNL     1     -13.989   7.471  10.077  1.00  0.00    -0.744 OA
ENDBRANCH  96  97
ENDBRANCH  64  89
ENDBRANCH  38  39
ENDBRANCH  30  33
ENDBRANCH  28  29
ENDBRANCH  27  28
ENDBRANCH   1  27
TORSDOF 17
