REMARK SMILES Cc1nonc1C[C@@H](C(=O)NCCCNC(=O)c1ccc(-c2c3nc(c(-c4c(F)cc(S(=O)(=O)[O-])cc4F)c4ccc([nH]4)c(-c4c(F)cc(S(=O)(=O)[O-])cc4F)c4nc(c(-c5c(F)cc(S(=O)(=O)[O-])cc5F)c5ccc2[nH]5)C=C4)C=C3)cc1)c1ccccc1Br
REMARK SMILES IDX 13 1 12 2 11 3 9 4 10 5 8 7 7 8 6 9 1 10 2 11 3 12 4 13 5 14
REMARK SMILES IDX 84 15 85 16 89 17 86 18 88 19 90 20 87 21 14 22 15 23 16 24
REMARK SMILES IDX 17 26 18 27 19 28 83 29 20 30 82 31 21 32 22 33 23 34 76 35
REMARK SMILES IDX 24 36 81 37 75 38 77 39 25 40 80 41 74 42 73 43 26 45 60 46
REMARK SMILES IDX 39 47 59 48 40 49 43 50 58 51 78 52 41 53 42 54 57 56 79 57
REMARK SMILES IDX 44 58 27 59 28 60 37 61 29 62 30 63 36 64 38 65 31 66 32 67
REMARK SMILES IDX 33 68 34 69 35 70 61 71 62 72 71 73 63 74 64 75 70 76 72 77
REMARK SMILES IDX 65 78 66 79 67 80 68 81 69 82 45 83 46 84 55 85 47 86 48 87
REMARK SMILES IDX 54 88 56 89 49 90 50 91 51 92 52 93 53 94
REMARK H PARENT 11 6 15 25 77 44 43 55
REMARK Flexibility Score: inf
ROOT
ATOM      1  C   UNL     1      -2.365  -0.326  -0.643  1.00  0.00     0.042 C 
ENDROOT
BRANCH   1   2
ATOM      2  C   UNL     1      -1.968   0.808  -1.590  1.00  0.00     0.117 C 
BRANCH   2   3
ATOM      3  N   UNL     1      -2.357   2.091  -1.023  1.00  0.00    -0.355 N 
ATOM      4  C   UNL     1      -1.612   3.080  -0.449  1.00  0.00     0.227 C 
ATOM      5  O   UNL     1      -2.203   3.871   0.293  1.00  0.00    -0.274 OA
ATOM      6  H   UNL     1      -3.323   2.277  -1.059  1.00  0.00     0.163 HD
BRANCH   4   7
ATOM      7  C   UNL     1      -0.123   3.264  -0.799  1.00  0.00     0.116 C 
BRANCH   7   8
ATOM      8  C   UNL     1       0.707   2.774   0.415  1.00  0.00     0.080 C 
BRANCH   8   9
ATOM      9  C   UNL     1       0.670   1.326   0.743  1.00  0.00     0.109 A 
ATOM     10  C   UNL     1       2.761   0.316  -0.477  1.00  0.00     0.073 C 
ATOM     11  C   UNL     1       1.549   0.289   0.367  1.00  0.00     0.105 A 
ATOM     12  N   UNL     1       1.169  -0.847   0.954  1.00  0.00    -0.055 NA
ATOM     13  O   UNL     1       0.099  -0.495   1.766  1.00  0.00    -0.244 OA
ATOM     14  N   UNL     1      -0.198   0.858   1.642  1.00  0.00    -0.055 NA
ENDBRANCH   8   9
ENDBRANCH   7   8
BRANCH   7  15
ATOM     15  C   UNL     1       0.164   4.762  -1.140  1.00  0.00    -0.021 A 
ATOM     16  C   UNL     1       1.268   5.436  -0.566  1.00  0.00     0.006 A 
ATOM     17  C   UNL     1      -0.662   5.539  -1.985  1.00  0.00     0.021 A 
ATOM     18  C   UNL     1       1.471   6.811  -0.720  1.00  0.00     0.000 A 
ATOM     19  C   UNL     1      -0.480   6.929  -2.100  1.00  0.00     0.016 A 
ATOM     20  Br  UNL     1      -2.025   4.813  -3.099  1.00  0.00    -0.051 Br
ATOM     21  C   UNL     1       0.573   7.566  -1.455  1.00  0.00     0.001 A 
ENDBRANCH   7  15
ENDBRANCH   4   7
ENDBRANCH   2   3
ENDBRANCH   1   2
BRANCH   1  22
ATOM     22  C   UNL     1      -3.869  -0.562  -0.548  1.00  0.00     0.118 C 
BRANCH  22  23
ATOM     23  N   UNL     1      -4.316  -1.612  -1.443  1.00  0.00    -0.352 N 
ATOM     24  C   UNL     1      -4.608  -2.935  -1.215  1.00  0.00     0.251 C 
ATOM     25  H   UNL     1      -4.431  -1.327  -2.378  1.00  0.00     0.163 HD
ATOM     26  O   UNL     1      -4.749  -3.665  -2.196  1.00  0.00    -0.269 OA
BRANCH  24  27
ATOM     27  C   UNL     1      -4.747  -3.515   0.150  1.00  0.00     0.039 A 
ATOM     28  C   UNL     1      -4.410  -4.864   0.325  1.00  0.00     0.014 A 
ATOM     29  C   UNL     1      -5.300  -2.819   1.228  1.00  0.00     0.014 A 
ATOM     30  C   UNL     1      -4.614  -5.496   1.558  1.00  0.00     0.010 A 
ATOM     31  C   UNL     1      -5.412  -3.423   2.486  1.00  0.00     0.010 A 
ATOM     32  C   UNL     1      -5.109  -4.781   2.659  1.00  0.00    -0.014 A 
BRANCH  32  33
ATOM     33  C   UNL     1      -5.378  -5.463   3.958  1.00  0.00     0.031 A 
ATOM     34  C   UNL     1      -6.785  -5.535   4.508  1.00  0.00     0.074 A 
ATOM     35  C   UNL     1      -4.366  -6.013   4.658  1.00  0.00     0.049 A 
ATOM     36  N   UNL     1      -7.214  -6.079   5.620  1.00  0.00    -0.248 NA
ATOM     37  C   UNL     1      -7.844  -4.888   3.717  1.00  0.00     0.031 C 
ATOM     38  C   UNL     1      -2.953  -5.974   4.276  1.00  0.00     0.029 A 
ATOM     39  N   UNL     1      -4.369  -6.718   5.837  1.00  0.00    -0.354 N 
ATOM     40  C   UNL     1      -8.580  -5.819   5.672  1.00  0.00     0.074 A 
ATOM     41  C   UNL     1      -8.900  -5.024   4.506  1.00  0.00     0.031 C 
ATOM     42  C   UNL     1      -2.232  -6.654   5.183  1.00  0.00     0.029 A 
ATOM     43  C   UNL     1      -3.124  -7.155   6.225  1.00  0.00     0.049 A 
ATOM     44  H   UNL     1      -5.187  -6.894   6.356  1.00  0.00     0.167 HD
ATOM     45  C   UNL     1      -9.494  -6.224   6.588  1.00  0.00     0.037 A 
ATOM     46  C   UNL     1      -2.743  -7.884   7.292  1.00  0.00     0.037 A 
ATOM     47  C   UNL     1      -9.190  -7.055   7.724  1.00  0.00     0.049 A 
ATOM     48  C   UNL     1      -3.781  -8.369   8.267  1.00  0.00     0.074 A 
ATOM     49  C   UNL     1     -10.056  -7.563   8.677  1.00  0.00     0.029 A 
ATOM     50  N   UNL     1      -7.923  -7.510   8.055  1.00  0.00    -0.354 N 
ATOM     51  N   UNL     1      -5.075  -8.154   8.270  1.00  0.00    -0.248 NA
ATOM     52  C   UNL     1      -3.309  -9.212   9.375  1.00  0.00     0.031 C 
ATOM     53  C   UNL     1      -9.308  -8.306   9.599  1.00  0.00     0.029 A 
ATOM     54  C   UNL     1      -7.982  -8.290   9.198  1.00  0.00     0.049 A 
ATOM     55  H   UNL     1      -7.101  -7.308   7.552  1.00  0.00     0.167 HD
ATOM     56  C   UNL     1      -5.574  -8.854   9.362  1.00  0.00     0.074 A 
ATOM     57  C   UNL     1      -4.446  -9.512   9.988  1.00  0.00     0.031 C 
ATOM     58  C   UNL     1      -6.853  -8.945   9.807  1.00  0.00     0.037 A 
BRANCH  45  59
ATOM     59  C   UNL     1     -10.920  -5.783   6.388  1.00  0.00     0.058 A 
ATOM     60  C   UNL     1     -11.715  -6.304   5.354  1.00  0.00     0.135 A 
ATOM     61  C   UNL     1     -11.508  -4.846   7.254  1.00  0.00     0.135 A 
ATOM     62  F   UNL     1     -11.200  -7.192   4.489  1.00  0.00    -0.206 F 
ATOM     63  C   UNL     1     -13.028  -5.886   5.163  1.00  0.00     0.059 A 
ATOM     64  C   UNL     1     -12.829  -4.434   7.098  1.00  0.00     0.059 A 
ATOM     65  F   UNL     1     -10.796  -4.317   8.262  1.00  0.00    -0.206 F 
ATOM     66  C   UNL     1     -13.575  -4.946   6.037  1.00  0.00     0.060 A 
BRANCH  66  67
ATOM     67  S   UNL     1     -15.279  -4.409   5.774  1.00  0.00     0.124 S 
ATOM     68  O   UNL     1     -15.127  -3.511   4.634  1.00  0.00    -0.237 OA
ATOM     69  O   UNL     1     -15.967  -5.667   5.502  1.00  0.00    -0.237 OA
ATOM     70  O   UNL     1     -15.631  -3.767   7.037  1.00  0.00    -0.744 OA
ENDBRANCH  66  67
ENDBRANCH  45  59
BRANCH  46  71
ATOM     71  C   UNL     1      -1.310  -8.241   7.472  1.00  0.00     0.058 A 
ATOM     72  C   UNL     1      -0.862  -9.554   7.259  1.00  0.00     0.135 A 
ATOM     73  C   UNL     1      -0.361  -7.279   7.849  1.00  0.00     0.135 A 
ATOM     74  F   UNL     1      -1.734 -10.510   6.905  1.00  0.00    -0.206 F 
ATOM     75  C   UNL     1       0.472  -9.906   7.429  1.00  0.00     0.059 A 
ATOM     76  C   UNL     1       0.984  -7.602   8.003  1.00  0.00     0.059 A 
ATOM     77  F   UNL     1      -0.737  -6.007   8.049  1.00  0.00    -0.206 F 
ATOM     78  C   UNL     1       1.389  -8.921   7.801  1.00  0.00     0.060 A 
BRANCH  78  79
ATOM     79  S   UNL     1       3.130  -9.375   7.970  1.00  0.00     0.124 S 
ATOM     80  O   UNL     1       3.128 -10.072   9.250  1.00  0.00    -0.237 OA
ATOM     81  O   UNL     1       3.349 -10.206   6.790  1.00  0.00    -0.237 OA
ATOM     82  O   UNL     1       3.815  -8.085   7.953  1.00  0.00    -0.744 OA
ENDBRANCH  78  79
ENDBRANCH  46  71
BRANCH  58  83
ATOM     83  C   UNL     1      -7.101  -9.818  11.006  1.00  0.00     0.058 A 
ATOM     84  C   UNL     1      -6.709  -9.430  12.297  1.00  0.00     0.135 A 
ATOM     85  C   UNL     1      -7.752 -11.054  10.861  1.00  0.00     0.135 A 
ATOM     86  F   UNL     1      -6.081  -8.259  12.489  1.00  0.00    -0.206 F 
ATOM     87  C   UNL     1      -6.917 -10.256  13.397  1.00  0.00     0.059 A 
ATOM     88  C   UNL     1      -7.992 -11.884  11.952  1.00  0.00     0.059 A 
ATOM     89  F   UNL     1      -8.160 -11.466   9.651  1.00  0.00    -0.206 F 
ATOM     90  C   UNL     1      -7.552 -11.485  13.213  1.00  0.00     0.060 A 
BRANCH  90  91
ATOM     91  S   UNL     1      -7.814 -12.553  14.645  1.00  0.00     0.124 S 
ATOM     92  O   UNL     1      -6.488 -13.134  14.823  1.00  0.00    -0.237 OA
ATOM     93  O   UNL     1      -8.234 -11.607  15.674  1.00  0.00    -0.237 OA
ATOM     94  O   UNL     1      -8.850 -13.477  14.193  1.00  0.00    -0.744 OA
ENDBRANCH  90  91
ENDBRANCH  58  83
ENDBRANCH  32  33
ENDBRANCH  24  27
ENDBRANCH  22  23
ENDBRANCH   1  22
TORSDOF 16
