REMARK SMILES C[N@H+]1C[C@@H](Oc2cccc3cccnc23)C[C@H]1C(=O)NCCCNC(=O)c1ccc(-c2c3nc(c(-c4c(F)cc(S(=O)(=O)[O-])cc4F)c4ccc([nH]4)c(-c4c(F)cc(S(=O)(=O)[O-])cc4F)c4nc(c(-c5c(F)cc(S(=O)(=O)[O-])cc5F)c5ccc2[nH]5)C=C4)C=C3)cc1
REMARK SMILES IDX 22 1 21 2 20 3 18 4 19 5 17 7 1 8 2 9 3 10 4 12 16 13 5 14
REMARK SMILES IDX 6 15 7 16 15 17 8 18 10 19 14 20 9 21 11 22 13 23 12 24
REMARK SMILES IDX 23 25 24 26 25 27 26 29 27 30 28 31 92 32 29 33 91 34 30 35
REMARK SMILES IDX 31 36 32 37 85 38 33 39 90 40 84 41 86 42 34 43 89 44 83 45
REMARK SMILES IDX 82 46 35 48 69 49 48 50 68 51 49 52 52 53 67 54 87 55 50 56
REMARK SMILES IDX 51 57 66 59 88 60 53 61 36 62 37 63 46 64 38 65 39 66 45 67
REMARK SMILES IDX 47 68 40 69 41 70 42 71 43 72 44 73 70 74 71 75 80 76 72 77
REMARK SMILES IDX 73 78 79 79 81 80 74 81 75 82 76 83 77 84 78 85 54 86 55 87
REMARK SMILES IDX 64 88 56 89 57 90 63 91 65 92 58 93 59 94 60 95 61 96 62 97
REMARK H PARENT 20 6 2 11 24 28 86 47 52 58
REMARK Flexibility Score: inf
ROOT
ATOM      1  C   UNL     1      -0.949   1.655   3.111  1.00  0.00     0.042 C 
ENDROOT
BRANCH   1   2
ATOM      2  C   UNL     1      -0.132   0.398   2.857  1.00  0.00     0.118 C 
BRANCH   2   3
ATOM      3  N   UNL     1      -0.881  -0.774   2.489  1.00  0.00    -0.351 N 
ATOM      4  C   UNL     1      -0.786  -1.551   1.375  1.00  0.00     0.278 C 
ATOM      5  O   UNL     1      -1.211  -2.709   1.503  1.00  0.00    -0.268 OA
ATOM      6  H   UNL     1      -1.564  -1.056   3.140  1.00  0.00     0.163 HD
BRANCH   4   7
ATOM      7  C   UNL     1      -0.164  -1.131   0.018  1.00  0.00     0.278 C 
ATOM      8  C   UNL     1      -1.912   0.572  -0.431  1.00  0.00     0.333 C 
ATOM      9  N   UNL     1      -0.535   0.162  -0.553  1.00  0.00    -0.324 N 
ATOM     10  C   UNL     1       0.523   1.144  -0.339  1.00  0.00     0.308 C 
ATOM     11  H   UNL     1      -0.576   0.044  -1.565  1.00  0.00     0.348 HD
ATOM     12  C   UNL     1       1.816   0.298  -0.251  1.00  0.00     0.234 C 
ATOM     13  C   UNL     1       1.357  -1.153  -0.041  1.00  0.00     0.126 C 
BRANCH  12  14
ATOM     14  O   UNL     1       2.898   0.851   0.521  1.00  0.00    -0.482 OA
BRANCH  14  15
ATOM     15  C   UNL     1       3.029   0.650   1.873  1.00  0.00     0.146 A 
ATOM     16  C   UNL     1       3.325  -0.622   2.379  1.00  0.00     0.049 A 
ATOM     17  C   UNL     1       3.014   1.768   2.731  1.00  0.00     0.112 A 
ATOM     18  C   UNL     1       3.438  -0.841   3.749  1.00  0.00     0.005 A 
ATOM     19  C   UNL     1       3.202   1.535   4.118  1.00  0.00     0.004 A 
ATOM     20  N   UNL     1       2.819   3.025   2.267  1.00  0.00    -0.252 NA
ATOM     21  C   UNL     1       3.368   0.237   4.620  1.00  0.00     0.010 A 
ATOM     22  C   UNL     1       3.225   2.626   4.993  1.00  0.00     0.012 A 
ATOM     23  C   UNL     1       2.854   4.056   3.145  1.00  0.00     0.112 A 
ATOM     24  C   UNL     1       3.059   3.911   4.501  1.00  0.00     0.021 A 
ENDBRANCH  14  15
ENDBRANCH  12  14
ENDBRANCH   4   7
ENDBRANCH   2   3
ENDBRANCH   1   2
BRANCH   1  25
ATOM     25  C   UNL     1      -1.485   1.749   4.530  1.00  0.00     0.118 C 
BRANCH  25  26
ATOM     26  N   UNL     1      -0.425   1.865   5.528  1.00  0.00    -0.352 N 
ATOM     27  C   UNL     1      -0.111   2.898   6.377  1.00  0.00     0.251 C 
ATOM     28  H   UNL     1       0.158   1.075   5.606  1.00  0.00     0.163 HD
ATOM     29  O   UNL     1       0.899   2.844   7.070  1.00  0.00    -0.269 OA
BRANCH  27  30
ATOM     30  C   UNL     1      -0.990   4.078   6.460  1.00  0.00     0.039 A 
ATOM     31  C   UNL     1      -0.427   5.359   6.457  1.00  0.00     0.014 A 
ATOM     32  C   UNL     1      -2.368   3.910   6.590  1.00  0.00     0.014 A 
ATOM     33  C   UNL     1      -1.256   6.479   6.545  1.00  0.00     0.010 A 
ATOM     34  C   UNL     1      -3.196   5.020   6.597  1.00  0.00     0.010 A 
ATOM     35  C   UNL     1      -2.646   6.312   6.604  1.00  0.00    -0.014 A 
BRANCH  35  36
ATOM     36  C   UNL     1      -3.579   7.444   6.789  1.00  0.00     0.031 A 
ATOM     37  C   UNL     1      -4.377   7.498   8.061  1.00  0.00     0.074 A 
ATOM     38  C   UNL     1      -3.808   8.308   5.785  1.00  0.00     0.049 A 
ATOM     39  N   UNL     1      -5.448   8.189   8.343  1.00  0.00    -0.248 NA
ATOM     40  C   UNL     1      -3.936   6.599   9.141  1.00  0.00     0.031 C 
ATOM     41  C   UNL     1      -3.107   8.321   4.501  1.00  0.00     0.029 A 
ATOM     42  N   UNL     1      -4.729   9.316   5.676  1.00  0.00    -0.354 N 
ATOM     43  C   UNL     1      -5.847   7.760   9.604  1.00  0.00     0.074 A 
ATOM     44  C   UNL     1      -4.919   6.731  10.018  1.00  0.00     0.031 C 
ATOM     45  C   UNL     1      -3.632   9.285   3.726  1.00  0.00     0.029 A 
ATOM     46  C   UNL     1      -4.731   9.924   4.444  1.00  0.00     0.049 A 
ATOM     47  H   UNL     1      -5.331   9.580   6.409  1.00  0.00     0.167 HD
ATOM     48  C   UNL     1      -6.892   8.194  10.348  1.00  0.00     0.037 A 
ATOM     49  C   UNL     1      -5.550  10.870   3.946  1.00  0.00     0.037 A 
ATOM     50  C   UNL     1      -7.766   9.257   9.933  1.00  0.00     0.049 A 
ATOM     51  C   UNL     1      -6.655  11.398   4.817  1.00  0.00     0.074 A 
ATOM     52  C   UNL     1      -8.819   9.831  10.620  1.00  0.00     0.029 A 
ATOM     53  N   UNL     1      -7.671   9.920   8.715  1.00  0.00    -0.354 N 
ATOM     54  N   UNL     1      -7.018  11.000   6.015  1.00  0.00    -0.248 NA
ATOM     55  C   UNL     1      -7.458  12.502   4.278  1.00  0.00     0.031 C 
ATOM     56  C   UNL     1      -9.371  10.833   9.811  1.00  0.00     0.029 A 
ATOM     57  C   UNL     1      -8.642  10.901   8.632  1.00  0.00     0.049 A 
ATOM     58  H   UNL     1      -7.009   9.720   8.014  1.00  0.00     0.167 HD
ATOM     59  C   UNL     1      -8.083  11.813   6.381  1.00  0.00     0.074 A 
ATOM     60  C   UNL     1      -8.297  12.734   5.280  1.00  0.00     0.031 C 
ATOM     61  C   UNL     1      -8.820  11.803   7.520  1.00  0.00     0.037 A 
BRANCH  48  62
ATOM     62  C   UNL     1      -7.134   7.501  11.661  1.00  0.00     0.058 A 
ATOM     63  C   UNL     1      -6.248   7.634  12.743  1.00  0.00     0.135 A 
ATOM     64  C   UNL     1      -8.242   6.655  11.826  1.00  0.00     0.135 A 
ATOM     65  F   UNL     1      -5.162   8.415  12.634  1.00  0.00    -0.206 F 
ATOM     66  C   UNL     1      -6.418   6.909  13.918  1.00  0.00     0.059 A 
ATOM     67  C   UNL     1      -8.449   5.943  13.005  1.00  0.00     0.059 A 
ATOM     68  F   UNL     1      -9.123   6.489  10.827  1.00  0.00    -0.206 F 
ATOM     69  C   UNL     1      -7.516   6.055  14.035  1.00  0.00     0.060 A 
BRANCH  69  70
ATOM     70  S   UNL     1      -7.703   5.082  15.544  1.00  0.00     0.124 S 
ATOM     71  O   UNL     1      -6.751   4.000  15.309  1.00  0.00    -0.237 OA
ATOM     72  O   UNL     1      -7.331   6.035  16.585  1.00  0.00    -0.237 OA
ATOM     73  O   UNL     1      -9.110   4.697  15.525  1.00  0.00    -0.744 OA
ENDBRANCH  69  70
ENDBRANCH  48  62
BRANCH  49  74
ATOM     74  C   UNL     1      -5.321  11.384   2.571  1.00  0.00     0.058 A 
ATOM     75  C   UNL     1      -4.716  12.632   2.368  1.00  0.00     0.135 A 
ATOM     76  C   UNL     1      -5.620  10.608   1.440  1.00  0.00     0.135 A 
ATOM     77  F   UNL     1      -4.417  13.411   3.419  1.00  0.00    -0.206 F 
ATOM     78  C   UNL     1      -4.405  13.092   1.092  1.00  0.00     0.059 A 
ATOM     79  C   UNL     1      -5.302  11.039   0.155  1.00  0.00     0.059 A 
ATOM     80  F   UNL     1      -6.182   9.398   1.585  1.00  0.00    -0.206 F 
ATOM     81  C   UNL     1      -4.692  12.283  -0.008  1.00  0.00     0.060 A 
BRANCH  81  82
ATOM     82  S   UNL     1      -4.184  12.842  -1.650  1.00  0.00     0.124 S 
ATOM     83  O   UNL     1      -5.177  13.872  -1.931  1.00  0.00    -0.237 OA
ATOM     84  O   UNL     1      -2.825  13.316  -1.405  1.00  0.00    -0.237 OA
ATOM     85  O   UNL     1      -4.279  11.632  -2.460  1.00  0.00    -0.744 OA
ENDBRANCH  81  82
ENDBRANCH  49  74
BRANCH  61  86
ATOM     86  C   UNL     1      -9.905  12.832   7.639  1.00  0.00     0.058 A 
ATOM     87  C   UNL     1     -11.126  12.690   6.965  1.00  0.00     0.135 A 
ATOM     88  C   UNL     1      -9.739  13.941   8.484  1.00  0.00     0.135 A 
ATOM     89  F   UNL     1     -11.327  11.648   6.143  1.00  0.00    -0.206 F 
ATOM     90  C   UNL     1     -12.145  13.623   7.112  1.00  0.00     0.059 A 
ATOM     91  C   UNL     1     -10.752  14.876   8.661  1.00  0.00     0.059 A 
ATOM     92  F   UNL     1      -8.590  14.113   9.157  1.00  0.00    -0.206 F 
ATOM     93  C   UNL     1     -11.949  14.713   7.963  1.00  0.00     0.060 A 
BRANCH  93  94
ATOM     94  S   UNL     1     -13.291  15.901   8.177  1.00  0.00     0.124 S 
ATOM     95  O   UNL     1     -13.189  16.682   6.949  1.00  0.00    -0.237 OA
ATOM     96  O   UNL     1     -14.463  15.036   8.283  1.00  0.00    -0.237 OA
ATOM     97  O   UNL     1     -12.927  16.605   9.403  1.00  0.00    -0.744 OA
ENDBRANCH  93  94
ENDBRANCH  61  86
ENDBRANCH  35  36
ENDBRANCH  27  30
ENDBRANCH  25  26
ENDBRANCH   1  25
TORSDOF 15
