REMARK SMILES Cc1ccc(-c2cc(C(=O)NCCCNC(=O)c3ccc(-c4c5nc(c(-c6c(F)cc(S(=O)(=O)[O-])cc6F)c6ccc([nH]6)c(-c6c(F)cc(S(=O)(=O)[O-])cc6F)c6nc(c(-c7c(F)cc(S(=O)(=O)[O-])cc7F)c7ccc4[nH]7)C=C6)C=C5)cc3)c3c(-c4cccc([N+](=O)[O-])c4)[nH]nc3n2)cc1
REMARK SMILES IDX 13 1 12 2 11 3 9 4 10 5 8 7 6 8 7 9 98 10 97 11 84 12 96 13
REMARK SMILES IDX 85 14 95 15 5 17 1 18 2 19 3 20 100 21 4 22 99 23 86 24
REMARK SMILES IDX 87 25 94 26 88 27 90 28 89 29 91 30 92 31 93 32 14 33 15 34
REMARK SMILES IDX 16 35 17 37 18 38 19 39 83 40 20 41 82 42 21 43 22 44 23 45
REMARK SMILES IDX 76 46 24 47 81 48 75 49 77 50 25 51 80 52 74 53 73 54 26 56
REMARK SMILES IDX 60 57 39 58 59 59 40 60 43 61 58 62 78 63 41 64 42 65 57 67
REMARK SMILES IDX 79 68 44 69 27 70 28 71 37 72 29 73 30 74 36 75 38 76 31 77
REMARK SMILES IDX 32 78 33 79 34 80 35 81 61 82 62 83 71 84 63 85 64 86 70 87
REMARK SMILES IDX 72 88 65 89 66 90 67 91 68 92 69 93 45 94 46 95 55 96 47 97
REMARK SMILES IDX 48 98 54 99 56 100 49 101 50 102 51 103 52 104 53 105
REMARK H PARENT 11 6 95 16 15 36 77 55 43 66
REMARK Flexibility Score: inf
ROOT
ATOM      1  C   UNL     1      -1.951   2.597  -3.513  1.00  0.00     0.042 C 
ENDROOT
BRANCH   1   2
ATOM      2  C   UNL     1      -3.134   2.845  -2.444  1.00  0.00     0.118 C 
BRANCH   2   3
ATOM      3  N   UNL     1      -4.496   2.307  -2.708  1.00  0.00    -0.352 N 
ATOM      4  C   UNL     1      -5.470   1.517  -2.111  1.00  0.00     0.252 C 
ATOM      5  O   UNL     1      -6.630   1.586  -2.506  1.00  0.00    -0.269 OA
ATOM      6  H   UNL     1      -4.808   2.608  -3.591  1.00  0.00     0.163 HD
BRANCH   4   7
ATOM      7  C   UNL     1      -5.152   0.583  -1.028  1.00  0.00     0.055 A 
ATOM      8  C   UNL     1      -3.355  -0.451   0.272  1.00  0.00     0.074 A 
ATOM      9  C   UNL     1      -3.841   0.151  -0.902  1.00  0.00     0.043 A 
ATOM     10  N   UNL     1      -4.099  -0.901   1.318  1.00  0.00    -0.226 NA
ATOM     11  C   UNL     1      -5.432  -0.717   1.115  1.00  0.00     0.182 A 
ATOM     12  C   UNL     1      -5.957   0.004  -0.025  1.00  0.00     0.059 A 
ATOM     13  N   UNL     1      -6.399  -1.129   1.936  1.00  0.00    -0.154 NA
ATOM     14  C   UNL     1      -7.334  -0.070   0.126  1.00  0.00     0.076 A 
ATOM     15  N   UNL     1      -7.523  -0.751   1.308  1.00  0.00    -0.275 N 
ATOM     16  H   UNL     1      -8.419  -0.946   1.666  1.00  0.00     0.190 HD
BRANCH   8  17
ATOM     17  C   UNL     1      -1.901  -0.412   0.430  1.00  0.00     0.000 A 
ATOM     18  C   UNL     1       2.374  -0.084   0.009  1.00  0.00     0.044 C 
ATOM     19  C   UNL     1       0.894  -0.192   0.210  1.00  0.00    -0.051 A 
ATOM     20  C   UNL     1       0.273  -1.450   0.245  1.00  0.00     0.004 A 
ATOM     21  C   UNL     1       0.116   0.959   0.337  1.00  0.00     0.004 A 
ATOM     22  C   UNL     1      -1.116  -1.562   0.353  1.00  0.00     0.010 A 
ATOM     23  C   UNL     1      -1.263   0.845   0.463  1.00  0.00     0.010 A 
ENDBRANCH   8  17
BRANCH  14  24
ATOM     24  C   UNL     1      -8.479   0.308  -0.694  1.00  0.00     0.007 A 
ATOM     25  C   UNL     1      -9.329   1.345  -0.285  1.00  0.00     0.011 A 
ATOM     26  C   UNL     1      -8.717  -0.338  -1.915  1.00  0.00     0.096 A 
ATOM     27  C   UNL     1     -10.357   1.793  -1.121  1.00  0.00     0.008 A 
ATOM     28  C   UNL     1      -9.729   0.135  -2.761  1.00  0.00     0.270 A 
ATOM     29  C   UNL     1     -10.548   1.203  -2.370  1.00  0.00     0.085 A 
BRANCH  28  30
ATOM     30  N   UNL     1      -9.932  -0.494  -4.072  1.00  0.00     0.062 N 
ATOM     31  O   UNL     1     -10.800  -0.006  -4.813  1.00  0.00    -0.258 OA
ATOM     32  O   UNL     1      -9.287  -1.521  -4.326  1.00  0.00    -0.258 OA
ENDBRANCH  28  30
ENDBRANCH  14  24
ENDBRANCH   4   7
ENDBRANCH   2   3
ENDBRANCH   1   2
BRANCH   1  33
ATOM     33  C   UNL     1      -1.761   3.713  -4.643  1.00  0.00     0.118 C 
BRANCH  33  34
ATOM     34  N   UNL     1      -0.723   3.631  -5.812  1.00  0.00    -0.352 N 
ATOM     35  C   UNL     1      -0.674   4.147  -7.168  1.00  0.00     0.251 C 
ATOM     36  H   UNL     1       0.079   3.111  -5.573  1.00  0.00     0.163 HD
ATOM     37  O   UNL     1       0.113   5.097  -7.321  1.00  0.00    -0.269 OA
BRANCH  35  38
ATOM     38  C   UNL     1      -1.357   3.657  -8.507  1.00  0.00     0.039 A 
ATOM     39  C   UNL     1      -1.750   4.600  -9.512  1.00  0.00     0.014 A 
ATOM     40  C   UNL     1      -1.780   2.362  -8.784  1.00  0.00     0.014 A 
ATOM     41  C   UNL     1      -2.900   4.360 -10.369  1.00  0.00     0.010 A 
ATOM     42  C   UNL     1      -2.923   2.126  -9.618  1.00  0.00     0.010 A 
ATOM     43  C   UNL     1      -3.632   3.166 -10.245  1.00  0.00    -0.014 A 
BRANCH  43  44
ATOM     44  C   UNL     1      -5.142   3.041 -10.457  1.00  0.00     0.031 A 
ATOM     45  C   UNL     1      -5.719   2.368 -11.620  1.00  0.00     0.074 A 
ATOM     46  C   UNL     1      -6.137   3.320  -9.559  1.00  0.00     0.049 A 
ATOM     47  N   UNL     1      -6.767   2.767 -12.268  1.00  0.00    -0.248 NA
ATOM     48  C   UNL     1      -5.196   1.090 -12.050  1.00  0.00     0.031 C 
ATOM     49  C   UNL     1      -7.590   3.072  -9.519  1.00  0.00     0.029 A 
ATOM     50  N   UNL     1      -6.007   3.886  -8.318  1.00  0.00    -0.354 N 
ATOM     51  C   UNL     1      -7.261   1.646 -12.904  1.00  0.00     0.074 A 
ATOM     52  C   UNL     1      -6.146   0.716 -12.909  1.00  0.00     0.031 C 
ATOM     53  C   UNL     1      -8.162   3.827  -8.551  1.00  0.00     0.029 A 
ATOM     54  C   UNL     1      -7.124   4.635  -7.953  1.00  0.00     0.049 A 
ATOM     55  H   UNL     1      -5.213   3.776  -7.747  1.00  0.00     0.167 HD
ATOM     56  C   UNL     1      -8.605   1.484 -13.136  1.00  0.00     0.037 A 
ATOM     57  C   UNL     1      -6.988   5.997  -7.851  1.00  0.00     0.037 A 
ATOM     58  C   UNL     1      -9.421   2.533 -12.477  1.00  0.00     0.049 A 
ATOM     59  C   UNL     1      -7.647   6.644  -9.055  1.00  0.00     0.074 A 
ATOM     60  C   UNL     1     -10.372   2.551 -11.461  1.00  0.00     0.029 A 
ATOM     61  N   UNL     1      -9.096   3.867 -12.666  1.00  0.00    -0.354 N 
ATOM     62  N   UNL     1      -8.530   6.018  -9.783  1.00  0.00    -0.248 NA
ATOM     63  C   UNL     1      -7.356   7.972  -9.597  1.00  0.00     0.031 C 
ATOM     64  C   UNL     1     -10.595   3.908 -11.056  1.00  0.00     0.029 A 
ATOM     65  C   UNL     1      -9.802   4.724 -11.840  1.00  0.00     0.049 A 
ATOM     66  H   UNL     1      -8.429   4.174 -13.322  1.00  0.00     0.167 HD
ATOM     67  C   UNL     1      -8.792   6.711 -10.925  1.00  0.00     0.074 A 
ATOM     68  C   UNL     1      -8.090   7.970 -10.730  1.00  0.00     0.031 C 
ATOM     69  C   UNL     1      -9.525   6.158 -11.942  1.00  0.00     0.037 A 
BRANCH  56  70
ATOM     70  C   UNL     1      -9.197   0.206 -13.738  1.00  0.00     0.058 A 
ATOM     71  C   UNL     1     -10.566  -0.120 -13.630  1.00  0.00     0.135 A 
ATOM     72  C   UNL     1      -8.455  -0.729 -14.496  1.00  0.00     0.135 A 
ATOM     73  F   UNL     1     -11.448   0.729 -13.086  1.00  0.00    -0.206 F 
ATOM     74  C   UNL     1     -11.116  -1.312 -14.126  1.00  0.00     0.059 A 
ATOM     75  C   UNL     1      -8.953  -1.965 -14.919  1.00  0.00     0.059 A 
ATOM     76  F   UNL     1      -7.236  -0.439 -14.970  1.00  0.00    -0.206 F 
ATOM     77  C   UNL     1     -10.295  -2.245 -14.743  1.00  0.00     0.060 A 
BRANCH  77  78
ATOM     78  S   UNL     1     -11.007  -3.755 -15.424  1.00  0.00     0.124 S 
ATOM     79  O   UNL     1     -11.666  -4.344 -14.264  1.00  0.00    -0.237 OA
ATOM     80  O   UNL     1     -11.891  -3.231 -16.460  1.00  0.00    -0.237 OA
ATOM     81  O   UNL     1      -9.845  -4.491 -15.915  1.00  0.00    -0.744 OA
ENDBRANCH  77  78
ENDBRANCH  56  70
BRANCH  57  82
ATOM     82  C   UNL     1      -5.698   6.457  -7.109  1.00  0.00     0.058 A 
ATOM     83  C   UNL     1      -5.667   6.044  -5.755  1.00  0.00     0.135 A 
ATOM     84  C   UNL     1      -4.535   6.131  -7.783  1.00  0.00     0.135 A 
ATOM     85  F   UNL     1      -6.374   6.722  -4.843  1.00  0.00    -0.206 F 
ATOM     86  C   UNL     1      -5.033   4.858  -5.351  1.00  0.00     0.059 A 
ATOM     87  C   UNL     1      -3.914   4.930  -7.402  1.00  0.00     0.059 A 
ATOM     88  F   UNL     1      -4.328   6.607  -9.024  1.00  0.00    -0.206 F 
ATOM     89  C   UNL     1      -4.307   4.183  -6.306  1.00  0.00     0.060 A 
BRANCH  89  90
ATOM     90  S   UNL     1      -4.192   2.247  -6.291  1.00  0.00     0.124 S 
ATOM     91  O   UNL     1      -4.859   1.966  -5.047  1.00  0.00    -0.237 OA
ATOM     92  O   UNL     1      -4.959   1.805  -7.452  1.00  0.00    -0.237 OA
ATOM     93  O   UNL     1      -2.792   1.891  -6.322  1.00  0.00    -0.744 OA
ENDBRANCH  89  90
ENDBRANCH  57  82
BRANCH  69  94
ATOM     94  C   UNL     1     -10.007   6.906 -13.162  1.00  0.00     0.058 A 
ATOM     95  C   UNL     1     -10.411   8.250 -13.114  1.00  0.00     0.135 A 
ATOM     96  C   UNL     1     -10.231   6.252 -14.399  1.00  0.00     0.135 A 
ATOM     97  F   UNL     1     -10.375   8.944 -11.966  1.00  0.00    -0.206 F 
ATOM     98  C   UNL     1     -10.904   8.921 -14.236  1.00  0.00     0.059 A 
ATOM     99  C   UNL     1     -10.762   6.886 -15.513  1.00  0.00     0.059 A 
ATOM    100  F   UNL     1      -9.934   4.963 -14.598  1.00  0.00    -0.206 F 
ATOM    101  C   UNL     1     -11.064   8.231 -15.435  1.00  0.00     0.060 A 
BRANCH 101 102
ATOM    102  S   UNL     1     -11.681   9.091 -16.888  1.00  0.00     0.124 S 
ATOM    103  O   UNL     1     -12.792   9.866 -16.345  1.00  0.00    -0.237 OA
ATOM    104  O   UNL     1     -10.507   9.862 -17.288  1.00  0.00    -0.237 OA
ATOM    105  O   UNL     1     -12.061   8.011 -17.794  1.00  0.00    -0.744 OA
ENDBRANCH 101 102
ENDBRANCH  69  94
ENDBRANCH  43  44
ENDBRANCH  35  38
ENDBRANCH  33  34
ENDBRANCH   1  33
TORSDOF 16
