REMARK SMILES C[C@H](C(=O)NCCCNC(=O)c1ccc(-c2c3nc(c(-c4c(F)cc(S(=O)(=O)[O-])cc4F)c4ccc([nH]4)c(-c4c(F)cc(S(=O)(=O)[O-])cc4F)c4nc(c(-c5c(F)cc(S(=O)(=O)[O-])cc5F)c5ccc2[nH]5)C=C4)C=C3)cc1)[C@@H](C)[N@H+]1CCCSCC1
REMARK SMILES IDX 3 1 4 2 5 3 2 5 1 6 78 7 79 8 80 9 81 11 82 12 86 14 85 15
REMARK SMILES IDX 84 16 83 17 6 19 7 20 8 21 9 22 10 23 11 25 12 26 13 27
REMARK SMILES IDX 77 28 14 29 76 30 15 31 16 32 17 33 70 34 18 35 75 36 69 37
REMARK SMILES IDX 71 38 19 39 74 40 68 41 67 42 20 44 54 45 33 46 53 47 34 48
REMARK SMILES IDX 37 49 52 50 72 51 35 52 36 53 51 55 73 56 38 57 21 58 22 59
REMARK SMILES IDX 31 60 23 61 24 62 30 63 32 64 25 65 26 66 27 67 28 68 29 69
REMARK SMILES IDX 55 70 56 71 65 72 57 73 58 74 64 75 66 76 59 77 60 78 61 79
REMARK SMILES IDX 62 80 63 81 39 82 40 83 49 84 41 85 42 86 48 87 50 88 43 89
REMARK SMILES IDX 44 90 45 91 46 92 47 93
REMARK H PARENT 5 4 80 10 9 24 71 43 37 54
REMARK Flexibility Score: 80.00
ROOT
ATOM      1  C   UNL     1       1.059   0.158   0.122  1.00  0.00     0.228 C 
ATOM      2  O   UNL     1       1.703   0.277  -0.926  1.00  0.00    -0.275 OA
ATOM      3  N   UNL     1       0.791   1.298   0.804  1.00  0.00    -0.356 N 
ATOM      4  H   UNL     1       1.112   2.115   0.360  1.00  0.00     0.163 HD
ENDROOT
BRANCH   1   5
ATOM      5  C   UNL     1       0.563  -1.220   0.557  1.00  0.00     0.133 C 
ATOM      6  C   UNL     1       1.059  -1.592   1.954  1.00  0.00     0.024 C 
BRANCH   5   7
ATOM      7  C   UNL     1      -0.974  -1.401   0.347  1.00  0.00     0.193 C 
ATOM      8  C   UNL     1      -1.363  -1.094  -1.114  1.00  0.00     0.076 C 
BRANCH   7   9
ATOM      9  N   UNL     1      -1.510  -2.710   0.839  1.00  0.00    -0.331 N 
ATOM     10  H   UNL     1      -1.264  -2.750   1.828  1.00  0.00     0.348 HD
BRANCH   9  11
ATOM     11  C   UNL     1      -2.981  -2.764   0.758  1.00  0.00     0.263 C 
BRANCH  11  12
ATOM     12  C   UNL     1      -3.689  -3.990   1.349  1.00  0.00     0.072 CG0
ATOM     13  G   UNL     1      -3.568  -5.243   0.487  1.00  0.00     0.000 G0
ENDBRANCH  11  12
ENDBRANCH   9  11
BRANCH   9  14
ATOM     14  C   UNL     1      -0.849  -3.899   0.275  1.00  0.00     0.273 C 
BRANCH  14  15
ATOM     15  C   UNL     1      -0.882  -5.087   1.250  1.00  0.00     0.131 C 
BRANCH  15  16
ATOM     16  S   UNL     1      -2.169  -6.322   0.898  1.00  0.00    -0.156 SA
BRANCH  16  17
ATOM     17  C   UNL     1      -3.568  -5.243   0.487  1.00  0.00     0.075 CG0
ATOM     18  G   UNL     1      -3.689  -3.990   1.349  1.00  0.00     0.000 G0
ENDBRANCH  16  17
ENDBRANCH  15  16
ENDBRANCH  14  15
ENDBRANCH   9  14
ENDBRANCH   7   9
ENDBRANCH   5   7
ENDBRANCH   1   5
BRANCH   3  19
ATOM     19  C   UNL     1       0.119   1.536   2.067  1.00  0.00     0.117 C 
BRANCH  19  20
ATOM     20  C   UNL     1       1.091   1.653   3.236  1.00  0.00     0.042 C 
BRANCH  20  21
ATOM     21  C   UNL     1       2.138   2.748   3.077  1.00  0.00     0.118 C 
BRANCH  21  22
ATOM     22  N   UNL     1       1.556   4.082   3.056  1.00  0.00    -0.352 N 
ATOM     23  C   UNL     1       1.736   5.133   3.919  1.00  0.00     0.251 C 
ATOM     24  H   UNL     1       0.940   4.256   2.308  1.00  0.00     0.163 HD
ATOM     25  O   UNL     1       0.997   6.114   3.832  1.00  0.00    -0.269 OA
BRANCH  23  26
ATOM     26  C   UNL     1       2.788   5.087   4.959  1.00  0.00     0.039 A 
ATOM     27  C   UNL     1       2.499   5.578   6.235  1.00  0.00     0.014 A 
ATOM     28  C   UNL     1       4.062   4.586   4.678  1.00  0.00     0.014 A 
ATOM     29  C   UNL     1       3.467   5.513   7.241  1.00  0.00     0.010 A 
ATOM     30  C   UNL     1       4.994   4.440   5.703  1.00  0.00     0.010 A 
ATOM     31  C   UNL     1       4.712   4.913   6.993  1.00  0.00    -0.014 A 
BRANCH  31  32
ATOM     32  C   UNL     1       5.738   4.788   8.062  1.00  0.00     0.031 A 
ATOM     33  C   UNL     1       7.068   5.480   7.918  1.00  0.00     0.074 A 
ATOM     34  C   UNL     1       5.499   4.003   9.131  1.00  0.00     0.049 A 
ATOM     35  N   UNL     1       8.111   5.441   8.708  1.00  0.00    -0.248 NA
ATOM     36  C   UNL     1       7.261   6.302   6.713  1.00  0.00     0.031 C 
ATOM     37  C   UNL     1       4.268   3.245   9.365  1.00  0.00     0.029 A 
ATOM     38  N   UNL     1       6.283   3.705  10.218  1.00  0.00    -0.354 N 
ATOM     39  C   UNL     1       9.086   6.214   8.087  1.00  0.00     0.074 A 
ATOM     40  C   UNL     1       8.531   6.662   6.829  1.00  0.00     0.031 C 
ATOM     41  C   UNL     1       4.369   2.593  10.535  1.00  0.00     0.029 A 
ATOM     42  C   UNL     1       5.684   2.850  11.113  1.00  0.00     0.049 A 
ATOM     43  H   UNL     1       7.189   4.069  10.344  1.00  0.00     0.167 HD
ATOM     44  C   UNL     1      10.323   6.540   8.534  1.00  0.00     0.037 A 
ATOM     45  C   UNL     1       6.144   2.327  12.267  1.00  0.00     0.037 A 
ATOM     46  C   UNL     1      10.861   6.107   9.799  1.00  0.00     0.049 A 
ATOM     47  C   UNL     1       7.523   2.697  12.742  1.00  0.00     0.074 A 
ATOM     48  C   UNL     1      12.078   6.431  10.372  1.00  0.00     0.029 A 
ATOM     49  N   UNL     1      10.218   5.252  10.683  1.00  0.00    -0.354 N 
ATOM     50  N   UNL     1       8.408   3.481  12.174  1.00  0.00    -0.248 NA
ATOM     51  C   UNL     1       7.964   2.116  14.018  1.00  0.00     0.031 C 
ATOM     52  C   UNL     1      12.194   5.731  11.577  1.00  0.00     0.029 A 
ATOM     53  C   UNL     1      11.024   5.018  11.786  1.00  0.00     0.049 A 
ATOM     54  H   UNL     1       9.322   4.869  10.547  1.00  0.00     0.167 HD
ATOM     55  C   UNL     1       9.497   3.516  13.039  1.00  0.00     0.074 A 
ATOM     56  C   UNL     1       9.155   2.678  14.171  1.00  0.00     0.031 C 
ATOM     57  C   UNL     1      10.669   4.186  12.910  1.00  0.00     0.037 A 
BRANCH  44  58
ATOM     58  C   UNL     1      11.181   7.399   7.643  1.00  0.00     0.058 A 
ATOM     59  C   UNL     1      10.866   8.744   7.383  1.00  0.00     0.135 A 
ATOM     60  C   UNL     1      12.342   6.876   7.051  1.00  0.00     0.135 A 
ATOM     61  F   UNL     1       9.762   9.295   7.912  1.00  0.00    -0.206 F 
ATOM     62  C   UNL     1      11.644   9.523   6.532  1.00  0.00     0.059 A 
ATOM     63  C   UNL     1      13.154   7.647   6.223  1.00  0.00     0.059 A 
ATOM     64  F   UNL     1      12.695   5.599   7.266  1.00  0.00    -0.206 F 
ATOM     65  C   UNL     1      12.785   8.964   5.954  1.00  0.00     0.060 A 
BRANCH  65  66
ATOM     66  S   UNL     1      13.773   9.982   4.839  1.00  0.00     0.124 S 
ATOM     67  O   UNL     1      12.912  10.043   3.661  1.00  0.00    -0.237 OA
ATOM     68  O   UNL     1      13.907  11.227   5.589  1.00  0.00    -0.237 OA
ATOM     69  O   UNL     1      15.004   9.215   4.677  1.00  0.00    -0.744 OA
ENDBRANCH  65  66
ENDBRANCH  44  58
BRANCH  45  70
ATOM     70  C   UNL     1       5.273   1.425  13.069  1.00  0.00     0.058 A 
ATOM     71  C   UNL     1       4.730   1.850  14.291  1.00  0.00     0.135 A 
ATOM     72  C   UNL     1       4.942   0.138  12.620  1.00  0.00     0.135 A 
ATOM     73  F   UNL     1       5.023   3.070  14.767  1.00  0.00    -0.206 F 
ATOM     74  C   UNL     1       3.897   1.029  15.044  1.00  0.00     0.059 A 
ATOM     75  C   UNL     1       4.090  -0.693  13.342  1.00  0.00     0.059 A 
ATOM     76  F   UNL     1       5.422  -0.311  11.449  1.00  0.00    -0.206 F 
ATOM     77  C   UNL     1       3.578  -0.240  14.557  1.00  0.00     0.060 A 
BRANCH  77  78
ATOM     78  S   UNL     1       2.443  -1.271  15.512  1.00  0.00     0.124 S 
ATOM     79  O   UNL     1       3.273  -1.643  16.652  1.00  0.00    -0.237 OA
ATOM     80  O   UNL     1       1.351  -0.344  15.791  1.00  0.00    -0.237 OA
ATOM     81  O   UNL     1       2.116  -2.353  14.588  1.00  0.00    -0.744 OA
ENDBRANCH  77  78
ENDBRANCH  45  70
BRANCH  57  82
ATOM     82  C   UNL     1      11.658   4.080  14.039  1.00  0.00     0.058 A 
ATOM     83  C   UNL     1      12.378   2.901  14.289  1.00  0.00     0.135 A 
ATOM     84  C   UNL     1      11.926   5.195  14.851  1.00  0.00     0.135 A 
ATOM     85  F   UNL     1      12.157   1.804  13.548  1.00  0.00    -0.206 F 
ATOM     86  C   UNL     1      13.311   2.824  15.319  1.00  0.00     0.059 A 
ATOM     87  C   UNL     1      12.876   5.149  15.866  1.00  0.00     0.059 A 
ATOM     88  F   UNL     1      11.274   6.351  14.649  1.00  0.00    -0.206 F 
ATOM     89  C   UNL     1      13.555   3.955  16.101  1.00  0.00     0.060 A 
BRANCH  89  90
ATOM     90  S   UNL     1      14.791   3.851  17.412  1.00  0.00     0.124 S 
ATOM     91  O   UNL     1      14.097   3.039  18.407  1.00  0.00    -0.237 OA
ATOM     92  O   UNL     1      15.911   3.204  16.735  1.00  0.00    -0.237 OA
ATOM     93  O   UNL     1      15.012   5.245  17.783  1.00  0.00    -0.744 OA
ENDBRANCH  89  90
ENDBRANCH  57  82
ENDBRANCH  31  32
ENDBRANCH  23  26
ENDBRANCH  21  22
ENDBRANCH  20  21
ENDBRANCH  19  20
ENDBRANCH   3  19
TORSDOF 15
