REMARK SMILES Cc1ccc(CNc2ccc(C(=O)NCCCNC(=O)c3ccc(-c4c5nc(c(-c6c(F)cc(S(=O)(=O)[O-])cc6F)c6ccc([nH]6)c(-c6c(F)cc(S(=O)(=O)[O-])cc6F)c6nc(c(-c7c(F)cc(S(=O)(=O)[O-])cc7F)c7ccc4[nH]7)C=C6)C=C5)cc3)cc2Br)cc1
REMARK SMILES IDX 16 1 15 2 14 3 12 4 13 5 11 7 8 8 9 9 88 10 10 11 87 12
REMARK SMILES IDX 89 13 7 14 6 16 5 17 1 18 2 19 3 20 91 21 4 22 90 23 17 24
REMARK SMILES IDX 18 25 19 26 20 28 21 29 22 30 86 31 23 32 85 33 24 34 25 35
REMARK SMILES IDX 26 36 79 37 27 38 84 39 78 40 80 41 28 42 83 43 77 44 76 45
REMARK SMILES IDX 29 47 63 48 42 49 62 50 43 51 46 52 61 53 81 54 44 55 45 56
REMARK SMILES IDX 60 58 82 59 47 60 30 61 31 62 40 63 32 64 33 65 39 66 41 67
REMARK SMILES IDX 34 68 35 69 36 70 37 71 38 72 64 73 65 74 74 75 66 76 67 77
REMARK SMILES IDX 73 78 75 79 68 80 69 81 70 82 71 83 72 84 48 85 49 86 58 87
REMARK SMILES IDX 50 88 51 89 57 90 59 91 52 92 53 93 54 94 55 95 56 96
REMARK H PARENT 14 6 7 15 18 27 80 46 46 57
REMARK Flexibility Score: inf
ROOT
ATOM      1  C   UNL     1      -9.305  -3.472   1.079  1.00  0.00     0.042 C 
ENDROOT
BRANCH   1   2
ATOM      2  C   UNL     1      -8.300  -4.570   1.435  1.00  0.00     0.118 C 
BRANCH   2   3
ATOM      3  N   UNL     1      -7.897  -5.345   0.267  1.00  0.00    -0.352 N 
ATOM      4  C   UNL     1      -6.962  -5.149  -0.719  1.00  0.00     0.251 C 
ATOM      5  O   UNL     1      -6.797  -6.068  -1.525  1.00  0.00    -0.269 OA
ATOM      6  H   UNL     1      -8.401  -6.184   0.163  1.00  0.00     0.163 HD
BRANCH   4   7
ATOM      7  C   UNL     1      -6.130  -3.914  -0.879  1.00  0.00     0.041 A 
ATOM      8  C   UNL     1      -4.428  -1.663  -1.306  1.00  0.00     0.049 A 
ATOM      9  C   UNL     1      -5.505  -1.605  -0.424  1.00  0.00     0.028 A 
ATOM     10  C   UNL     1      -4.245  -2.860  -2.018  1.00  0.00     0.041 A 
ATOM     11  C   UNL     1      -6.334  -2.709  -0.212  1.00  0.00     0.016 A 
ATOM     12  C   UNL     1      -5.078  -3.967  -1.808  1.00  0.00     0.031 A 
ATOM     13  Br  UNL     1      -2.820  -3.040  -3.268  1.00  0.00    -0.049 Br
BRANCH   8  14
ATOM     14  N   UNL     1      -3.548  -0.595  -1.425  1.00  0.00    -0.380 N 
ATOM     15  H   UNL     1      -3.200  -0.346  -2.311  1.00  0.00     0.160 HD
BRANCH  14  16
ATOM     16  C   UNL     1      -3.135   0.159  -0.252  1.00  0.00     0.148 C 
BRANCH  16  17
ATOM     17  C   UNL     1      -1.629   0.139  -0.150  1.00  0.00    -0.029 A 
ATOM     18  C   UNL     1       2.677   0.024   0.056  1.00  0.00     0.044 C 
ATOM     19  C   UNL     1       1.180   0.074   0.008  1.00  0.00    -0.051 A 
ATOM     20  C   UNL     1       0.445  -1.115   0.024  1.00  0.00     0.004 A 
ATOM     21  C   UNL     1       0.500   1.296  -0.073  1.00  0.00     0.004 A 
ATOM     22  C   UNL     1      -0.947  -1.083  -0.046  1.00  0.00     0.006 A 
ATOM     23  C   UNL     1      -0.893   1.328  -0.150  1.00  0.00     0.006 A 
ENDBRANCH  16  17
ENDBRANCH  14  16
ENDBRANCH   8  14
ENDBRANCH   4   7
ENDBRANCH   2   3
ENDBRANCH   1   2
BRANCH   1  24
ATOM     24  C   UNL     1     -10.750  -3.886   1.293  1.00  0.00     0.118 C 
BRANCH  24  25
ATOM     25  N   UNL     1     -11.423  -3.098   2.321  1.00  0.00    -0.352 N 
ATOM     26  C   UNL     1     -12.759  -3.157   2.682  1.00  0.00     0.251 C 
ATOM     27  H   UNL     1     -10.865  -2.453   2.812  1.00  0.00     0.163 HD
ATOM     28  O   UNL     1     -13.276  -2.369   3.445  1.00  0.00    -0.269 OA
BRANCH  26  29
ATOM     29  C   UNL     1     -13.510  -4.313   2.154  1.00  0.00     0.039 A 
ATOM     30  C   UNL     1     -13.742  -5.372   3.038  1.00  0.00     0.014 A 
ATOM     31  C   UNL     1     -13.628  -4.469   0.775  1.00  0.00     0.014 A 
ATOM     32  C   UNL     1     -13.935  -6.650   2.526  1.00  0.00     0.010 A 
ATOM     33  C   UNL     1     -13.727  -5.751   0.274  1.00  0.00     0.010 A 
ATOM     34  C   UNL     1     -13.840  -6.844   1.147  1.00  0.00    -0.014 A 
BRANCH  34  35
ATOM     35  C   UNL     1     -13.764  -8.163   0.531  1.00  0.00     0.031 A 
ATOM     36  C   UNL     1     -14.923  -8.690  -0.224  1.00  0.00     0.074 A 
ATOM     37  C   UNL     1     -12.621  -8.881   0.597  1.00  0.00     0.049 A 
ATOM     38  N   UNL     1     -15.149  -9.945  -0.420  1.00  0.00    -0.248 NA
ATOM     39  C   UNL     1     -15.956  -7.824  -0.790  1.00  0.00     0.031 C 
ATOM     40  C   UNL     1     -12.279 -10.062  -0.192  1.00  0.00     0.029 A 
ATOM     41  N   UNL     1     -11.597  -8.787   1.543  1.00  0.00    -0.354 N 
ATOM     42  C   UNL     1     -16.173 -10.043  -1.330  1.00  0.00     0.074 A 
ATOM     43  C   UNL     1     -16.678  -8.700  -1.493  1.00  0.00     0.031 C 
ATOM     44  C   UNL     1     -11.289 -10.726   0.424  1.00  0.00     0.029 A 
ATOM     45  C   UNL     1     -11.060 -10.079   1.704  1.00  0.00     0.049 A 
ATOM     46  H   UNL     1     -11.305  -7.971   2.010  1.00  0.00     0.167 HD
ATOM     47  C   UNL     1     -16.418 -11.223  -1.964  1.00  0.00     0.037 A 
ATOM     48  C   UNL     1     -11.102 -10.716   2.912  1.00  0.00     0.037 A 
ATOM     49  C   UNL     1     -15.524 -12.278  -1.510  1.00  0.00     0.049 A 
ATOM     50  C   UNL     1     -11.930 -11.983   2.908  1.00  0.00     0.074 A 
ATOM     51  C   UNL     1     -14.312 -12.744  -1.991  1.00  0.00     0.029 A 
ATOM     52  N   UNL     1     -15.648 -12.772  -0.216  1.00  0.00    -0.354 N 
ATOM     53  N   UNL     1     -12.759 -12.310   1.955  1.00  0.00    -0.248 NA
ATOM     54  C   UNL     1     -11.906 -12.974   3.982  1.00  0.00     0.031 C 
ATOM     55  C   UNL     1     -13.664 -13.448  -0.947  1.00  0.00     0.029 A 
ATOM     56  C   UNL     1     -14.496 -13.441   0.158  1.00  0.00     0.049 A 
ATOM     57  H   UNL     1     -16.444 -12.662   0.354  1.00  0.00     0.167 HD
ATOM     58  C   UNL     1     -13.398 -13.479   2.278  1.00  0.00     0.074 A 
ATOM     59  C   UNL     1     -12.807 -13.871   3.544  1.00  0.00     0.031 C 
ATOM     60  C   UNL     1     -14.367 -14.022   1.484  1.00  0.00     0.037 A 
BRANCH  47  61
ATOM     61  C   UNL     1     -17.267 -11.270  -3.205  1.00  0.00     0.058 A 
ATOM     62  C   UNL     1     -16.826 -11.939  -4.364  1.00  0.00     0.135 A 
ATOM     63  C   UNL     1     -18.496 -10.591  -3.325  1.00  0.00     0.135 A 
ATOM     64  F   UNL     1     -15.693 -12.653  -4.372  1.00  0.00    -0.206 F 
ATOM     65  C   UNL     1     -17.509 -11.867  -5.578  1.00  0.00     0.059 A 
ATOM     66  C   UNL     1     -19.173 -10.466  -4.542  1.00  0.00     0.059 A 
ATOM     67  F   UNL     1     -19.062 -10.010  -2.254  1.00  0.00    -0.206 F 
ATOM     68  C   UNL     1     -18.665 -11.104  -5.668  1.00  0.00     0.060 A 
BRANCH  68  69
ATOM     69  S   UNL     1     -19.456 -10.919  -7.279  1.00  0.00     0.124 S 
ATOM     70  O   UNL     1     -18.323 -10.623  -8.152  1.00  0.00    -0.237 OA
ATOM     71  O   UNL     1     -20.073 -12.227  -7.464  1.00  0.00    -0.237 OA
ATOM     72  O   UNL     1     -20.382  -9.808  -7.076  1.00  0.00    -0.744 OA
ENDBRANCH  68  69
ENDBRANCH  47  61
BRANCH  48  73
ATOM     73  C   UNL     1     -10.922  -9.790   4.064  1.00  0.00     0.058 A 
ATOM     74  C   UNL     1      -9.660  -9.184   4.218  1.00  0.00     0.135 A 
ATOM     75  C   UNL     1     -12.015  -9.176   4.690  1.00  0.00     0.135 A 
ATOM     76  F   UNL     1      -8.575  -9.740   3.654  1.00  0.00    -0.206 F 
ATOM     77  C   UNL     1      -9.513  -7.939   4.820  1.00  0.00     0.059 A 
ATOM     78  C   UNL     1     -11.889  -7.928   5.305  1.00  0.00     0.059 A 
ATOM     79  F   UNL     1     -13.241  -9.710   4.585  1.00  0.00    -0.206 F 
ATOM     80  C   UNL     1     -10.647  -7.289   5.301  1.00  0.00     0.060 A 
BRANCH  80  81
ATOM     81  S   UNL     1     -10.492  -5.542   5.744  1.00  0.00     0.124 S 
ATOM     82  O   UNL     1      -9.550  -5.594   6.857  1.00  0.00    -0.237 OA
ATOM     83  O   UNL     1      -9.969  -4.961   4.507  1.00  0.00    -0.237 OA
ATOM     84  O   UNL     1     -11.856  -5.159   6.085  1.00  0.00    -0.744 OA
ENDBRANCH  80  81
ENDBRANCH  48  73
BRANCH  60  85
ATOM     85  C   UNL     1     -15.232 -15.204   1.839  1.00  0.00     0.058 A 
ATOM     86  C   UNL     1     -15.694 -15.473   3.137  1.00  0.00     0.135 A 
ATOM     87  C   UNL     1     -15.752 -16.033   0.815  1.00  0.00     0.135 A 
ATOM     88  F   UNL     1     -15.343 -14.698   4.173  1.00  0.00    -0.206 F 
ATOM     89  C   UNL     1     -16.571 -16.525   3.412  1.00  0.00     0.059 A 
ATOM     90  C   UNL     1     -16.666 -17.053   1.060  1.00  0.00     0.059 A 
ATOM     91  F   UNL     1     -15.392 -15.867  -0.467  1.00  0.00    -0.206 F 
ATOM     92  C   UNL     1     -17.054 -17.308   2.367  1.00  0.00     0.060 A 
BRANCH  92  93
ATOM     93  S   UNL     1     -18.238 -18.626   2.698  1.00  0.00     0.124 S 
ATOM     94  O   UNL     1     -17.354 -19.775   2.864  1.00  0.00    -0.237 OA
ATOM     95  O   UNL     1     -18.908 -18.167   3.911  1.00  0.00    -0.237 OA
ATOM     96  O   UNL     1     -19.068 -18.634   1.498  1.00  0.00    -0.744 OA
ENDBRANCH  92  93
ENDBRANCH  60  85
ENDBRANCH  34  35
ENDBRANCH  26  29
ENDBRANCH  24  25
ENDBRANCH   1  24
TORSDOF 16
