REMARK SMILES O=C(NCCCNC(=O)c1ccc(OC[C@H]2C[C@H]3CC[C@@H]2C3)c(Cl)c1)c1ccc(-c2c3nc(c(-c4c(F)cc(S(=O)(=O)[O-])cc4F)c4ccc([nH]4)c(-c4c(F)cc(S(=O)(=O)[O-])cc4F)c4nc(c(-c5c(F)cc(S(=O)(=O)[O-])cc5F)c5ccc2[nH]5)C=C4)C=C3)cc1
REMARK SMILES IDX 5 1 4 2 3 3 1 4 2 5 26 7 27 8 91 9 28 10 90 11 29 12 30 13
REMARK SMILES IDX 31 14 84 15 32 16 89 17 83 18 85 19 33 20 88 21 82 22 81 23
REMARK SMILES IDX 34 25 68 26 47 27 67 28 48 29 51 30 66 31 86 32 49 33 50 34
REMARK SMILES IDX 65 36 87 37 52 38 35 39 36 40 45 41 37 42 38 43 44 44 46 45
REMARK SMILES IDX 39 46 40 47 41 48 42 49 43 50 69 51 70 52 79 53 71 54 72 55
REMARK SMILES IDX 78 56 80 57 73 58 74 59 75 60 76 61 77 62 53 63 54 64 63 65
REMARK SMILES IDX 55 66 56 67 62 68 64 69 57 70 58 71 59 72 60 73 61 74 6 75
REMARK SMILES IDX 7 76 8 77 9 79 10 80 11 81 25 82 12 83 23 84 13 85 24 86
REMARK SMILES IDX 14 87 15 88 16 89 17 90 21 91 18 92 20 93 22 94 19 95
REMARK H PARENT 3 6 85 24 51 35 7 78
REMARK Flexibility Score: inf
ROOT
ATOM      1  C   UNL     1       2.910  -1.674   8.959  1.00  0.00     0.042 C 
ENDROOT
BRANCH   1   2
ATOM      2  C   UNL     1       1.998  -2.551   8.115  1.00  0.00     0.118 C 
BRANCH   2   3
ATOM      3  N   UNL     1       1.694  -3.814   8.778  1.00  0.00    -0.352 N 
ATOM      4  O   UNL     1       0.600  -5.212  10.153  1.00  0.00    -0.269 OA
ATOM      5  C   UNL     1       0.553  -4.231   9.417  1.00  0.00     0.251 C 
ATOM      6  H   UNL     1       2.424  -4.474   8.764  1.00  0.00     0.163 HD
BRANCH   5   7
ATOM      7  C   UNL     1      -0.718  -3.504   9.222  1.00  0.00     0.039 A 
ATOM      8  C   UNL     1      -1.060  -3.003   7.965  1.00  0.00     0.014 A 
ATOM      9  C   UNL     1      -1.606  -3.367  10.293  1.00  0.00     0.014 A 
ATOM     10  C   UNL     1      -2.205  -2.235   7.812  1.00  0.00     0.010 A 
ATOM     11  C   UNL     1      -2.813  -2.687  10.111  1.00  0.00     0.010 A 
ATOM     12  C   UNL     1      -3.110  -2.095   8.875  1.00  0.00    -0.014 A 
BRANCH  12  13
ATOM     13  C   UNL     1      -4.397  -1.398   8.631  1.00  0.00     0.031 A 
ATOM     14  C   UNL     1      -4.743  -0.127   9.351  1.00  0.00     0.074 A 
ATOM     15  C   UNL     1      -5.243  -1.922   7.722  1.00  0.00     0.049 A 
ATOM     16  N   UNL     1      -5.817   0.611   9.241  1.00  0.00    -0.248 NA
ATOM     17  C   UNL     1      -3.765   0.379  10.327  1.00  0.00     0.031 C 
ATOM     18  C   UNL     1      -5.015  -3.167   6.980  1.00  0.00     0.029 A 
ATOM     19  N   UNL     1      -6.451  -1.477   7.254  1.00  0.00    -0.354 N 
ATOM     20  C   UNL     1      -5.660   1.653  10.146  1.00  0.00     0.074 A 
ATOM     21  C   UNL     1      -4.393   1.440  10.814  1.00  0.00     0.031 C 
ATOM     22  C   UNL     1      -6.026  -3.362   6.123  1.00  0.00     0.029 A 
ATOM     23  C   UNL     1      -7.005  -2.297   6.300  1.00  0.00     0.049 A 
ATOM     24  H   UNL     1      -6.881  -0.650   7.571  1.00  0.00     0.167 HD
ATOM     25  C   UNL     1      -6.495   2.692  10.389  1.00  0.00     0.037 A 
ATOM     26  C   UNL     1      -8.182  -2.217   5.653  1.00  0.00     0.037 A 
ATOM     27  C   UNL     1      -7.745   2.898   9.703  1.00  0.00     0.049 A 
ATOM     28  C   UNL     1      -9.090  -1.059   5.944  1.00  0.00     0.074 A 
ATOM     29  C   UNL     1      -8.643   3.942   9.843  1.00  0.00     0.029 A 
ATOM     30  N   UNL     1      -8.280   2.039   8.752  1.00  0.00    -0.354 N 
ATOM     31  N   UNL     1      -8.905  -0.061   6.775  1.00  0.00    -0.248 NA
ATOM     32  C   UNL     1     -10.363  -1.015   5.216  1.00  0.00     0.031 C 
ATOM     33  C   UNL     1      -9.740   3.692   9.011  1.00  0.00     0.029 A 
ATOM     34  C   UNL     1      -9.506   2.516   8.315  1.00  0.00     0.049 A 
ATOM     35  H   UNL     1      -7.851   1.212   8.434  1.00  0.00     0.167 HD
ATOM     36  C   UNL     1     -10.037   0.737   6.665  1.00  0.00     0.074 A 
ATOM     37  C   UNL     1     -10.889   0.115   5.670  1.00  0.00     0.031 C 
ATOM     38  C   UNL     1     -10.343   1.879   7.329  1.00  0.00     0.037 A 
BRANCH  25  39
ATOM     39  C   UNL     1      -6.095   3.674  11.456  1.00  0.00     0.058 A 
ATOM     40  C   UNL     1      -5.043   4.585  11.271  1.00  0.00     0.135 A 
ATOM     41  C   UNL     1      -6.796   3.725  12.673  1.00  0.00     0.135 A 
ATOM     42  F   UNL     1      -4.330   4.572  10.134  1.00  0.00    -0.206 F 
ATOM     43  C   UNL     1      -4.679   5.489  12.265  1.00  0.00     0.059 A 
ATOM     44  C   UNL     1      -6.466   4.637  13.671  1.00  0.00     0.059 A 
ATOM     45  F   UNL     1      -7.812   2.878  12.903  1.00  0.00    -0.206 F 
ATOM     46  C   UNL     1      -5.394   5.505  13.464  1.00  0.00     0.060 A 
BRANCH  46  47
ATOM     47  S   UNL     1      -4.904   6.675  14.749  1.00  0.00     0.124 S 
ATOM     48  O   UNL     1      -3.676   6.061  15.246  1.00  0.00    -0.237 OA
ATOM     49  O   UNL     1      -4.732   7.913  13.997  1.00  0.00    -0.237 OA
ATOM     50  O   UNL     1      -6.032   6.658  15.674  1.00  0.00    -0.744 OA
ENDBRANCH  46  47
ENDBRANCH  25  39
BRANCH  26  51
ATOM     51  C   UNL     1      -8.558  -3.281   4.687  1.00  0.00     0.058 A 
ATOM     52  C   UNL     1      -8.581  -3.034   3.308  1.00  0.00     0.135 A 
ATOM     53  C   UNL     1      -8.845  -4.584   5.125  1.00  0.00     0.135 A 
ATOM     54  F   UNL     1      -8.315  -1.804   2.841  1.00  0.00    -0.206 F 
ATOM     55  C   UNL     1      -8.881  -4.040   2.395  1.00  0.00     0.059 A 
ATOM     56  C   UNL     1      -9.120  -5.612   4.231  1.00  0.00     0.059 A 
ATOM     57  F   UNL     1      -8.814  -4.874   6.435  1.00  0.00    -0.206 F 
ATOM     58  C   UNL     1      -9.143  -5.328   2.867  1.00  0.00     0.060 A 
BRANCH  58  59
ATOM     59  S   UNL     1      -9.462  -6.644   1.672  1.00  0.00     0.124 S 
ATOM     60  O   UNL     1     -10.825  -6.335   1.255  1.00  0.00    -0.237 OA
ATOM     61  O   UNL     1      -8.421  -6.414   0.675  1.00  0.00    -0.237 OA
ATOM     62  O   UNL     1      -9.303  -7.860   2.463  1.00  0.00    -0.744 OA
ENDBRANCH  58  59
ENDBRANCH  26  51
BRANCH  38  63
ATOM     63  C   UNL     1     -11.650   2.536   6.987  1.00  0.00     0.058 A 
ATOM     64  C   UNL     1     -12.874   2.002   7.417  1.00  0.00     0.135 A 
ATOM     65  C   UNL     1     -11.674   3.734   6.256  1.00  0.00     0.135 A 
ATOM     66  F   UNL     1     -12.905   0.853   8.110  1.00  0.00    -0.206 F 
ATOM     67  C   UNL     1     -14.082   2.623   7.115  1.00  0.00     0.059 A 
ATOM     68  C   UNL     1     -12.867   4.386   5.965  1.00  0.00     0.059 A 
ATOM     69  F   UNL     1     -10.528   4.289   5.829  1.00  0.00    -0.206 F 
ATOM     70  C   UNL     1     -14.067   3.816   6.389  1.00  0.00     0.060 A 
BRANCH  70  71
ATOM     71  S   UNL     1     -15.638   4.630   6.030  1.00  0.00     0.124 S 
ATOM     72  O   UNL     1     -16.171   3.785   4.968  1.00  0.00    -0.237 OA
ATOM     73  O   UNL     1     -16.332   4.551   7.312  1.00  0.00    -0.237 OA
ATOM     74  O   UNL     1     -15.238   5.974   5.623  1.00  0.00    -0.744 OA
ENDBRANCH  70  71
ENDBRANCH  38  63
ENDBRANCH  12  13
ENDBRANCH   5   7
ENDBRANCH   2   3
ENDBRANCH   1   2
BRANCH   1  75
ATOM     75  C   UNL     1       4.252  -2.332   9.239  1.00  0.00     0.118 C 
BRANCH  75  76
ATOM     76  N   UNL     1       5.039  -2.498   8.025  1.00  0.00    -0.352 N 
ATOM     77  C   UNL     1       5.879  -1.601   7.414  1.00  0.00     0.251 C 
ATOM     78  H   UNL     1       4.958  -3.374   7.582  1.00  0.00     0.163 HD
ATOM     79  O   UNL     1       6.294  -1.796   6.279  1.00  0.00    -0.269 OA
BRANCH  77  80
ATOM     80  C   UNL     1       6.282  -0.385   8.142  1.00  0.00     0.041 A 
ATOM     81  C   UNL     1       6.805  -0.491   9.427  1.00  0.00     0.018 A 
ATOM     82  C   UNL     1       6.162   0.862   7.526  1.00  0.00     0.038 A 
ATOM     83  C   UNL     1       7.142   0.660  10.120  1.00  0.00     0.049 A 
ATOM     84  C   UNL     1       6.563   2.020   8.206  1.00  0.00     0.083 A 
ATOM     85  C   UNL     1       7.098   1.916   9.497  1.00  0.00     0.137 A 
ATOM     86  Cl  UNL     1       6.328   3.510   7.372  1.00  0.00    -0.080 Cl
BRANCH  85  87
ATOM     87  O   UNL     1       7.665   2.870  10.287  1.00  0.00    -0.492 OA
BRANCH  87  88
ATOM     88  C   UNL     1       8.447   3.915   9.726  1.00  0.00     0.233 C 
BRANCH  88  89
ATOM     89  C   UNL     1       9.677   3.563   8.864  1.00  0.00     0.030 C 
ATOM     90  C   UNL     1      11.031   3.969   9.505  1.00  0.00     0.011 C 
ATOM     91  C   UNL     1       9.992   2.136   8.361  1.00  0.00    -0.004 C 
ATOM     92  C   UNL     1      11.986   2.834   9.075  1.00  0.00    -0.010 C 
ATOM     93  C   UNL     1      10.340   1.162   9.503  1.00  0.00     0.004 C 
ATOM     94  C   UNL     1      11.384   2.367   7.752  1.00  0.00     0.007 C 
ATOM     95  C   UNL     1      11.725   1.615   9.966  1.00  0.00     0.004 C 
ENDBRANCH  88  89
ENDBRANCH  87  88
ENDBRANCH  85  87
ENDBRANCH  77  80
ENDBRANCH  75  76
ENDBRANCH   1  75
TORSDOF 16
