REMARK SMILES CC(C)[C@@H](NC(N)=O)C(=O)Nc1cccc(F)c1C(=O)NCCCNC(=O)c1ccc(-c2c3nc(c(-c4c(F)cc(S(=O)(=O)[O-])cc4F)c4ccc([nH]4)c(-c4c(F)cc(S(=O)(=O)[O-])cc4F)c4nc(c(-c5c(F)cc(S(=O)(=O)[O-])cc5F)c5ccc2[nH]5)C=C4)C=C3)cc1
REMARK SMILES IDX 23 1 22 2 21 3 19 4 20 5 18 7 12 8 13 9 14 10 16 11 15 12
REMARK SMILES IDX 17 13 11 14 9 15 10 16 4 18 2 19 1 20 3 21 5 22 6 23 7 25
REMARK SMILES IDX 8 26 24 29 25 30 26 31 27 33 28 34 29 35 93 36 30 37 92 38
REMARK SMILES IDX 31 39 32 40 33 41 86 42 34 43 91 44 85 45 87 46 35 47 90 48
REMARK SMILES IDX 84 49 83 50 36 52 70 53 49 54 69 55 50 56 53 57 68 58 88 59
REMARK SMILES IDX 51 60 52 61 67 63 89 64 54 65 37 66 38 67 47 68 39 69 40 70
REMARK SMILES IDX 46 71 48 72 41 73 42 74 43 75 44 76 45 77 71 78 72 79 81 80
REMARK SMILES IDX 73 81 74 82 80 83 82 84 75 85 76 86 77 87 78 88 79 89 55 90
REMARK SMILES IDX 56 91 65 92 57 93 58 94 64 95 66 96 59 97 60 98 61 99 62 100
REMARK SMILES IDX 63 101
REMARK H PARENT 21 6 11 17 5 24 7 27 7 28 25 32 87 51 53 62
REMARK Flexibility Score: inf
ROOT
ATOM      1  C   UNL     1      -1.118  -2.218  -8.751  1.00  0.00     0.042 C 
ENDROOT
BRANCH   1   2
ATOM      2  C   UNL     1      -1.564  -1.337  -7.595  1.00  0.00     0.118 C 
BRANCH   2   3
ATOM      3  N   UNL     1      -2.154  -2.078  -6.491  1.00  0.00    -0.352 N 
ATOM      4  C   UNL     1      -1.761  -2.363  -5.207  1.00  0.00     0.256 C 
ATOM      5  O   UNL     1      -2.484  -3.154  -4.594  1.00  0.00    -0.269 OA
ATOM      6  H   UNL     1      -3.034  -2.460  -6.714  1.00  0.00     0.163 HD
BRANCH   4   7
ATOM      7  C   UNL     1      -0.490  -1.902  -4.578  1.00  0.00     0.099 A 
ATOM      8  C   UNL     1       0.005  -2.564  -3.441  1.00  0.00     0.057 A 
ATOM      9  C   UNL     1       1.345  -2.417  -3.058  1.00  0.00     0.027 A 
ATOM     10  C   UNL     1       2.143  -1.448  -3.652  1.00  0.00     0.005 A 
ATOM     11  C   UNL     1       0.245  -0.791  -4.984  1.00  0.00     0.138 A 
ATOM     12  C   UNL     1       1.560  -0.579  -4.561  1.00  0.00     0.040 A 
ATOM     13  F   UNL     1      -0.331   0.214  -5.659  1.00  0.00    -0.206 F 
BRANCH   8  14
ATOM     14  N   UNL     1      -0.837  -3.300  -2.587  1.00  0.00    -0.323 N 
ATOM     15  C   UNL     1      -1.216  -2.932  -1.309  1.00  0.00     0.247 C 
ATOM     16  O   UNL     1      -1.687  -3.797  -0.560  1.00  0.00    -0.272 OA
ATOM     17  H   UNL     1      -1.186  -4.154  -2.930  1.00  0.00     0.170 HD
BRANCH  15  18
ATOM     18  C   UNL     1      -0.999  -1.468  -0.765  1.00  0.00     0.176 C 
BRANCH  18  19
ATOM     19  C   UNL     1       0.428  -1.197  -0.220  1.00  0.00     0.015 C 
ATOM     20  C   UNL     1       0.544   0.142   0.521  1.00  0.00     0.010 C 
ATOM     21  C   UNL     1       0.944  -2.317   0.686  1.00  0.00     0.010 C 
ENDBRANCH  18  19
BRANCH  18  22
ATOM     22  N   UNL     1      -1.374  -0.460  -1.769  1.00  0.00    -0.326 N 
ATOM     23  C   UNL     1      -2.636  -0.393  -2.275  1.00  0.00     0.312 C 
ATOM     24  H   UNL     1      -0.696   0.182  -2.082  1.00  0.00     0.166 HD
ATOM     25  N   UNL     1      -2.789   0.593  -3.188  1.00  0.00    -0.352 N 
ATOM     26  O   UNL     1      -3.552  -1.153  -1.994  1.00  0.00    -0.249 OA
ATOM     27  H   UNL     1      -2.036   1.192  -3.397  1.00  0.00     0.161 HD
ATOM     28  H   UNL     1      -3.653   0.712  -3.644  1.00  0.00     0.161 HD
ENDBRANCH  18  22
ENDBRANCH  15  18
ENDBRANCH   8  14
ENDBRANCH   4   7
ENDBRANCH   2   3
ENDBRANCH   1   2
BRANCH   1  29
ATOM     29  C   UNL     1      -2.258  -2.819  -9.558  1.00  0.00     0.118 C 
BRANCH  29  30
ATOM     30  N   UNL     1      -3.104  -1.804 -10.180  1.00  0.00    -0.352 N 
ATOM     31  C   UNL     1      -3.180  -1.369 -11.482  1.00  0.00     0.251 C 
ATOM     32  H   UNL     1      -3.725  -1.356  -9.562  1.00  0.00     0.163 HD
ATOM     33  O   UNL     1      -3.802  -0.341 -11.737  1.00  0.00    -0.269 OA
BRANCH  31  34
ATOM     34  C   UNL     1      -2.504  -2.112 -12.567  1.00  0.00     0.039 A 
ATOM     35  C   UNL     1      -1.845  -1.401 -13.574  1.00  0.00     0.014 A 
ATOM     36  C   UNL     1      -2.526  -3.507 -12.602  1.00  0.00     0.014 A 
ATOM     37  C   UNL     1      -1.123  -2.091 -14.551  1.00  0.00     0.010 A 
ATOM     38  C   UNL     1      -1.732  -4.191 -13.517  1.00  0.00     0.010 A 
ATOM     39  C   UNL     1      -1.010  -3.490 -14.493  1.00  0.00    -0.014 A 
BRANCH  39  40
ATOM     40  C   UNL     1      -0.109  -4.237 -15.407  1.00  0.00     0.031 A 
ATOM     41  C   UNL     1      -0.663  -5.280 -16.338  1.00  0.00     0.074 A 
ATOM     42  C   UNL     1       1.223  -4.035 -15.328  1.00  0.00     0.049 A 
ATOM     43  N   UNL     1      -0.022  -6.104 -17.125  1.00  0.00    -0.248 NA
ATOM     44  C   UNL     1      -2.127  -5.436 -16.372  1.00  0.00     0.031 C 
ATOM     45  C   UNL     1       1.880  -3.083 -14.429  1.00  0.00     0.029 A 
ATOM     46  N   UNL     1       2.265  -4.626 -15.999  1.00  0.00    -0.354 N 
ATOM     47  C   UNL     1      -0.998  -6.880 -17.739  1.00  0.00     0.074 A 
ATOM     48  C   UNL     1      -2.273  -6.465 -17.197  1.00  0.00     0.031 C 
ATOM     49  C   UNL     1       3.207  -3.136 -14.622  1.00  0.00     0.029 A 
ATOM     50  C   UNL     1       3.503  -4.162 -15.616  1.00  0.00     0.049 A 
ATOM     51  H   UNL     1       2.139  -5.316 -16.690  1.00  0.00     0.167 HD
ATOM     52  C   UNL     1      -0.843  -7.835 -18.685  1.00  0.00     0.037 A 
ATOM     53  C   UNL     1       4.740  -4.533 -16.004  1.00  0.00     0.037 A 
ATOM     54  C   UNL     1       0.430  -8.222 -19.235  1.00  0.00     0.049 A 
ATOM     55  C   UNL     1       4.886  -5.618 -17.034  1.00  0.00     0.074 A 
ATOM     56  C   UNL     1       0.685  -9.132 -20.246  1.00  0.00     0.029 A 
ATOM     57  N   UNL     1       1.659  -7.730 -18.820  1.00  0.00    -0.354 N 
ATOM     58  N   UNL     1       3.947  -6.292 -17.655  1.00  0.00    -0.248 NA
ATOM     59  C   UNL     1       6.253  -6.000 -17.415  1.00  0.00     0.031 C 
ATOM     60  C   UNL     1       2.069  -9.235 -20.401  1.00  0.00     0.029 A 
ATOM     61  C   UNL     1       2.677  -8.346 -19.529  1.00  0.00     0.049 A 
ATOM     62  H   UNL     1       1.788  -7.045 -18.125  1.00  0.00     0.167 HD
ATOM     63  C   UNL     1       4.608  -7.168 -18.508  1.00  0.00     0.074 A 
ATOM     64  C   UNL     1       6.026  -6.925 -18.339  1.00  0.00     0.031 C 
ATOM     65  C   UNL     1       4.086  -8.093 -19.350  1.00  0.00     0.037 A 
BRANCH  52  66
ATOM     66  C   UNL     1      -2.073  -8.525 -19.209  1.00  0.00     0.058 A 
ATOM     67  C   UNL     1      -2.288  -9.889 -18.956  1.00  0.00     0.135 A 
ATOM     68  C   UNL     1      -2.990  -7.862 -20.041  1.00  0.00     0.135 A 
ATOM     69  F   UNL     1      -1.447 -10.572 -18.163  1.00  0.00    -0.206 F 
ATOM     70  C   UNL     1      -3.353 -10.577 -19.529  1.00  0.00     0.059 A 
ATOM     71  C   UNL     1      -4.078  -8.523 -20.602  1.00  0.00     0.059 A 
ATOM     72  F   UNL     1      -2.842  -6.552 -20.299  1.00  0.00    -0.206 F 
ATOM     73  C   UNL     1      -4.240  -9.886 -20.355  1.00  0.00     0.060 A 
BRANCH  73  74
ATOM     74  S   UNL     1      -5.618 -10.793 -21.089  1.00  0.00     0.124 S 
ATOM     75  O   UNL     1      -4.932 -11.686 -22.015  1.00  0.00    -0.237 OA
ATOM     76  O   UNL     1      -6.221 -11.426 -19.920  1.00  0.00    -0.237 OA
ATOM     77  O   UNL     1      -6.423  -9.743 -21.707  1.00  0.00    -0.744 OA
ENDBRANCH  73  74
ENDBRANCH  52  66
BRANCH  53  78
ATOM     78  C   UNL     1       5.931  -3.862 -15.415  1.00  0.00     0.058 A 
ATOM     79  C   UNL     1       6.268  -4.028 -14.062  1.00  0.00     0.135 A 
ATOM     80  C   UNL     1       6.731  -3.005 -16.185  1.00  0.00     0.135 A 
ATOM     81  F   UNL     1       5.530  -4.828 -13.276  1.00  0.00    -0.206 F 
ATOM     82  C   UNL     1       7.335  -3.347 -13.487  1.00  0.00     0.059 A 
ATOM     83  C   UNL     1       7.822  -2.334 -15.639  1.00  0.00     0.059 A 
ATOM     84  F   UNL     1       6.457  -2.822 -17.485  1.00  0.00    -0.206 F 
ATOM     85  C   UNL     1       8.105  -2.498 -14.284  1.00  0.00     0.060 A 
BRANCH  85  86
ATOM     86  S   UNL     1       9.473  -1.609 -13.510  1.00  0.00     0.124 S 
ATOM     87  O   UNL     1       8.761  -0.694 -12.623  1.00  0.00    -0.237 OA
ATOM     88  O   UNL     1      10.205  -2.687 -12.855  1.00  0.00    -0.237 OA
ATOM     89  O   UNL     1      10.153  -0.985 -14.641  1.00  0.00    -0.744 OA
ENDBRANCH  85  86
ENDBRANCH  53  78
BRANCH  65  90
ATOM     90  C   UNL     1       5.040  -8.924 -20.162  1.00  0.00     0.058 A 
ATOM     91  C   UNL     1       5.117  -8.766 -21.555  1.00  0.00     0.135 A 
ATOM     92  C   UNL     1       5.792  -9.954 -19.576  1.00  0.00     0.135 A 
ATOM     93  F   UNL     1       4.414  -7.799 -22.167  1.00  0.00    -0.206 F 
ATOM     94  C   UNL     1       5.878  -9.623 -22.343  1.00  0.00     0.059 A 
ATOM     95  C   UNL     1       6.584 -10.805 -20.341  1.00  0.00     0.059 A 
ATOM     96  F   UNL     1       5.764 -10.137 -18.246  1.00  0.00    -0.206 F 
ATOM     97  C   UNL     1       6.602 -10.644 -21.727  1.00  0.00     0.060 A 
BRANCH  97  98
ATOM     98  S   UNL     1       7.564 -11.762 -22.768  1.00  0.00     0.124 S 
ATOM     99  O   UNL     1       6.516 -12.476 -23.489  1.00  0.00    -0.237 OA
ATOM    100  O   UNL     1       8.360 -10.831 -23.561  1.00  0.00    -0.237 OA
ATOM    101  O   UNL     1       8.318 -12.559 -21.805  1.00  0.00    -0.744 OA
ENDBRANCH  97  98
ENDBRANCH  65  90
ENDBRANCH  39  40
ENDBRANCH  31  34
ENDBRANCH  29  30
ENDBRANCH   1  29
TORSDOF 17
