REMARK SMILES O=C(NCCCNC(=O)[C@@H]1C=C[C@H](NC(=O)[C@@H]2Cc3ccccc3O2)C1)c1ccc(-c2c3nc(c(-c4c(F)cc(S(=O)(=O)[O-])cc4F)c4ccc([nH]4)c(-c4c(F)cc(S(=O)(=O)[O-])cc4F)c4nc(c(-c5c(F)cc(S(=O)(=O)[O-])cc5F)c5ccc2[nH]5)C=C4)C=C3)cc1
REMARK SMILES IDX 4 1 3 2 1 3 2 4 27 6 28 7 92 8 29 9 91 10 30 11 31 12 32 13
REMARK SMILES IDX 85 14 33 15 90 16 84 17 86 18 34 19 89 20 83 21 82 22 35 24
REMARK SMILES IDX 69 25 48 26 68 27 49 28 52 29 67 30 87 31 50 32 51 33 66 35
REMARK SMILES IDX 88 36 53 37 36 38 37 39 46 40 38 41 39 42 45 43 47 44 40 45
REMARK SMILES IDX 41 46 42 47 43 48 44 49 70 50 71 51 80 52 72 53 73 54 79 55
REMARK SMILES IDX 81 56 74 57 75 58 76 59 77 60 78 61 54 62 55 63 64 64 56 65
REMARK SMILES IDX 57 66 63 67 65 68 58 69 59 70 60 71 61 72 62 73 5 74 6 75
REMARK SMILES IDX 7 76 8 77 9 79 10 80 11 81 26 82 12 83 13 84 14 85 15 86
REMARK SMILES IDX 16 88 17 89 18 90 25 91 19 92 24 93 20 94 23 95 21 96 22 97
REMARK H PARENT 3 5 86 23 52 34 7 78 14 87
REMARK Flexibility Score: inf
ROOT
ATOM      1  C   UNL     1      11.530   9.272   5.973  1.00  0.00     0.118 C 
ENDROOT
BRANCH   1   2
ATOM      2  N   UNL     1      12.387   9.007   7.120  1.00  0.00    -0.352 N 
ATOM      3  O   UNL     1      13.231   9.325   9.179  1.00  0.00    -0.269 OA
ATOM      4  C   UNL     1      12.276   9.449   8.413  1.00  0.00     0.251 C 
ATOM      5  H   UNL     1      13.161   8.425   6.940  1.00  0.00     0.163 HD
BRANCH   4   6
ATOM      6  C   UNL     1      11.020  10.073   8.880  1.00  0.00     0.039 A 
ATOM      7  C   UNL     1       9.783   9.542   8.506  1.00  0.00     0.014 A 
ATOM      8  C   UNL     1      11.079  11.174   9.739  1.00  0.00     0.014 A 
ATOM      9  C   UNL     1       8.611  10.185   8.884  1.00  0.00     0.010 A 
ATOM     10  C   UNL     1       9.896  11.765  10.193  1.00  0.00     0.010 A 
ATOM     11  C   UNL     1       8.652  11.285   9.755  1.00  0.00    -0.014 A 
BRANCH  11  12
ATOM     12  C   UNL     1       7.378  11.850  10.265  1.00  0.00     0.031 A 
ATOM     13  C   UNL     1       6.963  13.257   9.940  1.00  0.00     0.074 A 
ATOM     14  C   UNL     1       6.586  11.060  11.019  1.00  0.00     0.049 A 
ATOM     15  N   UNL     1       5.881  13.897  10.303  1.00  0.00    -0.248 NA
ATOM     16  C   UNL     1       7.878  14.053   9.107  1.00  0.00     0.031 C 
ATOM     17  C   UNL     1       6.901   9.682  11.411  1.00  0.00     0.029 A 
ATOM     18  N   UNL     1       5.357  11.288  11.580  1.00  0.00    -0.354 N 
ATOM     19  C   UNL     1       5.989  15.172   9.760  1.00  0.00     0.074 A 
ATOM     20  C   UNL     1       7.255  15.224   9.060  1.00  0.00     0.031 C 
ATOM     21  C   UNL     1       5.877   9.177  12.112  1.00  0.00     0.029 A 
ATOM     22  C   UNL     1       4.863  10.211  12.278  1.00  0.00     0.049 A 
ATOM     23  H   UNL     1       4.873  12.141  11.491  1.00  0.00     0.167 HD
ATOM     24  C   UNL     1       5.107  16.197   9.835  1.00  0.00     0.037 A 
ATOM     25  C   UNL     1       3.732  10.076  12.996  1.00  0.00     0.037 A 
ATOM     26  C   UNL     1       3.842  16.124  10.525  1.00  0.00     0.049 A 
ATOM     27  C   UNL     1       2.786  11.239  13.080  1.00  0.00     0.074 A 
ATOM     28  C   UNL     1       2.861  17.096  10.624  1.00  0.00     0.029 A 
ATOM     29  N   UNL     1       3.385  15.023  11.236  1.00  0.00    -0.354 N 
ATOM     30  N   UNL     1       2.887  12.423  12.524  1.00  0.00    -0.248 NA
ATOM     31  C   UNL     1       1.575  11.052  13.888  1.00  0.00     0.031 C 
ATOM     32  C   UNL     1       1.835  16.602  11.437  1.00  0.00     0.029 A 
ATOM     33  C   UNL     1       2.149  15.301  11.798  1.00  0.00     0.049 A 
ATOM     34  H   UNL     1       3.868  14.170  11.327  1.00  0.00     0.167 HD
ATOM     35  C   UNL     1       1.742  13.115  12.899  1.00  0.00     0.074 A 
ATOM     36  C   UNL     1       0.955  12.210  13.711  1.00  0.00     0.031 C 
ATOM     37  C   UNL     1       1.376  14.386  12.599  1.00  0.00     0.037 A 
BRANCH  24  38
ATOM     38  C   UNL     1       5.470  17.498   9.170  1.00  0.00     0.058 A 
ATOM     39  C   UNL     1       5.460  17.643   7.774  1.00  0.00     0.135 A 
ATOM     40  C   UNL     1       5.752  18.637   9.944  1.00  0.00     0.135 A 
ATOM     41  F   UNL     1       5.212  16.585   6.986  1.00  0.00    -0.206 F 
ATOM     42  C   UNL     1       5.726  18.868   7.168  1.00  0.00     0.059 A 
ATOM     43  C   UNL     1       5.997  19.877   9.360  1.00  0.00     0.059 A 
ATOM     44  F   UNL     1       5.777  18.554  11.283  1.00  0.00    -0.206 F 
ATOM     45  C   UNL     1       5.988  19.980   7.970  1.00  0.00     0.060 A 
BRANCH  45  46
ATOM     46  S   UNL     1       6.301  21.567   7.167  1.00  0.00     0.124 S 
ATOM     47  O   UNL     1       7.622  21.343   6.585  1.00  0.00    -0.237 OA
ATOM     48  O   UNL     1       5.199  21.658   6.216  1.00  0.00    -0.237 OA
ATOM     49  O   UNL     1       6.256  22.523   8.269  1.00  0.00    -0.744 OA
ENDBRANCH  45  46
ENDBRANCH  24  38
BRANCH  25  50
ATOM     50  C   UNL     1       3.450   8.800  13.705  1.00  0.00     0.058 A 
ATOM     51  C   UNL     1       2.388   7.971  13.316  1.00  0.00     0.135 A 
ATOM     52  C   UNL     1       4.241   8.384  14.788  1.00  0.00     0.135 A 
ATOM     53  F   UNL     1       1.602   8.326  12.288  1.00  0.00    -0.206 F 
ATOM     54  C   UNL     1       2.103   6.789  13.991  1.00  0.00     0.059 A 
ATOM     55  C   UNL     1       3.996   7.191  15.458  1.00  0.00     0.059 A 
ATOM     56  F   UNL     1       5.283   9.131  15.188  1.00  0.00    -0.206 F 
ATOM     57  C   UNL     1       2.913   6.409  15.063  1.00  0.00     0.060 A 
BRANCH  57  58
ATOM     58  S   UNL     1       2.549   4.863  15.921  1.00  0.00     0.124 S 
ATOM     59  O   UNL     1       1.362   5.226  16.686  1.00  0.00    -0.237 OA
ATOM     60  O   UNL     1       2.337   3.938  14.812  1.00  0.00    -0.237 OA
ATOM     61  O   UNL     1       3.757   4.623  16.706  1.00  0.00    -0.744 OA
ENDBRANCH  57  58
ENDBRANCH  25  50
BRANCH  37  62
ATOM     62  C   UNL     1       0.050  14.860  13.125  1.00  0.00     0.058 A 
ATOM     63  C   UNL     1      -0.147  15.139  14.486  1.00  0.00     0.135 A 
ATOM     64  C   UNL     1      -1.025  15.073  12.248  1.00  0.00     0.135 A 
ATOM     65  F   UNL     1       0.846  14.943  15.368  1.00  0.00    -0.206 F 
ATOM     66  C   UNL     1      -1.374  15.588  14.964  1.00  0.00     0.059 A 
ATOM     67  C   UNL     1      -2.251  15.550  12.699  1.00  0.00     0.059 A 
ATOM     68  F   UNL     1      -0.886  14.829  10.935  1.00  0.00    -0.206 F 
ATOM     69  C   UNL     1      -2.420  15.792  14.062  1.00  0.00     0.060 A 
BRANCH  69  70
ATOM     70  S   UNL     1      -3.997  16.405  14.690  1.00  0.00     0.124 S 
ATOM     71  O   UNL     1      -4.527  15.221  15.357  1.00  0.00    -0.237 OA
ATOM     72  O   UNL     1      -3.581  17.495  15.568  1.00  0.00    -0.237 OA
ATOM     73  O   UNL     1      -4.707  16.817  13.483  1.00  0.00    -0.744 OA
ENDBRANCH  69  70
ENDBRANCH  37  62
ENDBRANCH  11  12
ENDBRANCH   4   6
ENDBRANCH   1   2
BRANCH   1  74
ATOM     74  C   UNL     1      12.260  10.048   4.885  1.00  0.00     0.042 C 
BRANCH  74  75
ATOM     75  C   UNL     1      13.379   9.246   4.226  1.00  0.00     0.117 C 
BRANCH  75  76
ATOM     76  N   UNL     1      12.839   8.152   3.443  1.00  0.00    -0.356 N 
ATOM     77  C   UNL     1      12.579   8.098   2.104  1.00  0.00     0.227 C 
ATOM     78  H   UNL     1      12.630   7.333   3.948  1.00  0.00     0.163 HD
ATOM     79  O   UNL     1      11.972   7.116   1.680  1.00  0.00    -0.274 OA
BRANCH  77  80
ATOM     80  C   UNL     1      13.127   9.203   1.191  1.00  0.00     0.103 C 
ATOM     81  C   UNL     1      12.457  10.534   1.368  1.00  0.00    -0.016 C 
ATOM     82  C   UNL     1      12.869   8.902  -0.298  1.00  0.00     0.047 C 
ATOM     83  C   UNL     1      11.707  10.877   0.318  1.00  0.00    -0.006 C 
ATOM     84  C   UNL     1      11.755   9.854  -0.757  1.00  0.00     0.106 C 
BRANCH  84  85
ATOM     85  N   UNL     1      10.457   9.233  -0.856  1.00  0.00    -0.347 N 
ATOM     86  C   UNL     1       9.970   8.492  -1.904  1.00  0.00     0.261 C 
ATOM     87  H   UNL     1       9.853   9.353  -0.088  1.00  0.00     0.164 HD
ATOM     88  O   UNL     1       8.837   8.020  -1.828  1.00  0.00    -0.271 OA
BRANCH  86  89
ATOM     89  C   UNL     1      10.870   8.314  -3.131  1.00  0.00     0.266 C 
ATOM     90  C   UNL     1      10.710   9.502  -4.089  1.00  0.00     0.095 C 
ATOM     91  O   UNL     1      10.614   7.107  -3.883  1.00  0.00    -0.480 OA
ATOM     92  C   UNL     1      11.145   8.821  -5.330  1.00  0.00    -0.002 A 
ATOM     93  C   UNL     1      11.036   7.450  -5.143  1.00  0.00     0.123 A 
ATOM     94  C   UNL     1      11.574   9.346  -6.533  1.00  0.00     0.008 A 
ATOM     95  C   UNL     1      11.344   6.550  -6.139  1.00  0.00     0.047 A 
ATOM     96  C   UNL     1      11.914   8.451  -7.550  1.00  0.00     0.001 A 
ATOM     97  C   UNL     1      11.798   7.062  -7.356  1.00  0.00     0.004 A 
ENDBRANCH  86  89
ENDBRANCH  84  85
ENDBRANCH  77  80
ENDBRANCH  75  76
ENDBRANCH  74  75
ENDBRANCH   1  74
TORSDOF 15
