REMARK SMILES Cc1cc(C)c2c(c1)C=C(C(=O)NCCCNC(=O)c1ccc(-c3c4nc(c(-c5c(F)cc(S(=O)(=O)[O-])cc5F)c5ccc([nH]5)c(-c5c(F)cc(S(=O)(=O)[O-])cc5F)c5nc(c(-c6c(F)cc(S(=O)(=O)[O-])cc6F)c6ccc3[nH]6)C=C5)C=C4)cc1)[C@@H](C(F)(F)F)O2
REMARK SMILES IDX 16 1 15 2 14 3 13 4 11 5 12 6 10 8 1 9 2 10 3 11 8 12 4 13
REMARK SMILES IDX 7 14 5 15 6 16 9 17 91 18 86 19 87 20 88 21 89 22 90 23
REMARK SMILES IDX 17 24 18 25 19 27 20 28 21 29 85 30 22 31 84 32 23 33 24 34
REMARK SMILES IDX 25 35 78 36 26 37 83 38 77 39 79 40 27 41 82 42 76 43 75 44
REMARK SMILES IDX 28 46 62 47 41 48 61 49 42 50 45 51 60 52 80 53 43 54 44 55
REMARK SMILES IDX 59 57 81 58 46 59 29 60 30 61 39 62 31 63 32 64 38 65 40 66
REMARK SMILES IDX 33 67 34 68 35 69 36 70 37 71 63 72 64 73 73 74 65 75 66 76
REMARK SMILES IDX 72 77 74 78 67 79 68 80 69 81 70 82 71 83 47 84 48 85 57 86
REMARK SMILES IDX 49 87 50 88 56 89 58 90 51 91 52 92 53 93 54 94 55 95
REMARK H PARENT 13 7 17 26 79 45 45 56
REMARK Flexibility Score: inf
ROOT
ATOM      1  C   UNL     1      -3.941  -8.225   5.769  1.00  0.00     0.118 C 
ENDROOT
BRANCH   1   2
ATOM      2  C   UNL     1      -2.974  -7.864   4.647  1.00  0.00     0.042 C 
BRANCH   2   3
ATOM      3  C   UNL     1      -3.660  -7.125   3.508  1.00  0.00     0.118 C 
BRANCH   3   4
ATOM      4  N   UNL     1      -3.903  -5.726   3.831  1.00  0.00    -0.352 N 
ATOM      5  C   UNL     1      -3.389  -4.523   3.487  1.00  0.00     0.251 C 
ATOM      6  O   UNL     1      -3.929  -3.550   4.024  1.00  0.00    -0.270 OA
ATOM      7  H   UNL     1      -4.641  -5.630   4.475  1.00  0.00     0.163 HD
BRANCH   5   8
ATOM      8  C   UNL     1      -2.263  -4.309   2.534  1.00  0.00     0.067 C 
ATOM      9  C   UNL     1       0.969   0.236  -0.145  1.00  0.00     0.044 C 
ATOM     10  C   UNL     1       0.626  -1.172   0.244  1.00  0.00    -0.050 A 
ATOM     11  C   UNL     1       1.345  -2.244  -0.304  1.00  0.00     0.010 A 
ATOM     12  C   UNL     1      -0.435  -1.434   1.120  1.00  0.00     0.015 A 
ATOM     13  C   UNL     1       1.032  -3.567   0.033  1.00  0.00    -0.008 A 
ATOM     14  C   UNL     1      -0.764  -2.749   1.461  1.00  0.00     0.018 A 
ATOM     15  C   UNL     1       1.812  -4.710  -0.550  1.00  0.00     0.048 C 
ATOM     16  C   UNL     1      -0.030  -3.804   0.914  1.00  0.00     0.130 A 
ATOM     17  C   UNL     1      -1.840  -3.038   2.401  1.00  0.00     0.025 C 
ATOM     18  O   UNL     1      -0.285  -5.106   1.247  1.00  0.00    -0.475 OA
ATOM     19  C   UNL     1      -1.627  -5.397   1.716  1.00  0.00     0.314 C 
BRANCH  19  20
ATOM     20  C   UNL     1      -2.500  -5.827   0.522  1.00  0.00     0.429 C 
ATOM     21  F   UNL     1      -2.084  -7.022   0.034  1.00  0.00    -0.167 F 
ATOM     22  F   UNL     1      -3.803  -5.985   0.858  1.00  0.00    -0.167 F 
ATOM     23  F   UNL     1      -2.469  -4.941  -0.499  1.00  0.00    -0.167 F 
ENDBRANCH  19  20
ENDBRANCH   5   8
ENDBRANCH   3   4
ENDBRANCH   2   3
ENDBRANCH   1   2
BRANCH   1  24
ATOM     24  N   UNL     1      -4.943  -9.193   5.330  1.00  0.00    -0.352 N 
ATOM     25  C   UNL     1      -5.048 -10.537   5.592  1.00  0.00     0.251 C 
ATOM     26  H   UNL     1      -5.655  -8.825   4.758  1.00  0.00     0.163 HD
ATOM     27  O   UNL     1      -5.798 -11.232   4.910  1.00  0.00    -0.269 OA
BRANCH  25  28
ATOM     28  C   UNL     1      -4.258 -11.142   6.682  1.00  0.00     0.039 A 
ATOM     29  C   UNL     1      -3.660 -12.389   6.487  1.00  0.00     0.014 A 
ATOM     30  C   UNL     1      -4.128 -10.483   7.907  1.00  0.00     0.014 A 
ATOM     31  C   UNL     1      -2.872 -12.940   7.500  1.00  0.00     0.010 A 
ATOM     32  C   UNL     1      -3.268 -10.986   8.875  1.00  0.00     0.010 A 
ATOM     33  C   UNL     1      -2.640 -12.224   8.687  1.00  0.00    -0.014 A 
BRANCH  33  34
ATOM     34  C   UNL     1      -1.759 -12.760   9.753  1.00  0.00     0.031 A 
ATOM     35  C   UNL     1      -2.329 -13.065  11.112  1.00  0.00     0.074 A 
ATOM     36  C   UNL     1      -0.442 -12.913   9.513  1.00  0.00     0.049 A 
ATOM     37  N   UNL     1      -1.714 -13.481  12.188  1.00  0.00    -0.248 NA
ATOM     38  C   UNL     1      -3.773 -12.844  11.296  1.00  0.00     0.031 C 
ATOM     39  C   UNL     1       0.230 -12.597   8.251  1.00  0.00     0.029 A 
ATOM     40  N   UNL     1       0.568 -13.372  10.319  1.00  0.00    -0.354 N 
ATOM     41  C   UNL     1      -2.691 -13.561  13.173  1.00  0.00     0.074 A 
ATOM     42  C   UNL     1      -3.925 -13.088  12.589  1.00  0.00     0.031 C 
ATOM     43  C   UNL     1       1.532 -12.911   8.354  1.00  0.00     0.029 A 
ATOM     44  C   UNL     1       1.794 -13.416   9.697  1.00  0.00     0.049 A 
ATOM     45  H   UNL     1       0.429 -13.645  11.255  1.00  0.00     0.167 HD
ATOM     46  C   UNL     1      -2.577 -14.022  14.441  1.00  0.00     0.037 A 
ATOM     47  C   UNL     1       2.992 -13.825  10.158  1.00  0.00     0.037 A 
ATOM     48  C   UNL     1      -1.353 -14.528  15.001  1.00  0.00     0.049 A 
ATOM     49  C   UNL     1       3.094 -14.338  11.568  1.00  0.00     0.074 A 
ATOM     50  C   UNL     1      -1.141 -15.067  16.257  1.00  0.00     0.029 A 
ATOM     51  N   UNL     1      -0.137 -14.567  14.335  1.00  0.00    -0.354 N 
ATOM     52  N   UNL     1       2.149 -14.455  12.470  1.00  0.00    -0.248 NA
ATOM     53  C   UNL     1       4.421 -14.776  12.025  1.00  0.00     0.031 C 
ATOM     54  C   UNL     1       0.212 -15.403  16.362  1.00  0.00     0.029 A 
ATOM     55  C   UNL     1       0.834 -15.110  15.158  1.00  0.00     0.049 A 
ATOM     56  H   UNL     1       0.013 -14.255  13.413  1.00  0.00     0.167 HD
ATOM     57  C   UNL     1       2.760 -14.999  13.593  1.00  0.00     0.074 A 
ATOM     58  C   UNL     1       4.155 -15.197  13.255  1.00  0.00     0.031 C 
ATOM     59  C   UNL     1       2.215 -15.308  14.795  1.00  0.00     0.037 A 
BRANCH  46  60
ATOM     60  C   UNL     1      -3.814 -14.028  15.295  1.00  0.00     0.058 A 
ATOM     61  C   UNL     1      -4.864 -14.929  15.052  1.00  0.00     0.135 A 
ATOM     62  C   UNL     1      -3.939 -13.155  16.387  1.00  0.00     0.135 A 
ATOM     63  F   UNL     1      -4.803 -15.773  14.009  1.00  0.00    -0.206 F 
ATOM     64  C   UNL     1      -6.005 -14.946  15.845  1.00  0.00     0.059 A 
ATOM     65  C   UNL     1      -5.061 -13.174  17.210  1.00  0.00     0.059 A 
ATOM     66  F   UNL     1      -2.966 -12.273  16.662  1.00  0.00    -0.206 F 
ATOM     67  C   UNL     1      -6.095 -14.065  16.923  1.00  0.00     0.060 A 
BRANCH  67  68
ATOM     68  S   UNL     1      -7.581 -14.110  17.947  1.00  0.00     0.124 S 
ATOM     69  O   UNL     1      -8.568 -13.514  17.052  1.00  0.00    -0.237 OA
ATOM     70  O   UNL     1      -7.739 -15.538  18.203  1.00  0.00    -0.237 OA
ATOM     71  O   UNL     1      -7.220 -13.303  19.108  1.00  0.00    -0.744 OA
ENDBRANCH  67  68
ENDBRANCH  46  60
BRANCH  47  72
ATOM     72  C   UNL     1       4.174 -13.813   9.256  1.00  0.00     0.058 A 
ATOM     73  C   UNL     1       4.697 -15.011   8.748  1.00  0.00     0.135 A 
ATOM     74  C   UNL     1       4.777 -12.612   8.851  1.00  0.00     0.135 A 
ATOM     75  F   UNL     1       4.157 -16.184   9.110  1.00  0.00    -0.206 F 
ATOM     76  C   UNL     1       5.780 -15.021   7.875  1.00  0.00     0.059 A 
ATOM     77  C   UNL     1       5.848 -12.595   7.963  1.00  0.00     0.059 A 
ATOM     78  F   UNL     1       4.302 -11.438   9.295  1.00  0.00    -0.206 F 
ATOM     79  C   UNL     1       6.345 -13.807   7.484  1.00  0.00     0.060 A 
BRANCH  79  80
ATOM     80  S   UNL     1       7.710 -13.832   6.300  1.00  0.00     0.124 S 
ATOM     81  O   UNL     1       8.797 -14.360   7.116  1.00  0.00    -0.237 OA
ATOM     82  O   UNL     1       7.198 -14.723   5.263  1.00  0.00    -0.237 OA
ATOM     83  O   UNL     1       7.838 -12.432   5.905  1.00  0.00    -0.744 OA
ENDBRANCH  79  80
ENDBRANCH  47  72
BRANCH  59  84
ATOM     84  C   UNL     1       3.113 -15.908  15.837  1.00  0.00     0.058 A 
ATOM     85  C   UNL     1       4.014 -15.118  16.565  1.00  0.00     0.135 A 
ATOM     86  C   UNL     1       2.987 -17.262  16.189  1.00  0.00     0.135 A 
ATOM     87  F   UNL     1       4.175 -13.821  16.260  1.00  0.00    -0.206 F 
ATOM     88  C   UNL     1       4.758 -15.649  17.612  1.00  0.00     0.059 A 
ATOM     89  C   UNL     1       3.705 -17.808  17.247  1.00  0.00     0.059 A 
ATOM     90  F   UNL     1       2.131 -18.055  15.525  1.00  0.00    -0.206 F 
ATOM     91  C   UNL     1       4.588 -16.992  17.953  1.00  0.00     0.060 A 
BRANCH  91  92
ATOM     92  S   UNL     1       5.498 -17.643  19.370  1.00  0.00     0.124 S 
ATOM     93  O   UNL     1       6.857 -17.706  18.843  1.00  0.00    -0.237 OA
ATOM     94  O   UNL     1       5.258 -16.625  20.388  1.00  0.00    -0.237 OA
ATOM     95  O   UNL     1       4.862 -18.933  19.620  1.00  0.00    -0.744 OA
ENDBRANCH  91  92
ENDBRANCH  59  84
ENDBRANCH  33  34
ENDBRANCH  25  28
ENDBRANCH   1  24
TORSDOF 14
