REMARK SMILES CC1(C)Cc2c(-c3ccccc3)c(-c3ccc(Cl)cc3)c(CC(=O)NCCCNC(=O)c3ccc(-c4c5nc(c(-c6c(F)cc(S(=O)(=O)[O-])cc6F)c6ccc([nH]6)c(-c6c(F)cc(S(=O)(=O)[O-])cc6F)c6nc(c(-c7c(F)cc(S(=O)(=O)[O-])cc7F)c7ccc4[nH]7)C=C6)C=C5)cc3)n2C1
REMARK SMILES IDX 27 1 26 2 25 3 23 4 24 5 22 7 21 8 1 9 2 10 3 11 4 12 99 13
REMARK SMILES IDX 5 14 98 15 6 16 13 17 7 18 8 19 12 20 9 21 11 22 10 23 14 24
REMARK SMILES IDX 15 25 20 26 16 27 19 28 17 29 18 30 28 31 29 32 30 33 31 35
REMARK SMILES IDX 32 36 33 37 97 38 34 39 96 40 35 41 36 42 37 43 90 44 38 45
REMARK SMILES IDX 95 46 89 47 91 48 39 49 94 50 88 51 87 52 40 54 74 55 53 56
REMARK SMILES IDX 73 57 54 58 57 59 72 60 92 61 55 62 56 63 71 65 93 66 58 67
REMARK SMILES IDX 41 68 42 69 51 70 43 71 44 72 50 73 52 74 45 75 46 76 47 77
REMARK SMILES IDX 48 78 49 79 75 80 76 81 85 82 77 83 78 84 84 85 86 86 79 87
REMARK SMILES IDX 80 88 81 89 82 90 83 91 59 92 60 93 69 94 61 95 62 96 68 97
REMARK SMILES IDX 70 98 63 99 64 100 65 101 66 102 67 103
REMARK H PARENT 25 6 29 34 91 53 57 64
REMARK Flexibility Score: inf
ROOT
ATOM      1  C   UNL     1      -2.006   3.121   3.091  1.00  0.00     0.042 C 
ENDROOT
BRANCH   1   2
ATOM      2  C   UNL     1      -2.032   4.350   2.187  1.00  0.00     0.117 C 
BRANCH   2   3
ATOM      3  N   UNL     1      -1.528   5.555   2.805  1.00  0.00    -0.356 N 
ATOM      4  C   UNL     1      -0.288   6.120   2.689  1.00  0.00     0.225 C 
ATOM      5  O   UNL     1      -0.148   7.276   3.094  1.00  0.00    -0.275 OA
ATOM      6  H   UNL     1      -2.161   6.032   3.388  1.00  0.00     0.163 HD
BRANCH   4   7
ATOM      7  C   UNL     1       0.854   5.378   2.008  1.00  0.00     0.154 C 
BRANCH   7   8
ATOM      8  C   UNL     1       1.282   4.129   2.726  1.00  0.00     0.036 A 
ATOM      9  C   UNL     1       1.396   0.099  -0.196  1.00  0.00     0.013 C 
ATOM     10  C   UNL     1       0.882   0.841   1.038  1.00  0.00    -0.012 C 
ATOM     11  C   UNL     1      -0.541   0.343   1.347  1.00  0.00     0.013 C 
ATOM     12  C   UNL     1       1.792   0.606   2.284  1.00  0.00     0.063 C 
ATOM     13  C   UNL     1       0.925   2.384   0.814  1.00  0.00     0.129 C 
ATOM     14  C   UNL     1       1.782   1.935   2.941  1.00  0.00     0.027 A 
ATOM     15  N   UNL     1       1.296   2.906   2.121  1.00  0.00    -0.346 N 
ATOM     16  C   UNL     1       2.098   2.507   4.145  1.00  0.00     0.011 A 
ATOM     17  C   UNL     1       1.793   3.912   4.014  1.00  0.00     0.011 A 
BRANCH  16  18
ATOM     18  C   UNL     1       2.615   1.760   5.277  1.00  0.00    -0.016 A 
ATOM     19  C   UNL     1       3.733   0.931   5.132  1.00  0.00     0.009 A 
ATOM     20  C   UNL     1       2.003   1.874   6.531  1.00  0.00     0.009 A 
ATOM     21  C   UNL     1       4.225   0.214   6.224  1.00  0.00     0.001 A 
ATOM     22  C   UNL     1       2.498   1.159   7.622  1.00  0.00     0.001 A 
ATOM     23  C   UNL     1       3.605   0.328   7.467  1.00  0.00     0.000 A 
ENDBRANCH  16  18
BRANCH  17  24
ATOM     24  C   UNL     1       2.028   4.936   5.026  1.00  0.00    -0.016 A 
ATOM     25  C   UNL     1       3.332   5.143   5.501  1.00  0.00     0.010 A 
ATOM     26  C   UNL     1       0.968   5.607   5.645  1.00  0.00     0.010 A 
ATOM     27  C   UNL     1       3.569   6.000   6.579  1.00  0.00     0.021 A 
ATOM     28  C   UNL     1       1.206   6.483   6.710  1.00  0.00     0.021 A 
ATOM     29  C   UNL     1       2.504   6.666   7.179  1.00  0.00     0.041 A 
ATOM     30  Cl  UNL     1       2.795   7.692   8.527  1.00  0.00    -0.084 Cl
ENDBRANCH  17  24
ENDBRANCH   7   8
ENDBRANCH   4   7
ENDBRANCH   2   3
ENDBRANCH   1   2
BRANCH   1  31
ATOM     31  C   UNL     1      -3.168   3.055   4.058  1.00  0.00     0.118 C 
BRANCH  31  32
ATOM     32  N   UNL     1      -4.437   2.784   3.373  1.00  0.00    -0.352 N 
ATOM     33  C   UNL     1      -5.708   2.683   3.916  1.00  0.00     0.251 C 
ATOM     34  H   UNL     1      -4.378   2.658   2.398  1.00  0.00     0.163 HD
ATOM     35  O   UNL     1      -6.610   2.151   3.299  1.00  0.00    -0.269 OA
BRANCH  33  36
ATOM     36  C   UNL     1      -5.921   3.221   5.272  1.00  0.00     0.039 A 
ATOM     37  C   UNL     1      -6.659   2.522   6.231  1.00  0.00     0.014 A 
ATOM     38  C   UNL     1      -5.279   4.408   5.591  1.00  0.00     0.014 A 
ATOM     39  C   UNL     1      -6.657   2.987   7.546  1.00  0.00     0.010 A 
ATOM     40  C   UNL     1      -5.104   4.734   6.907  1.00  0.00     0.010 A 
ATOM     41  C   UNL     1      -5.852   4.083   7.883  1.00  0.00    -0.014 A 
BRANCH  41  42
ATOM     42  C   UNL     1      -5.699   4.532   9.266  1.00  0.00     0.031 A 
ATOM     43  C   UNL     1      -5.225   3.497  10.231  1.00  0.00     0.074 A 
ATOM     44  C   UNL     1      -5.697   5.848   9.581  1.00  0.00     0.049 A 
ATOM     45  N   UNL     1      -5.822   3.052  11.289  1.00  0.00    -0.248 NA
ATOM     46  C   UNL     1      -3.972   2.787   9.920  1.00  0.00     0.031 C 
ATOM     47  C   UNL     1      -5.806   6.997   8.668  1.00  0.00     0.029 A 
ATOM     48  N   UNL     1      -5.431   6.448  10.770  1.00  0.00    -0.354 N 
ATOM     49  C   UNL     1      -4.922   2.178  11.900  1.00  0.00     0.074 A 
ATOM     50  C   UNL     1      -3.901   1.909  10.923  1.00  0.00     0.031 C 
ATOM     51  C   UNL     1      -5.335   8.105   9.276  1.00  0.00     0.029 A 
ATOM     52  C   UNL     1      -5.086   7.791  10.668  1.00  0.00     0.049 A 
ATOM     53  H   UNL     1      -5.480   5.973  11.631  1.00  0.00     0.167 HD
ATOM     54  C   UNL     1      -4.955   1.937  13.242  1.00  0.00     0.037 A 
ATOM     55  C   UNL     1      -4.595   8.585  11.650  1.00  0.00     0.037 A 
ATOM     56  C   UNL     1      -6.199   2.378  13.821  1.00  0.00     0.049 A 
ATOM     57  C   UNL     1      -4.928   7.928  12.940  1.00  0.00     0.074 A 
ATOM     58  C   UNL     1      -7.532   2.085  13.604  1.00  0.00     0.029 A 
ATOM     59  N   UNL     1      -6.190   3.552  14.535  1.00  0.00    -0.354 N 
ATOM     60  N   UNL     1      -6.147   7.759  13.380  1.00  0.00    -0.248 NA
ATOM     61  C   UNL     1      -3.927   7.058  13.535  1.00  0.00     0.031 C 
ATOM     62  C   UNL     1      -8.212   3.329  13.754  1.00  0.00     0.029 A 
ATOM     63  C   UNL     1      -7.268   4.291  14.120  1.00  0.00     0.049 A 
ATOM     64  H   UNL     1      -5.531   3.815  15.218  1.00  0.00     0.167 HD
ATOM     65  C   UNL     1      -6.141   6.504  13.972  1.00  0.00     0.074 A 
ATOM     66  C   UNL     1      -4.727   6.170  14.130  1.00  0.00     0.031 C 
ATOM     67  C   UNL     1      -7.270   5.736  14.016  1.00  0.00     0.037 A 
BRANCH  54  68
ATOM     68  C   UNL     1      -3.739   1.640  14.096  1.00  0.00     0.058 A 
ATOM     69  C   UNL     1      -3.915   1.246  15.440  1.00  0.00     0.135 A 
ATOM     70  C   UNL     1      -2.419   1.999  13.741  1.00  0.00     0.135 A 
ATOM     71  F   UNL     1      -5.127   0.889  15.895  1.00  0.00    -0.206 F 
ATOM     72  C   UNL     1      -2.878   1.283  16.375  1.00  0.00     0.059 A 
ATOM     73  C   UNL     1      -1.360   1.987  14.642  1.00  0.00     0.059 A 
ATOM     74  F   UNL     1      -2.108   2.475  12.530  1.00  0.00    -0.206 F 
ATOM     75  C   UNL     1      -1.607   1.674  15.968  1.00  0.00     0.060 A 
BRANCH  75  76
ATOM     76  S   UNL     1      -0.294   1.839  17.190  1.00  0.00     0.124 S 
ATOM     77  O   UNL     1      -0.728   3.024  17.920  1.00  0.00    -0.237 OA
ATOM     78  O   UNL     1      -0.386   0.573  17.909  1.00  0.00    -0.237 OA
ATOM     79  O   UNL     1       0.905   2.002  16.372  1.00  0.00    -0.744 OA
ENDBRANCH  75  76
ENDBRANCH  54  68
BRANCH  55  80
ATOM     80  C   UNL     1      -3.610   9.691  11.530  1.00  0.00     0.058 A 
ATOM     81  C   UNL     1      -3.418  10.605  12.579  1.00  0.00     0.135 A 
ATOM     82  C   UNL     1      -2.647   9.716  10.499  1.00  0.00     0.135 A 
ATOM     83  F   UNL     1      -4.276  10.638  13.610  1.00  0.00    -0.206 F 
ATOM     84  C   UNL     1      -2.312  11.459  12.630  1.00  0.00     0.059 A 
ATOM     85  C   UNL     1      -1.542  10.566  10.522  1.00  0.00     0.059 A 
ATOM     86  F   UNL     1      -2.705   8.847   9.478  1.00  0.00    -0.206 F 
ATOM     87  C   UNL     1      -1.366  11.417  11.606  1.00  0.00     0.060 A 
BRANCH  87  88
ATOM     88  S   UNL     1       0.148  12.393  11.762  1.00  0.00     0.124 S 
ATOM     89  O   UNL     1      -0.356  13.756  11.634  1.00  0.00    -0.237 OA
ATOM     90  O   UNL     1       0.623  12.012  13.089  1.00  0.00    -0.237 OA
ATOM     91  O   UNL     1       0.971  11.926  10.650  1.00  0.00    -0.744 OA
ENDBRANCH  87  88
ENDBRANCH  55  80
BRANCH  67  92
ATOM     92  C   UNL     1      -8.595   6.385  13.700  1.00  0.00     0.058 A 
ATOM     93  C   UNL     1      -8.945   6.922  12.448  1.00  0.00     0.135 A 
ATOM     94  C   UNL     1      -9.612   6.309  14.665  1.00  0.00     0.135 A 
ATOM     95  F   UNL     1      -8.070   6.937  11.435  1.00  0.00    -0.206 F 
ATOM     96  C   UNL     1     -10.231   7.396  12.181  1.00  0.00     0.059 A 
ATOM     97  C   UNL     1     -10.910   6.746  14.410  1.00  0.00     0.059 A 
ATOM     98  F   UNL     1      -9.363   5.750  15.861  1.00  0.00    -0.206 F 
ATOM     99  C   UNL     1     -11.210   7.301  13.168  1.00  0.00     0.060 A 
BRANCH  99 100
ATOM    100  S   UNL     1     -12.893   7.835  12.793  1.00  0.00     0.124 S 
ATOM    101  O   UNL     1     -12.755   9.287  12.757  1.00  0.00    -0.237 OA
ATOM    102  O   UNL     1     -13.154   7.191  11.509  1.00  0.00    -0.237 OA
ATOM    103  O   UNL     1     -13.675   7.310  13.911  1.00  0.00    -0.744 OA
ENDBRANCH  99 100
ENDBRANCH  67  92
ENDBRANCH  41  42
ENDBRANCH  33  36
ENDBRANCH  31  32
ENDBRANCH   1  31
TORSDOF 16
