REMARK SMILES COc1cccc(-c2ccc(=O)n(CC(=O)N[C@@H](C(=O)NCCCNC(=O)c3ccc(-c4c5nc(c(-c6c(F)cc(S(=O)(=O)[O-])cc6F)c6ccc([nH]6)c(-c6c(F)cc(S(=O)(=O)[O-])cc6F)c6nc(c(-c7c(F)cc(S(=O)(=O)[O-])cc7F)c7ccc4[nH]7)C=C6)C=C5)cc3)C(C)C)n2)c1
REMARK SMILES IDX 22 1 21 2 19 3 20 4 18 6 17 7 15 8 16 9 14 11 13 12 8 13
REMARK SMILES IDX 9 14 97 15 10 16 11 17 12 18 7 19 3 20 4 21 98 22 5 23 6 24
REMARK SMILES IDX 2 25 1 26 94 27 95 28 96 29 23 30 24 31 25 32 26 33 27 35
REMARK SMILES IDX 28 36 29 37 93 38 30 39 92 40 31 41 32 42 33 43 86 44 34 45
REMARK SMILES IDX 91 46 85 47 87 48 35 49 90 50 84 51 83 52 36 54 70 55 49 56
REMARK SMILES IDX 69 57 50 58 53 59 68 60 88 61 51 62 52 63 67 65 89 66 54 67
REMARK SMILES IDX 37 68 38 69 47 70 39 71 40 72 46 73 48 74 41 75 42 76 43 77
REMARK SMILES IDX 44 78 45 79 71 80 72 81 81 82 73 83 74 84 80 85 82 86 75 87
REMARK SMILES IDX 76 88 77 89 78 90 79 91 55 92 56 93 65 94 57 95 58 96 64 97
REMARK SMILES IDX 66 98 59 99 60 100 61 101 62 102 63 103
REMARK H PARENT 21 5 17 10 25 34 87 53 53 64
REMARK Flexibility Score: inf
ROOT
ATOM      1  C   UNL     1       5.902   3.953   5.846  1.00  0.00     0.117 C 
ENDROOT
BRANCH   1   2
ATOM      2  N   UNL     1       5.513   5.330   6.008  1.00  0.00    -0.354 N 
ATOM      3  C   UNL     1       5.345   6.266   5.024  1.00  0.00     0.242 C 
ATOM      4  O   UNL     1       4.805   7.324   5.353  1.00  0.00    -0.273 OA
ATOM      5  H   UNL     1       5.349   5.632   6.931  1.00  0.00     0.163 HD
BRANCH   3   6
ATOM      6  C   UNL     1       5.745   5.938   3.545  1.00  0.00     0.173 C 
BRANCH   6   7
ATOM      7  N   UNL     1       7.172   5.586   3.520  1.00  0.00    -0.342 N 
ATOM      8  C   UNL     1       7.845   4.562   2.914  1.00  0.00     0.242 C 
ATOM      9  O   UNL     1       9.074   4.573   3.036  1.00  0.00    -0.273 OA
ATOM     10  H   UNL     1       7.747   6.199   4.032  1.00  0.00     0.164 HD
BRANCH   8  11
ATOM     11  C   UNL     1       7.154   3.507   2.034  1.00  0.00     0.248 C 
BRANCH  11  12
ATOM     12  N   UNL     1       6.244   2.604   2.736  1.00  0.00    -0.220 N 
ATOM     13  C   UNL     1       4.075   2.075   3.213  1.00  0.00     0.091 A 
ATOM     14  C   UNL     1       4.455   1.020   4.168  1.00  0.00     0.036 A 
ATOM     15  N   UNL     1       4.896   2.819   2.548  1.00  0.00    -0.169 NA
ATOM     16  C   UNL     1       5.762   0.769   4.268  1.00  0.00     0.075 A 
ATOM     17  C   UNL     1       6.755   1.552   3.492  1.00  0.00     0.267 A 
ATOM     18  O   UNL     1       7.944   1.279   3.603  1.00  0.00    -0.268 OA
BRANCH  13  19
ATOM     19  C   UNL     1       2.635   2.248   2.989  1.00  0.00     0.006 A 
ATOM     20  C   UNL     1       0.726   1.759   1.603  1.00  0.00     0.119 A 
ATOM     21  C   UNL     1      -0.035   2.631   2.388  1.00  0.00     0.046 A 
ATOM     22  C   UNL     1       2.073   1.578   1.899  1.00  0.00     0.056 A 
ATOM     23  C   UNL     1       0.536   3.302   3.477  1.00  0.00     0.005 A 
ATOM     24  C   UNL     1       1.882   3.112   3.783  1.00  0.00     0.011 A 
BRANCH  20  25
ATOM     25  O   UNL     1       0.061   1.167   0.565  1.00  0.00    -0.497 OA
ATOM     26  C   UNL     1       0.696   0.032  -0.016  1.00  0.00     0.278 C 
ENDBRANCH  20  25
ENDBRANCH  13  19
ENDBRANCH  11  12
ENDBRANCH   8  11
ENDBRANCH   6   7
BRANCH   6  27
ATOM     27  C   UNL     1       5.423   7.145   2.623  1.00  0.00     0.015 C 
ATOM     28  C   UNL     1       6.167   7.120   1.286  1.00  0.00     0.010 C 
ATOM     29  C   UNL     1       3.913   7.213   2.342  1.00  0.00     0.010 C 
ENDBRANCH   6  27
ENDBRANCH   3   6
ENDBRANCH   1   2
BRANCH   1  30
ATOM     30  C   UNL     1       7.139   3.568   6.635  1.00  0.00     0.042 C 
BRANCH  30  31
ATOM     31  C   UNL     1       6.806   3.103   8.041  1.00  0.00     0.118 C 
BRANCH  31  32
ATOM     32  N   UNL     1       6.029   1.864   8.051  1.00  0.00    -0.352 N 
ATOM     33  C   UNL     1       6.274   0.669   8.690  1.00  0.00     0.251 C 
ATOM     34  H   UNL     1       5.202   1.888   7.517  1.00  0.00     0.163 HD
ATOM     35  O   UNL     1       5.597  -0.309   8.411  1.00  0.00    -0.269 OA
BRANCH  33  36
ATOM     36  C   UNL     1       7.365   0.583   9.687  1.00  0.00     0.039 A 
ATOM     37  C   UNL     1       8.176  -0.554   9.718  1.00  0.00     0.014 A 
ATOM     38  C   UNL     1       7.603   1.636  10.571  1.00  0.00     0.014 A 
ATOM     39  C   UNL     1       9.277  -0.592  10.578  1.00  0.00     0.010 A 
ATOM     40  C   UNL     1       8.758   1.644  11.341  1.00  0.00     0.010 A 
ATOM     41  C   UNL     1       9.606   0.528  11.359  1.00  0.00    -0.014 A 
BRANCH  41  42
ATOM     42  C   UNL     1      10.824   0.568  12.208  1.00  0.00     0.031 A 
ATOM     43  C   UNL     1      10.694   0.794  13.692  1.00  0.00     0.074 A 
ATOM     44  C   UNL     1      12.043   0.505  11.635  1.00  0.00     0.049 A 
ATOM     45  N   UNL     1      11.629   0.995  14.584  1.00  0.00    -0.248 NA
ATOM     46  C   UNL     1       9.327   0.846  14.238  1.00  0.00     0.031 C 
ATOM     47  C   UNL     1      12.300   0.355  10.200  1.00  0.00     0.029 A 
ATOM     48  N   UNL     1      13.296   0.575  12.188  1.00  0.00    -0.354 N 
ATOM     49  C   UNL     1      10.966   1.226  15.783  1.00  0.00     0.074 A 
ATOM     50  C   UNL     1       9.549   1.200  15.495  1.00  0.00     0.031 C 
ATOM     51  C   UNL     1      13.626   0.317   9.991  1.00  0.00     0.029 A 
ATOM     52  C   UNL     1      14.313   0.482  11.267  1.00  0.00     0.049 A 
ATOM     53  H   UNL     1      13.453   0.683  13.155  1.00  0.00     0.167 HD
ATOM     54  C   UNL     1      11.488   1.413  17.018  1.00  0.00     0.037 A 
ATOM     55  C   UNL     1      15.649   0.531  11.432  1.00  0.00     0.037 A 
ATOM     56  C   UNL     1      12.898   1.389  17.304  1.00  0.00     0.049 A 
ATOM     57  C   UNL     1      16.207   0.707  12.818  1.00  0.00     0.074 A 
ATOM     58  C   UNL     1      13.530   1.493  18.530  1.00  0.00     0.029 A 
ATOM     59  N   UNL     1      13.895   1.242  16.350  1.00  0.00    -0.354 N 
ATOM     60  N   UNL     1      15.564   0.861  13.952  1.00  0.00    -0.248 NA
ATOM     61  C   UNL     1      17.670   0.710  12.950  1.00  0.00     0.031 C 
ATOM     62  C   UNL     1      14.911   1.444  18.313  1.00  0.00     0.029 A 
ATOM     63  C   UNL     1      15.138   1.265  16.958  1.00  0.00     0.049 A 
ATOM     64  H   UNL     1      13.741   1.136  15.383  1.00  0.00     0.167 HD
ATOM     65  C   UNL     1      16.543   0.953  14.934  1.00  0.00     0.074 A 
ATOM     66  C   UNL     1      17.821   0.826  14.263  1.00  0.00     0.031 C 
ATOM     67  C   UNL     1      16.399   1.126  16.272  1.00  0.00     0.037 A 
BRANCH  54  68
ATOM     68  C   UNL     1      10.527   1.645  18.152  1.00  0.00     0.058 A 
ATOM     69  C   UNL     1       9.684   0.625  18.624  1.00  0.00     0.135 A 
ATOM     70  C   UNL     1      10.458   2.895  18.788  1.00  0.00     0.135 A 
ATOM     71  F   UNL     1       9.695  -0.585  18.043  1.00  0.00    -0.206 F 
ATOM     72  C   UNL     1       8.782   0.846  19.660  1.00  0.00     0.059 A 
ATOM     73  C   UNL     1       9.584   3.130  19.847  1.00  0.00     0.059 A 
ATOM     74  F   UNL     1      11.240   3.906  18.379  1.00  0.00    -0.206 F 
ATOM     75  C   UNL     1       8.738   2.104  20.263  1.00  0.00     0.060 A 
BRANCH  75  76
ATOM     76  S   UNL     1       7.558   2.375  21.602  1.00  0.00     0.124 S 
ATOM     77  O   UNL     1       6.299   2.454  20.868  1.00  0.00    -0.237 OA
ATOM     78  O   UNL     1       7.738   1.183  22.424  1.00  0.00    -0.237 OA
ATOM     79  O   UNL     1       8.011   3.624  22.207  1.00  0.00    -0.744 OA
ENDBRANCH  75  76
ENDBRANCH  54  68
BRANCH  55  80
ATOM     80  C   UNL     1      16.549   0.376  10.258  1.00  0.00     0.058 A 
ATOM     81  C   UNL     1      17.300  -0.796  10.081  1.00  0.00     0.135 A 
ATOM     82  C   UNL     1      16.663   1.378   9.283  1.00  0.00     0.135 A 
ATOM     83  F   UNL     1      17.229  -1.781  10.990  1.00  0.00    -0.206 F 
ATOM     84  C   UNL     1      18.145  -0.964   8.989  1.00  0.00     0.059 A 
ATOM     85  C   UNL     1      17.483   1.224   8.168  1.00  0.00     0.059 A 
ATOM     86  F   UNL     1      15.953   2.511   9.397  1.00  0.00    -0.206 F 
ATOM     87  C   UNL     1      18.228   0.052   8.036  1.00  0.00     0.060 A 
BRANCH  87  88
ATOM     88  S   UNL     1      19.294  -0.197   6.599  1.00  0.00     0.124 S 
ATOM     89  O   UNL     1      20.619  -0.044   7.187  1.00  0.00    -0.237 OA
ATOM     90  O   UNL     1      18.934  -1.548   6.180  1.00  0.00    -0.237 OA
ATOM     91  O   UNL     1      18.881   0.865   5.686  1.00  0.00    -0.744 OA
ENDBRANCH  87  88
ENDBRANCH  55  80
BRANCH  67  92
ATOM     92  C   UNL     1      17.649   1.152  17.104  1.00  0.00     0.058 A 
ATOM     93  C   UNL     1      18.514   2.256  17.101  1.00  0.00     0.135 A 
ATOM     94  C   UNL     1      17.954   0.080  17.959  1.00  0.00     0.135 A 
ATOM     95  F   UNL     1      18.271   3.304  16.297  1.00  0.00    -0.206 F 
ATOM     96  C   UNL     1      19.651   2.289  17.902  1.00  0.00     0.059 A 
ATOM     97  C   UNL     1      19.070   0.102  18.787  1.00  0.00     0.059 A 
ATOM     98  F   UNL     1      17.151  -0.996  18.007  1.00  0.00    -0.206 F 
ATOM     99  C   UNL     1      19.919   1.207  18.744  1.00  0.00     0.060 A 
BRANCH  99 100
ATOM    100  S   UNL     1      21.376   1.278  19.807  1.00  0.00     0.124 S 
ATOM    101  O   UNL     1      22.450   1.034  18.850  1.00  0.00    -0.237 OA
ATOM    102  O   UNL     1      21.304   2.631  20.348  1.00  0.00    -0.237 OA
ATOM    103  O   UNL     1      21.143   0.210  20.774  1.00  0.00    -0.744 OA
ENDBRANCH  99 100
ENDBRANCH  67  92
ENDBRANCH  41  42
ENDBRANCH  33  36
ENDBRANCH  31  32
ENDBRANCH  30  31
ENDBRANCH   1  30
TORSDOF 19
