REMARK SMILES Cc1ccc([C@H](C)Nc2ccc(C(=O)NCCCNC(=O)c3ccc(-c4c5nc(c(-c6c(F)cc(S(=O)(=O)[O-])cc6F)c6ccc([nH]6)c(-c6c(F)cc(S(=O)(=O)[O-])cc6F)c6nc(c(-c7c(F)cc(S(=O)(=O)[O-])cc7F)c7ccc4[nH]7)C=C6)C=C5)cc3)cc2Cl)cc1F
REMARK SMILES IDX 17 1 16 2 15 3 13 4 14 5 12 7 9 8 10 9 89 10 11 11 88 12
REMARK SMILES IDX 90 13 8 14 6 16 7 17 5 18 1 19 2 20 3 21 92 22 4 23 91 24
REMARK SMILES IDX 93 25 18 26 19 27 20 28 21 30 22 31 23 32 87 33 24 34 86 35
REMARK SMILES IDX 25 36 26 37 27 38 80 39 28 40 85 41 79 42 81 43 29 44 84 45
REMARK SMILES IDX 78 46 77 47 30 49 64 50 43 51 63 52 44 53 47 54 62 55 82 56
REMARK SMILES IDX 45 57 46 58 61 60 83 61 48 62 31 63 32 64 41 65 33 66 34 67
REMARK SMILES IDX 40 68 42 69 35 70 36 71 37 72 38 73 39 74 65 75 66 76 75 77
REMARK SMILES IDX 67 78 68 79 74 80 76 81 69 82 70 83 71 84 72 85 73 86 49 87
REMARK SMILES IDX 50 88 59 89 51 90 52 91 58 92 60 93 53 94 54 95 55 96 56 97
REMARK SMILES IDX 57 98
REMARK H PARENT 15 6 8 15 19 29 81 48 47 59
REMARK Flexibility Score: inf
ROOT
ATOM      1  C   UNL     1      -8.926  -2.896   2.841  1.00  0.00     0.042 C 
ENDROOT
BRANCH   1   2
ATOM      2  C   UNL     1      -8.725  -1.636   3.701  1.00  0.00     0.118 C 
BRANCH   2   3
ATOM      3  N   UNL     1      -7.975  -1.923   4.920  1.00  0.00    -0.352 N 
ATOM      4  C   UNL     1      -6.645  -2.188   5.155  1.00  0.00     0.251 C 
ATOM      5  O   UNL     1      -6.293  -2.361   6.323  1.00  0.00    -0.269 OA
ATOM      6  H   UNL     1      -8.529  -1.927   5.734  1.00  0.00     0.163 HD
BRANCH   4   7
ATOM      7  C   UNL     1      -5.611  -2.273   4.077  1.00  0.00     0.041 A 
ATOM      8  C   UNL     1      -3.593  -2.473   2.044  1.00  0.00     0.053 A 
ATOM      9  C   UNL     1      -3.287  -2.551   3.420  1.00  0.00     0.028 A 
ATOM     10  C   UNL     1      -4.936  -2.271   1.722  1.00  0.00     0.065 A 
ATOM     11  C   UNL     1      -4.272  -2.452   4.420  1.00  0.00     0.016 A 
ATOM     12  C   UNL     1      -5.894  -2.189   2.725  1.00  0.00     0.036 A 
ATOM     13  Cl  UNL     1      -5.623  -2.161   0.131  1.00  0.00    -0.082 Cl
BRANCH   8  14
ATOM     14  N   UNL     1      -2.540  -2.545   1.153  1.00  0.00    -0.377 N 
ATOM     15  H   UNL     1      -1.768  -3.097   1.416  1.00  0.00     0.161 HD
BRANCH  14  16
ATOM     16  C   UNL     1      -2.467  -1.876  -0.139  1.00  0.00     0.106 C 
ATOM     17  C   UNL     1      -1.355  -0.826  -0.029  1.00  0.00     0.036 C 
BRANCH  16  18
ATOM     18  C   UNL     1      -2.375  -2.906  -1.262  1.00  0.00    -0.023 A 
ATOM     19  C   UNL     1      -2.793  -5.489  -4.725  1.00  0.00     0.047 C 
ATOM     20  C   UNL     1      -2.590  -4.632  -3.516  1.00  0.00    -0.015 A 
ATOM     21  C   UNL     1      -1.653  -3.595  -3.494  1.00  0.00     0.007 A 
ATOM     22  C   UNL     1      -3.389  -4.822  -2.394  1.00  0.00     0.126 A 
ATOM     23  C   UNL     1      -1.551  -2.741  -2.383  1.00  0.00     0.006 A 
ATOM     24  C   UNL     1      -3.268  -3.997  -1.281  1.00  0.00     0.045 A 
ATOM     25  F   UNL     1      -4.315  -5.791  -2.388  1.00  0.00    -0.207 F 
ENDBRANCH  16  18
ENDBRANCH  14  16
ENDBRANCH   8  14
ENDBRANCH   4   7
ENDBRANCH   2   3
ENDBRANCH   1   2
BRANCH   1  26
ATOM     26  C   UNL     1     -10.310  -3.439   2.967  1.00  0.00     0.118 C 
BRANCH  26  27
ATOM     27  N   UNL     1     -11.261  -2.624   2.222  1.00  0.00    -0.352 N 
ATOM     28  C   UNL     1     -12.294  -3.306   1.585  1.00  0.00     0.251 C 
ATOM     29  H   UNL     1     -11.177  -1.645   2.171  1.00  0.00     0.163 HD
ATOM     30  O   UNL     1     -12.195  -3.769   0.470  1.00  0.00    -0.269 OA
BRANCH  28  31
ATOM     31  C   UNL     1     -13.386  -3.696   2.521  1.00  0.00     0.039 A 
ATOM     32  C   UNL     1     -14.504  -4.413   2.091  1.00  0.00     0.014 A 
ATOM     33  C   UNL     1     -13.138  -3.528   3.883  1.00  0.00     0.014 A 
ATOM     34  C   UNL     1     -15.332  -5.008   3.044  1.00  0.00     0.010 A 
ATOM     35  C   UNL     1     -13.799  -4.284   4.786  1.00  0.00     0.010 A 
ATOM     36  C   UNL     1     -14.941  -4.963   4.384  1.00  0.00    -0.014 A 
BRANCH  36  37
ATOM     37  C   UNL     1     -15.598  -5.591   5.511  1.00  0.00     0.031 A 
ATOM     38  C   UNL     1     -15.612  -7.047   5.633  1.00  0.00     0.074 A 
ATOM     39  C   UNL     1     -15.893  -4.759   6.534  1.00  0.00     0.049 A 
ATOM     40  N   UNL     1     -16.406  -7.690   6.409  1.00  0.00    -0.248 NA
ATOM     41  C   UNL     1     -14.699  -7.909   4.890  1.00  0.00     0.031 C 
ATOM     42  C   UNL     1     -16.199  -5.040   7.924  1.00  0.00     0.029 A 
ATOM     43  N   UNL     1     -16.064  -3.379   6.430  1.00  0.00    -0.354 N 
ATOM     44  C   UNL     1     -15.931  -8.979   6.511  1.00  0.00     0.074 A 
ATOM     45  C   UNL     1     -14.925  -9.089   5.478  1.00  0.00     0.031 C 
ATOM     46  C   UNL     1     -16.803  -3.955   8.452  1.00  0.00     0.029 A 
ATOM     47  C   UNL     1     -17.022  -3.003   7.367  1.00  0.00     0.049 A 
ATOM     48  H   UNL     1     -15.593  -2.779   5.807  1.00  0.00     0.167 HD
ATOM     49  C   UNL     1     -16.342  -9.739   7.568  1.00  0.00     0.037 A 
ATOM     50  C   UNL     1     -18.240  -2.626   6.867  1.00  0.00     0.037 A 
ATOM     51  C   UNL     1     -17.283  -8.972   8.396  1.00  0.00     0.049 A 
ATOM     52  C   UNL     1     -19.301  -3.654   7.186  1.00  0.00     0.074 A 
ATOM     53  C   UNL     1     -17.104  -8.225   9.551  1.00  0.00     0.029 A 
ATOM     54  N   UNL     1     -18.503  -8.565   7.857  1.00  0.00    -0.354 N 
ATOM     55  N   UNL     1     -19.061  -4.913   7.441  1.00  0.00    -0.248 NA
ATOM     56  C   UNL     1     -20.709  -3.311   7.339  1.00  0.00     0.031 C 
ATOM     57  C   UNL     1     -18.172  -7.291   9.640  1.00  0.00     0.029 A 
ATOM     58  C   UNL     1     -19.013  -7.482   8.555  1.00  0.00     0.049 A 
ATOM     59  H   UNL     1     -18.942  -8.990   7.085  1.00  0.00     0.167 HD
ATOM     60  C   UNL     1     -20.220  -5.540   7.810  1.00  0.00     0.074 A 
ATOM     61  C   UNL     1     -21.222  -4.488   7.739  1.00  0.00     0.031 C 
ATOM     62  C   UNL     1     -20.274  -6.861   8.162  1.00  0.00     0.037 A 
BRANCH  49  63
ATOM     63  C   UNL     1     -15.671 -11.027   8.009  1.00  0.00     0.058 A 
ATOM     64  C   UNL     1     -15.674 -11.417   9.367  1.00  0.00     0.135 A 
ATOM     65  C   UNL     1     -14.989 -11.915   7.151  1.00  0.00     0.135 A 
ATOM     66  F   UNL     1     -16.340 -10.718  10.296  1.00  0.00    -0.206 F 
ATOM     67  C   UNL     1     -14.995 -12.543   9.843  1.00  0.00     0.059 A 
ATOM     68  C   UNL     1     -14.258 -13.019   7.609  1.00  0.00     0.059 A 
ATOM     69  F   UNL     1     -15.053 -11.783   5.819  1.00  0.00    -0.206 F 
ATOM     70  C   UNL     1     -14.267 -13.327   8.961  1.00  0.00     0.060 A 
BRANCH  70  71
ATOM     71  S   UNL     1     -13.383 -14.764   9.599  1.00  0.00     0.124 S 
ATOM     72  O   UNL     1     -12.531 -14.172  10.626  1.00  0.00    -0.237 OA
ATOM     73  O   UNL     1     -14.475 -15.600  10.086  1.00  0.00    -0.237 OA
ATOM     74  O   UNL     1     -12.677 -15.278   8.429  1.00  0.00    -0.744 OA
ENDBRANCH  70  71
ENDBRANCH  49  63
BRANCH  50  75
ATOM     75  C   UNL     1     -18.089  -1.832   5.590  1.00  0.00     0.058 A 
ATOM     76  C   UNL     1     -17.441  -0.581   5.702  1.00  0.00     0.135 A 
ATOM     77  C   UNL     1     -18.040  -2.454   4.329  1.00  0.00     0.135 A 
ATOM     78  F   UNL     1     -17.470   0.082   6.870  1.00  0.00    -0.206 F 
ATOM     79  C   UNL     1     -16.616  -0.078   4.695  1.00  0.00     0.059 A 
ATOM     80  C   UNL     1     -17.223  -1.958   3.298  1.00  0.00     0.059 A 
ATOM     81  F   UNL     1     -18.657  -3.629   4.132  1.00  0.00    -0.206 F 
ATOM     82  C   UNL     1     -16.449  -0.817   3.527  1.00  0.00     0.060 A 
BRANCH  82  83
ATOM     83  S   UNL     1     -15.114  -0.329   2.398  1.00  0.00     0.124 S 
ATOM     84  O   UNL     1     -15.398   1.085   2.175  1.00  0.00    -0.237 OA
ATOM     85  O   UNL     1     -13.914  -0.602   3.192  1.00  0.00    -0.237 OA
ATOM     86  O   UNL     1     -15.308  -1.196   1.243  1.00  0.00    -0.744 OA
ENDBRANCH  82  83
ENDBRANCH  50  75
BRANCH  62  87
ATOM     87  C   UNL     1     -21.545  -7.675   8.265  1.00  0.00     0.058 A 
ATOM     88  C   UNL     1     -22.723  -7.374   7.560  1.00  0.00     0.135 A 
ATOM     89  C   UNL     1     -21.561  -8.902   8.976  1.00  0.00     0.135 A 
ATOM     90  F   UNL     1     -22.802  -6.316   6.740  1.00  0.00    -0.206 F 
ATOM     91  C   UNL     1     -23.858  -8.178   7.621  1.00  0.00     0.059 A 
ATOM     92  C   UNL     1     -22.658  -9.757   8.988  1.00  0.00     0.059 A 
ATOM     93  F   UNL     1     -20.496  -9.328   9.671  1.00  0.00    -0.206 F 
ATOM     94  C   UNL     1     -23.817  -9.370   8.334  1.00  0.00     0.060 A 
BRANCH  94  95
ATOM     95  S   UNL     1     -25.261 -10.441   8.351  1.00  0.00     0.124 S 
ATOM     96  O   UNL     1     -26.008  -9.901   9.483  1.00  0.00    -0.237 OA
ATOM     97  O   UNL     1     -25.852 -10.206   7.036  1.00  0.00    -0.237 OA
ATOM     98  O   UNL     1     -24.691 -11.770   8.543  1.00  0.00    -0.744 OA
ENDBRANCH  94  95
ENDBRANCH  62  87
ENDBRANCH  36  37
ENDBRANCH  28  31
ENDBRANCH  26  27
ENDBRANCH   1  26
TORSDOF 16
