REMARK SMILES O=C(COc1cc(-c2ccccc2)nc(NCc2ccc(Cl)cc2)n1)NCCCNC(=O)c1ccc(-c2c3nc(c(-c4c(F)cc(S(=O)(=O)[O-])cc4F)c4ccc([nH]4)c(-c4c(F)cc(S(=O)(=O)[O-])cc4F)c4nc(c(-c5c(F)cc(S(=O)(=O)[O-])cc5F)c5ccc2[nH]5)C=C4)C=C3)cc1
REMARK SMILES IDX 27 1 26 2 1 3 2 4 3 6 4 7 5 8 6 9 25 10 7 11 15 12 14 13
REMARK SMILES IDX 8 14 9 15 13 16 10 17 12 18 11 19 16 20 17 22 18 23 19 24
REMARK SMILES IDX 24 25 20 26 23 27 21 28 22 29 28 30 29 31 30 32 31 33 32 35
REMARK SMILES IDX 33 36 34 37 98 38 35 39 97 40 36 41 37 42 38 43 91 44 39 45
REMARK SMILES IDX 96 46 90 47 92 48 40 49 95 50 89 51 88 52 41 54 75 55 54 56
REMARK SMILES IDX 74 57 55 58 58 59 73 60 93 61 56 62 57 63 72 65 94 66 59 67
REMARK SMILES IDX 42 68 43 69 52 70 44 71 45 72 51 73 53 74 46 75 47 76 48 77
REMARK SMILES IDX 49 78 50 79 76 80 77 81 86 82 78 83 79 84 85 85 87 86 80 87
REMARK SMILES IDX 81 88 82 89 83 90 84 91 60 92 61 93 70 94 62 95 63 96 69 97
REMARK SMILES IDX 71 98 64 99 65 100 66 101 67 102 68 103
REMARK H PARENT 26 5 16 21 30 34 92 53 58 64
REMARK Flexibility Score: inf
ROOT
ATOM      1  C   UNL     1       2.215   1.590   1.694  1.00  0.00     0.117 C 
ENDROOT
BRANCH   1   2
ATOM      2  N   UNL     1       2.919   0.724   0.770  1.00  0.00    -0.353 N 
ATOM      3  O   UNL     1       1.126  -0.620   0.244  1.00  0.00    -0.271 OA
ATOM      4  C   UNL     1       2.276  -0.252   0.031  1.00  0.00     0.258 C 
ATOM      5  H   UNL     1       3.891   0.836   0.663  1.00  0.00     0.163 HD
BRANCH   4   6
ATOM      6  C   UNL     1       3.116  -0.799  -1.128  1.00  0.00     0.331 C 
BRANCH   6   7
ATOM      7  O   UNL     1       3.944   0.189  -1.748  1.00  0.00    -0.467 OA
BRANCH   7   8
ATOM      8  C   UNL     1       3.248   0.940  -2.667  1.00  0.00     0.219 A 
ATOM      9  C   UNL     1       2.320   1.861  -2.259  1.00  0.00     0.097 A 
ATOM     10  N   UNL     1       3.631   0.795  -3.942  1.00  0.00    -0.177 NA
ATOM     11  C   UNL     1       1.724   2.604  -3.248  1.00  0.00     0.080 A 
ATOM     12  C   UNL     1       3.018   1.575  -4.841  1.00  0.00     0.226 A 
ATOM     13  N   UNL     1       2.055   2.458  -4.543  1.00  0.00    -0.213 NA
BRANCH  11  14
ATOM     14  C   UNL     1       0.686   3.591  -2.924  1.00  0.00     0.000 A 
ATOM     15  C   UNL     1      -0.565   3.555  -3.560  1.00  0.00     0.010 A 
ATOM     16  C   UNL     1       0.891   4.558  -1.922  1.00  0.00     0.010 A 
ATOM     17  C   UNL     1      -1.584   4.436  -3.189  1.00  0.00     0.001 A 
ATOM     18  C   UNL     1      -0.124   5.442  -1.554  1.00  0.00     0.001 A 
ATOM     19  C   UNL     1      -1.364   5.376  -2.183  1.00  0.00     0.000 A 
ENDBRANCH  11  14
BRANCH  12  20
ATOM     20  N   UNL     1       3.372   1.546  -6.156  1.00  0.00    -0.350 N 
ATOM     21  H   UNL     1       2.849   2.095  -6.785  1.00  0.00     0.164 HD
BRANCH  20  22
ATOM     22  C   UNL     1       4.455   0.768  -6.686  1.00  0.00     0.152 C 
BRANCH  22  23
ATOM     23  C   UNL     1       3.946  -0.229  -7.707  1.00  0.00    -0.029 A 
ATOM     24  C   UNL     1       3.090   0.167  -8.749  1.00  0.00     0.007 A 
ATOM     25  C   UNL     1       4.361  -1.568  -7.649  1.00  0.00     0.007 A 
ATOM     26  C   UNL     1       2.639  -0.759  -9.693  1.00  0.00     0.021 A 
ATOM     27  C   UNL     1       3.917  -2.493  -8.598  1.00  0.00     0.021 A 
ATOM     28  C   UNL     1       3.055  -2.085  -9.613  1.00  0.00     0.041 A 
ATOM     29  Cl  UNL     1       2.503  -3.225 -10.778  1.00  0.00    -0.084 Cl
ENDBRANCH  22  23
ENDBRANCH  20  22
ENDBRANCH  12  20
ENDBRANCH   7   8
ENDBRANCH   6   7
ENDBRANCH   4   6
ENDBRANCH   1   2
BRANCH   1  30
ATOM     30  C   UNL     1       2.524   1.300   3.153  1.00  0.00     0.042 C 
BRANCH  30  31
ATOM     31  C   UNL     1       3.994   1.449   3.531  1.00  0.00     0.118 C 
BRANCH  31  32
ATOM     32  N   UNL     1       4.508   2.799   3.348  1.00  0.00    -0.352 N 
ATOM     33  C   UNL     1       5.224   3.599   4.204  1.00  0.00     0.251 C 
ATOM     34  H   UNL     1       4.312   3.202   2.471  1.00  0.00     0.163 HD
ATOM     35  O   UNL     1       5.452   4.764   3.874  1.00  0.00    -0.269 OA
BRANCH  33  36
ATOM     36  C   UNL     1       5.695   3.097   5.516  1.00  0.00     0.039 A 
ATOM     37  C   UNL     1       5.641   3.957   6.617  1.00  0.00     0.014 A 
ATOM     38  C   UNL     1       6.208   1.806   5.673  1.00  0.00     0.014 A 
ATOM     39  C   UNL     1       6.042   3.504   7.877  1.00  0.00     0.010 A 
ATOM     40  C   UNL     1       6.528   1.329   6.944  1.00  0.00     0.010 A 
ATOM     41  C   UNL     1       6.455   2.173   8.061  1.00  0.00    -0.014 A 
BRANCH  41  42
ATOM     42  C   UNL     1       6.801   1.664   9.416  1.00  0.00     0.031 A 
ATOM     43  C   UNL     1       8.195   1.185   9.726  1.00  0.00     0.074 A 
ATOM     44  C   UNL     1       5.844   1.601  10.364  1.00  0.00     0.049 A 
ATOM     45  N   UNL     1       8.676   0.717  10.850  1.00  0.00    -0.248 NA
ATOM     46  C   UNL     1       9.170   1.209   8.624  1.00  0.00     0.031 C 
ATOM     47  C   UNL     1       4.440   1.973  10.174  1.00  0.00     0.029 A 
ATOM     48  N   UNL     1       5.904   1.203  11.677  1.00  0.00    -0.354 N 
ATOM     49  C   UNL     1      10.002   0.388  10.591  1.00  0.00     0.074 A 
ATOM     50  C   UNL     1      10.233   0.652   9.187  1.00  0.00     0.031 C 
ATOM     51  C   UNL     1       3.782   1.820  11.334  1.00  0.00     0.029 A 
ATOM     52  C   UNL     1       4.705   1.309  12.342  1.00  0.00     0.049 A 
ATOM     53  H   UNL     1       6.728   0.872  12.102  1.00  0.00     0.167 HD
ATOM     54  C   UNL     1      10.948  -0.067  11.448  1.00  0.00     0.037 A 
ATOM     55  C   UNL     1       4.383   1.030  13.620  1.00  0.00     0.037 A 
ATOM     56  C   UNL     1      10.720  -0.309  12.850  1.00  0.00     0.049 A 
ATOM     57  C   UNL     1       5.455   0.542  14.557  1.00  0.00     0.074 A 
ATOM     58  C   UNL     1      11.628  -0.715  13.812  1.00  0.00     0.029 A 
ATOM     59  N   UNL     1       9.497  -0.172  13.490  1.00  0.00    -0.354 N 
ATOM     60  N   UNL     1       6.722   0.307  14.310  1.00  0.00    -0.248 NA
ATOM     61  C   UNL     1       5.056   0.293  15.949  1.00  0.00     0.031 C 
ATOM     62  C   UNL     1      10.945  -0.867  15.024  1.00  0.00     0.029 A 
ATOM     63  C   UNL     1       9.623  -0.504  14.830  1.00  0.00     0.049 A 
ATOM     64  H   UNL     1       8.662   0.118  13.057  1.00  0.00     0.167 HD
ATOM     65  C   UNL     1       7.277  -0.090  15.521  1.00  0.00     0.074 A 
ATOM     66  C   UNL     1       6.212  -0.046  16.502  1.00  0.00     0.031 C 
ATOM     67  C   UNL     1       8.554  -0.457  15.797  1.00  0.00     0.037 A 
BRANCH  54  68
ATOM     68  C   UNL     1      12.325  -0.325  10.895  1.00  0.00     0.058 A 
ATOM     69  C   UNL     1      13.162   0.725  10.482  1.00  0.00     0.135 A 
ATOM     70  C   UNL     1      12.832  -1.632  10.813  1.00  0.00     0.135 A 
ATOM     71  F   UNL     1      12.727   1.994  10.524  1.00  0.00    -0.206 F 
ATOM     72  C   UNL     1      14.437   0.486   9.979  1.00  0.00     0.059 A 
ATOM     73  C   UNL     1      14.116  -1.892  10.342  1.00  0.00     0.059 A 
ATOM     74  F   UNL     1      12.077  -2.675  11.195  1.00  0.00    -0.206 F 
ATOM     75  C   UNL     1      14.905  -0.827   9.913  1.00  0.00     0.060 A 
BRANCH  75  76
ATOM     76  S   UNL     1      16.564  -1.118   9.262  1.00  0.00     0.124 S 
ATOM     77  O   UNL     1      16.367  -0.861   7.838  1.00  0.00    -0.237 OA
ATOM     78  O   UNL     1      17.360  -0.127   9.980  1.00  0.00    -0.237 OA
ATOM     79  O   UNL     1      16.830  -2.508   9.617  1.00  0.00    -0.744 OA
ENDBRANCH  75  76
ENDBRANCH  54  68
BRANCH  55  80
ATOM     80  C   UNL     1       2.990   1.241  14.099  1.00  0.00     0.058 A 
ATOM     81  C   UNL     1       2.683   2.274  14.998  1.00  0.00     0.135 A 
ATOM     82  C   UNL     1       1.938   0.423  13.661  1.00  0.00     0.135 A 
ATOM     83  F   UNL     1       3.655   3.080  15.450  1.00  0.00    -0.206 F 
ATOM     84  C   UNL     1       1.387   2.476  15.462  1.00  0.00     0.059 A 
ATOM     85  C   UNL     1       0.629   0.623  14.089  1.00  0.00     0.059 A 
ATOM     86  F   UNL     1       2.175  -0.568  12.787  1.00  0.00    -0.206 F 
ATOM     87  C   UNL     1       0.365   1.646  14.999  1.00  0.00     0.060 A 
BRANCH  87  88
ATOM     88  S   UNL     1      -1.321   1.947  15.570  1.00  0.00     0.124 S 
ATOM     89  O   UNL     1      -1.257   1.462  16.944  1.00  0.00    -0.237 OA
ATOM     90  O   UNL     1      -1.447   3.392  15.406  1.00  0.00    -0.237 OA
ATOM     91  O   UNL     1      -2.132   1.148  14.655  1.00  0.00    -0.744 OA
ENDBRANCH  87  88
ENDBRANCH  55  80
BRANCH  67  92
ATOM     92  C   UNL     1       8.876  -0.808  17.225  1.00  0.00     0.058 A 
ATOM     93  C   UNL     1       8.399  -1.985  17.824  1.00  0.00     0.135 A 
ATOM     94  C   UNL     1       9.690   0.036  17.998  1.00  0.00     0.135 A 
ATOM     95  F   UNL     1       7.615  -2.826  17.132  1.00  0.00    -0.206 F 
ATOM     96  C   UNL     1       8.684  -2.292  19.151  1.00  0.00     0.059 A 
ATOM     97  C   UNL     1      10.012  -0.266  19.317  1.00  0.00     0.059 A 
ATOM     98  F   UNL     1      10.184   1.168  17.471  1.00  0.00    -0.206 F 
ATOM     99  C   UNL     1       9.488  -1.423  19.891  1.00  0.00     0.060 A 
BRANCH  99 100
ATOM    100  S   UNL     1       9.852  -1.832  21.611  1.00  0.00     0.124 S 
ATOM    101  O   UNL     1       8.584  -1.521  22.261  1.00  0.00    -0.237 OA
ATOM    102  O   UNL     1      10.193  -3.249  21.531  1.00  0.00    -0.237 OA
ATOM    103  O   UNL     1      10.963  -0.945  21.944  1.00  0.00    -0.744 OA
ENDBRANCH  99 100
ENDBRANCH  67  92
ENDBRANCH  41  42
ENDBRANCH  33  36
ENDBRANCH  31  32
ENDBRANCH  30  31
ENDBRANCH   1  30
TORSDOF 19
