REMARK SMILES C[C@H](O)[C@@H](NC(=O)c1ccc(Cl)c(S(C)(=O)=O)c1)C(=O)NCCCNC(=O)c1ccc(-c2c3nc(c(-c4c(F)cc(S(=O)(=O)[O-])cc4F)c4ccc([nH]4)c(-c4c(F)cc(S(=O)(=O)[O-])cc4F)c4nc(c(-c5c(F)cc(S(=O)(=O)[O-])cc5F)c5ccc2[nH]5)C=C4)C=C3)cc1
REMARK SMILES IDX 23 1 22 2 21 3 19 4 20 5 4 7 2 8 1 9 3 10 5 12 6 13 7 15
REMARK SMILES IDX 8 16 9 17 18 18 10 19 13 20 11 21 12 22 14 23 15 24 16 25
REMARK SMILES IDX 17 26 24 27 25 28 26 29 27 31 28 32 29 33 93 34 30 35 92 36
REMARK SMILES IDX 31 37 32 38 33 39 86 40 34 41 91 42 85 43 87 44 35 45 90 46
REMARK SMILES IDX 84 47 83 48 36 50 70 51 49 52 69 53 50 54 53 55 68 56 88 57
REMARK SMILES IDX 51 58 52 59 67 61 89 62 54 63 37 64 38 65 47 66 39 67 40 68
REMARK SMILES IDX 46 69 48 70 41 71 42 72 43 73 44 74 45 75 71 76 72 77 81 78
REMARK SMILES IDX 73 79 74 80 80 81 82 82 75 83 76 84 77 85 78 86 79 87 55 88
REMARK SMILES IDX 56 89 65 90 57 91 58 92 64 93 66 94 59 95 60 96 61 97 62 98
REMARK SMILES IDX 63 99
REMARK H PARENT 21 6 3 11 5 14 25 30 87 49 53 60
REMARK Flexibility Score: inf
ROOT
ATOM      1  C   UNL     1       1.193   4.721   1.020  1.00  0.00     0.042 C 
ENDROOT
BRANCH   1   2
ATOM      2  C   UNL     1      -0.121   3.968   0.944  1.00  0.00     0.117 C 
BRANCH   2   3
ATOM      3  N   UNL     1      -0.628   3.931  -0.417  1.00  0.00    -0.354 N 
ATOM      4  C   UNL     1      -1.104   2.882  -1.139  1.00  0.00     0.245 C 
ATOM      5  O   UNL     1      -1.391   3.080  -2.323  1.00  0.00    -0.273 OA
ATOM      6  H   UNL     1      -0.626   4.796  -0.887  1.00  0.00     0.163 HD
BRANCH   4   7
ATOM      7  C   UNL     1      -1.174   1.466  -0.550  1.00  0.00     0.200 C 
BRANCH   7   8
ATOM      8  C   UNL     1       0.259   0.864  -0.547  1.00  0.00     0.143 C 
ATOM      9  C   UNL     1       0.936   0.865  -1.915  1.00  0.00     0.041 C 
BRANCH   8  10
ATOM     10  O   UNL     1       0.191  -0.489  -0.068  1.00  0.00    -0.391 OA
ATOM     11  H   UNL     1      -0.354  -1.018  -0.671  1.00  0.00     0.211 HD
ENDBRANCH   8  10
ENDBRANCH   7   8
BRANCH   7  12
ATOM     12  N   UNL     1      -1.760   1.369   0.808  1.00  0.00    -0.338 N 
ATOM     13  C   UNL     1      -2.921   1.881   1.331  1.00  0.00     0.252 C 
ATOM     14  H   UNL     1      -1.222   0.847   1.446  1.00  0.00     0.164 HD
ATOM     15  O   UNL     1      -3.322   1.528   2.436  1.00  0.00    -0.269 OA
BRANCH  13  16
ATOM     16  C   UNL     1      -3.623   2.988   0.652  1.00  0.00     0.041 A 
ATOM     17  C   UNL     1      -4.159   2.857  -0.622  1.00  0.00     0.015 A 
ATOM     18  C   UNL     1      -3.669   4.224   1.309  1.00  0.00     0.035 A 
ATOM     19  C   UNL     1      -4.656   3.992  -1.272  1.00  0.00     0.023 A 
ATOM     20  C   UNL     1      -4.162   5.366   0.651  1.00  0.00     0.086 A 
ATOM     21  C   UNL     1      -4.640   5.255  -0.656  1.00  0.00     0.059 A 
ATOM     22  Cl  UNL     1      -5.191   6.562  -1.632  1.00  0.00    -0.083 Cl
BRANCH  20  23
ATOM     23  S   UNL     1      -3.919   6.907   1.502  1.00  0.00     0.177 S 
ATOM     24  C   UNL     1      -4.835   6.753   3.012  1.00  0.00     0.164 C 
ATOM     25  O   UNL     1      -2.504   6.910   1.833  1.00  0.00    -0.224 OA
ATOM     26  O   UNL     1      -4.513   7.997   0.766  1.00  0.00    -0.224 OA
ENDBRANCH  20  23
ENDBRANCH  13  16
ENDBRANCH   7  12
ENDBRANCH   4   7
ENDBRANCH   2   3
ENDBRANCH   1   2
BRANCH   1  27
ATOM     27  C   UNL     1       1.035   6.214   0.775  1.00  0.00     0.118 C 
BRANCH  27  28
ATOM     28  N   UNL     1       0.252   6.880   1.807  1.00  0.00    -0.352 N 
ATOM     29  C   UNL     1       0.557   8.011   2.525  1.00  0.00     0.251 C 
ATOM     30  H   UNL     1      -0.615   6.463   2.018  1.00  0.00     0.163 HD
ATOM     31  O   UNL     1      -0.101   8.345   3.504  1.00  0.00    -0.269 OA
BRANCH  29  32
ATOM     32  C   UNL     1       1.715   8.812   2.097  1.00  0.00     0.039 A 
ATOM     33  C   UNL     1       2.641   9.230   3.052  1.00  0.00     0.014 A 
ATOM     34  C   UNL     1       1.906   9.086   0.739  1.00  0.00     0.014 A 
ATOM     35  C   UNL     1       3.814   9.848   2.628  1.00  0.00     0.010 A 
ATOM     36  C   UNL     1       3.116   9.607   0.314  1.00  0.00     0.010 A 
ATOM     37  C   UNL     1       4.080   9.991   1.256  1.00  0.00    -0.014 A 
BRANCH  37  38
ATOM     38  C   UNL     1       5.368  10.541   0.781  1.00  0.00     0.031 A 
ATOM     39  C   UNL     1       5.381  11.820  -0.008  1.00  0.00     0.074 A 
ATOM     40  C   UNL     1       6.501   9.850   1.009  1.00  0.00     0.049 A 
ATOM     41  N   UNL     1       6.390  12.425  -0.576  1.00  0.00    -0.248 NA
ATOM     42  C   UNL     1       4.085  12.488  -0.216  1.00  0.00     0.031 C 
ATOM     43  C   UNL     1       6.585   8.565   1.711  1.00  0.00     0.029 A 
ATOM     44  N   UNL     1       7.801  10.127   0.675  1.00  0.00    -0.354 N 
ATOM     45  C   UNL     1       5.850  13.536  -1.212  1.00  0.00     0.074 A 
ATOM     46  C   UNL     1       4.418  13.485  -1.020  1.00  0.00     0.031 C 
ATOM     47  C   UNL     1       7.872   8.188   1.789  1.00  0.00     0.029 A 
ATOM     48  C   UNL     1       8.697   9.181   1.113  1.00  0.00     0.049 A 
ATOM     49  H   UNL     1       8.067  10.928   0.168  1.00  0.00     0.167 HD
ATOM     50  C   UNL     1       6.497  14.528  -1.867  1.00  0.00     0.037 A 
ATOM     51  C   UNL     1      10.036   9.130   0.983  1.00  0.00     0.037 A 
ATOM     52  C   UNL     1       7.925  14.580  -2.020  1.00  0.00     0.049 A 
ATOM     53  C   UNL     1      10.731  10.254   0.264  1.00  0.00     0.074 A 
ATOM     54  C   UNL     1       8.692  15.549  -2.640  1.00  0.00     0.029 A 
ATOM     55  N   UNL     1       8.803  13.622  -1.532  1.00  0.00    -0.354 N 
ATOM     56  N   UNL     1      10.209  11.318  -0.298  1.00  0.00    -0.248 NA
ATOM     57  C   UNL     1      12.194  10.175   0.166  1.00  0.00     0.031 C 
ATOM     58  C   UNL     1      10.035  15.167  -2.544  1.00  0.00     0.029 A 
ATOM     59  C   UNL     1      10.105  13.977  -1.835  1.00  0.00     0.049 A 
ATOM     60  H   UNL     1       8.539  12.810  -1.042  1.00  0.00     0.167 HD
ATOM     61  C   UNL     1      11.282  12.052  -0.790  1.00  0.00     0.074 A 
ATOM     62  C   UNL     1      12.482  11.313  -0.451  1.00  0.00     0.031 C 
ATOM     63  C   UNL     1      11.278  13.228  -1.463  1.00  0.00     0.037 A 
BRANCH  50  64
ATOM     64  C   UNL     1       5.662  15.641  -2.435  1.00  0.00     0.058 A 
ATOM     65  C   UNL     1       5.030  16.577  -1.600  1.00  0.00     0.135 A 
ATOM     66  C   UNL     1       5.502  15.787  -3.822  1.00  0.00     0.135 A 
ATOM     67  F   UNL     1       5.133  16.470  -0.266  1.00  0.00    -0.206 F 
ATOM     68  C   UNL     1       4.247  17.602  -2.118  1.00  0.00     0.059 A 
ATOM     69  C   UNL     1       4.744  16.821  -4.363  1.00  0.00     0.059 A 
ATOM     70  F   UNL     1       6.080  14.916  -4.665  1.00  0.00    -0.206 F 
ATOM     71  C   UNL     1       4.109  17.716  -3.502  1.00  0.00     0.060 A 
BRANCH  71  72
ATOM     72  S   UNL     1       3.098  19.059  -4.159  1.00  0.00     0.124 S 
ATOM     73  O   UNL     1       1.750  18.576  -3.873  1.00  0.00    -0.237 OA
ATOM     74  O   UNL     1       3.542  20.202  -3.368  1.00  0.00    -0.237 OA
ATOM     75  O   UNL     1       3.464  19.099  -5.572  1.00  0.00    -0.744 OA
ENDBRANCH  71  72
ENDBRANCH  50  64
BRANCH  51  76
ATOM     76  C   UNL     1      10.807   8.003   1.572  1.00  0.00     0.058 A 
ATOM     77  C   UNL     1      11.633   8.204   2.688  1.00  0.00     0.135 A 
ATOM     78  C   UNL     1      10.740   6.709   1.034  1.00  0.00     0.135 A 
ATOM     79  F   UNL     1      11.728   9.424   3.240  1.00  0.00    -0.206 F 
ATOM     80  C   UNL     1      12.389   7.172   3.232  1.00  0.00     0.059 A 
ATOM     81  C   UNL     1      11.470   5.655   1.574  1.00  0.00     0.059 A 
ATOM     82  F   UNL     1       9.946   6.458  -0.019  1.00  0.00    -0.206 F 
ATOM     83  C   UNL     1      12.305   5.900   2.663  1.00  0.00     0.060 A 
BRANCH  83  84
ATOM     84  S   UNL     1      13.277   4.559   3.384  1.00  0.00     0.124 S 
ATOM     85  O   UNL     1      14.611   4.861   2.879  1.00  0.00    -0.237 OA
ATOM     86  O   UNL     1      13.073   4.763   4.815  1.00  0.00    -0.237 OA
ATOM     87  O   UNL     1      12.649   3.361   2.835  1.00  0.00    -0.744 OA
ENDBRANCH  83  84
ENDBRANCH  51  76
BRANCH  63  88
ATOM     88  C   UNL     1      12.612  13.806  -1.835  1.00  0.00     0.058 A 
ATOM     89  C   UNL     1      13.368  13.284  -2.894  1.00  0.00     0.135 A 
ATOM     90  C   UNL     1      13.108  14.931  -1.159  1.00  0.00     0.135 A 
ATOM     91  F   UNL     1      12.937  12.204  -3.565  1.00  0.00    -0.206 F 
ATOM     92  C   UNL     1      14.584  13.848  -3.260  1.00  0.00     0.059 A 
ATOM     93  C   UNL     1      14.311  15.526  -1.523  1.00  0.00     0.059 A 
ATOM     94  F   UNL     1      12.414  15.472  -0.144  1.00  0.00    -0.206 F 
ATOM     95  C   UNL     1      15.046  14.970  -2.569  1.00  0.00     0.060 A 
BRANCH  95  96
ATOM     96  S   UNL     1      16.606  15.720  -3.081  1.00  0.00     0.124 S 
ATOM     97  O   UNL     1      17.578  14.789  -2.517  1.00  0.00    -0.237 OA
ATOM     98  O   UNL     1      16.494  15.716  -4.536  1.00  0.00    -0.237 OA
ATOM     99  O   UNL     1      16.567  17.041  -2.460  1.00  0.00    -0.744 OA
ENDBRANCH  95  96
ENDBRANCH  63  88
ENDBRANCH  37  38
ENDBRANCH  29  32
ENDBRANCH  27  28
ENDBRANCH   1  27
TORSDOF 18
