REMARK SMILES Cc1ccccc1[C@@H]1[NH2+][C@@H](C(=O)NCCCNC(=O)c2ccc(-c3c4nc(c(-c5c(F)cc(S(=O)(=O)[O-])cc5F)c5ccc([nH]5)c(-c5c(F)cc(S(=O)(=O)[O-])cc5F)c5nc(c(-c6c(F)cc(S(=O)(=O)[O-])cc6F)c6ccc3[nH]6)C=C5)C=C4)cc2)CC2=c3ccccc3=N[C@H]21
REMARK SMILES IDX 16 1 15 2 14 3 13 4 11 5 12 6 10 8 8 9 9 10 95 11 87 14
REMARK SMILES IDX 94 15 86 16 88 17 93 18 89 19 92 20 90 21 91 22 7 23 1 24
REMARK SMILES IDX 2 25 3 26 4 27 6 28 5 29 17 30 18 31 19 33 20 34 21 35 85 36
REMARK SMILES IDX 22 37 84 38 23 39 24 40 25 41 78 42 26 43 83 44 77 45 79 46
REMARK SMILES IDX 27 47 82 48 76 49 75 50 28 52 62 53 41 54 61 55 42 56 45 57
REMARK SMILES IDX 60 58 80 59 43 60 44 61 59 63 81 64 46 65 29 66 30 67 39 68
REMARK SMILES IDX 31 69 32 70 38 71 40 72 33 73 34 74 35 75 36 76 37 77 63 78
REMARK SMILES IDX 64 79 73 80 65 81 66 82 72 83 74 84 67 85 68 86 69 87 70 88
REMARK SMILES IDX 71 89 47 90 48 91 57 92 49 93 50 94 56 95 58 96 51 97 52 98
REMARK SMILES IDX 53 99 54 100 55 101
REMARK H PARENT 13 7 9 12 9 13 17 32 79 51 45 62
REMARK Flexibility Score: inf
ROOT
ATOM      1  C   UNL     1      -4.011   7.581  -0.659  1.00  0.00     0.118 C 
ENDROOT
BRANCH   1   2
ATOM      2  C   UNL     1      -3.342   6.556   0.228  1.00  0.00     0.042 C 
BRANCH   2   3
ATOM      3  C   UNL     1      -4.016   5.198   0.138  1.00  0.00     0.118 C 
BRANCH   3   4
ATOM      4  N   UNL     1      -3.560   4.370  -0.967  1.00  0.00    -0.351 N 
ATOM      5  C   UNL     1      -2.460   3.580  -1.130  1.00  0.00     0.278 C 
ATOM      6  O   UNL     1      -2.600   2.649  -1.939  1.00  0.00    -0.268 OA
ATOM      7  H   UNL     1      -4.161   4.381  -1.747  1.00  0.00     0.163 HD
BRANCH   5   8
ATOM      8  C   UNL     1      -1.047   3.856  -0.496  1.00  0.00     0.277 C 
ATOM      9  C   UNL     1       0.729   2.208   0.415  1.00  0.00     0.243 C 
ATOM     10  N   UNL     1      -0.180   2.643  -0.679  1.00  0.00    -0.327 N 
ATOM     11  C   UNL     1       0.694   2.930   1.800  1.00  0.00     0.196 C 
ATOM     12  H   UNL     1      -0.805   1.860  -0.872  1.00  0.00     0.347 HD
ATOM     13  H   UNL     1       0.462   2.922  -1.421  1.00  0.00     0.347 HD
ATOM     14  C   UNL     1      -0.646   3.541   1.943  1.00  0.00    -0.024 C 
ATOM     15  N   UNL     1       0.796   1.983   2.955  1.00  0.00    -0.270 NA
ATOM     16  C   UNL     1      -0.995   4.501   0.888  1.00  0.00     0.109 C 
ATOM     17  C   UNL     1      -1.339   3.024   2.944  1.00  0.00     0.002 A 
ATOM     18  C   UNL     1      -0.357   2.111   3.541  1.00  0.00     0.066 A 
ATOM     19  C   UNL     1      -2.676   3.125   3.420  1.00  0.00     0.010 A 
ATOM     20  C   UNL     1      -0.791   1.416   4.770  1.00  0.00     0.028 A 
ATOM     21  C   UNL     1      -3.030   2.392   4.486  1.00  0.00     0.001 A 
ATOM     22  C   UNL     1      -2.060   1.568   5.188  1.00  0.00     0.002 A 
BRANCH   9  23
ATOM     23  C   UNL     1       2.181   2.063  -0.058  1.00  0.00     0.015 A 
ATOM     24  C   UNL     1       2.654   4.587  -0.325  1.00  0.00     0.045 C 
ATOM     25  C   UNL     1       3.069   3.143  -0.278  1.00  0.00    -0.042 A 
ATOM     26  C   UNL     1       4.447   2.879  -0.402  1.00  0.00     0.004 A 
ATOM     27  C   UNL     1       4.937   1.575  -0.400  1.00  0.00     0.000 A 
ATOM     28  C   UNL     1       2.691   0.750  -0.150  1.00  0.00     0.010 A 
ATOM     29  C   UNL     1       4.054   0.509  -0.316  1.00  0.00     0.001 A 
ENDBRANCH   9  23
ENDBRANCH   5   8
ENDBRANCH   3   4
ENDBRANCH   2   3
ENDBRANCH   1   2
BRANCH   1  30
ATOM     30  N   UNL     1      -4.868   8.442   0.140  1.00  0.00    -0.352 N 
ATOM     31  C   UNL     1      -4.471   9.697   0.601  1.00  0.00     0.251 C 
ATOM     32  H   UNL     1      -5.771   8.124   0.367  1.00  0.00     0.163 HD
ATOM     33  O   UNL     1      -4.285   9.946   1.771  1.00  0.00    -0.269 OA
BRANCH  31  34
ATOM     34  C   UNL     1      -4.375  10.730  -0.466  1.00  0.00     0.039 A 
ATOM     35  C   UNL     1      -5.588  11.370  -0.756  1.00  0.00     0.014 A 
ATOM     36  C   UNL     1      -3.463  10.438  -1.469  1.00  0.00     0.014 A 
ATOM     37  C   UNL     1      -6.058  11.368  -2.052  1.00  0.00     0.010 A 
ATOM     38  C   UNL     1      -3.977  10.285  -2.728  1.00  0.00     0.010 A 
ATOM     39  C   UNL     1      -5.294  10.691  -2.984  1.00  0.00    -0.014 A 
BRANCH  39  40
ATOM     40  C   UNL     1      -5.713  10.454  -4.340  1.00  0.00     0.031 A 
ATOM     41  C   UNL     1      -5.248  11.456  -5.299  1.00  0.00     0.074 A 
ATOM     42  C   UNL     1      -6.241   9.241  -4.599  1.00  0.00     0.049 A 
ATOM     43  N   UNL     1      -5.670  11.579  -6.498  1.00  0.00    -0.248 NA
ATOM     44  C   UNL     1      -4.256  12.473  -4.935  1.00  0.00     0.031 C 
ATOM     45  C   UNL     1      -6.407   8.529  -5.858  1.00  0.00     0.029 A 
ATOM     46  N   UNL     1      -7.001   8.492  -3.686  1.00  0.00    -0.354 N 
ATOM     47  C   UNL     1      -4.740  12.361  -7.154  1.00  0.00     0.074 A 
ATOM     48  C   UNL     1      -4.004  13.031  -6.117  1.00  0.00     0.031 C 
ATOM     49  C   UNL     1      -7.447   7.679  -5.729  1.00  0.00     0.029 A 
ATOM     50  C   UNL     1      -8.072   7.982  -4.448  1.00  0.00     0.049 A 
ATOM     51  H   UNL     1      -6.824   8.354  -2.727  1.00  0.00     0.167 HD
ATOM     52  C   UNL     1      -4.579  12.153  -8.491  1.00  0.00     0.037 A 
ATOM     53  C   UNL     1      -9.302   8.566  -4.297  1.00  0.00     0.037 A 
ATOM     54  C   UNL     1      -5.590  11.191  -8.950  1.00  0.00     0.049 A 
ATOM     55  C   UNL     1      -9.784   9.276  -5.561  1.00  0.00     0.074 A 
ATOM     56  C   UNL     1      -5.593   9.832  -9.220  1.00  0.00     0.029 A 
ATOM     57  N   UNL     1      -6.916  11.534  -8.779  1.00  0.00    -0.354 N 
ATOM     58  N   UNL     1      -9.012   9.615  -6.562  1.00  0.00    -0.248 NA
ATOM     59  C   UNL     1     -11.171   9.671  -5.789  1.00  0.00     0.031 C 
ATOM     60  C   UNL     1      -6.951   9.376  -9.191  1.00  0.00     0.029 A 
ATOM     61  C   UNL     1      -7.764  10.457  -8.904  1.00  0.00     0.049 A 
ATOM     62  H   UNL     1      -7.222  12.450  -8.588  1.00  0.00     0.167 HD
ATOM     63  C   UNL     1      -9.743  10.245  -7.539  1.00  0.00     0.074 A 
ATOM     64  C   UNL     1     -11.088  10.284  -6.985  1.00  0.00     0.031 C 
ATOM     65  C   UNL     1      -9.189  10.698  -8.710  1.00  0.00     0.037 A 
BRANCH  52  66
ATOM     66  C   UNL     1      -3.380  12.585  -9.307  1.00  0.00     0.058 A 
ATOM     67  C   UNL     1      -3.105  11.939 -10.532  1.00  0.00     0.135 A 
ATOM     68  C   UNL     1      -2.444  13.582  -8.955  1.00  0.00     0.135 A 
ATOM     69  F   UNL     1      -3.932  11.015 -11.039  1.00  0.00    -0.206 F 
ATOM     70  C   UNL     1      -1.972  12.208 -11.301  1.00  0.00     0.059 A 
ATOM     71  C   UNL     1      -1.281  13.842  -9.687  1.00  0.00     0.059 A 
ATOM     72  F   UNL     1      -2.630  14.401  -7.916  1.00  0.00    -0.206 F 
ATOM     73  C   UNL     1      -1.053  13.149 -10.862  1.00  0.00     0.060 A 
BRANCH  73  74
ATOM     74  S   UNL     1       0.399  13.480 -11.871  1.00  0.00     0.124 S 
ATOM     75  O   UNL     1       1.026  12.165 -11.944  1.00  0.00    -0.237 OA
ATOM     76  O   UNL     1      -0.198  13.970 -13.109  1.00  0.00    -0.237 OA
ATOM     77  O   UNL     1       1.134  14.476 -11.096  1.00  0.00    -0.744 OA
ENDBRANCH  73  74
ENDBRANCH  52  66
BRANCH  53  78
ATOM     78  C   UNL     1      -9.562   9.001  -2.876  1.00  0.00     0.058 A 
ATOM     79  C   UNL     1      -9.393   8.055  -1.835  1.00  0.00     0.135 A 
ATOM     80  C   UNL     1      -9.643  10.344  -2.484  1.00  0.00     0.135 A 
ATOM     81  F   UNL     1      -9.312   6.744  -2.124  1.00  0.00    -0.206 F 
ATOM     82  C   UNL     1      -9.203   8.422  -0.503  1.00  0.00     0.059 A 
ATOM     83  C   UNL     1      -9.485  10.735  -1.143  1.00  0.00     0.059 A 
ATOM     84  F   UNL     1      -9.799  11.307  -3.403  1.00  0.00    -0.206 F 
ATOM     85  C   UNL     1      -9.230   9.770  -0.164  1.00  0.00     0.060 A 
BRANCH  85  86
ATOM     86  S   UNL     1      -8.969  10.268   1.562  1.00  0.00     0.124 S 
ATOM     87  O   UNL     1      -8.928   8.992   2.273  1.00  0.00    -0.237 OA
ATOM     88  O   UNL     1      -7.702  10.978   1.501  1.00  0.00    -0.237 OA
ATOM     89  O   UNL     1     -10.142  11.094   1.821  1.00  0.00    -0.744 OA
ENDBRANCH  85  86
ENDBRANCH  53  78
BRANCH  65  90
ATOM     90  C   UNL     1      -9.927  11.491  -9.773  1.00  0.00     0.058 A 
ATOM     91  C   UNL     1     -11.250  11.228 -10.155  1.00  0.00     0.135 A 
ATOM     92  C   UNL     1      -9.284  12.520 -10.514  1.00  0.00     0.135 A 
ATOM     93  F   UNL     1     -11.921  10.185  -9.643  1.00  0.00    -0.206 F 
ATOM     94  C   UNL     1     -11.921  12.009 -11.102  1.00  0.00     0.059 A 
ATOM     95  C   UNL     1      -9.912  13.268 -11.498  1.00  0.00     0.059 A 
ATOM     96  F   UNL     1      -8.014  12.882 -10.304  1.00  0.00    -0.206 F 
ATOM     97  C   UNL     1     -11.246  13.037 -11.756  1.00  0.00     0.060 A 
BRANCH  97  98
ATOM     98  S   UNL     1     -12.106  14.062 -12.957  1.00  0.00     0.124 S 
ATOM     99  O   UNL     1     -12.819  13.070 -13.755  1.00  0.00    -0.237 OA
ATOM    100  O   UNL     1     -12.932  14.894 -12.089  1.00  0.00    -0.237 OA
ATOM    101  O   UNL     1     -11.027  14.758 -13.651  1.00  0.00    -0.744 OA
ENDBRANCH  97  98
ENDBRANCH  65  90
ENDBRANCH  39  40
ENDBRANCH  31  34
ENDBRANCH   1  30
TORSDOF 14
