REMARK SMILES O=C(Cc1ccc(Cl)nc1)NCCCNC(=O)c1ccc(-c2c3nc(c(-c4c(F)cc(S(=O)(=O)[O-])cc4F)c4ccc([nH]4)c(-c4c(F)cc(S(=O)(=O)[O-])cc4F)c4nc(c(-c5c(F)cc(S(=O)(=O)[O-])cc5F)c5ccc2[nH]5)C=C4)C=C3)cc1
REMARK SMILES IDX 14 1 13 2 12 3 11 4 1 5 2 6 3 8 4 9 5 10 10 11 6 12 9 13
REMARK SMILES IDX 7 14 8 15 15 16 16 17 17 19 18 20 19 21 83 22 20 23 82 24
REMARK SMILES IDX 21 25 22 26 23 27 76 28 24 29 81 30 75 31 77 32 25 33 80 34
REMARK SMILES IDX 74 35 73 36 26 38 60 39 39 40 59 41 40 42 43 43 58 44 78 45
REMARK SMILES IDX 41 46 42 47 57 49 79 50 44 51 27 52 28 53 37 54 29 55 30 56
REMARK SMILES IDX 36 57 38 58 31 59 32 60 33 61 34 62 35 63 61 64 62 65 71 66
REMARK SMILES IDX 63 67 64 68 70 69 72 70 65 71 66 72 67 73 68 74 69 75 45 76
REMARK SMILES IDX 46 77 55 78 47 79 48 80 54 81 56 82 49 83 50 84 51 85 52 86
REMARK SMILES IDX 53 87
REMARK H PARENT 11 7 15 18 77 37 43 48
REMARK Flexibility Score: inf
ROOT
ATOM      1  C   UNL     1       3.801   1.372   3.751  1.00  0.00     0.118 C 
ENDROOT
BRANCH   1   2
ATOM      2  C   UNL     1       2.335   1.279   3.338  1.00  0.00     0.042 C 
BRANCH   2   3
ATOM      3  C   UNL     1       2.051   1.629   1.884  1.00  0.00     0.117 C 
BRANCH   3   4
ATOM      4  N   UNL     1       2.738   0.760   0.948  1.00  0.00    -0.356 N 
ATOM      5  O   UNL     1       0.842  -0.085  -0.044  1.00  0.00    -0.275 OA
ATOM      6  C   UNL     1       2.065  -0.002   0.016  1.00  0.00     0.224 C 
ATOM      7  H   UNL     1       3.721   0.712   0.979  1.00  0.00     0.163 HD
BRANCH   6   8
ATOM      8  C   UNL     1       2.967  -0.731  -0.964  1.00  0.00     0.137 C 
BRANCH   8   9
ATOM      9  C   UNL     1       3.764   0.158  -1.890  1.00  0.00    -0.020 A 
ATOM     10  C   UNL     1       4.833  -0.384  -2.615  1.00  0.00     0.009 A 
ATOM     11  C   UNL     1       3.472   1.505  -2.103  1.00  0.00     0.117 A 
ATOM     12  C   UNL     1       5.575   0.427  -3.470  1.00  0.00     0.041 A 
ATOM     13  N   UNL     1       4.182   2.318  -2.917  1.00  0.00    -0.244 NA
ATOM     14  C   UNL     1       5.215   1.758  -3.573  1.00  0.00     0.129 A 
ATOM     15  Cl  UNL     1       6.085   2.830  -4.590  1.00  0.00    -0.062 Cl
ENDBRANCH   8   9
ENDBRANCH   6   8
ENDBRANCH   3   4
ENDBRANCH   2   3
ENDBRANCH   1   2
BRANCH   1  16
ATOM     16  N   UNL     1       4.362   2.707   3.608  1.00  0.00    -0.352 N 
ATOM     17  C   UNL     1       5.113   3.452   4.484  1.00  0.00     0.251 C 
ATOM     18  H   UNL     1       4.174   3.146   2.747  1.00  0.00     0.163 HD
ATOM     19  O   UNL     1       5.383   4.617   4.191  1.00  0.00    -0.269 OA
BRANCH  17  20
ATOM     20  C   UNL     1       5.574   2.894   5.777  1.00  0.00     0.039 A 
ATOM     21  C   UNL     1       5.553   3.724   6.903  1.00  0.00     0.014 A 
ATOM     22  C   UNL     1       6.056   1.587   5.893  1.00  0.00     0.014 A 
ATOM     23  C   UNL     1       5.955   3.227   8.146  1.00  0.00     0.010 A 
ATOM     24  C   UNL     1       6.388   1.071   7.147  1.00  0.00     0.010 A 
ATOM     25  C   UNL     1       6.345   1.885   8.288  1.00  0.00    -0.014 A 
BRANCH  25  26
ATOM     26  C   UNL     1       6.695   1.333   9.624  1.00  0.00     0.031 A 
ATOM     27  C   UNL     1       8.089   0.845   9.916  1.00  0.00     0.074 A 
ATOM     28  C   UNL     1       5.740   1.239  10.572  1.00  0.00     0.049 A 
ATOM     29  N   UNL     1       8.572   0.339  11.023  1.00  0.00    -0.248 NA
ATOM     30  C   UNL     1       9.063   0.909   8.815  1.00  0.00     0.031 C 
ATOM     31  C   UNL     1       4.336   1.617  10.397  1.00  0.00     0.029 A 
ATOM     32  N   UNL     1       5.804   0.797  11.870  1.00  0.00    -0.354 N 
ATOM     33  C   UNL     1       9.897   0.018  10.751  1.00  0.00     0.074 A 
ATOM     34  C   UNL     1      10.127   0.336   9.358  1.00  0.00     0.031 C 
ATOM     35  C   UNL     1       3.680   1.422  11.552  1.00  0.00     0.029 A 
ATOM     36  C   UNL     1       4.606   0.880  12.541  1.00  0.00     0.049 A 
ATOM     37  H   UNL     1       6.629   0.453  12.282  1.00  0.00     0.167 HD
ATOM     38  C   UNL     1      10.843  -0.471  11.590  1.00  0.00     0.037 A 
ATOM     39  C   UNL     1       4.289   0.563  13.812  1.00  0.00     0.037 A 
ATOM     40  C   UNL     1      10.618  -0.763  12.983  1.00  0.00     0.049 A 
ATOM     41  C   UNL     1       5.363   0.050  14.731  1.00  0.00     0.074 A 
ATOM     42  C   UNL     1      11.528  -1.206  13.928  1.00  0.00     0.029 A 
ATOM     43  N   UNL     1       9.399  -0.639  13.633  1.00  0.00    -0.354 N 
ATOM     44  N   UNL     1       6.628  -0.181  14.474  1.00  0.00    -0.248 NA
ATOM     45  C   UNL     1       4.969  -0.232  16.118  1.00  0.00     0.031 C 
ATOM     46  C   UNL     1      10.850  -1.385  15.139  1.00  0.00     0.029 A 
ATOM     47  C   UNL     1       9.529  -1.011  14.961  1.00  0.00     0.049 A 
ATOM     48  H   UNL     1       8.563  -0.332  13.212  1.00  0.00     0.167 HD
ATOM     49  C   UNL     1       7.187  -0.612  15.672  1.00  0.00     0.074 A 
ATOM     50  C   UNL     1       6.126  -0.592  16.658  1.00  0.00     0.031 C 
ATOM     51  C   UNL     1       8.464  -0.988  15.933  1.00  0.00     0.037 A 
BRANCH  38  52
ATOM     52  C   UNL     1      12.216  -0.715  11.024  1.00  0.00     0.058 A 
ATOM     53  C   UNL     1      13.063   0.347  10.668  1.00  0.00     0.135 A 
ATOM     54  C   UNL     1      12.706  -2.021  10.867  1.00  0.00     0.135 A 
ATOM     55  F   UNL     1      12.642   1.617  10.783  1.00  0.00    -0.206 F 
ATOM     56  C   UNL     1      14.334   0.123  10.147  1.00  0.00     0.059 A 
ATOM     57  C   UNL     1      13.984  -2.269  10.374  1.00  0.00     0.059 A 
ATOM     58  F   UNL     1      11.940  -3.074  11.193  1.00  0.00    -0.206 F 
ATOM     59  C   UNL     1      14.785  -1.190  10.002  1.00  0.00     0.060 A 
BRANCH  59  60
ATOM     60  S   UNL     1      16.435  -1.466   9.324  1.00  0.00     0.124 S 
ATOM     61  O   UNL     1      16.222  -1.165   7.912  1.00  0.00    -0.237 OA
ATOM     62  O   UNL     1      17.242  -0.499  10.062  1.00  0.00    -0.237 OA
ATOM     63  O   UNL     1      16.701  -2.866   9.635  1.00  0.00    -0.744 OA
ENDBRANCH  59  60
ENDBRANCH  38  52
BRANCH  39  64
ATOM     64  C   UNL     1       2.899   0.761  14.300  1.00  0.00     0.058 A 
ATOM     65  C   UNL     1       2.593   1.788  15.207  1.00  0.00     0.135 A 
ATOM     66  C   UNL     1       1.849  -0.060  13.863  1.00  0.00     0.135 A 
ATOM     67  F   UNL     1       3.565   2.596  15.657  1.00  0.00    -0.206 F 
ATOM     68  C   UNL     1       1.299   1.983  15.677  1.00  0.00     0.059 A 
ATOM     69  C   UNL     1       0.542   0.131  14.300  1.00  0.00     0.059 A 
ATOM     70  F   UNL     1       2.087  -1.044  12.982  1.00  0.00    -0.206 F 
ATOM     71  C   UNL     1       0.279   1.149  15.216  1.00  0.00     0.060 A 
BRANCH  71  72
ATOM     72  S   UNL     1      -1.407   1.440  15.794  1.00  0.00     0.124 S 
ATOM     73  O   UNL     1      -1.347   0.912  17.152  1.00  0.00    -0.237 OA
ATOM     74  O   UNL     1      -1.526   2.890  15.677  1.00  0.00    -0.237 OA
ATOM     75  O   UNL     1      -2.219   0.674  14.853  1.00  0.00    -0.744 OA
ENDBRANCH  71  72
ENDBRANCH  39  64
BRANCH  51  76
ATOM     76  C   UNL     1       8.788  -1.380  17.348  1.00  0.00     0.058 A 
ATOM     77  C   UNL     1       8.332  -2.587  17.903  1.00  0.00     0.135 A 
ATOM     78  C   UNL     1       9.579  -0.546  18.154  1.00  0.00     0.135 A 
ATOM     79  F   UNL     1       7.569  -3.418  17.176  1.00  0.00    -0.206 F 
ATOM     80  C   UNL     1       8.616  -2.934  19.219  1.00  0.00     0.059 A 
ATOM     81  C   UNL     1       9.898  -0.886  19.465  1.00  0.00     0.059 A 
ATOM     82  F   UNL     1      10.052   0.613  17.669  1.00  0.00    -0.206 F 
ATOM     83  C   UNL     1       9.396  -2.074  19.995  1.00  0.00     0.060 A 
BRANCH  83  84
ATOM     84  S   UNL     1       9.762  -2.535  21.702  1.00  0.00     0.124 S 
ATOM     85  O   UNL     1       8.497  -2.233  22.364  1.00  0.00    -0.237 OA
ATOM     86  O   UNL     1      10.092  -3.952  21.582  1.00  0.00    -0.237 OA
ATOM     87  O   UNL     1      10.880  -1.666  22.055  1.00  0.00    -0.744 OA
ENDBRANCH  83  84
ENDBRANCH  51  76
ENDBRANCH  25  26
ENDBRANCH  17  20
ENDBRANCH   1  16
TORSDOF 14
