REMARK SMILES O=C(NCCCNC(=O)c1ccc(-c2c3nc(c(-c4c(F)cc(S(=O)(=O)[O-])cc4F)c4ccc([nH]4)c(-c4c(F)cc(S(=O)(=O)[O-])cc4F)c4nc(c(-c5c(F)cc(S(=O)(=O)[O-])cc5F)c5ccc2[nH]5)C=C4)C=C3)cc1)C1=Cc2cc(Cl)cc(-c3ccc(CO)cc3)c2O[C@@H]1C(F)(F)F
REMARK SMILES IDX 5 1 4 2 3 3 1 4 2 5 76 7 77 8 94 9 78 10 93 11 79 12 92 13
REMARK SMILES IDX 80 14 83 15 81 16 82 17 95 18 96 19 97 20 98 21 84 22 85 23
REMARK SMILES IDX 91 24 86 25 90 26 87 27 88 28 89 29 6 31 7 32 8 33 9 35
REMARK SMILES IDX 10 36 11 37 75 38 12 39 74 40 13 41 14 42 15 43 68 44 16 45
REMARK SMILES IDX 73 46 67 47 69 48 17 49 72 50 66 51 65 52 18 54 52 55 31 56
REMARK SMILES IDX 51 57 32 58 35 59 50 60 70 61 33 62 34 63 49 65 71 66 36 67
REMARK SMILES IDX 19 68 20 69 29 70 21 71 22 72 28 73 30 74 23 75 24 76 25 77
REMARK SMILES IDX 26 78 27 79 53 80 54 81 63 82 55 83 56 84 62 85 64 86 57 87
REMARK SMILES IDX 58 88 59 89 60 90 61 91 37 92 38 93 47 94 39 95 40 96 46 97
REMARK SMILES IDX 48 98 41 99 42 100 43 101 44 102 45 103
REMARK H PARENT 3 6 89 30 7 34 69 53 35 64
REMARK Flexibility Score: inf
ROOT
ATOM      1  C   UNL     1       3.964  -0.550  -3.122  1.00  0.00     0.042 C 
ENDROOT
BRANCH   1   2
ATOM      2  C   UNL     1       2.973   0.047  -2.125  1.00  0.00     0.118 C 
BRANCH   2   3
ATOM      3  N   UNL     1       2.200  -0.972  -1.403  1.00  0.00    -0.352 N 
ATOM      4  O   UNL     1       1.301  -1.981   0.424  1.00  0.00    -0.270 OA
ATOM      5  C   UNL     1       2.183  -1.290  -0.068  1.00  0.00     0.251 C 
ATOM      6  H   UNL     1       1.599  -1.512  -1.966  1.00  0.00     0.163 HD
BRANCH   5   7
ATOM      7  C   UNL     1       3.238  -0.699   0.767  1.00  0.00     0.067 C 
ATOM      8  C   UNL     1       4.502  -1.046   0.497  1.00  0.00     0.025 C 
ATOM      9  C   UNL     1       2.884   0.500   1.585  1.00  0.00     0.314 C 
ATOM     10  C   UNL     1       5.459   0.061   0.580  1.00  0.00     0.019 A 
ATOM     11  O   UNL     1       3.693   1.639   1.207  1.00  0.00    -0.475 OA
ATOM     12  C   UNL     1       6.747  -0.152   0.082  1.00  0.00     0.032 A 
ATOM     13  C   UNL     1       4.961   1.374   0.736  1.00  0.00     0.135 A 
ATOM     14  C   UNL     1       7.492   0.934  -0.361  1.00  0.00     0.042 A 
ATOM     15  C   UNL     1       5.687   2.464   0.231  1.00  0.00     0.026 A 
ATOM     16  Cl  UNL     1       9.009   0.662  -1.126  1.00  0.00    -0.084 Cl
ATOM     17  C   UNL     1       6.962   2.223  -0.314  1.00  0.00     0.033 A 
BRANCH   9  18
ATOM     18  C   UNL     1       2.947   0.222   3.097  1.00  0.00     0.429 C 
ATOM     19  F   UNL     1       2.537   1.302   3.809  1.00  0.00    -0.167 F 
ATOM     20  F   UNL     1       2.138  -0.803   3.455  1.00  0.00    -0.167 F 
ATOM     21  F   UNL     1       4.194  -0.083   3.525  1.00  0.00    -0.167 F 
ENDBRANCH   9  18
BRANCH  15  22
ATOM     22  C   UNL     1       5.078   3.790   0.041  1.00  0.00    -0.015 A 
ATOM     23  C   UNL     1       4.265   4.027  -1.081  1.00  0.00     0.009 A 
ATOM     24  C   UNL     1       5.364   4.862   0.889  1.00  0.00     0.009 A 
ATOM     25  C   UNL     1       3.827   5.309  -1.403  1.00  0.00     0.007 A 
ATOM     26  C   UNL     1       4.908   6.149   0.580  1.00  0.00     0.007 A 
ATOM     27  C   UNL     1       4.159   6.386  -0.581  1.00  0.00    -0.023 A 
BRANCH  27  28
ATOM     28  C   UNL     1       3.805   7.784  -1.003  1.00  0.00     0.191 C 
BRANCH  28  29
ATOM     29  O   UNL     1       4.823   8.318  -1.841  1.00  0.00    -0.392 OA
ATOM     30  H   UNL     1       5.662   8.341  -1.355  1.00  0.00     0.211 HD
ENDBRANCH  28  29
ENDBRANCH  27  28
ENDBRANCH  15  22
ENDBRANCH   5   7
ENDBRANCH   2   3
ENDBRANCH   1   2
BRANCH   1  31
ATOM     31  C   UNL     1       4.429   0.445  -4.188  1.00  0.00     0.118 C 
BRANCH  31  32
ATOM     32  N   UNL     1       5.131   1.621  -3.694  1.00  0.00    -0.352 N 
ATOM     33  C   UNL     1       5.860   2.561  -4.400  1.00  0.00     0.251 C 
ATOM     34  H   UNL     1       5.080   1.767  -2.722  1.00  0.00     0.163 HD
ATOM     35  O   UNL     1       6.319   3.541  -3.818  1.00  0.00    -0.269 OA
BRANCH  33  36
ATOM     36  C   UNL     1       6.209   2.310  -5.820  1.00  0.00     0.039 A 
ATOM     37  C   UNL     1       7.556   2.419  -6.183  1.00  0.00     0.014 A 
ATOM     38  C   UNL     1       5.281   1.806  -6.729  1.00  0.00     0.014 A 
ATOM     39  C   UNL     1       7.999   1.841  -7.374  1.00  0.00     0.010 A 
ATOM     40  C   UNL     1       5.736   1.149  -7.868  1.00  0.00     0.010 A 
ATOM     41  C   UNL     1       7.107   1.101  -8.163  1.00  0.00    -0.014 A 
BRANCH  41  42
ATOM     42  C   UNL     1       7.586   0.166  -9.214  1.00  0.00     0.031 A 
ATOM     43  C   UNL     1       7.109   0.309 -10.630  1.00  0.00     0.074 A 
ATOM     44  C   UNL     1       8.341  -0.895  -8.854  1.00  0.00     0.049 A 
ATOM     45  N   UNL     1       7.241  -0.519 -11.633  1.00  0.00    -0.248 NA
ATOM     46  C   UNL     1       6.348   1.527 -10.950  1.00  0.00     0.031 C 
ATOM     47  C   UNL     1       8.816  -1.181  -7.495  1.00  0.00     0.029 A 
ATOM     48  N   UNL     1       8.825  -1.948  -9.591  1.00  0.00    -0.354 N 
ATOM     49  C   UNL     1       6.559   0.062 -12.694  1.00  0.00     0.074 A 
ATOM     50  C   UNL     1       5.978   1.293 -12.201  1.00  0.00     0.031 C 
ATOM     51  C   UNL     1       9.543  -2.309  -7.503  1.00  0.00     0.029 A 
ATOM     52  C   UNL     1       9.543  -2.861  -8.851  1.00  0.00     0.049 A 
ATOM     53  H   UNL     1       8.674  -2.040 -10.559  1.00  0.00     0.167 HD
ATOM     54  C   UNL     1       6.447  -0.382 -13.968  1.00  0.00     0.037 A 
ATOM     55  C   UNL     1      10.118  -4.024  -9.213  1.00  0.00     0.037 A 
ATOM     56  C   UNL     1       7.065  -1.584 -14.460  1.00  0.00     0.049 A 
ATOM     57  C   UNL     1       9.989  -4.486 -10.638  1.00  0.00     0.074 A 
ATOM     58  C   UNL     1       7.057  -2.093 -15.746  1.00  0.00     0.029 A 
ATOM     59  N   UNL     1       7.816  -2.458 -13.688  1.00  0.00    -0.354 N 
ATOM     60  N   UNL     1       9.364  -3.906 -11.635  1.00  0.00    -0.248 NA
ATOM     61  C   UNL     1      10.628  -5.762 -10.986  1.00  0.00     0.031 C 
ATOM     62  C   UNL     1       7.788  -3.286 -15.748  1.00  0.00     0.029 A 
ATOM     63  C   UNL     1       8.271  -3.506 -14.468  1.00  0.00     0.049 A 
ATOM     64  H   UNL     1       7.997  -2.349 -12.726  1.00  0.00     0.167 HD
ATOM     65  C   UNL     1       9.546  -4.740 -12.731  1.00  0.00     0.074 A 
ATOM     66  C   UNL     1      10.352  -5.856 -12.280  1.00  0.00     0.031 C 
ATOM     67  C   UNL     1       9.082  -4.599 -13.996  1.00  0.00     0.037 A 
BRANCH  54  68
ATOM     68  C   UNL     1       5.643   0.454 -14.923  1.00  0.00     0.058 A 
ATOM     69  C   UNL     1       6.130   1.678 -15.407  1.00  0.00     0.135 A 
ATOM     70  C   UNL     1       4.387   0.021 -15.378  1.00  0.00     0.135 A 
ATOM     71  F   UNL     1       7.317   2.145 -14.989  1.00  0.00    -0.206 F 
ATOM     72  C   UNL     1       5.388   2.459 -16.285  1.00  0.00     0.059 A 
ATOM     73  C   UNL     1       3.637   0.775 -16.275  1.00  0.00     0.059 A 
ATOM     74  F   UNL     1       3.875  -1.142 -14.944  1.00  0.00    -0.206 F 
ATOM     75  C   UNL     1       4.140   2.001 -16.711  1.00  0.00     0.060 A 
BRANCH  75  76
ATOM     76  S   UNL     1       3.186   3.029 -17.848  1.00  0.00     0.124 S 
ATOM     77  O   UNL     1       2.688   4.067 -16.950  1.00  0.00    -0.237 OA
ATOM     78  O   UNL     1       4.198   3.456 -18.809  1.00  0.00    -0.237 OA
ATOM     79  O   UNL     1       2.178   2.112 -18.369  1.00  0.00    -0.744 OA
ENDBRANCH  75  76
ENDBRANCH  54  68
BRANCH  55  80
ATOM     80  C   UNL     1      10.870  -4.837  -8.220  1.00  0.00     0.058 A 
ATOM     81  C   UNL     1      12.268  -4.932  -8.284  1.00  0.00     0.135 A 
ATOM     82  C   UNL     1      10.213  -5.546  -7.202  1.00  0.00     0.135 A 
ATOM     83  F   UNL     1      12.940  -4.276  -9.243  1.00  0.00    -0.206 F 
ATOM     84  C   UNL     1      12.988  -5.720  -7.393  1.00  0.00     0.059 A 
ATOM     85  C   UNL     1      10.914  -6.324  -6.285  1.00  0.00     0.059 A 
ATOM     86  F   UNL     1       8.878  -5.474  -7.085  1.00  0.00    -0.206 F 
ATOM     87  C   UNL     1      12.301  -6.418  -6.399  1.00  0.00     0.060 A 
BRANCH  87  88
ATOM     88  S   UNL     1      13.242  -7.425  -5.231  1.00  0.00     0.124 S 
ATOM     89  O   UNL     1      13.522  -8.612  -6.030  1.00  0.00    -0.237 OA
ATOM     90  O   UNL     1      14.387  -6.569  -4.935  1.00  0.00    -0.237 OA
ATOM     91  O   UNL     1      12.307  -7.611  -4.125  1.00  0.00    -0.744 OA
ENDBRANCH  87  88
ENDBRANCH  55  80
BRANCH  67  92
ATOM     92  C   UNL     1       9.445  -5.667 -14.983  1.00  0.00     0.058 A 
ATOM     93  C   UNL     1       8.778  -6.900 -14.999  1.00  0.00     0.135 A 
ATOM     94  C   UNL     1      10.415  -5.426 -15.969  1.00  0.00     0.135 A 
ATOM     95  F   UNL     1       7.851  -7.179 -14.068  1.00  0.00    -0.206 F 
ATOM     96  C   UNL     1       9.060  -7.863 -15.961  1.00  0.00     0.059 A 
ATOM     97  C   UNL     1      10.700  -6.367 -16.952  1.00  0.00     0.059 A 
ATOM     98  F   UNL     1      11.076  -4.258 -15.995  1.00  0.00    -0.206 F 
ATOM     99  C   UNL     1      10.019  -7.584 -16.937  1.00  0.00     0.060 A 
BRANCH  99 100
ATOM    100  S   UNL     1      10.328  -8.813 -18.223  1.00  0.00     0.124 S 
ATOM    101  O   UNL     1      11.140  -9.790 -17.506  1.00  0.00    -0.237 OA
ATOM    102  O   UNL     1       8.978  -9.246 -18.574  1.00  0.00    -0.237 OA
ATOM    103  O   UNL     1      11.024  -8.053 -19.257  1.00  0.00    -0.744 OA
ENDBRANCH  99 100
ENDBRANCH  67  92
ENDBRANCH  41  42
ENDBRANCH  33  36
ENDBRANCH  31  32
ENDBRANCH   1  31
TORSDOF 17
