REMARK SMILES C[C@H]1CC[C@@](CCOCCO)(C(=O)NCCCNC(=O)c2ccc(-c3c4nc(c(-c5c(F)cc(S(=O)(=O)[O-])cc5F)c5ccc([nH]5)c(-c5c(F)cc(S(=O)(=O)[O-])cc5F)c5nc(c(-c6c(F)cc(S(=O)(=O)[O-])cc6F)c6ccc3[nH]6)C=C5)C=C4)cc2)C1
REMARK SMILES IDX 12 1 13 2 14 3 5 5 1 6 2 7 3 8 87 9 4 10 6 11 7 12 8 13 9 14
REMARK SMILES IDX 10 15 11 16 15 18 16 19 17 20 18 21 19 22 20 24 21 25 22 26
REMARK SMILES IDX 86 27 23 28 85 29 24 30 25 31 26 32 79 33 27 34 84 35 78 36
REMARK SMILES IDX 80 37 28 38 83 39 77 40 76 41 29 43 63 44 42 45 62 46 43 47
REMARK SMILES IDX 46 48 61 49 81 50 44 51 45 52 60 54 82 55 47 56 30 57 31 58
REMARK SMILES IDX 40 59 32 60 33 61 39 62 41 63 34 64 35 65 36 66 37 67 38 68
REMARK SMILES IDX 64 69 65 70 74 71 66 72 67 73 73 74 75 75 68 76 69 77 70 78
REMARK SMILES IDX 71 79 72 80 48 81 49 82 58 83 50 84 51 85 57 86 59 87 52 88
REMARK SMILES IDX 53 89 54 90 55 91 56 92
REMARK H PARENT 14 4 11 17 18 23 80 42 46 53
REMARK Flexibility Score: inf
ROOT
ATOM      1  C   UNL     1      -2.586   1.221   0.318  1.00  0.00     0.226 C 
ATOM      2  O   UNL     1      -2.760   1.380   1.538  1.00  0.00    -0.274 OA
ATOM      3  N   UNL     1      -3.725   1.398  -0.404  1.00  0.00    -0.356 N 
ATOM      4  H   UNL     1      -4.533   1.182   0.115  1.00  0.00     0.163 HD
ENDROOT
BRANCH   1   5
ATOM      5  C   UNL     1      -1.181   0.751  -0.182  1.00  0.00     0.052 C 
ATOM      6  C   UNL     1       2.167   1.275   1.660  1.00  0.00     0.007 C 
ATOM      7  C   UNL     1       1.157   0.797   0.626  1.00  0.00    -0.013 C 
ATOM      8  C   UNL     1       0.624  -0.588   0.956  1.00  0.00     0.004 C 
ATOM      9  C   UNL     1      -0.104   1.664   0.506  1.00  0.00     0.020 C 
ATOM     10  C   UNL     1      -0.826  -0.613   0.487  1.00  0.00     0.017 C 
BRANCH   5  11
ATOM     11  C   UNL     1      -0.931   0.732  -1.702  1.00  0.00     0.045 C 
BRANCH  11  12
ATOM     12  C   UNL     1      -1.373  -0.492  -2.525  1.00  0.00     0.161 C 
BRANCH  12  13
ATOM     13  O   UNL     1      -2.747  -0.852  -2.527  1.00  0.00    -0.379 OA
BRANCH  13  14
ATOM     14  C   UNL     1      -3.256  -1.651  -1.459  1.00  0.00     0.188 C 
BRANCH  14  15
ATOM     15  C   UNL     1      -2.962  -3.149  -1.531  1.00  0.00     0.184 C 
BRANCH  15  16
ATOM     16  O   UNL     1      -1.612  -3.443  -1.856  1.00  0.00    -0.394 OA
ATOM     17  H   UNL     1      -1.407  -3.088  -2.736  1.00  0.00     0.210 HD
ENDBRANCH  15  16
ENDBRANCH  14  15
ENDBRANCH  13  14
ENDBRANCH  12  13
ENDBRANCH  11  12
ENDBRANCH   5  11
ENDBRANCH   1   5
BRANCH   3  18
ATOM     18  C   UNL     1      -4.038   1.829  -1.762  1.00  0.00     0.117 C 
BRANCH  18  19
ATOM     19  C   UNL     1      -5.188   1.105  -2.483  1.00  0.00     0.042 C 
BRANCH  19  20
ATOM     20  C   UNL     1      -6.482   0.894  -1.693  1.00  0.00     0.118 C 
BRANCH  20  21
ATOM     21  N   UNL     1      -7.626   1.188  -2.547  1.00  0.00    -0.352 N 
ATOM     22  C   UNL     1      -8.463   0.388  -3.281  1.00  0.00     0.251 C 
ATOM     23  H   UNL     1      -7.839   2.147  -2.610  1.00  0.00     0.163 HD
ATOM     24  O   UNL     1      -9.009   0.898  -4.261  1.00  0.00    -0.269 OA
BRANCH  22  25
ATOM     25  C   UNL     1      -8.796  -1.018  -2.924  1.00  0.00     0.039 A 
ATOM     26  C   UNL     1      -9.273  -1.852  -3.949  1.00  0.00     0.014 A 
ATOM     27  C   UNL     1      -8.861  -1.471  -1.604  1.00  0.00     0.014 A 
ATOM     28  C   UNL     1      -9.846  -3.097  -3.657  1.00  0.00     0.010 A 
ATOM     29  C   UNL     1      -9.396  -2.738  -1.317  1.00  0.00     0.010 A 
ATOM     30  C   UNL     1      -9.933  -3.547  -2.333  1.00  0.00    -0.014 A 
BRANCH  30  31
ATOM     31  C   UNL     1     -10.674  -4.801  -2.001  1.00  0.00     0.031 A 
ATOM     32  C   UNL     1     -11.977  -4.729  -1.240  1.00  0.00     0.074 A 
ATOM     33  C   UNL     1     -10.197  -6.004  -2.375  1.00  0.00     0.049 A 
ATOM     34  N   UNL     1     -12.737  -5.701  -0.798  1.00  0.00    -0.248 NA
ATOM     35  C   UNL     1     -12.483  -3.385  -0.923  1.00  0.00     0.031 C 
ATOM     36  C   UNL     1      -8.961  -6.229  -3.123  1.00  0.00     0.029 A 
ATOM     37  N   UNL     1     -10.699  -7.268  -2.175  1.00  0.00    -0.354 N 
ATOM     38  C   UNL     1     -13.793  -5.088  -0.129  1.00  0.00     0.074 A 
ATOM     39  C   UNL     1     -13.557  -3.662  -0.197  1.00  0.00     0.031 C 
ATOM     40  C   UNL     1      -8.808  -7.547  -3.332  1.00  0.00     0.029 A 
ATOM     41  C   UNL     1      -9.916  -8.266  -2.707  1.00  0.00     0.049 A 
ATOM     42  H   UNL     1     -11.541  -7.443  -1.696  1.00  0.00     0.167 HD
ATOM     43  C   UNL     1     -14.869  -5.654   0.473  1.00  0.00     0.037 A 
ATOM     44  C   UNL     1     -10.068  -9.606  -2.692  1.00  0.00     0.037 A 
ATOM     45  C   UNL     1     -15.131  -7.070   0.511  1.00  0.00     0.049 A 
ATOM     46  C   UNL     1     -11.269 -10.215  -2.019  1.00  0.00     0.074 A 
ATOM     47  C   UNL     1     -16.207  -7.734   1.077  1.00  0.00     0.029 A 
ATOM     48  N   UNL     1     -14.316  -8.042  -0.049  1.00  0.00    -0.354 N 
ATOM     49  N   UNL     1     -12.257  -9.618  -1.395  1.00  0.00    -0.248 NA
ATOM     50  C   UNL     1     -11.379 -11.681  -2.052  1.00  0.00     0.031 C 
ATOM     51  C   UNL     1     -16.030  -9.109   0.879  1.00  0.00     0.029 A 
ATOM     52  C   UNL     1     -14.862  -9.298   0.160  1.00  0.00     0.049 A 
ATOM     53  H   UNL     1     -13.473  -7.865  -0.526  1.00  0.00     0.167 HD
ATOM     54  C   UNL     1     -13.118 -10.632  -0.989  1.00  0.00     0.074 A 
ATOM     55  C   UNL     1     -12.539 -11.880  -1.439  1.00  0.00     0.031 C 
ATOM     56  C   UNL     1     -14.286 -10.535  -0.306  1.00  0.00     0.037 A 
BRANCH  43  57
ATOM     57  C   UNL     1     -15.844  -4.731   1.152  1.00  0.00     0.058 A 
ATOM     58  C   UNL     1     -16.705  -3.898   0.418  1.00  0.00     0.135 A 
ATOM     59  C   UNL     1     -15.923  -4.679   2.553  1.00  0.00     0.135 A 
ATOM     60  F   UNL     1     -16.665  -3.900  -0.924  1.00  0.00    -0.206 F 
ATOM     61  C   UNL     1     -17.575  -3.014   1.048  1.00  0.00     0.059 A 
ATOM     62  C   UNL     1     -16.805  -3.821   3.205  1.00  0.00     0.059 A 
ATOM     63  F   UNL     1     -15.130  -5.458   3.305  1.00  0.00    -0.206 F 
ATOM     64  C   UNL     1     -17.610  -2.975   2.443  1.00  0.00     0.060 A 
BRANCH  64  65
ATOM     65  S   UNL     1     -18.717  -1.799   3.251  1.00  0.00     0.124 S 
ATOM     66  O   UNL     1     -17.972  -0.552   3.101  1.00  0.00    -0.237 OA
ATOM     67  O   UNL     1     -19.934  -1.909   2.454  1.00  0.00    -0.237 OA
ATOM     68  O   UNL     1     -18.817  -2.310   4.614  1.00  0.00    -0.744 OA
ENDBRANCH  64  65
ENDBRANCH  43  57
BRANCH  44  69
ATOM     69  C   UNL     1      -9.064 -10.469  -3.368  1.00  0.00     0.058 A 
ATOM     70  C   UNL     1      -9.367 -11.109  -4.578  1.00  0.00     0.135 A 
ATOM     71  C   UNL     1      -7.782 -10.657  -2.830  1.00  0.00     0.135 A 
ATOM     72  F   UNL     1     -10.585 -10.968  -5.124  1.00  0.00    -0.206 F 
ATOM     73  C   UNL     1      -8.437 -11.909  -5.232  1.00  0.00     0.059 A 
ATOM     74  C   UNL     1      -6.827 -11.437  -3.476  1.00  0.00     0.059 A 
ATOM     75  F   UNL     1      -7.441 -10.058  -1.679  1.00  0.00    -0.206 F 
ATOM     76  C   UNL     1      -7.166 -12.064  -4.674  1.00  0.00     0.060 A 
BRANCH  76  77
ATOM     77  S   UNL     1      -5.945 -13.053  -5.565  1.00  0.00     0.124 S 
ATOM     78  O   UNL     1      -6.400 -14.403  -5.291  1.00  0.00    -0.237 OA
ATOM     79  O   UNL     1      -6.112 -12.582  -6.939  1.00  0.00    -0.237 OA
ATOM     80  O   UNL     1      -4.681 -12.665  -4.934  1.00  0.00    -0.744 OA
ENDBRANCH  76  77
ENDBRANCH  44  69
BRANCH  56  81
ATOM     81  C   UNL     1     -15.042 -11.806  -0.039  1.00  0.00     0.058 A 
ATOM     82  C   UNL     1     -14.633 -12.714   0.950  1.00  0.00     0.135 A 
ATOM     83  C   UNL     1     -16.218 -12.095  -0.750  1.00  0.00     0.135 A 
ATOM     84  F   UNL     1     -13.513 -12.488   1.653  1.00  0.00    -0.206 F 
ATOM     85  C   UNL     1     -15.355 -13.875   1.213  1.00  0.00     0.059 A 
ATOM     86  C   UNL     1     -16.966 -13.240  -0.490  1.00  0.00     0.059 A 
ATOM     87  F   UNL     1     -16.657 -11.255  -1.700  1.00  0.00    -0.206 F 
ATOM     88  C   UNL     1     -16.520 -14.130   0.486  1.00  0.00     0.060 A 
BRANCH  88  89
ATOM     89  S   UNL     1     -17.469 -15.621   0.858  1.00  0.00     0.124 S 
ATOM     90  O   UNL     1     -16.676 -16.648   0.190  1.00  0.00    -0.237 OA
ATOM     91  O   UNL     1     -17.448 -15.654   2.317  1.00  0.00    -0.237 OA
ATOM     92  O   UNL     1     -18.774 -15.348   0.264  1.00  0.00    -0.744 OA
ENDBRANCH  88  89
ENDBRANCH  56  81
ENDBRANCH  30  31
ENDBRANCH  22  25
ENDBRANCH  20  21
ENDBRANCH  19  20
ENDBRANCH  18  19
ENDBRANCH   3  18
TORSDOF 19
