REMARK SMILES O=C(NCCCNC(=O)[C@@H](Cc1ccccc1)N1C(=O)/C(=C/c2ccncc2)SC1=S)c1ccc(-c2c3nc(c(-c4c(F)cc(S(=O)(=O)[O-])cc4F)c4ccc([nH]4)c(-c4c(F)cc(S(=O)(=O)[O-])cc4F)c4nc(c(-c5c(F)cc(S(=O)(=O)[O-])cc5F)c5ccc2[nH]5)C=C4)C=C3)cc1
REMARK SMILES IDX 4 1 3 2 1 3 2 4 32 6 33 7 97 8 34 9 96 10 35 11 36 12 37 13
REMARK SMILES IDX 90 14 38 15 95 16 89 17 91 18 39 19 94 20 88 21 87 22 40 24
REMARK SMILES IDX 74 25 53 26 73 27 54 28 57 29 72 30 92 31 55 32 56 33 71 35
REMARK SMILES IDX 93 36 58 37 41 38 42 39 51 40 43 41 44 42 50 43 52 44 45 45
REMARK SMILES IDX 46 46 47 47 48 48 49 49 75 50 76 51 85 52 77 53 78 54 84 55
REMARK SMILES IDX 86 56 79 57 80 58 81 59 82 60 83 61 59 62 60 63 69 64 61 65
REMARK SMILES IDX 62 66 68 67 70 68 63 69 64 70 65 71 66 72 67 73 5 74 6 75
REMARK SMILES IDX 7 76 8 77 9 79 10 80 11 81 12 82 13 83 17 84 14 85 16 86
REMARK SMILES IDX 15 87 18 88 19 89 30 90 20 91 21 92 29 93 31 94 22 95 23 96
REMARK SMILES IDX 24 97 28 98 25 99 27 100 26 101
REMARK H PARENT 3 5 91 23 57 34 7 78
REMARK Flexibility Score: inf
ROOT
ATOM      1  C   UNL     1       4.332  -1.659  -0.187  1.00  0.00     0.118 C 
ENDROOT
BRANCH   1   2
ATOM      2  N   UNL     1       2.924  -1.300  -0.078  1.00  0.00    -0.352 N 
ATOM      3  O   UNL     1       1.064  -0.072   0.048  1.00  0.00    -0.269 OA
ATOM      4  C   UNL     1       2.254  -0.115  -0.265  1.00  0.00     0.251 C 
ATOM      5  H   UNL     1       2.341  -2.050   0.178  1.00  0.00     0.163 HD
BRANCH   4   6
ATOM      6  C   UNL     1       2.912   1.101  -0.807  1.00  0.00     0.039 A 
ATOM      7  C   UNL     1       3.955   1.039  -1.730  1.00  0.00     0.014 A 
ATOM      8  C   UNL     1       2.419   2.357  -0.427  1.00  0.00     0.014 A 
ATOM      9  C   UNL     1       4.614   2.199  -2.129  1.00  0.00     0.010 A 
ATOM     10  C   UNL     1       3.003   3.528  -0.923  1.00  0.00     0.010 A 
ATOM     11  C   UNL     1       4.131   3.460  -1.754  1.00  0.00    -0.014 A 
BRANCH  11  12
ATOM     12  C   UNL     1       4.776   4.689  -2.286  1.00  0.00     0.031 A 
ATOM     13  C   UNL     1       5.387   5.704  -1.359  1.00  0.00     0.074 A 
ATOM     14  C   UNL     1       4.806   4.889  -3.620  1.00  0.00     0.049 A 
ATOM     15  N   UNL     1       5.933   6.859  -1.643  1.00  0.00    -0.248 NA
ATOM     16  C   UNL     1       5.373   5.386   0.077  1.00  0.00     0.031 C 
ATOM     17  C   UNL     1       4.247   3.976  -4.620  1.00  0.00     0.029 A 
ATOM     18  N   UNL     1       5.324   5.917  -4.367  1.00  0.00    -0.354 N 
ATOM     19  C   UNL     1       6.302   7.418  -0.425  1.00  0.00     0.074 A 
ATOM     20  C   UNL     1       5.892   6.486   0.604  1.00  0.00     0.031 C 
ATOM     21  C   UNL     1       4.479   4.465  -5.845  1.00  0.00     0.029 A 
ATOM     22  C   UNL     1       5.128   5.764  -5.719  1.00  0.00     0.049 A 
ATOM     23  H   UNL     1       5.791   6.688  -3.972  1.00  0.00     0.167 HD
ATOM     24  C   UNL     1       6.928   8.598  -0.191  1.00  0.00     0.037 A 
ATOM     25  C   UNL     1       5.403   6.591  -6.747  1.00  0.00     0.037 A 
ATOM     26  C   UNL     1       7.332   9.512  -1.229  1.00  0.00     0.049 A 
ATOM     27  C   UNL     1       6.058   7.910  -6.462  1.00  0.00     0.074 A 
ATOM     28  C   UNL     1       7.995  10.721  -1.101  1.00  0.00     0.029 A 
ATOM     29  N   UNL     1       7.102   9.327  -2.586  1.00  0.00    -0.354 N 
ATOM     30  N   UNL     1       6.417   8.416  -5.306  1.00  0.00    -0.248 NA
ATOM     31  C   UNL     1       6.346   8.773  -7.614  1.00  0.00     0.031 C 
ATOM     32  C   UNL     1       8.112  11.292  -2.373  1.00  0.00     0.029 A 
ATOM     33  C   UNL     1       7.587  10.409  -3.303  1.00  0.00     0.049 A 
ATOM     34  H   UNL     1       6.660   8.541  -2.981  1.00  0.00     0.167 HD
ATOM     35  C   UNL     1       7.000   9.643  -5.593  1.00  0.00     0.074 A 
ATOM     36  C   UNL     1       6.947   9.803  -7.032  1.00  0.00     0.031 C 
ATOM     37  C   UNL     1       7.538  10.550  -4.739  1.00  0.00     0.037 A 
BRANCH  24  38
ATOM     38  C   UNL     1       7.175   8.984   1.245  1.00  0.00     0.058 A 
ATOM     39  C   UNL     1       8.088   8.294   2.059  1.00  0.00     0.135 A 
ATOM     40  C   UNL     1       6.490  10.071   1.815  1.00  0.00     0.135 A 
ATOM     41  F   UNL     1       8.765   7.241   1.573  1.00  0.00    -0.206 F 
ATOM     42  C   UNL     1       8.278   8.635   3.395  1.00  0.00     0.059 A 
ATOM     43  C   UNL     1       6.688  10.451   3.140  1.00  0.00     0.059 A 
ATOM     44  F   UNL     1       5.608  10.773   1.086  1.00  0.00    -0.206 F 
ATOM     45  C   UNL     1       7.567   9.712   3.929  1.00  0.00     0.060 A 
BRANCH  45  46
ATOM     46  S   UNL     1       7.795  10.117   5.673  1.00  0.00     0.124 S 
ATOM     47  O   UNL     1       7.105   9.005   6.320  1.00  0.00    -0.237 OA
ATOM     48  O   UNL     1       9.248  10.123   5.804  1.00  0.00    -0.237 OA
ATOM     49  O   UNL     1       7.150  11.419   5.808  1.00  0.00    -0.744 OA
ENDBRANCH  45  46
ENDBRANCH  24  38
BRANCH  25  50
ATOM     50  C   UNL     1       5.039   6.179  -8.129  1.00  0.00     0.058 A 
ATOM     51  C   UNL     1       6.023   5.830  -9.064  1.00  0.00     0.135 A 
ATOM     52  C   UNL     1       3.694   6.059  -8.517  1.00  0.00     0.135 A 
ATOM     53  F   UNL     1       7.321   5.933  -8.743  1.00  0.00    -0.206 F 
ATOM     54  C   UNL     1       5.688   5.374 -10.335  1.00  0.00     0.059 A 
ATOM     55  C   UNL     1       3.334   5.577  -9.771  1.00  0.00     0.059 A 
ATOM     56  F   UNL     1       2.715   6.362  -7.651  1.00  0.00    -0.206 F 
ATOM     57  C   UNL     1       4.340   5.239 -10.675  1.00  0.00     0.060 A 
BRANCH  57  58
ATOM     58  S   UNL     1       3.919   4.564 -12.296  1.00  0.00     0.124 S 
ATOM     59  O   UNL     1       4.300   5.660 -13.179  1.00  0.00    -0.237 OA
ATOM     60  O   UNL     1       4.760   3.372 -12.356  1.00  0.00    -0.237 OA
ATOM     61  O   UNL     1       2.486   4.306 -12.191  1.00  0.00    -0.744 OA
ENDBRANCH  57  58
ENDBRANCH  25  50
BRANCH  37  62
ATOM     62  C   UNL     1       8.168  11.778  -5.336  1.00  0.00     0.058 A 
ATOM     63  C   UNL     1       7.403  12.816  -5.888  1.00  0.00     0.135 A 
ATOM     64  C   UNL     1       9.562  11.947  -5.281  1.00  0.00     0.135 A 
ATOM     65  F   UNL     1       6.069  12.700  -5.976  1.00  0.00    -0.206 F 
ATOM     66  C   UNL     1       7.998  13.976  -6.374  1.00  0.00     0.059 A 
ATOM     67  C   UNL     1      10.175  13.111  -5.733  1.00  0.00     0.059 A 
ATOM     68  F   UNL     1      10.340  10.986  -4.758  1.00  0.00    -0.206 F 
ATOM     69  C   UNL     1       9.385  14.118  -6.283  1.00  0.00     0.060 A 
BRANCH  69  70
ATOM     70  S   UNL     1      10.137  15.655  -6.858  1.00  0.00     0.124 S 
ATOM     71  O   UNL     1      10.002  15.526  -8.305  1.00  0.00    -0.237 OA
ATOM     72  O   UNL     1       9.295  16.668  -6.230  1.00  0.00    -0.237 OA
ATOM     73  O   UNL     1      11.502  15.578  -6.346  1.00  0.00    -0.744 OA
ENDBRANCH  69  70
ENDBRANCH  37  62
ENDBRANCH  11  12
ENDBRANCH   4   6
ENDBRANCH   1   2
BRANCH   1  74
ATOM     74  C   UNL     1       4.936  -2.116   1.135  1.00  0.00     0.042 C 
BRANCH  74  75
ATOM     75  C   UNL     1       4.274  -3.344   1.758  1.00  0.00     0.117 C 
BRANCH  75  76
ATOM     76  N   UNL     1       5.221  -4.419   1.986  1.00  0.00    -0.354 N 
ATOM     77  C   UNL     1       5.966  -4.809   3.050  1.00  0.00     0.243 C 
ATOM     78  H   UNL     1       5.352  -4.990   1.194  1.00  0.00     0.163 HD
ATOM     79  O   UNL     1       6.714  -5.776   2.843  1.00  0.00    -0.273 OA
BRANCH  77  80
ATOM     80  C   UNL     1       6.003  -4.117   4.447  1.00  0.00     0.185 C 
BRANCH  80  81
ATOM     81  C   UNL     1       6.628  -2.697   4.287  1.00  0.00     0.071 C 
BRANCH  81  82
ATOM     82  C   UNL     1       5.841  -1.398   4.231  1.00  0.00    -0.045 A 
ATOM     83  C   UNL     1       6.580  -0.227   3.972  1.00  0.00     0.004 A 
ATOM     84  C   UNL     1       4.455  -1.260   4.385  1.00  0.00     0.004 A 
ATOM     85  C   UNL     1       5.954   1.011   3.808  1.00  0.00     0.000 A 
ATOM     86  C   UNL     1       3.823  -0.023   4.208  1.00  0.00     0.000 A 
ATOM     87  C   UNL     1       4.571   1.109   3.908  1.00  0.00     0.000 A 
ENDBRANCH  81  82
ENDBRANCH  80  81
BRANCH  80  88
ATOM     88  N   UNL     1       4.843  -4.265   5.354  1.00  0.00    -0.280 N 
ATOM     89  C   UNL     1       4.016  -5.375   5.248  1.00  0.00     0.266 C 
ATOM     90  C   UNL     1       4.730  -3.653   6.592  1.00  0.00     0.149 C 
ATOM     91  O   UNL     1       4.149  -6.329   4.490  1.00  0.00    -0.268 OA
ATOM     92  C   UNL     1       2.918  -5.311   6.255  1.00  0.00     0.081 C 
ATOM     93  S   UNL     1       3.105  -3.897   7.207  1.00  0.00    -0.054 SA
ATOM     94  S   UNL     1       5.872  -2.874   7.525  1.00  0.00    -0.052 S 
ATOM     95  C   UNL     1       1.953  -6.233   6.386  1.00  0.00     0.029 C 
BRANCH  95  96
ATOM     96  C   UNL     1       0.800  -6.032   7.271  1.00  0.00    -0.021 A 
ATOM     97  C   UNL     1      -0.294  -5.318   6.778  1.00  0.00     0.028 A 
ATOM     98  C   UNL     1       0.815  -6.414   8.611  1.00  0.00     0.028 A 
ATOM     99  C   UNL     1      -1.322  -5.004   7.649  1.00  0.00     0.111 A 
ATOM    100  C   UNL     1      -0.266  -6.054   9.401  1.00  0.00     0.111 A 
ATOM    101  N   UNL     1      -1.335  -5.362   8.950  1.00  0.00    -0.265 NA
ENDBRANCH  95  96
ENDBRANCH  80  88
ENDBRANCH  77  80
ENDBRANCH  75  76
ENDBRANCH  74  75
ENDBRANCH   1  74
TORSDOF 17
