REMARK SMILES Cc1nc(CCC(F)(F)F)[nH]c(=O)c1CCC(=O)NCCCNC(=O)c1ccc(-c2c3nc(c(-c4c(F)cc(S(=O)(=O)[O-])cc4F)c4ccc([nH]4)c(-c4c(F)cc(S(=O)(=O)[O-])cc4F)c4nc(c(-c5c(F)cc(S(=O)(=O)[O-])cc5F)c5ccc2[nH]5)C=C4)C=C3)cc1
REMARK SMILES IDX 20 1 19 2 17 3 18 4 16 6 15 7 14 8 1 9 2 10 3 11 4 12 12 13
REMARK SMILES IDX 11 14 13 15 5 17 6 18 7 19 8 20 9 21 10 22 21 23 22 24 23 25
REMARK SMILES IDX 24 26 25 28 26 29 27 30 91 31 28 32 90 33 29 34 30 35 31 36
REMARK SMILES IDX 84 37 32 38 89 39 83 40 85 41 33 42 88 43 82 44 81 45 34 47
REMARK SMILES IDX 68 48 47 49 67 50 48 51 51 52 66 53 86 54 49 55 50 56 65 58
REMARK SMILES IDX 87 59 52 60 35 61 36 62 45 63 37 64 38 65 44 66 46 67 39 68
REMARK SMILES IDX 40 69 41 70 42 71 43 72 69 73 70 74 79 75 71 76 72 77 78 78
REMARK SMILES IDX 80 79 73 80 74 81 75 82 76 83 77 84 53 85 54 86 63 87 55 88
REMARK SMILES IDX 56 89 62 90 64 91 57 92 58 93 59 94 60 95 61 96
REMARK H PARENT 19 5 11 16 23 27 85 46 51 57
REMARK Flexibility Score: inf
ROOT
ATOM      1  C   UNL     1       2.803  -0.326  -1.643  1.00  0.00     0.117 C 
ENDROOT
BRANCH   1   2
ATOM      2  N   UNL     1       2.888  -1.772  -1.416  1.00  0.00    -0.356 N 
ATOM      3  C   UNL     1       1.956  -2.757  -1.288  1.00  0.00     0.220 C 
ATOM      4  O   UNL     1       2.356  -3.890  -0.999  1.00  0.00    -0.275 OA
ATOM      5  H   UNL     1       3.813  -2.099  -1.339  1.00  0.00     0.163 HD
BRANCH   3   6
ATOM      6  C   UNL     1       0.481  -2.525  -1.560  1.00  0.00     0.105 C 
BRANCH   6   7
ATOM      7  C   UNL     1      -0.400  -2.632  -0.296  1.00  0.00     0.053 C 
BRANCH   7   8
ATOM      8  C   UNL     1      -0.860  -1.266   0.125  1.00  0.00     0.039 A 
ATOM      9  C   UNL     1      -3.317  -1.517  -0.230  1.00  0.00     0.067 C 
ATOM     10  C   UNL     1      -2.090  -0.714   0.103  1.00  0.00     0.048 A 
ATOM     11  N   UNL     1      -2.322   0.636   0.307  1.00  0.00    -0.240 NA
ATOM     12  C   UNL     1      -1.287   1.411   0.353  1.00  0.00     0.109 A 
ATOM     13  C   UNL     1       0.220  -0.372   0.556  1.00  0.00     0.254 A 
ATOM     14  N   UNL     1      -0.013   0.937   0.324  1.00  0.00    -0.310 N 
ATOM     15  O   UNL     1       1.262  -0.795   1.048  1.00  0.00    -0.269 OA
ATOM     16  H   UNL     1       0.737   1.546   0.134  1.00  0.00     0.171 HD
BRANCH  12  17
ATOM     17  C   UNL     1      -1.406   2.916   0.445  1.00  0.00     0.084 C 
BRANCH  17  18
ATOM     18  C   UNL     1      -0.994   3.524   1.794  1.00  0.00     0.123 C 
BRANCH  18  19
ATOM     19  C   UNL     1       0.288   2.969   2.375  1.00  0.00     0.389 C 
ATOM     20  F   UNL     1       1.235   2.882   1.408  1.00  0.00    -0.171 F 
ATOM     21  F   UNL     1       0.780   3.729   3.361  1.00  0.00    -0.171 F 
ATOM     22  F   UNL     1       0.109   1.728   2.870  1.00  0.00    -0.171 F 
ENDBRANCH  18  19
ENDBRANCH  17  18
ENDBRANCH  12  17
ENDBRANCH   7   8
ENDBRANCH   6   7
ENDBRANCH   3   6
ENDBRANCH   1   2
BRANCH   1  23
ATOM     23  C   UNL     1       3.482   0.462  -0.499  1.00  0.00     0.042 C 
BRANCH  23  24
ATOM     24  C   UNL     1       4.432   1.572  -0.944  1.00  0.00     0.118 C 
BRANCH  24  25
ATOM     25  N   UNL     1       3.757   2.703  -1.556  1.00  0.00    -0.352 N 
ATOM     26  C   UNL     1       3.322   3.944  -1.165  1.00  0.00     0.251 C 
ATOM     27  H   UNL     1       3.559   2.534  -2.506  1.00  0.00     0.163 HD
ATOM     28  O   UNL     1       2.800   4.608  -2.069  1.00  0.00    -0.269 OA
BRANCH  26  29
ATOM     29  C   UNL     1       3.380   4.551   0.207  1.00  0.00     0.039 A 
ATOM     30  C   UNL     1       2.690   5.772   0.377  1.00  0.00     0.014 A 
ATOM     31  C   UNL     1       4.034   4.037   1.325  1.00  0.00     0.014 A 
ATOM     32  C   UNL     1       2.651   6.448   1.610  1.00  0.00     0.010 A 
ATOM     33  C   UNL     1       3.957   4.690   2.574  1.00  0.00     0.010 A 
ATOM     34  C   UNL     1       3.273   5.907   2.737  1.00  0.00    -0.014 A 
BRANCH  34  35
ATOM     35  C   UNL     1       3.238   6.595   4.069  1.00  0.00     0.031 A 
ATOM     36  C   UNL     1       4.522   7.037   4.731  1.00  0.00     0.074 A 
ATOM     37  C   UNL     1       2.075   6.780   4.730  1.00  0.00     0.049 A 
ATOM     38  N   UNL     1       4.710   7.548   5.923  1.00  0.00    -0.248 NA
ATOM     39  C   UNL     1       5.759   6.874   3.951  1.00  0.00     0.031 C 
ATOM     40  C   UNL     1       0.749   6.421   4.232  1.00  0.00     0.029 A 
ATOM     41  N   UNL     1       1.819   7.291   5.983  1.00  0.00    -0.354 N 
ATOM     42  C   UNL     1       6.080   7.752   6.042  1.00  0.00     0.074 A 
ATOM     43  C   UNL     1       6.682   7.258   4.821  1.00  0.00     0.031 C 
ATOM     44  C   UNL     1      -0.170   6.666   5.179  1.00  0.00     0.029 A 
ATOM     45  C   UNL     1       0.495   7.218   6.353  1.00  0.00     0.049 A 
ATOM     46  H   UNL     1       2.519   7.672   6.561  1.00  0.00     0.167 HD
ATOM     47  C   UNL     1       6.777   8.325   7.055  1.00  0.00     0.037 A 
ATOM     48  C   UNL     1      -0.125   7.554   7.502  1.00  0.00     0.037 A 
ATOM     49  C   UNL     1       6.184   8.860   8.254  1.00  0.00     0.049 A 
ATOM     50  C   UNL     1       0.665   8.177   8.619  1.00  0.00     0.074 A 
ATOM     51  C   UNL     1       6.806   9.525   9.298  1.00  0.00     0.029 A 
ATOM     52  N   UNL     1       4.836   8.797   8.570  1.00  0.00    -0.354 N 
ATOM     53  N   UNL     1       1.951   8.419   8.680  1.00  0.00    -0.248 NA
ATOM     54  C   UNL     1      -0.085   8.598   9.812  1.00  0.00     0.031 C 
ATOM     55  C   UNL     1       5.838   9.838  10.259  1.00  0.00     0.029 A 
ATOM     56  C   UNL     1       4.608   9.400   9.798  1.00  0.00     0.049 A 
ATOM     57  H   UNL     1       4.142   8.386   8.006  1.00  0.00     0.167 HD
ATOM     58  C   UNL     1       2.159   9.056   9.899  1.00  0.00     0.074 A 
ATOM     59  C   UNL     1       0.866   9.163  10.543  1.00  0.00     0.031 C 
ATOM     60  C   UNL     1       3.318   9.516  10.430  1.00  0.00     0.037 A 
BRANCH  47  61
ATOM     61  C   UNL     1       8.270   8.421   6.899  1.00  0.00     0.058 A 
ATOM     62  C   UNL     1       8.856   9.309   5.982  1.00  0.00     0.135 A 
ATOM     63  C   UNL     1       9.127   7.635   7.687  1.00  0.00     0.135 A 
ATOM     64  F   UNL     1       8.083  10.077   5.198  1.00  0.00    -0.206 F 
ATOM     65  C   UNL     1      10.235   9.383   5.820  1.00  0.00     0.059 A 
ATOM     66  C   UNL     1      10.511   7.713   7.561  1.00  0.00     0.059 A 
ATOM     67  F   UNL     1       8.621   6.775   8.585  1.00  0.00    -0.206 F 
ATOM     68  C   UNL     1      11.055   8.575   6.610  1.00  0.00     0.060 A 
BRANCH  68  69
ATOM     69  S   UNL     1      12.842   8.668   6.373  1.00  0.00     0.124 S 
ATOM     70  O   UNL     1      13.007   7.920   5.130  1.00  0.00    -0.237 OA
ATOM     71  O   UNL     1      13.074  10.106   6.282  1.00  0.00    -0.237 OA
ATOM     72  O   UNL     1      13.376   8.024   7.568  1.00  0.00    -0.744 OA
ENDBRANCH  68  69
ENDBRANCH  47  61
BRANCH  48  73
ATOM     73  C   UNL     1      -1.593   7.354   7.641  1.00  0.00     0.058 A 
ATOM     74  C   UNL     1      -2.473   8.445   7.594  1.00  0.00     0.135 A 
ATOM     75  C   UNL     1      -2.143   6.076   7.822  1.00  0.00     0.135 A 
ATOM     76  F   UNL     1      -1.992   9.687   7.428  1.00  0.00    -0.206 F 
ATOM     77  C   UNL     1      -3.846   8.281   7.739  1.00  0.00     0.059 A 
ATOM     78  C   UNL     1      -3.516   5.884   7.950  1.00  0.00     0.059 A 
ATOM     79  F   UNL     1      -1.344   4.999   7.858  1.00  0.00    -0.206 F 
ATOM     80  C   UNL     1      -4.359   6.995   7.917  1.00  0.00     0.060 A 
BRANCH  80  81
ATOM     81  S   UNL     1      -6.148   6.791   8.058  1.00  0.00     0.124 S 
ATOM     82  O   UNL     1      -6.395   7.284   9.407  1.00  0.00    -0.237 OA
ATOM     83  O   UNL     1      -6.639   7.632   6.970  1.00  0.00    -0.237 OA
ATOM     84  O   UNL     1      -6.337   5.356   7.864  1.00  0.00    -0.744 OA
ENDBRANCH  80  81
ENDBRANCH  48  73
BRANCH  60  85
ATOM     85  C   UNL     1       3.243  10.216  11.758  1.00  0.00     0.058 A 
ATOM     86  C   UNL     1       3.036   9.510  12.953  1.00  0.00     0.135 A 
ATOM     87  C   UNL     1       3.425  11.606  11.840  1.00  0.00     0.135 A 
ATOM     88  F   UNL     1       2.848   8.181  12.929  1.00  0.00    -0.206 F 
ATOM     89  C   UNL     1       2.993  10.160  14.182  1.00  0.00     0.059 A 
ATOM     90  C   UNL     1       3.409  12.274  13.061  1.00  0.00     0.059 A 
ATOM     91  F   UNL     1       3.633  12.327  10.727  1.00  0.00    -0.206 F 
ATOM     92  C   UNL     1       3.181  11.543  14.226  1.00  0.00     0.060 A 
BRANCH  92  93
ATOM     93  S   UNL     1       3.160  12.372  15.830  1.00  0.00     0.124 S 
ATOM     94  O   UNL     1       1.732  12.409  16.124  1.00  0.00    -0.237 OA
ATOM     95  O   UNL     1       3.954  11.471  16.661  1.00  0.00    -0.237 OA
ATOM     96  O   UNL     1       3.779  13.665  15.552  1.00  0.00    -0.744 OA
ENDBRANCH  92  93
ENDBRANCH  60  85
ENDBRANCH  34  35
ENDBRANCH  26  29
ENDBRANCH  24  25
ENDBRANCH  23  24
ENDBRANCH   1  23
TORSDOF 18
