REMARK SMILES Cc1c(NC(=O)c2ccc(Br)cc2N)cccc1C(=O)NCCCNC(=O)c1ccc(-c2c3nc(c(-c4c(F)cc(S(=O)(=O)[O-])cc4F)c4ccc([nH]4)c(-c4c(F)cc(S(=O)(=O)[O-])cc4F)c4nc(c(-c5c(F)cc(S(=O)(=O)[O-])cc5F)c5ccc2[nH]5)C=C4)C=C3)cc1
REMARK SMILES IDX 23 1 22 2 21 3 19 4 20 5 18 7 1 8 2 9 3 10 15 11 17 12 16 13
REMARK SMILES IDX 4 14 5 15 6 17 7 18 8 19 13 20 9 21 12 22 10 23 11 24 14 25
REMARK SMILES IDX 24 28 25 29 26 30 27 32 28 33 29 34 93 35 30 36 92 37 31 38
REMARK SMILES IDX 32 39 33 40 86 41 34 42 91 43 85 44 87 45 35 46 90 47 84 48
REMARK SMILES IDX 83 49 36 51 70 52 49 53 69 54 50 55 53 56 68 57 88 58 51 59
REMARK SMILES IDX 52 60 67 62 89 63 54 64 37 65 38 66 47 67 39 68 40 69 46 70
REMARK SMILES IDX 48 71 41 72 42 73 43 74 44 75 45 76 71 77 72 78 81 79 73 80
REMARK SMILES IDX 74 81 80 82 82 83 75 84 76 85 77 86 78 87 79 88 55 89 56 90
REMARK SMILES IDX 65 91 57 92 58 93 64 94 66 95 59 96 60 97 61 98 62 99 63 100
REMARK H PARENT 21 6 4 16 14 26 14 27 25 31 87 50 53 61
REMARK Flexibility Score: inf
ROOT
ATOM      1  C   UNL     1       4.529  -0.016   0.468  1.00  0.00     0.042 C 
ENDROOT
BRANCH   1   2
ATOM      2  C   UNL     1       3.234   0.700   1.185  1.00  0.00     0.118 C 
BRANCH   2   3
ATOM      3  N   UNL     1       2.381   1.636   0.395  1.00  0.00    -0.352 N 
ATOM      4  C   UNL     1       1.050   1.780   0.042  1.00  0.00     0.251 C 
ATOM      5  O   UNL     1       0.613   2.843  -0.404  1.00  0.00    -0.269 OA
ATOM      6  H   UNL     1       2.923   2.363   0.013  1.00  0.00     0.163 HD
BRANCH   4   7
ATOM      7  C   UNL     1       0.076   0.672   0.164  1.00  0.00     0.044 A 
ATOM      8  C   UNL     1       1.734  -1.012  -0.756  1.00  0.00     0.047 C 
ATOM      9  C   UNL     1       0.454  -0.649  -0.051  1.00  0.00    -0.015 A 
ATOM     10  C   UNL     1      -0.447  -1.671   0.270  1.00  0.00     0.045 A 
ATOM     11  C   UNL     1      -1.786  -1.395   0.551  1.00  0.00     0.026 A 
ATOM     12  C   UNL     1      -1.285   0.962   0.393  1.00  0.00     0.014 A 
ATOM     13  C   UNL     1      -2.218  -0.069   0.559  1.00  0.00     0.003 A 
BRANCH  10  14
ATOM     14  N   UNL     1       0.104  -2.949   0.357  1.00  0.00    -0.322 N 
ATOM     15  C   UNL     1      -0.224  -4.099  -0.300  1.00  0.00     0.257 C 
ATOM     16  H   UNL     1       0.848  -3.035   0.996  1.00  0.00     0.170 HD
ATOM     17  O   UNL     1       0.440  -5.114  -0.075  1.00  0.00    -0.269 OA
BRANCH  15  18
ATOM     18  C   UNL     1      -1.341  -4.172  -1.267  1.00  0.00     0.063 A 
ATOM     19  C   UNL     1      -2.160  -5.298  -1.091  1.00  0.00     0.017 A 
ATOM     20  C   UNL     1      -1.599  -3.263  -2.316  1.00  0.00     0.045 A 
ATOM     21  C   UNL     1      -3.266  -5.500  -1.907  1.00  0.00     0.016 A 
ATOM     22  C   UNL     1      -2.752  -3.452  -3.086  1.00  0.00     0.042 A 
ATOM     23  C   UNL     1      -3.569  -4.563  -2.887  1.00  0.00     0.020 A 
ATOM     24  Br  UNL     1      -5.079  -4.819  -3.992  1.00  0.00    -0.051 Br
BRANCH  20  25
ATOM     25  N   UNL     1      -0.765  -2.225  -2.691  1.00  0.00    -0.398 N 
ATOM     26  H   UNL     1       0.060  -2.049  -2.183  1.00  0.00     0.156 HD
ATOM     27  H   UNL     1      -0.996  -1.664  -3.466  1.00  0.00     0.156 HD
ENDBRANCH  20  25
ENDBRANCH  15  18
ENDBRANCH  10  14
ENDBRANCH   4   7
ENDBRANCH   2   3
ENDBRANCH   1   2
BRANCH   1  28
ATOM     28  C   UNL     1       5.966   0.600   0.778  1.00  0.00     0.118 C 
BRANCH  28  29
ATOM     29  N   UNL     1       7.332   0.261   0.081  1.00  0.00    -0.352 N 
ATOM     30  C   UNL     1       8.573   0.982  -0.225  1.00  0.00     0.251 C 
ATOM     31  H   UNL     1       7.364  -0.673  -0.230  1.00  0.00     0.163 HD
ATOM     32  O   UNL     1       9.555   0.559   0.412  1.00  0.00    -0.269 OA
BRANCH  30  33
ATOM     33  C   UNL     1       8.951   2.138  -1.254  1.00  0.00     0.039 A 
ATOM     34  C   UNL     1       9.899   3.158  -0.912  1.00  0.00     0.014 A 
ATOM     35  C   UNL     1       8.380   2.358  -2.501  1.00  0.00     0.014 A 
ATOM     36  C   UNL     1       9.781   4.510  -1.445  1.00  0.00     0.010 A 
ATOM     37  C   UNL     1       8.252   3.688  -3.023  1.00  0.00     0.010 A 
ATOM     38  C   UNL     1       8.738   4.812  -2.338  1.00  0.00    -0.014 A 
BRANCH  38  39
ATOM     39  C   UNL     1       7.956   6.135  -2.370  1.00  0.00     0.031 A 
ATOM     40  C   UNL     1       8.162   7.097  -3.446  1.00  0.00     0.074 A 
ATOM     41  C   UNL     1       6.902   6.556  -1.595  1.00  0.00     0.049 A 
ATOM     42  N   UNL     1       8.364   8.365  -3.278  1.00  0.00    -0.248 NA
ATOM     43  C   UNL     1       8.017   6.673  -4.824  1.00  0.00     0.031 C 
ATOM     44  C   UNL     1       5.982   7.711  -1.657  1.00  0.00     0.029 A 
ATOM     45  N   UNL     1       6.324   5.923  -0.518  1.00  0.00    -0.354 N 
ATOM     46  C   UNL     1       8.047   8.943  -4.489  1.00  0.00     0.074 A 
ATOM     47  C   UNL     1       8.058   7.852  -5.447  1.00  0.00     0.031 C 
ATOM     48  C   UNL     1       5.320   7.837  -0.480  1.00  0.00     0.029 A 
ATOM     49  C   UNL     1       5.807   6.809   0.418  1.00  0.00     0.049 A 
ATOM     50  H   UNL     1       6.283   4.944  -0.421  1.00  0.00     0.167 HD
ATOM     51  C   UNL     1       7.497  10.195  -4.572  1.00  0.00     0.037 A 
ATOM     52  C   UNL     1       6.395   6.889   1.658  1.00  0.00     0.037 A 
ATOM     53  C   UNL     1       7.043  10.697  -3.259  1.00  0.00     0.049 A 
ATOM     54  C   UNL     1       7.156   8.183   1.760  1.00  0.00     0.074 A 
ATOM     55  C   UNL     1       5.793  10.960  -2.708  1.00  0.00     0.029 A 
ATOM     56  N   UNL     1       7.916  10.731  -2.184  1.00  0.00    -0.354 N 
ATOM     57  N   UNL     1       6.958   9.180   0.950  1.00  0.00    -0.248 NA
ATOM     58  C   UNL     1       8.258   8.431   2.686  1.00  0.00     0.031 C 
ATOM     59  C   UNL     1       5.942  11.173  -1.304  1.00  0.00     0.029 A 
ATOM     60  C   UNL     1       7.284  11.062  -0.996  1.00  0.00     0.049 A 
ATOM     61  H   UNL     1       8.880  10.541  -2.256  1.00  0.00     0.167 HD
ATOM     62  C   UNL     1       7.956  10.092   1.092  1.00  0.00     0.074 A 
ATOM     63  C   UNL     1       8.717   9.614   2.235  1.00  0.00     0.031 C 
ATOM     64  C   UNL     1       8.087  11.134   0.220  1.00  0.00     0.037 A 
BRANCH  51  65
ATOM     65  C   UNL     1       7.091  10.824  -5.900  1.00  0.00     0.058 A 
ATOM     66  C   UNL     1       6.178  11.895  -5.975  1.00  0.00     0.135 A 
ATOM     67  C   UNL     1       7.632  10.442  -7.149  1.00  0.00     0.135 A 
ATOM     68  F   UNL     1       5.697  12.488  -4.875  1.00  0.00    -0.206 F 
ATOM     69  C   UNL     1       5.750  12.450  -7.186  1.00  0.00     0.059 A 
ATOM     70  C   UNL     1       7.162  10.918  -8.375  1.00  0.00     0.059 A 
ATOM     71  F   UNL     1       8.711   9.648  -7.232  1.00  0.00    -0.206 F 
ATOM     72  C   UNL     1       6.223  11.934  -8.385  1.00  0.00     0.060 A 
BRANCH  72  73
ATOM     73  S   UNL     1       5.688  12.677  -9.936  1.00  0.00     0.124 S 
ATOM     74  O   UNL     1       4.235  12.570  -9.849  1.00  0.00    -0.237 OA
ATOM     75  O   UNL     1       6.234  14.026  -9.828  1.00  0.00    -0.237 OA
ATOM     76  O   UNL     1       6.311  11.833 -10.952  1.00  0.00    -0.744 OA
ENDBRANCH  72  73
ENDBRANCH  51  65
BRANCH  52  77
ATOM     77  C   UNL     1       6.875   5.557   2.296  1.00  0.00     0.058 A 
ATOM     78  C   UNL     1       5.829   4.666   2.590  1.00  0.00     0.135 A 
ATOM     79  C   UNL     1       7.888   4.962   1.569  1.00  0.00     0.135 A 
ATOM     80  F   UNL     1       5.158   4.782   3.743  1.00  0.00    -0.206 F 
ATOM     81  C   UNL     1       5.418   3.702   1.669  1.00  0.00     0.059 A 
ATOM     82  C   UNL     1       7.479   4.019   0.621  1.00  0.00     0.059 A 
ATOM     83  F   UNL     1       9.053   5.606   1.381  1.00  0.00    -0.206 F 
ATOM     84  C   UNL     1       6.186   3.548   0.532  1.00  0.00     0.060 A 
BRANCH  84  85
ATOM     85  S   UNL     1       5.336   3.077  -1.214  1.00  0.00     0.124 S 
ATOM     86  O   UNL     1       3.954   3.009  -0.773  1.00  0.00    -0.237 OA
ATOM     87  O   UNL     1       5.568   4.177  -2.109  1.00  0.00    -0.237 OA
ATOM     88  O   UNL     1       5.887   1.799  -1.649  1.00  0.00    -0.744 OA
ENDBRANCH  84  85
ENDBRANCH  52  77
BRANCH  64  89
ATOM     89  C   UNL     1       9.030  12.284   0.427  1.00  0.00     0.058 A 
ATOM     90  C   UNL     1       9.357  12.771   1.704  1.00  0.00     0.135 A 
ATOM     91  C   UNL     1       9.535  13.034  -0.659  1.00  0.00     0.135 A 
ATOM     92  F   UNL     1       8.806  12.251   2.812  1.00  0.00    -0.206 F 
ATOM     93  C   UNL     1      10.229  13.840   1.889  1.00  0.00     0.059 A 
ATOM     94  C   UNL     1      10.367  14.132  -0.498  1.00  0.00     0.059 A 
ATOM     95  F   UNL     1       9.246  12.740  -1.933  1.00  0.00    -0.206 F 
ATOM     96  C   UNL     1      10.742  14.504   0.779  1.00  0.00     0.060 A 
BRANCH  96  97
ATOM     97  S   UNL     1      11.874  15.876   1.018  1.00  0.00     0.124 S 
ATOM     98  O   UNL     1      11.232  16.627   2.092  1.00  0.00    -0.237 OA
ATOM     99  O   UNL     1      13.103  15.176   1.381  1.00  0.00    -0.237 OA
ATOM    100  O   UNL     1      11.889  16.539  -0.282  1.00  0.00    -0.744 OA
ENDBRANCH  96  97
ENDBRANCH  64  89
ENDBRANCH  38  39
ENDBRANCH  30  33
ENDBRANCH  28  29
ENDBRANCH   1  28
TORSDOF 16
