REMARK SMILES C[NH+]1CCC(NC(=O)N[C@H]2C=C[C@H](C(=O)NCCCNC(=O)c3ccc(-c4c5nc(c(-c6c(F)cc(S(=O)(=O)[O-])cc6F)c6ccc([nH]6)c(-c6c(F)cc(S(=O)(=O)[O-])cc6F)c6nc(c(-c7c(F)cc(S(=O)(=O)[O-])cc7F)c7ccc4[nH]7)C=C6)C=C5)cc3)C2)CC1
REMARK SMILES IDX 18 1 17 2 16 3 14 4 15 5 13 7 10 8 11 9 89 10 12 11 9 12
REMARK SMILES IDX 6 13 7 14 8 16 5 18 1 19 2 20 3 21 91 22 4 24 90 25 19 26
REMARK SMILES IDX 20 27 21 28 22 30 23 31 24 32 88 33 25 34 87 35 26 36 27 37
REMARK SMILES IDX 28 38 81 39 29 40 86 41 80 42 82 43 30 44 85 45 79 46 78 47
REMARK SMILES IDX 31 49 65 50 44 51 64 52 45 53 48 54 63 55 83 56 46 57 47 58
REMARK SMILES IDX 62 60 84 61 49 62 32 63 33 64 42 65 34 66 35 67 41 68 43 69
REMARK SMILES IDX 36 70 37 71 38 72 39 73 40 74 66 75 67 76 76 77 68 78 69 79
REMARK SMILES IDX 75 80 77 81 70 82 71 83 72 84 73 85 74 86 50 87 51 88 60 89
REMARK SMILES IDX 52 90 53 91 59 92 61 93 54 94 55 95 56 96 57 97 58 98
REMARK H PARENT 16 6 6 15 9 17 2 23 20 29 82 48 48 59
REMARK Flexibility Score: inf
ROOT
ATOM      1  C   UNL     1      -2.658   2.287  -1.016  1.00  0.00     0.042 C 
ENDROOT
BRANCH   1   2
ATOM      2  C   UNL     1      -2.528   1.136  -2.016  1.00  0.00     0.117 C 
BRANCH   2   3
ATOM      3  N   UNL     1      -1.891   1.528  -3.265  1.00  0.00    -0.356 N 
ATOM      4  C   UNL     1      -0.597   1.320  -3.676  1.00  0.00     0.227 C 
ATOM      5  O   UNL     1      -0.290   1.592  -4.836  1.00  0.00    -0.274 OA
ATOM      6  H   UNL     1      -2.468   2.008  -3.903  1.00  0.00     0.163 HD
BRANCH   4   7
ATOM      7  C   UNL     1       0.396   0.735  -2.675  1.00  0.00     0.103 C 
ATOM      8  C   UNL     1       2.766   0.154  -2.971  1.00  0.00     0.107 C 
ATOM      9  C   UNL     1       1.906  -1.058  -2.985  1.00  0.00    -0.006 C 
ATOM     10  C   UNL     1       1.814   1.335  -2.763  1.00  0.00     0.047 C 
ATOM     11  C   UNL     1       0.609  -0.741  -2.887  1.00  0.00    -0.016 C 
BRANCH   8  12
ATOM     12  N   UNL     1       3.915   0.034  -2.087  1.00  0.00    -0.332 N 
ATOM     13  N   UNL     1       3.424  -0.075   0.241  1.00  0.00    -0.335 N 
ATOM     14  C   UNL     1       4.253  -0.035  -0.801  1.00  0.00     0.315 C 
ATOM     15  H   UNL     1       3.892  -0.033   1.106  1.00  0.00     0.165 HD
ATOM     16  O   UNL     1       5.463  -0.063  -0.552  1.00  0.00    -0.249 OA
ATOM     17  H   UNL     1       4.733  -0.013  -2.633  1.00  0.00     0.165 HD
BRANCH  13  18
ATOM     18  C   UNL     1       1.989  -0.166   0.381  1.00  0.00     0.095 C 
ATOM     19  C   UNL     1      -2.036  -0.606   1.651  1.00  0.00     0.332 C 
ATOM     20  N   UNL     1      -0.572  -0.554   1.711  1.00  0.00    -0.337 N 
ATOM     21  C   UNL     1      -0.089   0.793   1.384  1.00  0.00     0.264 C 
ATOM     22  C   UNL     1       0.006  -1.600   0.857  1.00  0.00     0.264 C 
ATOM     23  H   UNL     1      -0.260  -0.745   2.663  1.00  0.00     0.347 HD
ATOM     24  C   UNL     1       1.436   0.886   1.338  1.00  0.00     0.086 C 
ATOM     25  C   UNL     1       1.534  -1.550   0.834  1.00  0.00     0.086 C 
ENDBRANCH  13  18
ENDBRANCH   8  12
ENDBRANCH   4   7
ENDBRANCH   2   3
ENDBRANCH   1   2
BRANCH   1  26
ATOM     26  C   UNL     1      -4.030   2.956  -1.021  1.00  0.00     0.118 C 
BRANCH  26  27
ATOM     27  N   UNL     1      -5.089   2.067  -0.557  1.00  0.00    -0.352 N 
ATOM     28  C   UNL     1      -6.223   2.329   0.173  1.00  0.00     0.251 C 
ATOM     29  H   UNL     1      -4.972   1.122  -0.809  1.00  0.00     0.163 HD
ATOM     30  O   UNL     1      -6.925   1.382   0.524  1.00  0.00    -0.269 OA
BRANCH  28  31
ATOM     31  C   UNL     1      -6.588   3.710   0.575  1.00  0.00     0.039 A 
ATOM     32  C   UNL     1      -7.208   3.902   1.816  1.00  0.00     0.014 A 
ATOM     33  C   UNL     1      -6.353   4.810  -0.252  1.00  0.00     0.014 A 
ATOM     34  C   UNL     1      -7.521   5.193   2.253  1.00  0.00     0.010 A 
ATOM     35  C   UNL     1      -6.589   6.100   0.218  1.00  0.00     0.010 A 
ATOM     36  C   UNL     1      -7.176   6.308   1.474  1.00  0.00    -0.014 A 
BRANCH  36  37
ATOM     37  C   UNL     1      -7.414   7.697   1.946  1.00  0.00     0.031 A 
ATOM     38  C   UNL     1      -8.327   8.612   1.175  1.00  0.00     0.074 A 
ATOM     39  C   UNL     1      -6.740   8.162   3.016  1.00  0.00     0.049 A 
ATOM     40  N   UNL     1      -8.569   9.885   1.355  1.00  0.00    -0.248 NA
ATOM     41  C   UNL     1      -9.034   8.025   0.026  1.00  0.00     0.031 C 
ATOM     42  C   UNL     1      -5.790   7.390   3.820  1.00  0.00     0.029 A 
ATOM     43  N   UNL     1      -6.739   9.402   3.604  1.00  0.00    -0.354 N 
ATOM     44  C   UNL     1      -9.431  10.257   0.331  1.00  0.00     0.074 A 
ATOM     45  C   UNL     1      -9.629   9.086  -0.497  1.00  0.00     0.031 C 
ATOM     46  C   UNL     1      -5.319   8.165   4.810  1.00  0.00     0.029 A 
ATOM     47  C   UNL     1      -5.900   9.498   4.690  1.00  0.00     0.049 A 
ATOM     48  H   UNL     1      -7.287  10.152   3.280  1.00  0.00     0.167 HD
ATOM     49  C   UNL     1     -10.023  11.456   0.111  1.00  0.00     0.037 A 
ATOM     50  C   UNL     1      -5.626  10.543   5.494  1.00  0.00     0.037 A 
ATOM     51  C   UNL     1      -9.849  12.606   0.959  1.00  0.00     0.049 A 
ATOM     52  C   UNL     1      -6.306  11.860   5.244  1.00  0.00     0.074 A 
ATOM     53  C   UNL     1     -10.449  13.850   0.859  1.00  0.00     0.029 A 
ATOM     54  N   UNL     1      -9.015  12.653   2.067  1.00  0.00    -0.354 N 
ATOM     55  N   UNL     1      -7.156  12.181   4.298  1.00  0.00    -0.248 NA
ATOM     56  C   UNL     1      -5.993  12.956   6.171  1.00  0.00     0.031 C 
ATOM     57  C   UNL     1      -9.953  14.658   1.889  1.00  0.00     0.029 A 
ATOM     58  C   UNL     1      -9.075  13.907   2.653  1.00  0.00     0.049 A 
ATOM     59  H   UNL     1      -8.462  11.905   2.389  1.00  0.00     0.167 HD
ATOM     60  C   UNL     1      -7.500  13.507   4.531  1.00  0.00     0.074 A 
ATOM     61  C   UNL     1      -6.771  13.926   5.711  1.00  0.00     0.031 C 
ATOM     62  C   UNL     1      -8.345  14.305   3.832  1.00  0.00     0.037 A 
BRANCH  49  63
ATOM     63  C   UNL     1     -10.913  11.575  -1.097  1.00  0.00     0.058 A 
ATOM     64  C   UNL     1     -12.149  10.910  -1.169  1.00  0.00     0.135 A 
ATOM     65  C   UNL     1     -10.525  12.354  -2.199  1.00  0.00     0.135 A 
ATOM     66  F   UNL     1     -12.563  10.141  -0.150  1.00  0.00    -0.206 F 
ATOM     67  C   UNL     1     -12.943  10.972  -2.310  1.00  0.00     0.059 A 
ATOM     68  C   UNL     1     -11.319  12.454  -3.339  1.00  0.00     0.059 A 
ATOM     69  F   UNL     1      -9.357  13.015  -2.183  1.00  0.00    -0.206 F 
ATOM     70  C   UNL     1     -12.514  11.739  -3.394  1.00  0.00     0.060 A 
BRANCH  70  71
ATOM     71  S   UNL     1     -13.536  11.780  -4.881  1.00  0.00     0.124 S 
ATOM     72  O   UNL     1     -13.240  10.477  -5.470  1.00  0.00    -0.237 OA
ATOM     73  O   UNL     1     -14.880  11.937  -4.336  1.00  0.00    -0.237 OA
ATOM     74  O   UNL     1     -13.021  12.931  -5.615  1.00  0.00    -0.744 OA
ENDBRANCH  70  71
ENDBRANCH  49  63
BRANCH  50  75
ATOM     75  C   UNL     1      -4.694  10.365   6.638  1.00  0.00     0.058 A 
ATOM     76  C   UNL     1      -5.180  10.310   7.953  1.00  0.00     0.135 A 
ATOM     77  C   UNL     1      -3.313  10.205   6.443  1.00  0.00     0.135 A 
ATOM     78  F   UNL     1      -6.492  10.465   8.189  1.00  0.00    -0.206 F 
ATOM     79  C   UNL     1      -4.332  10.106   9.036  1.00  0.00     0.059 A 
ATOM     80  C   UNL     1      -2.447   9.978   7.509  1.00  0.00     0.059 A 
ATOM     81  F   UNL     1      -2.802  10.232   5.203  1.00  0.00    -0.206 F 
ATOM     82  C   UNL     1      -2.966   9.935   8.803  1.00  0.00     0.060 A 
BRANCH  82  83
ATOM     83  S   UNL     1      -1.885   9.595  10.209  1.00  0.00     0.124 S 
ATOM     84  O   UNL     1      -1.814  10.904  10.848  1.00  0.00    -0.237 OA
ATOM     85  O   UNL     1      -2.635   8.572  10.931  1.00  0.00    -0.237 OA
ATOM     86  O   UNL     1      -0.653   9.130   9.580  1.00  0.00    -0.744 OA
ENDBRANCH  82  83
ENDBRANCH  50  75
BRANCH  62  87
ATOM     87  C   UNL     1      -8.553  15.703   4.342  1.00  0.00     0.058 A 
ATOM     88  C   UNL     1      -7.577  16.698   4.184  1.00  0.00     0.135 A 
ATOM     89  C   UNL     1      -9.767  16.064   4.949  1.00  0.00     0.135 A 
ATOM     90  F   UNL     1      -6.396  16.402   3.618  1.00  0.00    -0.206 F 
ATOM     91  C   UNL     1      -7.788  17.999   4.628  1.00  0.00     0.059 A 
ATOM     92  C   UNL     1     -10.010  17.364   5.378  1.00  0.00     0.059 A 
ATOM     93  F   UNL     1     -10.738  15.151   5.115  1.00  0.00    -0.206 F 
ATOM     94  C   UNL     1      -9.009  18.323   5.223  1.00  0.00     0.060 A 
BRANCH  94  95
ATOM     95  S   UNL     1      -9.289  20.024   5.759  1.00  0.00     0.124 S 
ATOM     96  O   UNL     1      -8.492  20.081   6.980  1.00  0.00    -0.237 OA
ATOM     97  O   UNL     1      -8.777  20.797   4.631  1.00  0.00    -0.237 OA
ATOM     98  O   UNL     1     -10.735  20.087   5.949  1.00  0.00    -0.744 OA
ENDBRANCH  94  95
ENDBRANCH  62  87
ENDBRANCH  36  37
ENDBRANCH  28  31
ENDBRANCH  26  27
ENDBRANCH   1  26
TORSDOF 15
