REMARK SMILES CCS(=O)(=O)Nc1ccc(N2CC[NH+](C)CC2)cc1C(=O)NCCCNC(=O)c1ccc(-c2c3nc(c(-c4c(F)cc(S(=O)(=O)[O-])cc4F)c4ccc([nH]4)c(-c4c(F)cc(S(=O)(=O)[O-])cc4F)c4nc(c(-c5c(F)cc(S(=O)(=O)[O-])cc5F)c5ccc2[nH]5)C=C4)C=C3)cc1
REMARK SMILES IDX 24 1 23 2 22 3 20 4 21 5 19 7 7 8 8 9 9 10 18 11 10 12 6 13
REMARK SMILES IDX 3 15 4 16 5 17 2 18 1 19 11 20 12 21 17 22 13 23 16 24 14 25
REMARK SMILES IDX 15 26 25 28 26 29 27 30 28 32 29 33 30 34 94 35 31 36 93 37
REMARK SMILES IDX 32 38 33 39 34 40 87 41 35 42 92 43 86 44 88 45 36 46 91 47
REMARK SMILES IDX 85 48 84 49 37 51 71 52 50 53 70 54 51 55 54 56 69 57 89 58
REMARK SMILES IDX 52 59 53 60 68 62 90 63 55 64 38 65 39 66 48 67 40 68 41 69
REMARK SMILES IDX 47 70 49 71 42 72 43 73 44 74 45 75 46 76 72 77 73 78 82 79
REMARK SMILES IDX 74 80 75 81 81 82 83 83 76 84 77 85 78 86 79 87 80 88 56 89
REMARK SMILES IDX 57 90 66 91 58 92 59 93 65 94 67 95 60 96 61 97 62 98 63 99
REMARK SMILES IDX 64 100
REMARK H PARENT 22 6 6 14 14 27 26 31 88 50 54 61
REMARK Flexibility Score: inf
ROOT
ATOM      1  C   UNL     1       2.258  -4.731   0.436  1.00  0.00     0.042 C 
ENDROOT
BRANCH   1   2
ATOM      2  C   UNL     1       2.644  -3.371  -0.116  1.00  0.00     0.118 C 
BRANCH   2   3
ATOM      3  N   UNL     1       2.216  -2.271   0.727  1.00  0.00    -0.352 N 
ATOM      4  C   UNL     1       2.428  -0.928   0.608  1.00  0.00     0.253 C 
ATOM      5  O   UNL     1       1.973  -0.181   1.476  1.00  0.00    -0.269 OA
ATOM      6  H   UNL     1       1.687  -2.536   1.514  1.00  0.00     0.163 HD
BRANCH   4   7
ATOM      7  C   UNL     1       3.256  -0.343  -0.473  1.00  0.00     0.066 A 
ATOM      8  C   UNL     1       3.182  -0.648  -1.833  1.00  0.00     0.061 A 
ATOM      9  C   UNL     1       4.155  -0.114  -2.681  1.00  0.00     0.030 A 
ATOM     10  C   UNL     1       5.059   0.847  -2.225  1.00  0.00     0.028 A 
ATOM     11  C   UNL     1       4.144   0.679  -0.046  1.00  0.00     0.042 A 
ATOM     12  C   UNL     1       5.014   1.343  -0.920  1.00  0.00     0.038 A 
BRANCH   8  13
ATOM     13  N   UNL     1       2.205  -1.444  -2.501  1.00  0.00    -0.283 N 
ATOM     14  H   UNL     1       2.526  -2.207  -3.034  1.00  0.00     0.180 HD
BRANCH  13  15
ATOM     15  S   UNL     1       0.556  -1.181  -2.447  1.00  0.00     0.232 S 
ATOM     16  O   UNL     1       0.007  -1.892  -1.311  1.00  0.00    -0.207 OA
ATOM     17  O   UNL     1       0.132  -1.532  -3.786  1.00  0.00    -0.207 OA
BRANCH  15  18
ATOM     18  C   UNL     1       0.280   0.585  -2.273  1.00  0.00     0.156 C 
ATOM     19  C   UNL     1       0.124   1.077  -0.850  1.00  0.00     0.023 C 
ENDBRANCH  15  18
ENDBRANCH  13  15
ENDBRANCH   8  13
BRANCH  12  20
ATOM     20  N   UNL     1       5.728   2.467  -0.552  1.00  0.00    -0.360 N 
ATOM     21  C   UNL     1       6.279   2.678   0.799  1.00  0.00     0.178 C 
ATOM     22  C   UNL     1       6.239   3.405  -1.568  1.00  0.00     0.178 C 
ATOM     23  C   UNL     1       6.184   4.171   1.212  1.00  0.00     0.283 C 
ATOM     24  C   UNL     1       6.114   4.865  -1.087  1.00  0.00     0.283 C 
ATOM     25  N   UNL     1       6.769   5.097   0.214  1.00  0.00    -0.334 N 
ATOM     26  C   UNL     1       6.591   6.488   0.627  1.00  0.00     0.332 C 
ATOM     27  H   UNL     1       7.771   4.921   0.137  1.00  0.00     0.347 HD
ENDBRANCH  12  20
ENDBRANCH   4   7
ENDBRANCH   2   3
ENDBRANCH   1   2
BRANCH   1  28
ATOM     28  C   UNL     1       0.770  -4.906   0.730  1.00  0.00     0.118 C 
BRANCH  28  29
ATOM     29  N   UNL     1      -0.120  -4.796  -0.420  1.00  0.00    -0.352 N 
ATOM     30  C   UNL     1      -1.026  -5.704  -0.932  1.00  0.00     0.251 C 
ATOM     31  H   UNL     1      -0.067  -3.942  -0.906  1.00  0.00     0.163 HD
ATOM     32  O   UNL     1      -1.672  -5.444  -1.944  1.00  0.00    -0.269 OA
BRANCH  30  33
ATOM     33  C   UNL     1      -1.183  -7.032  -0.291  1.00  0.00     0.039 A 
ATOM     34  C   UNL     1      -1.206  -8.177  -1.091  1.00  0.00     0.014 A 
ATOM     35  C   UNL     1      -1.238  -7.157   1.096  1.00  0.00     0.014 A 
ATOM     36  C   UNL     1      -1.142  -9.440  -0.492  1.00  0.00     0.010 A 
ATOM     37  C   UNL     1      -1.032  -8.401   1.682  1.00  0.00     0.010 A 
ATOM     38  C   UNL     1      -0.973  -9.561   0.898  1.00  0.00    -0.014 A 
BRANCH  38  39
ATOM     39  C   UNL     1      -0.710 -10.879   1.543  1.00  0.00     0.031 A 
ATOM     40  C   UNL     1      -1.594 -11.373   2.662  1.00  0.00     0.074 A 
ATOM     41  C   UNL     1       0.380 -11.594   1.189  1.00  0.00     0.049 A 
ATOM     42  N   UNL     1      -1.472 -12.447   3.400  1.00  0.00    -0.248 NA
ATOM     43  C   UNL     1      -2.738 -10.525   3.034  1.00  0.00     0.031 C 
ATOM     44  C   UNL     1       1.376 -11.189   0.193  1.00  0.00     0.029 A 
ATOM     45  N   UNL     1       0.837 -12.812   1.629  1.00  0.00    -0.354 N 
ATOM     46  C   UNL     1      -2.494 -12.382   4.340  1.00  0.00     0.074 A 
ATOM     47  C   UNL     1      -3.186 -11.131   4.122  1.00  0.00     0.031 C 
ATOM     48  C   UNL     1       2.294 -12.160   0.062  1.00  0.00     0.029 A 
ATOM     49  C   UNL     1       1.977 -13.241   0.988  1.00  0.00     0.049 A 
ATOM     50  H   UNL     1       0.391 -13.330   2.337  1.00  0.00     0.167 HD
ATOM     51  C   UNL     1      -2.852 -13.293   5.276  1.00  0.00     0.037 A 
ATOM     52  C   UNL     1       2.683 -14.382   1.122  1.00  0.00     0.037 A 
ATOM     53  C   UNL     1      -2.205 -14.567   5.445  1.00  0.00     0.049 A 
ATOM     54  C   UNL     1       2.216 -15.419   2.105  1.00  0.00     0.074 A 
ATOM     55  C   UNL     1      -2.538 -15.595   6.310  1.00  0.00     0.029 A 
ATOM     56  N   UNL     1      -1.103 -14.995   4.721  1.00  0.00    -0.354 N 
ATOM     57  N   UNL     1       1.204 -15.367   2.939  1.00  0.00    -0.248 NA
ATOM     58  C   UNL     1       2.974 -16.677   2.156  1.00  0.00     0.031 C 
ATOM     59  C   UNL     1      -1.624 -16.638   6.122  1.00  0.00     0.029 A 
ATOM     60  C   UNL     1      -0.744 -16.273   5.116  1.00  0.00     0.049 A 
ATOM     61  H   UNL     1      -0.643 -14.468   4.027  1.00  0.00     0.167 HD
ATOM     62  C   UNL     1       1.187 -16.594   3.592  1.00  0.00     0.074 A 
ATOM     63  C   UNL     1       2.283 -17.371   3.050  1.00  0.00     0.031 C 
ATOM     64  C   UNL     1       0.340 -17.038   4.553  1.00  0.00     0.037 A 
BRANCH  51  65
ATOM     65  C   UNL     1      -4.015 -12.952   6.167  1.00  0.00     0.058 A 
ATOM     66  C   UNL     1      -5.328 -12.892   5.671  1.00  0.00     0.135 A 
ATOM     67  C   UNL     1      -3.821 -12.692   7.533  1.00  0.00     0.135 A 
ATOM     68  F   UNL     1      -5.570 -13.116   4.370  1.00  0.00    -0.206 F 
ATOM     69  C   UNL     1      -6.400 -12.545   6.487  1.00  0.00     0.059 A 
ATOM     70  C   UNL     1      -4.883 -12.373   8.375  1.00  0.00     0.059 A 
ATOM     71  F   UNL     1      -2.588 -12.739   8.062  1.00  0.00    -0.206 F 
ATOM     72  C   UNL     1      -6.167 -12.282   7.837  1.00  0.00     0.060 A 
BRANCH  72  73
ATOM     73  S   UNL     1      -7.566 -11.827   8.882  1.00  0.00     0.124 S 
ATOM     74  O   UNL     1      -7.787 -10.440   8.483  1.00  0.00    -0.237 OA
ATOM     75  O   UNL     1      -8.593 -12.776   8.464  1.00  0.00    -0.237 OA
ATOM     76  O   UNL     1      -7.055 -12.017  10.236  1.00  0.00    -0.744 OA
ENDBRANCH  72  73
ENDBRANCH  51  65
BRANCH  52  77
ATOM     77  C   UNL     1       3.869 -14.629   0.258  1.00  0.00     0.058 A 
ATOM     78  C   UNL     1       3.809 -15.559  -0.791  1.00  0.00     0.135 A 
ATOM     79  C   UNL     1       5.072 -13.932   0.446  1.00  0.00     0.135 A 
ATOM     80  F   UNL     1       2.681 -16.253  -1.007  1.00  0.00    -0.206 F 
ATOM     81  C   UNL     1       4.904 -15.804  -1.613  1.00  0.00     0.059 A 
ATOM     82  C   UNL     1       6.174 -14.144  -0.378  1.00  0.00     0.059 A 
ATOM     83  F   UNL     1       5.174 -13.017   1.422  1.00  0.00    -0.206 F 
ATOM     84  C   UNL     1       6.083 -15.090  -1.399  1.00  0.00     0.060 A 
BRANCH  84  85
ATOM     85  S   UNL     1       7.483 -15.376  -2.505  1.00  0.00     0.124 S 
ATOM     86  O   UNL     1       7.980 -16.659  -2.023  1.00  0.00    -0.237 OA
ATOM     87  O   UNL     1       6.843 -15.390  -3.817  1.00  0.00    -0.237 OA
ATOM     88  O   UNL     1       8.348 -14.227  -2.252  1.00  0.00    -0.744 OA
ENDBRANCH  84  85
ENDBRANCH  52  77
BRANCH  64  89
ATOM     89  C   UNL     1       0.533 -18.442   5.047  1.00  0.00     0.058 A 
ATOM     90  C   UNL     1       1.593 -18.785   5.901  1.00  0.00     0.135 A 
ATOM     91  C   UNL     1      -0.381 -19.448   4.696  1.00  0.00     0.135 A 
ATOM     92  F   UNL     1       2.495 -17.859   6.263  1.00  0.00    -0.206 F 
ATOM     93  C   UNL     1       1.755 -20.084   6.369  1.00  0.00     0.059 A 
ATOM     94  C   UNL     1      -0.252 -20.749   5.171  1.00  0.00     0.059 A 
ATOM     95  F   UNL     1      -1.418 -19.169   3.890  1.00  0.00    -0.206 F 
ATOM     96  C   UNL     1       0.828 -21.060   5.997  1.00  0.00     0.060 A 
BRANCH  96  97
ATOM     97  S   UNL     1       1.032 -22.738   6.630  1.00  0.00     0.124 S 
ATOM     98  O   UNL     1       2.110 -23.241   5.784  1.00  0.00    -0.237 OA
ATOM     99  O   UNL     1       1.380 -22.507   8.029  1.00  0.00    -0.237 OA
ATOM    100  O   UNL     1      -0.277 -23.345   6.409  1.00  0.00    -0.744 OA
ENDBRANCH  96  97
ENDBRANCH  64  89
ENDBRANCH  38  39
ENDBRANCH  30  33
ENDBRANCH  28  29
ENDBRANCH   1  28
TORSDOF 17
