REMARK SMILES Cc1cc(C[N@@H+]2CC[C@@H](C(=O)NCCCNC(=O)c3ccc(-c4c5nc(c(-c6c(F)cc(S(=O)(=O)[O-])cc6F)c6ccc([nH]6)c(-c6c(F)cc(S(=O)(=O)[O-])cc6F)c6nc(c(-c7c(F)cc(S(=O)(=O)[O-])cc7F)c7ccc4[nH]7)C=C6)C=C5)cc3)C2)ccc1Br
REMARK SMILES IDX 14 1 13 2 12 3 10 4 11 5 9 7 6 8 7 9 85 10 8 12 5 13 4 14
REMARK SMILES IDX 1 15 2 16 3 17 88 18 87 19 89 20 86 21 15 22 16 23 17 24
REMARK SMILES IDX 18 26 19 27 20 28 84 29 21 30 83 31 22 32 23 33 24 34 77 35
REMARK SMILES IDX 25 36 82 37 76 38 78 39 26 40 81 41 75 42 74 43 27 45 61 46
REMARK SMILES IDX 40 47 60 48 41 49 44 50 59 51 79 52 42 53 43 54 58 56 80 57
REMARK SMILES IDX 45 58 28 59 29 60 38 61 30 62 31 63 37 64 39 65 32 66 33 67
REMARK SMILES IDX 34 68 35 69 36 70 62 71 63 72 72 73 64 74 65 75 71 76 73 77
REMARK SMILES IDX 66 78 67 79 68 80 69 81 70 82 46 83 47 84 56 85 48 86 49 87
REMARK SMILES IDX 55 88 57 89 50 90 51 91 52 92 53 93 54 94
REMARK H PARENT 12 6 6 11 16 25 78 44 44 55
REMARK Flexibility Score: inf
ROOT
ATOM      1  C   UNL     1       6.391   4.083  -3.394  1.00  0.00     0.042 C 
ENDROOT
BRANCH   1   2
ATOM      2  C   UNL     1       4.896   4.084  -3.672  1.00  0.00     0.117 C 
BRANCH   2   3
ATOM      3  N   UNL     1       4.471   2.951  -4.468  1.00  0.00    -0.356 N 
ATOM      4  C   UNL     1       3.829   1.794  -4.181  1.00  0.00     0.229 C 
ATOM      5  O   UNL     1       3.581   1.061  -5.147  1.00  0.00    -0.275 OA
ATOM      6  H   UNL     1       4.699   3.042  -5.421  1.00  0.00     0.163 HD
BRANCH   4   7
ATOM      7  C   UNL     1       3.462   1.319  -2.783  1.00  0.00     0.139 C 
ATOM      8  N   UNL     1       4.795   0.962  -0.798  1.00  0.00    -0.330 N 
ATOM      9  C   UNL     1       4.300   2.335  -0.781  1.00  0.00     0.263 C 
ATOM     10  C   UNL     1       4.568   0.461  -2.161  1.00  0.00     0.276 C 
ATOM     11  H   UNL     1       5.794   0.942  -0.593  1.00  0.00     0.348 HD
ATOM     12  C   UNL     1       3.105   2.345  -1.728  1.00  0.00     0.081 C 
BRANCH   8  13
ATOM     13  C   UNL     1       4.336   0.104   0.305  1.00  0.00     0.299 C 
BRANCH  13  14
ATOM     14  C   UNL     1       2.839  -0.061   0.486  1.00  0.00     0.007 A 
ATOM     15  C   UNL     1       0.146  -2.651  -0.250  1.00  0.00     0.045 C 
ATOM     16  C   UNL     1       0.789  -1.349   0.132  1.00  0.00    -0.036 A 
ATOM     17  C   UNL     1       2.189  -1.231   0.070  1.00  0.00     0.014 A 
ATOM     18  C   UNL     1       0.037  -0.237   0.539  1.00  0.00     0.020 A 
ATOM     19  C   UNL     1       0.673   0.907   1.016  1.00  0.00     0.016 A 
ATOM     20  Br  UNL     1      -1.859  -0.208   0.445  1.00  0.00    -0.051 Br
ATOM     21  C   UNL     1       2.065   0.966   1.046  1.00  0.00     0.011 A 
ENDBRANCH  13  14
ENDBRANCH   8  13
ENDBRANCH   4   7
ENDBRANCH   2   3
ENDBRANCH   1   2
BRANCH   1  22
ATOM     22  C   UNL     1       7.129   5.032  -4.321  1.00  0.00     0.118 C 
BRANCH  22  23
ATOM     23  N   UNL     1       6.692   6.416  -4.136  1.00  0.00    -0.352 N 
ATOM     24  C   UNL     1       7.422   7.553  -3.926  1.00  0.00     0.251 C 
ATOM     25  H   UNL     1       5.717   6.550  -4.169  1.00  0.00     0.163 HD
ATOM     26  O   UNL     1       6.843   8.588  -3.594  1.00  0.00    -0.269 OA
BRANCH  24  27
ATOM     27  C   UNL     1       8.886   7.531  -4.079  1.00  0.00     0.039 A 
ATOM     28  C   UNL     1       9.667   8.283  -3.200  1.00  0.00     0.014 A 
ATOM     29  C   UNL     1       9.488   6.774  -5.088  1.00  0.00     0.014 A 
ATOM     30  C   UNL     1      11.055   8.233  -3.304  1.00  0.00     0.010 A 
ATOM     31  C   UNL     1      10.867   6.636  -5.117  1.00  0.00     0.010 A 
ATOM     32  C   UNL     1      11.664   7.381  -4.240  1.00  0.00    -0.014 A 
BRANCH  32  33
ATOM     33  C   UNL     1      13.137   7.271  -4.325  1.00  0.00     0.031 A 
ATOM     34  C   UNL     1      13.847   7.659  -5.593  1.00  0.00     0.074 A 
ATOM     35  C   UNL     1      13.819   6.773  -3.275  1.00  0.00     0.049 A 
ATOM     36  N   UNL     1      15.123   7.608  -5.870  1.00  0.00    -0.248 NA
ATOM     37  C   UNL     1      13.013   8.136  -6.711  1.00  0.00     0.031 C 
ATOM     38  C   UNL     1      13.218   6.298  -2.025  1.00  0.00     0.029 A 
ATOM     39  N   UNL     1      15.162   6.580  -3.090  1.00  0.00    -0.354 N 
ATOM     40  C   UNL     1      15.242   8.028  -7.189  1.00  0.00     0.074 A 
ATOM     41  C   UNL     1      13.905   8.272  -7.681  1.00  0.00     0.031 C 
ATOM     42  C   UNL     1      14.192   5.901  -1.191  1.00  0.00     0.029 A 
ATOM     43  C   UNL     1      15.479   6.054  -1.859  1.00  0.00     0.049 A 
ATOM     44  H   UNL     1      15.837   6.796  -3.773  1.00  0.00     0.167 HD
ATOM     45  C   UNL     1      16.368   8.222  -7.914  1.00  0.00     0.037 A 
ATOM     46  C   UNL     1      16.675   5.730  -1.333  1.00  0.00     0.037 A 
ATOM     47  C   UNL     1      17.694   8.007  -7.397  1.00  0.00     0.049 A 
ATOM     48  C   UNL     1      17.912   5.979  -2.152  1.00  0.00     0.074 A 
ATOM     49  C   UNL     1      18.907   8.243  -8.017  1.00  0.00     0.029 A 
ATOM     50  N   UNL     1      17.979   7.503  -6.135  1.00  0.00    -0.354 N 
ATOM     51  N   UNL     1      18.012   6.460  -3.369  1.00  0.00    -0.248 NA
ATOM     52  C   UNL     1      19.198   5.655  -1.524  1.00  0.00     0.031 C 
ATOM     53  C   UNL     1      19.925   7.831  -7.151  1.00  0.00     0.029 A 
ATOM     54  C   UNL     1      19.349   7.396  -5.968  1.00  0.00     0.049 A 
ATOM     55  H   UNL     1      17.306   7.259  -5.459  1.00  0.00     0.167 HD
ATOM     56  C   UNL     1      19.374   6.517  -3.644  1.00  0.00     0.074 A 
ATOM     57  C   UNL     1      20.056   6.044  -2.456  1.00  0.00     0.031 C 
ATOM     58  C   UNL     1      20.005   6.921  -4.775  1.00  0.00     0.037 A 
BRANCH  45  59
ATOM     59  C   UNL     1      16.220   8.695  -9.335  1.00  0.00     0.058 A 
ATOM     60  C   UNL     1      15.770   9.989  -9.641  1.00  0.00     0.135 A 
ATOM     61  C   UNL     1      16.581   7.859 -10.404  1.00  0.00     0.135 A 
ATOM     62  F   UNL     1      15.390  10.824  -8.661  1.00  0.00    -0.206 F 
ATOM     63  C   UNL     1      15.666  10.432 -10.956  1.00  0.00     0.059 A 
ATOM     64  C   UNL     1      16.515   8.292 -11.725  1.00  0.00     0.059 A 
ATOM     65  F   UNL     1      17.011   6.609 -10.170  1.00  0.00    -0.206 F 
ATOM     66  C   UNL     1      16.048   9.578 -11.991  1.00  0.00     0.060 A 
BRANCH  66  67
ATOM     67  S   UNL     1      15.939  10.182 -13.689  1.00  0.00     0.124 S 
ATOM     68  O   UNL     1      14.494  10.219 -13.893  1.00  0.00    -0.237 OA
ATOM     69  O   UNL     1      16.599  11.480 -13.599  1.00  0.00    -0.237 OA
ATOM     70  O   UNL     1      16.655   9.168 -14.458  1.00  0.00    -0.744 OA
ENDBRANCH  66  67
ENDBRANCH  45  59
BRANCH  46  71
ATOM     71  C   UNL     1      16.757   5.156   0.036  1.00  0.00     0.058 A 
ATOM     72  C   UNL     1      17.324   5.880   1.095  1.00  0.00     0.135 A 
ATOM     73  C   UNL     1      16.261   3.872   0.316  1.00  0.00     0.135 A 
ATOM     74  F   UNL     1      17.811   7.112   0.880  1.00  0.00    -0.206 F 
ATOM     75  C   UNL     1      17.424   5.344   2.375  1.00  0.00     0.059 A 
ATOM     76  C   UNL     1      16.322   3.326   1.594  1.00  0.00     0.059 A 
ATOM     77  F   UNL     1      15.688   3.146  -0.656  1.00  0.00    -0.206 F 
ATOM     78  C   UNL     1      16.919   4.064   2.614  1.00  0.00     0.060 A 
BRANCH  78  79
ATOM     79  S   UNL     1      17.025   3.389   4.285  1.00  0.00     0.124 S 
ATOM     80  O   UNL     1      18.451   3.105   4.396  1.00  0.00    -0.237 OA
ATOM     81  O   UNL     1      16.529   4.498   5.095  1.00  0.00    -0.237 OA
ATOM     82  O   UNL     1      16.150   2.222   4.232  1.00  0.00    -0.744 OA
ENDBRANCH  78  79
ENDBRANCH  46  71
BRANCH  58  83
ATOM     83  C   UNL     1      21.508   6.895  -4.767  1.00  0.00     0.058 A 
ATOM     84  C   UNL     1      22.226   5.689  -4.781  1.00  0.00     0.135 A 
ATOM     85  C   UNL     1      22.238   8.095  -4.780  1.00  0.00     0.135 A 
ATOM     86  F   UNL     1      21.576   4.515  -4.765  1.00  0.00    -0.206 F 
ATOM     87  C   UNL     1      23.616   5.673  -4.768  1.00  0.00     0.059 A 
ATOM     88  C   UNL     1      23.628   8.102  -4.803  1.00  0.00     0.059 A 
ATOM     89  F   UNL     1      21.600   9.276  -4.783  1.00  0.00    -0.206 F 
ATOM     90  C   UNL     1      24.308   6.886  -4.778  1.00  0.00     0.060 A 
BRANCH  90  91
ATOM     91  S   UNL     1      26.112   6.851  -4.772  1.00  0.00     0.124 S 
ATOM     92  O   UNL     1      26.393   6.446  -3.399  1.00  0.00    -0.237 OA
ATOM     93  O   UNL     1      26.408   5.857  -5.800  1.00  0.00    -0.237 OA
ATOM     94  O   UNL     1      26.480   8.222  -5.110  1.00  0.00    -0.744 OA
ENDBRANCH  90  91
ENDBRANCH  58  83
ENDBRANCH  32  33
ENDBRANCH  24  27
ENDBRANCH  22  23
ENDBRANCH   1  22
TORSDOF 15
