REMARK SMILES Cc1cc(Cl)ccc1-c1ccc(C(=O)NCCCNC(=O)c2ccc(-c3c4nc(c(-c5c(F)cc(S(=O)(=O)[O-])cc5F)c5ccc([nH]5)c(-c5c(F)cc(S(=O)(=O)[O-])cc5F)c5nc(c(-c6c(F)cc(S(=O)(=O)[O-])cc6F)c6ccc3[nH]6)C=C5)C=C4)cc2)c(Cl)c1
REMARK SMILES IDX 18 1 17 2 16 3 15 4 13 5 14 6 12 8 9 9 10 10 90 11 11 12
REMARK SMILES IDX 88 13 89 14 8 15 1 16 2 17 3 18 4 19 7 20 5 21 6 22 19 23
REMARK SMILES IDX 20 24 21 26 22 27 23 28 87 29 24 30 86 31 25 32 26 33 27 34
REMARK SMILES IDX 80 35 28 36 85 37 79 38 81 39 29 40 84 41 78 42 77 43 30 45
REMARK SMILES IDX 64 46 43 47 63 48 44 49 47 50 62 51 82 52 45 53 46 54 61 56
REMARK SMILES IDX 83 57 48 58 31 59 32 60 41 61 33 62 34 63 40 64 42 65 35 66
REMARK SMILES IDX 36 67 37 68 38 69 39 70 65 71 66 72 75 73 67 74 68 75 74 76
REMARK SMILES IDX 76 77 69 78 70 79 71 80 72 81 73 82 49 83 50 84 59 85 51 86
REMARK SMILES IDX 52 87 58 88 60 89 53 90 54 91 55 92 56 93 57 94
REMARK H PARENT 15 7 19 25 81 44 47 55
REMARK Flexibility Score: inf
ROOT
ATOM      1  C   UNL     1      -9.360  -3.985   3.751  1.00  0.00     0.118 C 
ENDROOT
BRANCH   1   2
ATOM      2  C   UNL     1      -7.909  -3.722   3.378  1.00  0.00     0.042 C 
BRANCH   2   3
ATOM      3  C   UNL     1      -7.534  -4.087   1.940  1.00  0.00     0.118 C 
BRANCH   3   4
ATOM      4  N   UNL     1      -7.985  -3.058   1.020  1.00  0.00    -0.352 N 
ATOM      5  C   UNL     1      -7.346  -2.056   0.341  1.00  0.00     0.252 C 
ATOM      6  O   UNL     1      -8.055  -1.322  -0.353  1.00  0.00    -0.269 OA
ATOM      7  H   UNL     1      -8.954  -3.088   0.848  1.00  0.00     0.163 HD
BRANCH   5   8
ATOM      8  C   UNL     1      -5.872  -1.850   0.280  1.00  0.00     0.058 A 
ATOM      9  C   UNL     1      -3.150  -1.143  -0.163  1.00  0.00    -0.017 A 
ATOM     10  C   UNL     1      -4.056  -1.135  -1.222  1.00  0.00     0.009 A 
ATOM     11  C   UNL     1      -3.612  -1.521   1.102  1.00  0.00     0.030 A 
ATOM     12  C   UNL     1      -5.392  -1.497  -1.003  1.00  0.00     0.016 A 
ATOM     13  C   UNL     1      -4.962  -1.817   1.339  1.00  0.00     0.054 A 
ATOM     14  Cl  UNL     1      -5.349  -1.922   3.009  1.00  0.00    -0.083 Cl
BRANCH   9  15
ATOM     15  C   UNL     1      -1.765  -0.679  -0.291  1.00  0.00    -0.015 A 
ATOM     16  C   UNL     1      -2.443   1.791  -0.081  1.00  0.00     0.045 C 
ATOM     17  C   UNL     1      -1.420   0.688  -0.186  1.00  0.00    -0.042 A 
ATOM     18  C   UNL     1      -0.063   1.057  -0.175  1.00  0.00     0.024 A 
ATOM     19  C   UNL     1       0.937   0.089  -0.246  1.00  0.00     0.041 A 
ATOM     20  C   UNL     1      -0.737  -1.636  -0.381  1.00  0.00     0.010 A 
ATOM     21  Cl  UNL     1       2.590   0.560  -0.180  1.00  0.00    -0.084 Cl
ATOM     22  C   UNL     1       0.606  -1.256  -0.354  1.00  0.00     0.021 A 
ENDBRANCH   9  15
ENDBRANCH   5   8
ENDBRANCH   3   4
ENDBRANCH   2   3
ENDBRANCH   1   2
BRANCH   1  23
ATOM     23  N   UNL     1      -9.614  -5.394   3.984  1.00  0.00    -0.352 N 
ATOM     24  C   UNL     1      -9.980  -6.050   5.133  1.00  0.00     0.251 C 
ATOM     25  H   UNL     1      -9.507  -5.971   3.194  1.00  0.00     0.163 HD
ATOM     26  O   UNL     1      -9.891  -7.277   5.158  1.00  0.00    -0.269 OA
BRANCH  24  27
ATOM     27  C   UNL     1     -10.472  -5.324   6.332  1.00  0.00     0.039 A 
ATOM     28  C   UNL     1     -10.194  -5.864   7.593  1.00  0.00     0.014 A 
ATOM     29  C   UNL     1     -11.268  -4.177   6.242  1.00  0.00     0.014 A 
ATOM     30  C   UNL     1     -10.691  -5.250   8.747  1.00  0.00     0.010 A 
ATOM     31  C   UNL     1     -11.692  -3.517   7.397  1.00  0.00     0.010 A 
ATOM     32  C   UNL     1     -11.433  -4.061   8.662  1.00  0.00    -0.014 A 
BRANCH  32  33
ATOM     33  C   UNL     1     -11.967  -3.411   9.888  1.00  0.00     0.031 A 
ATOM     34  C   UNL     1     -13.454  -3.309  10.113  1.00  0.00     0.074 A 
ATOM     35  C   UNL     1     -11.111  -2.896  10.793  1.00  0.00     0.049 A 
ATOM     36  N   UNL     1     -14.104  -2.796  11.127  1.00  0.00    -0.248 NA
ATOM     37  C   UNL     1     -14.328  -3.828   9.048  1.00  0.00     0.031 C 
ATOM     38  C   UNL     1      -9.653  -2.876  10.660  1.00  0.00     0.029 A 
ATOM     39  N   UNL     1     -11.341  -2.293  12.004  1.00  0.00    -0.354 N 
ATOM     40  C   UNL     1     -15.454  -2.918  10.818  1.00  0.00     0.074 A 
ATOM     41  C   UNL     1     -15.532  -3.505   9.498  1.00  0.00     0.031 C 
ATOM     42  C   UNL     1      -9.117  -2.324  11.760  1.00  0.00     0.029 A 
ATOM     43  C   UNL     1     -10.192  -1.928  12.665  1.00  0.00     0.049 A 
ATOM     44  H   UNL     1     -12.243  -2.137  12.366  1.00  0.00     0.167 HD
ATOM     45  C   UNL     1     -16.532  -2.597  11.574  1.00  0.00     0.037 A 
ATOM     46  C   UNL     1     -10.022  -1.349  13.870  1.00  0.00     0.037 A 
ATOM     47  C   UNL     1     -16.449  -2.043  12.901  1.00  0.00     0.049 A 
ATOM     48  C   UNL     1     -11.232  -1.042  14.710  1.00  0.00     0.074 A 
ATOM     49  C   UNL     1     -17.478  -1.737  13.775  1.00  0.00     0.029 A 
ATOM     50  N   UNL     1     -15.266  -1.716  13.548  1.00  0.00    -0.354 N 
ATOM     51  N   UNL     1     -12.500  -1.227  14.427  1.00  0.00    -0.248 NA
ATOM     52  C   UNL     1     -10.988  -0.464  16.037  1.00  0.00     0.031 C 
ATOM     53  C   UNL     1     -16.918  -1.195  14.938  1.00  0.00     0.029 A 
ATOM     54  C   UNL     1     -15.539  -1.202  14.805  1.00  0.00     0.049 A 
ATOM     55  H   UNL     1     -14.364  -1.833  13.170  1.00  0.00     0.167 HD
ATOM     56  C   UNL     1     -13.204  -0.806  15.549  1.00  0.00     0.074 A 
ATOM     57  C   UNL     1     -12.219  -0.376  16.521  1.00  0.00     0.031 C 
ATOM     58  C   UNL     1     -14.544  -0.775  15.757  1.00  0.00     0.037 A 
BRANCH  45  59
ATOM     59  C   UNL     1     -17.896  -2.847  10.987  1.00  0.00     0.058 A 
ATOM     60  C   UNL     1     -18.394  -4.149  10.810  1.00  0.00     0.135 A 
ATOM     61  C   UNL     1     -18.727  -1.776  10.622  1.00  0.00     0.135 A 
ATOM     62  F   UNL     1     -17.637  -5.211  11.127  1.00  0.00    -0.206 F 
ATOM     63  C   UNL     1     -19.652  -4.380  10.264  1.00  0.00     0.059 A 
ATOM     64  C   UNL     1     -20.001  -1.983  10.099  1.00  0.00     0.059 A 
ATOM     65  F   UNL     1     -18.304  -0.511  10.770  1.00  0.00    -0.206 F 
ATOM     66  C   UNL     1     -20.449  -3.290   9.909  1.00  0.00     0.060 A 
BRANCH  66  67
ATOM     67  S   UNL     1     -22.081  -3.604   9.203  1.00  0.00     0.124 S 
ATOM     68  O   UNL     1     -21.734  -4.042   7.853  1.00  0.00    -0.237 OA
ATOM     69  O   UNL     1     -22.610  -4.642  10.086  1.00  0.00    -0.237 OA
ATOM     70  O   UNL     1     -22.746  -2.312   9.293  1.00  0.00    -0.744 OA
ENDBRANCH  66  67
ENDBRANCH  45  59
BRANCH  46  71
ATOM     71  C   UNL     1      -8.651  -1.065  14.369  1.00  0.00     0.058 A 
ATOM     72  C   UNL     1      -8.091  -1.821  15.409  1.00  0.00     0.135 A 
ATOM     73  C   UNL     1      -7.865  -0.050  13.802  1.00  0.00     0.135 A 
ATOM     74  F   UNL     1      -8.804  -2.800  15.986  1.00  0.00    -0.206 F 
ATOM     75  C   UNL     1      -6.806  -1.572  15.882  1.00  0.00     0.059 A 
ATOM     76  C   UNL     1      -6.569   0.203  14.241  1.00  0.00     0.059 A 
ATOM     77  F   UNL     1      -8.349   0.689  12.791  1.00  0.00    -0.206 F 
ATOM     78  C   UNL     1      -6.052  -0.558  15.289  1.00  0.00     0.060 A 
BRANCH  78  79
ATOM     79  S   UNL     1      -4.365  -0.278  15.871  1.00  0.00     0.124 S 
ATOM     80  O   UNL     1      -4.601   0.410  17.134  1.00  0.00    -0.237 OA
ATOM     81  O   UNL     1      -3.843  -1.637  15.971  1.00  0.00    -0.237 OA
ATOM     82  O   UNL     1      -3.776   0.534  14.809  1.00  0.00    -0.744 OA
ENDBRANCH  78  79
ENDBRANCH  46  71
BRANCH  58  83
ATOM     83  C   UNL     1     -15.015  -0.280  17.095  1.00  0.00     0.058 A 
ATOM     84  C   UNL     1     -14.950   1.079  17.442  1.00  0.00     0.135 A 
ATOM     85  C   UNL     1     -15.553  -1.173  18.036  1.00  0.00     0.135 A 
ATOM     86  F   UNL     1     -14.440   1.972  16.579  1.00  0.00    -0.206 F 
ATOM     87  C   UNL     1     -15.365   1.530  18.690  1.00  0.00     0.059 A 
ATOM     88  C   UNL     1     -15.999  -0.739  19.280  1.00  0.00     0.059 A 
ATOM     89  F   UNL     1     -15.651  -2.481  17.749  1.00  0.00    -0.206 F 
ATOM     90  C   UNL     1     -15.883   0.612  19.605  1.00  0.00     0.060 A 
BRANCH  90  91
ATOM     91  S   UNL     1     -16.420   1.207  21.222  1.00  0.00     0.124 S 
ATOM     92  O   UNL     1     -15.144   1.380  21.908  1.00  0.00    -0.237 OA
ATOM     93  O   UNL     1     -17.132   2.436  20.886  1.00  0.00    -0.237 OA
ATOM     94  O   UNL     1     -17.260   0.121  21.720  1.00  0.00    -0.744 OA
ENDBRANCH  90  91
ENDBRANCH  58  83
ENDBRANCH  32  33
ENDBRANCH  24  27
ENDBRANCH   1  23
TORSDOF 14
