REMARK SMILES C[C@H]1C[C@H](C)CN(S(=O)(=O)N[C@@H](CCC(N)=O)C(=O)NCCCNC(=O)c2ccc(-c3c4nc(c(-c5c(F)cc(S(=O)(=O)[O-])cc5F)c5ccc([nH]5)c(-c5c(F)cc(S(=O)(=O)[O-])cc5F)c5nc(c(-c6c(F)cc(S(=O)(=O)[O-])cc6F)c6ccc3[nH]6)C=C5)C=C4)cc2)C1
REMARK SMILES IDX 22 1 21 2 20 3 18 4 19 5 12 7 11 8 8 10 9 11 10 12 7 13 1 14
REMARK SMILES IDX 2 15 3 16 93 17 4 18 5 19 6 20 13 21 14 22 15 23 16 24 17 25
REMARK SMILES IDX 23 28 24 29 25 30 26 32 27 33 28 34 92 35 29 36 91 37 30 38
REMARK SMILES IDX 31 39 32 40 85 41 33 42 90 43 84 44 86 45 34 46 89 47 83 48
REMARK SMILES IDX 82 49 35 51 69 52 48 53 68 54 49 55 52 56 67 57 87 58 50 59
REMARK SMILES IDX 51 60 66 62 88 63 53 64 36 65 37 66 46 67 38 68 39 69 45 70
REMARK SMILES IDX 47 71 40 72 41 73 42 74 43 75 44 76 70 77 71 78 80 79 72 80
REMARK SMILES IDX 73 81 79 82 81 83 74 84 75 85 76 86 77 87 78 88 54 89 55 90
REMARK SMILES IDX 64 91 56 92 57 93 63 94 65 95 58 96 59 97 60 98 61 99 62 100
REMARK H PARENT 20 6 11 9 16 26 16 27 24 31 86 50 52 61
REMARK Flexibility Score: inf
ROOT
ATOM      1  C   UNL     1      -5.800   6.260  -0.359  1.00  0.00     0.042 C 
ENDROOT
BRANCH   1   2
ATOM      2  C   UNL     1      -5.850   4.933   0.363  1.00  0.00     0.117 C 
BRANCH   2   3
ATOM      3  N   UNL     1      -6.170   3.831  -0.523  1.00  0.00    -0.355 N 
ATOM      4  C   UNL     1      -5.803   2.526  -0.468  1.00  0.00     0.238 C 
ATOM      5  O   UNL     1      -6.248   1.771  -1.338  1.00  0.00    -0.273 OA
ATOM      6  H   UNL     1      -6.744   4.068  -1.287  1.00  0.00     0.163 HD
BRANCH   4   7
ATOM      7  C   UNL     1      -4.814   2.013   0.578  1.00  0.00     0.160 C 
BRANCH   7   8
ATOM      8  N   UNL     1      -3.580   2.823   0.524  1.00  0.00    -0.190 NA
ATOM      9  H   UNL     1      -3.208   2.662  -0.412  1.00  0.00     0.143 HD
BRANCH   8  10
ATOM     10  S   UNL     1      -2.265   2.745   1.511  1.00  0.00     0.280 S 
ATOM     11  O   UNL     1      -2.698   2.616   2.883  1.00  0.00    -0.195 OA
ATOM     12  O   UNL     1      -1.421   3.842   1.110  1.00  0.00    -0.195 OA
BRANCH  10  13
ATOM     13  N   UNL     1      -1.446   1.313   1.062  1.00  0.00    -0.188 NA
ATOM     14  C   UNL     1       1.858  -0.194   2.396  1.00  0.00     0.009 C 
ATOM     15  C   UNL     1       0.658  -0.033   1.463  1.00  0.00     0.001 C 
ATOM     16  C   UNL     1      -0.183  -1.311   1.496  1.00  0.00     0.009 C 
ATOM     17  C   UNL     1      -0.176   1.191   1.864  1.00  0.00     0.106 C 
ATOM     18  C   UNL     1      -1.446  -1.165   0.660  1.00  0.00     0.001 C 
ATOM     19  C   UNL     1      -1.159  -1.129  -0.846  1.00  0.00     0.009 C 
ATOM     20  C   UNL     1      -2.235   0.060   1.117  1.00  0.00     0.106 C 
ENDBRANCH  10  13
ENDBRANCH   8  10
ENDBRANCH   7   8
BRANCH   7  21
ATOM     21  C   UNL     1      -5.394   1.667   1.957  1.00  0.00     0.040 C 
BRANCH  21  22
ATOM     22  C   UNL     1      -6.222   2.703   2.716  1.00  0.00     0.102 C 
BRANCH  22  23
ATOM     23  C   UNL     1      -7.662   2.763   2.241  1.00  0.00     0.217 C 
ATOM     24  N   UNL     1      -8.423   3.738   2.811  1.00  0.00    -0.370 N 
ATOM     25  O   UNL     1      -8.148   2.001   1.415  1.00  0.00    -0.275 OA
ATOM     26  H   UNL     1      -8.026   4.347   3.474  1.00  0.00     0.159 HD
ATOM     27  H   UNL     1      -9.370   3.833   2.560  1.00  0.00     0.159 HD
ENDBRANCH  22  23
ENDBRANCH  21  22
ENDBRANCH   7  21
ENDBRANCH   4   7
ENDBRANCH   2   3
ENDBRANCH   1   2
BRANCH   1  28
ATOM     28  C   UNL     1      -7.119   6.615  -1.023  1.00  0.00     0.118 C 
BRANCH  28  29
ATOM     29  N   UNL     1      -8.226   6.762  -0.078  1.00  0.00    -0.352 N 
ATOM     30  C   UNL     1      -8.982   7.883   0.189  1.00  0.00     0.251 C 
ATOM     31  H   UNL     1      -8.462   5.955   0.434  1.00  0.00     0.163 HD
ATOM     32  O   UNL     1      -9.780   7.901   1.118  1.00  0.00    -0.269 OA
BRANCH  30  33
ATOM     33  C   UNL     1      -8.767   9.070  -0.660  1.00  0.00     0.039 A 
ATOM     34  C   UNL     1      -8.424  10.289  -0.075  1.00  0.00     0.014 A 
ATOM     35  C   UNL     1      -8.734   8.905  -2.045  1.00  0.00     0.014 A 
ATOM     36  C   UNL     1      -7.931  11.316  -0.884  1.00  0.00     0.010 A 
ATOM     37  C   UNL     1      -8.116   9.872  -2.820  1.00  0.00     0.010 A 
ATOM     38  C   UNL     1      -7.712  11.092  -2.253  1.00  0.00    -0.014 A 
BRANCH  38  39
ATOM     39  C   UNL     1      -7.097  12.106  -3.149  1.00  0.00     0.031 A 
ATOM     40  C   UNL     1      -7.856  12.534  -4.378  1.00  0.00     0.074 A 
ATOM     41  C   UNL     1      -5.837  12.540  -2.942  1.00  0.00     0.049 A 
ATOM     42  N   UNL     1      -7.443  13.215  -5.412  1.00  0.00    -0.248 NA
ATOM     43  C   UNL     1      -9.256  12.083  -4.478  1.00  0.00     0.031 C 
ATOM     44  C   UNL     1      -4.981  12.170  -1.812  1.00  0.00     0.029 A 
ATOM     45  N   UNL     1      -5.045  13.373  -3.694  1.00  0.00    -0.354 N 
ATOM     46  C   UNL     1      -8.513  13.235  -6.298  1.00  0.00     0.074 A 
ATOM     47  C   UNL     1      -9.568  12.441  -5.713  1.00  0.00     0.031 C 
ATOM     48  C   UNL     1      -3.794  12.788  -1.937  1.00  0.00     0.029 A 
ATOM     49  C   UNL     1      -3.780  13.551  -3.181  1.00  0.00     0.049 A 
ATOM     50  H   UNL     1      -5.353  13.803  -4.525  1.00  0.00     0.167 HD
ATOM     51  C   UNL     1      -8.620  13.881  -7.481  1.00  0.00     0.037 A 
ATOM     52  C   UNL     1      -2.724  14.234  -3.669  1.00  0.00     0.037 A 
ATOM     53  C   UNL     1      -7.584  14.713  -8.028  1.00  0.00     0.049 A 
ATOM     54  C   UNL     1      -2.864  14.951  -4.988  1.00  0.00     0.074 A 
ATOM     55  C   UNL     1      -7.612  15.467  -9.187  1.00  0.00     0.029 A 
ATOM     56  N   UNL     1      -6.339  14.908  -7.449  1.00  0.00    -0.354 N 
ATOM     57  N   UNL     1      -3.900  14.998  -5.793  1.00  0.00    -0.248 NA
ATOM     58  C   UNL     1      -1.699  15.707  -5.467  1.00  0.00     0.031 C 
ATOM     59  C   UNL     1      -6.365  16.081  -9.334  1.00  0.00     0.029 A 
ATOM     60  C   UNL     1      -5.584  15.759  -8.234  1.00  0.00     0.049 A 
ATOM     61  H   UNL     1      -6.038  14.500  -6.605  1.00  0.00     0.167 HD
ATOM     62  C   UNL     1      -3.526  15.825  -6.847  1.00  0.00     0.074 A 
ATOM     63  C   UNL     1      -2.167  16.249  -6.584  1.00  0.00     0.031 C 
ATOM     64  C   UNL     1      -4.245  16.202  -7.932  1.00  0.00     0.037 A 
BRANCH  51  65
ATOM     65  C   UNL     1      -9.901  13.722  -8.253  1.00  0.00     0.058 A 
ATOM     66  C   UNL     1     -11.115  14.255  -7.790  1.00  0.00     0.135 A 
ATOM     67  C   UNL     1      -9.911  13.047  -9.484  1.00  0.00     0.135 A 
ATOM     68  F   UNL     1     -11.168  14.894  -6.609  1.00  0.00    -0.206 F 
ATOM     69  C   UNL     1     -12.298  14.094  -8.500  1.00  0.00     0.059 A 
ATOM     70  C   UNL     1     -11.077  12.905 -10.230  1.00  0.00     0.059 A 
ATOM     71  F   UNL     1      -8.780  12.514  -9.973  1.00  0.00    -0.206 F 
ATOM     72  C   UNL     1     -12.269  13.419  -9.721  1.00  0.00     0.060 A 
BRANCH  72  73
ATOM     73  S   UNL     1     -13.813  13.228 -10.634  1.00  0.00     0.124 S 
ATOM     74  O   UNL     1     -14.514  12.243  -9.815  1.00  0.00    -0.237 OA
ATOM     75  O   UNL     1     -14.361  14.580 -10.605  1.00  0.00    -0.237 OA
ATOM     76  O   UNL     1     -13.378  12.757 -11.945  1.00  0.00    -0.744 OA
ENDBRANCH  72  73
ENDBRANCH  51  65
BRANCH  52  77
ATOM     77  C   UNL     1      -1.448  14.290  -2.903  1.00  0.00     0.058 A 
ATOM     78  C   UNL     1      -1.016  15.488  -2.311  1.00  0.00     0.135 A 
ATOM     79  C   UNL     1      -0.636  13.156  -2.741  1.00  0.00     0.135 A 
ATOM     80  F   UNL     1      -1.752  16.603  -2.442  1.00  0.00    -0.206 F 
ATOM     81  C   UNL     1       0.180  15.566  -1.605  1.00  0.00     0.059 A 
ATOM     82  C   UNL     1       0.551  13.202  -2.014  1.00  0.00     0.059 A 
ATOM     83  F   UNL     1      -1.008  11.982  -3.272  1.00  0.00    -0.206 F 
ATOM     84  C   UNL     1       0.956  14.415  -1.459  1.00  0.00     0.060 A 
BRANCH  84  85
ATOM     85  S   UNL     1       2.487  14.521  -0.506  1.00  0.00     0.124 S 
ATOM     86  O   UNL     1       3.336  15.301  -1.399  1.00  0.00    -0.237 OA
ATOM     87  O   UNL     1       2.044  15.200   0.708  1.00  0.00    -0.237 OA
ATOM     88  O   UNL     1       2.871  13.124  -0.330  1.00  0.00    -0.744 OA
ENDBRANCH  84  85
ENDBRANCH  52  77
BRANCH  64  89
ATOM     89  C   UNL     1      -3.626  17.181  -8.890  1.00  0.00     0.058 A 
ATOM     90  C   UNL     1      -2.632  16.801  -9.802  1.00  0.00     0.135 A 
ATOM     91  C   UNL     1      -4.137  18.488  -8.978  1.00  0.00     0.135 A 
ATOM     92  F   UNL     1      -2.106  15.567  -9.753  1.00  0.00    -0.206 F 
ATOM     93  C   UNL     1      -2.169  17.680 -10.775  1.00  0.00     0.059 A 
ATOM     94  C   UNL     1      -3.709  19.373  -9.960  1.00  0.00     0.059 A 
ATOM     95  F   UNL     1      -5.097  18.897  -8.133  1.00  0.00    -0.206 F 
ATOM     96  C   UNL     1      -2.725  18.959 -10.856  1.00  0.00     0.060 A 
BRANCH  96  97
ATOM     97  S   UNL     1      -2.185  20.055 -12.185  1.00  0.00     0.124 S 
ATOM     98  O   UNL     1      -0.837  20.404 -11.750  1.00  0.00    -0.237 OA
ATOM     99  O   UNL     1      -2.269  19.187 -13.356  1.00  0.00    -0.237 OA
ATOM    100  O   UNL     1      -3.158  21.143 -12.148  1.00  0.00    -0.744 OA
ENDBRANCH  96  97
ENDBRANCH  64  89
ENDBRANCH  38  39
ENDBRANCH  30  33
ENDBRANCH  28  29
ENDBRANCH   1  28
TORSDOF 19
