REMARK SMILES O=C(NCCCNC(=O)[C@@H]1C[C@@H]1C(=O)N1CCN(c2ncc(C(F)(F)F)cc2Cl)CC1)c1ccc(-c2c3nc(c(-c4c(F)cc(S(=O)(=O)[O-])cc4F)c4ccc([nH]4)c(-c4c(F)cc(S(=O)(=O)[O-])cc4F)c4nc(c(-c5c(F)cc(S(=O)(=O)[O-])cc5F)c5ccc2[nH]5)C=C4)C=C3)cc1
REMARK SMILES IDX 5 1 4 2 3 3 1 4 2 5 32 7 33 8 97 9 34 10 96 11 35 12 36 13
REMARK SMILES IDX 37 14 90 15 38 16 95 17 89 18 91 19 39 20 94 21 88 22 87 23
REMARK SMILES IDX 40 25 74 26 53 27 73 28 54 29 57 30 72 31 92 32 55 33 56 34
REMARK SMILES IDX 71 36 93 37 58 38 41 39 42 40 51 41 43 42 44 43 50 44 52 45
REMARK SMILES IDX 45 46 46 47 47 48 48 49 49 50 75 51 76 52 85 53 77 54 78 55
REMARK SMILES IDX 84 56 86 57 79 58 80 59 81 60 82 61 83 62 59 63 60 64 69 65
REMARK SMILES IDX 61 66 62 67 68 68 70 69 63 70 64 71 65 72 66 73 67 74 6 75
REMARK SMILES IDX 7 76 8 77 9 79 10 80 11 81 12 82 13 83 14 84 15 85 16 86
REMARK SMILES IDX 31 87 17 88 30 89 18 90 19 91 20 92 28 93 21 94 27 95 29 96
REMARK SMILES IDX 22 97 23 98 24 99 25 100 26 101
REMARK H PARENT 3 6 91 24 57 35 7 78
REMARK Flexibility Score: inf
ROOT
ATOM      1  C   UNL     1       4.568   1.774  -1.780  1.00  0.00     0.042 C 
ENDROOT
BRANCH   1   2
ATOM      2  C   UNL     1       4.315   1.477  -0.316  1.00  0.00     0.118 C 
BRANCH   2   3
ATOM      3  N   UNL     1       2.915   1.163  -0.055  1.00  0.00    -0.352 N 
ATOM      4  O   UNL     1       1.111  -0.125   0.301  1.00  0.00    -0.269 OA
ATOM      5  C   UNL     1       2.333  -0.012   0.364  1.00  0.00     0.251 C 
ATOM      6  H   UNL     1       2.288   1.908  -0.201  1.00  0.00     0.163 HD
BRANCH   5   7
ATOM      7  C   UNL     1       3.160  -1.132   0.879  1.00  0.00     0.039 A 
ATOM      8  C   UNL     1       4.314  -0.887   1.621  1.00  0.00     0.014 A 
ATOM      9  C   UNL     1       2.749  -2.454   0.665  1.00  0.00     0.014 A 
ATOM     10  C   UNL     1       5.138  -1.938   1.998  1.00  0.00     0.010 A 
ATOM     11  C   UNL     1       3.515  -3.518   1.160  1.00  0.00     0.010 A 
ATOM     12  C   UNL     1       4.728  -3.268   1.816  1.00  0.00    -0.014 A 
BRANCH  12  13
ATOM     13  C   UNL     1       5.547  -4.342   2.437  1.00  0.00     0.031 A 
ATOM     14  C   UNL     1       6.236  -5.391   1.611  1.00  0.00     0.074 A 
ATOM     15  C   UNL     1       5.721  -4.303   3.775  1.00  0.00     0.049 A 
ATOM     16  N   UNL     1       7.039  -6.346   2.008  1.00  0.00    -0.248 NA
ATOM     17  C   UNL     1       5.987  -5.383   0.162  1.00  0.00     0.031 C 
ATOM     18  C   UNL     1       5.074  -3.344   4.679  1.00  0.00     0.029 A 
ATOM     19  N   UNL     1       6.516  -5.048   4.606  1.00  0.00    -0.354 N 
ATOM     20  C   UNL     1       7.383  -7.058   0.865  1.00  0.00     0.074 A 
ATOM     21  C   UNL     1       6.681  -6.441  -0.240  1.00  0.00     0.031 C 
ATOM     22  C   UNL     1       5.556  -3.506   5.918  1.00  0.00     0.029 A 
ATOM     23  C   UNL     1       6.488  -4.626   5.915  1.00  0.00     0.049 A 
ATOM     24  H   UNL     1       7.055  -5.811   4.296  1.00  0.00     0.167 HD
ATOM     25  C   UNL     1       8.214  -8.123   0.754  1.00  0.00     0.037 A 
ATOM     26  C   UNL     1       7.131  -5.092   7.001  1.00  0.00     0.037 A 
ATOM     27  C   UNL     1       8.922  -8.717   1.862  1.00  0.00     0.049 A 
ATOM     28  C   UNL     1       8.059  -6.259   6.841  1.00  0.00     0.074 A 
ATOM     29  C   UNL     1       9.790  -9.796   1.852  1.00  0.00     0.029 A 
ATOM     30  N   UNL     1       8.851  -8.277   3.176  1.00  0.00    -0.354 N 
ATOM     31  N   UNL     1       8.369  -6.917   5.749  1.00  0.00    -0.248 NA
ATOM     32  C   UNL     1       8.718  -6.753   8.055  1.00  0.00     0.031 C 
ATOM     33  C   UNL     1      10.221 -10.026   3.164  1.00  0.00     0.029 A 
ATOM     34  C   UNL     1       9.652  -9.067   3.986  1.00  0.00     0.049 A 
ATOM     35  H   UNL     1       8.311  -7.515   3.488  1.00  0.00     0.167 HD
ATOM     36  C   UNL     1       9.254  -7.909   6.146  1.00  0.00     0.074 A 
ATOM     37  C   UNL     1       9.461  -7.738   7.571  1.00  0.00     0.031 C 
ATOM     38  C   UNL     1       9.832  -8.885   5.404  1.00  0.00     0.037 A 
BRANCH  25  39
ATOM     39  C   UNL     1       8.409  -8.726  -0.611  1.00  0.00     0.058 A 
ATOM     40  C   UNL     1       9.191  -8.094  -1.590  1.00  0.00     0.135 A 
ATOM     41  C   UNL     1       7.865  -9.984  -0.921  1.00  0.00     0.135 A 
ATOM     42  F   UNL     1       9.722  -6.884  -1.352  1.00  0.00    -0.206 F 
ATOM     43  C   UNL     1       9.421  -8.682  -2.830  1.00  0.00     0.059 A 
ATOM     44  C   UNL     1       8.099 -10.600  -2.148  1.00  0.00     0.059 A 
ATOM     45  F   UNL     1       7.108 -10.632  -0.022  1.00  0.00    -0.206 F 
ATOM     46  C   UNL     1       8.872  -9.937  -3.100  1.00  0.00     0.060 A 
BRANCH  46  47
ATOM     47  S   UNL     1       9.205 -10.701  -4.702  1.00  0.00     0.124 S 
ATOM     48  O   UNL     1       8.358  -9.907  -5.586  1.00  0.00    -0.237 OA
ATOM     49  O   UNL     1      10.643 -10.499  -4.854  1.00  0.00    -0.237 OA
ATOM     50  O   UNL     1       8.788 -12.087  -4.512  1.00  0.00    -0.744 OA
ENDBRANCH  46  47
ENDBRANCH  25  39
BRANCH  26  51
ATOM     51  C   UNL     1       6.892  -4.471   8.330  1.00  0.00     0.058 A 
ATOM     52  C   UNL     1       7.893  -3.736   8.983  1.00  0.00     0.135 A 
ATOM     53  C   UNL     1       5.646  -4.588   8.966  1.00  0.00     0.135 A 
ATOM     54  F   UNL     1       9.101  -3.597   8.416  1.00  0.00    -0.206 F 
ATOM     55  C   UNL     1       7.674  -3.158  10.229  1.00  0.00     0.059 A 
ATOM     56  C   UNL     1       5.394  -3.994  10.197  1.00  0.00     0.059 A 
ATOM     57  F   UNL     1       4.648  -5.262   8.373  1.00  0.00    -0.206 F 
ATOM     58  C   UNL     1       6.421  -3.294  10.829  1.00  0.00     0.060 A 
BRANCH  58  59
ATOM     59  S   UNL     1       6.125  -2.512  12.429  1.00  0.00     0.124 S 
ATOM     60  O   UNL     1       6.761  -3.459  13.338  1.00  0.00    -0.237 OA
ATOM     61  O   UNL     1       6.796  -1.224  12.276  1.00  0.00    -0.237 OA
ATOM     62  O   UNL     1       4.669  -2.444  12.502  1.00  0.00    -0.744 OA
ENDBRANCH  58  59
ENDBRANCH  26  51
BRANCH  38  63
ATOM     63  C   UNL     1      10.740  -9.832   6.133  1.00  0.00     0.058 A 
ATOM     64  C   UNL     1      10.228 -10.818   6.991  1.00  0.00     0.135 A 
ATOM     65  C   UNL     1      12.132  -9.753   5.975  1.00  0.00     0.135 A 
ATOM     66  F   UNL     1       8.904 -10.927   7.181  1.00  0.00    -0.206 F 
ATOM     67  C   UNL     1      11.069 -11.669   7.699  1.00  0.00     0.059 A 
ATOM     68  C   UNL     1      12.990 -10.611   6.655  1.00  0.00     0.059 A 
ATOM     69  F   UNL     1      12.669  -8.833   5.159  1.00  0.00    -0.206 F 
ATOM     70  C   UNL     1      12.449 -11.553   7.530  1.00  0.00     0.060 A 
BRANCH  70  71
ATOM     71  S   UNL     1      13.533 -12.660   8.456  1.00  0.00     0.124 S 
ATOM     72  O   UNL     1      13.516 -12.046   9.779  1.00  0.00    -0.237 OA
ATOM     73  O   UNL     1      12.846 -13.943   8.343  1.00  0.00    -0.237 OA
ATOM     74  O   UNL     1      14.801 -12.570   7.737  1.00  0.00    -0.744 OA
ENDBRANCH  70  71
ENDBRANCH  38  63
ENDBRANCH  12  13
ENDBRANCH   5   7
ENDBRANCH   2   3
ENDBRANCH   1   2
BRANCH   1  75
ATOM     75  C   UNL     1       4.111   3.160  -2.201  1.00  0.00     0.117 C 
BRANCH  75  76
ATOM     76  N   UNL     1       5.160   4.135  -2.054  1.00  0.00    -0.356 N 
ATOM     77  C   UNL     1       6.102   4.616  -2.915  1.00  0.00     0.223 C 
ATOM     78  H   UNL     1       5.208   4.532  -1.154  1.00  0.00     0.163 HD
ATOM     79  O   UNL     1       6.899   5.427  -2.440  1.00  0.00    -0.275 OA
BRANCH  77  80
ATOM     80  C   UNL     1       6.214   4.345  -4.371  1.00  0.00     0.091 C 
ATOM     81  C   UNL     1       5.019   4.474  -5.289  1.00  0.00     0.028 C 
ATOM     82  C   UNL     1       5.845   3.220  -5.292  1.00  0.00     0.092 C 
BRANCH  82  83
ATOM     83  C   UNL     1       5.344   1.881  -4.943  1.00  0.00     0.226 C 
ATOM     84  O   UNL     1       6.035   1.137  -4.255  1.00  0.00    -0.275 OA
ATOM     85  N   UNL     1       4.295   1.439  -5.739  1.00  0.00    -0.339 N 
ATOM     86  C   UNL     1       2.928   1.462  -5.199  1.00  0.00     0.141 C 
ATOM     87  C   UNL     1       4.588   0.242  -6.535  1.00  0.00     0.141 C 
ATOM     88  C   UNL     1       1.838   1.159  -6.248  1.00  0.00     0.139 C 
ATOM     89  C   UNL     1       3.529   0.007  -7.620  1.00  0.00     0.139 C 
ATOM     90  N   UNL     1       2.206  -0.047  -6.985  1.00  0.00    -0.352 N 
BRANCH  90  91
ATOM     91  C   UNL     1       1.216  -0.755  -7.639  1.00  0.00     0.147 A 
ATOM     92  N   UNL     1       0.192  -0.055  -8.188  1.00  0.00    -0.237 NA
ATOM     93  C   UNL     1       1.256  -2.159  -7.725  1.00  0.00     0.084 A 
ATOM     94  C   UNL     1      -0.766  -0.739  -8.860  1.00  0.00     0.126 A 
ATOM     95  C   UNL     1       0.254  -2.837  -8.417  1.00  0.00     0.039 A 
ATOM     96  Cl  UNL     1       2.469  -3.109  -6.939  1.00  0.00    -0.080 Cl
ATOM     97  C   UNL     1      -0.780  -2.117  -9.012  1.00  0.00     0.075 A 
BRANCH  97  98
ATOM     98  C   UNL     1      -1.872  -2.776  -9.792  1.00  0.00     0.417 C 
ATOM     99  F   UNL     1      -3.110  -2.492  -9.302  1.00  0.00    -0.166 F 
ATOM    100  F   UNL     1      -1.888  -2.379 -11.095  1.00  0.00    -0.166 F 
ATOM    101  F   UNL     1      -1.782  -4.133  -9.817  1.00  0.00    -0.166 F 
ENDBRANCH  97  98
ENDBRANCH  90  91
ENDBRANCH  82  83
ENDBRANCH  77  80
ENDBRANCH  75  76
ENDBRANCH   1  75
TORSDOF 16
