REMARK SMILES O=C(Cc1cn2ccsc2n1)N[C@@H]1C=C[C@H](C(=O)NCCCNC(=O)c2ccc(-c3c4nc(c(-c5c(F)cc(S(=O)(=O)[O-])cc5F)c5ccc([nH]5)c(-c5c(F)cc(S(=O)(=O)[O-])cc5F)c5nc(c(-c6c(F)cc(S(=O)(=O)[O-])cc6F)c6ccc3[nH]6)C=C5)C=C4)cc2)C1
REMARK SMILES IDX 21 1 20 2 19 3 17 4 18 5 16 7 13 8 14 9 92 10 15 11 12 12
REMARK SMILES IDX 1 13 2 14 3 16 4 17 5 18 11 19 6 20 10 21 7 22 9 23 8 24
REMARK SMILES IDX 22 25 23 26 24 27 25 29 26 30 27 31 91 32 28 33 90 34 29 35
REMARK SMILES IDX 30 36 31 37 84 38 32 39 89 40 83 41 85 42 33 43 88 44 82 45
REMARK SMILES IDX 81 46 34 48 68 49 47 50 67 51 48 52 51 53 66 54 86 55 49 56
REMARK SMILES IDX 50 57 65 59 87 60 52 61 35 62 36 63 45 64 37 65 38 66 44 67
REMARK SMILES IDX 46 68 39 69 40 70 41 71 42 72 43 73 69 74 70 75 79 76 71 77
REMARK SMILES IDX 72 78 78 79 80 80 73 81 74 82 75 83 76 84 77 85 53 86 54 87
REMARK SMILES IDX 63 88 55 89 56 90 62 91 64 92 57 93 58 94 59 95 60 96 61 97
REMARK H PARENT 19 6 12 15 23 28 85 47 51 58
REMARK Flexibility Score: inf
ROOT
ATOM      1  C   UNL     1      -2.343   5.112  -0.515  1.00  0.00     0.042 C 
ENDROOT
BRANCH   1   2
ATOM      2  C   UNL     1      -1.390   4.278  -1.363  1.00  0.00     0.117 C 
BRANCH   2   3
ATOM      3  N   UNL     1      -0.241   5.042  -1.812  1.00  0.00    -0.356 N 
ATOM      4  C   UNL     1       1.080   5.012  -1.507  1.00  0.00     0.227 C 
ATOM      5  O   UNL     1       1.787   5.813  -2.134  1.00  0.00    -0.274 OA
ATOM      6  H   UNL     1      -0.469   5.728  -2.481  1.00  0.00     0.163 HD
BRANCH   4   7
ATOM      7  C   UNL     1       1.711   4.137  -0.405  1.00  0.00     0.103 C 
ATOM      8  C   UNL     1       2.832   2.076  -1.188  1.00  0.00     0.106 C 
ATOM      9  C   UNL     1       1.591   1.782  -0.422  1.00  0.00    -0.006 C 
ATOM     10  C   UNL     1       3.063   3.568  -0.901  1.00  0.00     0.047 C 
ATOM     11  C   UNL     1       1.026   2.894   0.060  1.00  0.00    -0.016 C 
BRANCH   8  12
ATOM     12  N   UNL     1       2.623   1.801  -2.587  1.00  0.00    -0.350 N 
ATOM     13  O   UNL     1       4.276   0.212  -2.743  1.00  0.00    -0.275 OA
ATOM     14  C   UNL     1       3.428   0.923  -3.281  1.00  0.00     0.226 C 
ATOM     15  H   UNL     1       1.886   2.252  -3.060  1.00  0.00     0.164 HD
BRANCH  14  16
ATOM     16  C   UNL     1       3.285   0.971  -4.788  1.00  0.00     0.157 C 
BRANCH  16  17
ATOM     17  C   UNL     1       1.985   0.445  -5.277  1.00  0.00     0.070 A 
ATOM     18  C   UNL     1       1.748  -0.691  -6.045  1.00  0.00     0.118 A 
ATOM     19  N   UNL     1       0.811   1.157  -5.061  1.00  0.00    -0.223 NA
ATOM     20  N   UNL     1       0.412  -0.660  -6.298  1.00  0.00    -0.297 N 
ATOM     21  C   UNL     1      -0.089   0.447  -5.684  1.00  0.00     0.193 A 
ATOM     22  C   UNL     1      -0.497  -1.419  -6.999  1.00  0.00     0.104 A 
ATOM     23  S   UNL     1      -1.796   0.594  -5.961  1.00  0.00    -0.105 S 
ATOM     24  C   UNL     1      -1.733  -0.895  -6.926  1.00  0.00     0.087 A 
ENDBRANCH  16  17
ENDBRANCH  14  16
ENDBRANCH   8  12
ENDBRANCH   4   7
ENDBRANCH   2   3
ENDBRANCH   1   2
BRANCH   1  25
ATOM     25  C   UNL     1      -3.143   6.128  -1.327  1.00  0.00     0.118 C 
BRANCH  25  26
ATOM     26  N   UNL     1      -4.016   5.489  -2.306  1.00  0.00    -0.352 N 
ATOM     27  C   UNL     1      -5.385   5.451  -2.393  1.00  0.00     0.251 C 
ATOM     28  H   UNL     1      -3.545   5.005  -3.022  1.00  0.00     0.163 HD
ATOM     29  O   UNL     1      -5.916   4.656  -3.163  1.00  0.00    -0.269 OA
BRANCH  27  30
ATOM     30  C   UNL     1      -6.220   6.351  -1.570  1.00  0.00     0.039 A 
ATOM     31  C   UNL     1      -7.413   5.862  -1.030  1.00  0.00     0.014 A 
ATOM     32  C   UNL     1      -5.858   7.685  -1.366  1.00  0.00     0.014 A 
ATOM     33  C   UNL     1      -8.208   6.692  -0.235  1.00  0.00     0.010 A 
ATOM     34  C   UNL     1      -6.606   8.485  -0.508  1.00  0.00     0.010 A 
ATOM     35  C   UNL     1      -7.793   8.000   0.061  1.00  0.00    -0.014 A 
BRANCH  35  36
ATOM     36  C   UNL     1      -8.584   8.880   0.958  1.00  0.00     0.031 A 
ATOM     37  C   UNL     1      -9.168  10.164   0.433  1.00  0.00     0.074 A 
ATOM     38  C   UNL     1      -8.712   8.559   2.260  1.00  0.00     0.049 A 
ATOM     39  N   UNL     1      -9.803  11.108   1.079  1.00  0.00    -0.248 NA
ATOM     40  C   UNL     1      -8.986  10.438  -1.002  1.00  0.00     0.031 C 
ATOM     41  C   UNL     1      -8.144   7.369   2.897  1.00  0.00     0.029 A 
ATOM     42  N   UNL     1      -9.345   9.214   3.287  1.00  0.00    -0.354 N 
ATOM     43  C   UNL     1     -10.084  12.090   0.136  1.00  0.00     0.074 A 
ATOM     44  C   UNL     1      -9.497  11.655  -1.113  1.00  0.00     0.031 C 
ATOM     45  C   UNL     1      -8.466   7.371   4.201  1.00  0.00     0.029 A 
ATOM     46  C   UNL     1      -9.229   8.579   4.500  1.00  0.00     0.049 A 
ATOM     47  H   UNL     1      -9.836  10.059   3.165  1.00  0.00     0.167 HD
ATOM     48  C   UNL     1     -10.787  13.238   0.291  1.00  0.00     0.037 A 
ATOM     49  C   UNL     1      -9.675   8.935   5.721  1.00  0.00     0.037 A 
ATOM     50  C   UNL     1     -11.385  13.652   1.533  1.00  0.00     0.049 A 
ATOM     51  C   UNL     1     -10.462  10.208   5.868  1.00  0.00     0.074 A 
ATOM     52  C   UNL     1     -12.158  14.772   1.786  1.00  0.00     0.029 A 
ATOM     53  N   UNL     1     -11.278  12.962   2.732  1.00  0.00    -0.354 N 
ATOM     54  N   UNL     1     -10.766  11.098   4.954  1.00  0.00    -0.248 NA
ATOM     55  C   UNL     1     -10.975  10.521   7.209  1.00  0.00     0.031 C 
ATOM     56  C   UNL     1     -12.487  14.779   3.146  1.00  0.00     0.029 A 
ATOM     57  C   UNL     1     -11.959  13.639   3.731  1.00  0.00     0.049 A 
ATOM     58  H   UNL     1     -10.790  12.116   2.855  1.00  0.00     0.167 HD
ATOM     59  C   UNL     1     -11.524  12.066   5.603  1.00  0.00     0.074 A 
ATOM     60  C   UNL     1     -11.644  11.644   6.984  1.00  0.00     0.031 C 
ATOM     61  C   UNL     1     -12.071  13.201   5.101  1.00  0.00     0.037 A 
BRANCH  48  62
ATOM     62  C   UNL     1     -10.953  14.118  -0.919  1.00  0.00     0.058 A 
ATOM     63  C   UNL     1     -11.752  13.730  -2.007  1.00  0.00     0.135 A 
ATOM     64  C   UNL     1     -10.321  15.370  -0.988  1.00  0.00     0.135 A 
ATOM     65  F   UNL     1     -12.368  12.537  -2.002  1.00  0.00    -0.206 F 
ATOM     66  C   UNL     1     -11.888  14.532  -3.135  1.00  0.00     0.059 A 
ATOM     67  C   UNL     1     -10.467  16.203  -2.094  1.00  0.00     0.059 A 
ATOM     68  F   UNL     1      -9.546  15.794   0.024  1.00  0.00    -0.206 F 
ATOM     69  C   UNL     1     -11.238  15.767  -3.171  1.00  0.00     0.060 A 
BRANCH  69  70
ATOM     70  S   UNL     1     -11.417  16.792  -4.646  1.00  0.00     0.124 S 
ATOM     71  O   UNL     1     -10.575  16.076  -5.600  1.00  0.00    -0.237 OA
ATOM     72  O   UNL     1     -12.853  16.730  -4.898  1.00  0.00    -0.237 OA
ATOM     73  O   UNL     1     -10.914  18.093  -4.219  1.00  0.00    -0.744 OA
ENDBRANCH  69  70
ENDBRANCH  48  62
BRANCH  49  74
ATOM     74  C   UNL     1      -9.402   8.058   6.890  1.00  0.00     0.058 A 
ATOM     75  C   UNL     1     -10.427   7.310   7.487  1.00  0.00     0.135 A 
ATOM     76  C   UNL     1      -8.106   7.925   7.412  1.00  0.00     0.135 A 
ATOM     77  F   UNL     1     -11.683   7.407   7.027  1.00  0.00    -0.206 F 
ATOM     78  C   UNL     1     -10.180   6.468   8.567  1.00  0.00     0.059 A 
ATOM     79  C   UNL     1      -7.830   7.071   8.476  1.00  0.00     0.059 A 
ATOM     80  F   UNL     1      -7.087   8.605   6.864  1.00  0.00    -0.206 F 
ATOM     81  C   UNL     1      -8.876   6.352   9.052  1.00  0.00     0.060 A 
BRANCH  81  82
ATOM     82  S   UNL     1      -8.556   5.210  10.413  1.00  0.00     0.124 S 
ATOM     83  O   UNL     1      -9.131   5.930  11.543  1.00  0.00    -0.237 OA
ATOM     84  O   UNL     1      -9.275   4.014   9.985  1.00  0.00    -0.237 OA
ATOM     85  O   UNL     1      -7.101   5.089  10.414  1.00  0.00    -0.744 OA
ENDBRANCH  81  82
ENDBRANCH  49  74
BRANCH  61  86
ATOM     86  C   UNL     1     -12.876  14.055   6.042  1.00  0.00     0.058 A 
ATOM     87  C   UNL     1     -12.265  14.832   7.038  1.00  0.00     0.135 A 
ATOM     88  C   UNL     1     -14.271  14.135   5.909  1.00  0.00     0.135 A 
ATOM     89  F   UNL     1     -10.934  14.786   7.210  1.00  0.00    -0.206 F 
ATOM     90  C   UNL     1     -13.012  15.645   7.884  1.00  0.00     0.059 A 
ATOM     91  C   UNL     1     -15.036  14.961   6.727  1.00  0.00     0.059 A 
ATOM     92  F   UNL     1     -14.904  13.419   4.966  1.00  0.00    -0.206 F 
ATOM     93  C   UNL     1     -14.398  15.704   7.720  1.00  0.00     0.060 A 
BRANCH  93  94
ATOM     94  S   UNL     1     -15.352  16.789   8.801  1.00  0.00     0.124 S 
ATOM     95  O   UNL     1     -15.336  16.043  10.055  1.00  0.00    -0.237 OA
ATOM     96  O   UNL     1     -14.565  18.018   8.785  1.00  0.00    -0.237 OA
ATOM     97  O   UNL     1     -16.649  16.875   8.137  1.00  0.00    -0.744 OA
ENDBRANCH  93  94
ENDBRANCH  61  86
ENDBRANCH  35  36
ENDBRANCH  27  30
ENDBRANCH  25  26
ENDBRANCH   1  25
TORSDOF 16
