REMARK SMILES C[C@@H](NC(=O)[C@H]1CC=CC[C@@H]1C(=O)NCCCNC(=O)c1ccc(-c2c3nc(c(-c4c(F)cc(S(=O)(=O)[O-])cc4F)c4ccc([nH]4)c(-c4c(F)cc(S(=O)(=O)[O-])cc4F)c4nc(c(-c5c(F)cc(S(=O)(=O)[O-])cc5F)c5ccc2[nH]5)C=C4)C=C3)cc1)c1ccc(-n2ccnc2)cc1
REMARK SMILES IDX 15 1 14 2 12 3 13 4 11 6 6 7 7 8 8 9 10 10 9 11 4 12 3 13
REMARK SMILES IDX 5 15 2 16 1 17 87 18 88 19 97 20 89 21 96 22 90 23 91 24
REMARK SMILES IDX 92 25 95 26 93 27 94 28 16 29 17 30 18 31 19 32 20 34 21 35
REMARK SMILES IDX 22 36 86 37 23 38 85 39 24 40 25 41 26 42 79 43 27 44 84 45
REMARK SMILES IDX 78 46 80 47 28 48 83 49 77 50 76 51 29 53 63 54 42 55 62 56
REMARK SMILES IDX 43 57 46 58 61 59 81 60 44 61 45 62 60 64 82 65 47 66 30 67
REMARK SMILES IDX 31 68 40 69 32 70 33 71 39 72 41 73 34 74 35 75 36 76 37 77
REMARK SMILES IDX 38 78 64 79 65 80 74 81 66 82 67 83 73 84 75 85 68 86 69 87
REMARK SMILES IDX 70 88 71 89 72 90 48 91 49 92 58 93 50 94 51 95 57 96 59 97
REMARK SMILES IDX 52 98 53 99 54 100 55 101 56 102
REMARK H PARENT 14 5 3 14 18 33 80 52 46 63
REMARK Flexibility Score: inf
ROOT
ATOM      1  C   UNL     1      -4.622   3.383   0.558  1.00  0.00     0.117 C 
ENDROOT
BRANCH   1   2
ATOM      2  N   UNL     1      -4.231   4.726   0.150  1.00  0.00    -0.356 N 
ATOM      3  C   UNL     1      -3.534   4.950  -1.016  1.00  0.00     0.224 C 
ATOM      4  O   UNL     1      -4.152   5.489  -1.942  1.00  0.00    -0.275 OA
ATOM      5  H   UNL     1      -4.471   5.490   0.722  1.00  0.00     0.163 HD
BRANCH   3   6
ATOM      6  C   UNL     1      -1.996   4.762  -1.133  1.00  0.00     0.095 C 
ATOM      7  C   UNL     1      -1.282   3.722  -0.231  1.00  0.00     0.095 C 
ATOM      8  C   UNL     1      -1.139   4.208   1.220  1.00  0.00     0.041 C 
ATOM      9  C   UNL     1      -1.127   5.699   1.420  1.00  0.00    -0.030 C 
ATOM     10  C   UNL     1      -1.383   6.170  -1.006  1.00  0.00     0.041 C 
ATOM     11  C   UNL     1      -1.216   6.586   0.422  1.00  0.00    -0.030 C 
BRANCH   7  12
ATOM     12  C   UNL     1       0.084   3.269  -0.783  1.00  0.00     0.224 C 
ATOM     13  N   UNL     1       0.624   2.022  -0.665  1.00  0.00    -0.349 N 
ATOM     14  H   UNL     1       1.413   1.952  -1.251  1.00  0.00     0.164 HD
ATOM     15  O   UNL     1       0.799   4.073  -1.397  1.00  0.00    -0.275 OA
BRANCH  13  16
ATOM     16  C   UNL     1       0.423   0.723   0.056  1.00  0.00     0.109 C 
ATOM     17  C   UNL     1       1.556  -0.228  -0.361  1.00  0.00     0.036 C 
BRANCH  16  18
ATOM     18  C   UNL     1      -0.935   0.088  -0.173  1.00  0.00    -0.026 A 
ATOM     19  C   UNL     1      -1.985   0.660   0.506  1.00  0.00     0.008 A 
ATOM     20  C   UNL     1      -1.246  -0.997  -1.031  1.00  0.00     0.008 A 
ATOM     21  C   UNL     1      -3.264   0.426   0.049  1.00  0.00     0.027 A 
ATOM     22  C   UNL     1      -2.576  -1.302  -1.410  1.00  0.00     0.027 A 
ATOM     23  C   UNL     1      -3.576  -0.489  -0.932  1.00  0.00     0.046 A 
BRANCH  23  24
ATOM     24  N   UNL     1      -4.893  -0.376  -1.445  1.00  0.00    -0.306 N 
ATOM     25  C   UNL     1      -6.032  -0.769  -0.766  1.00  0.00     0.113 A 
ATOM     26  C   UNL     1      -5.283   0.764  -2.140  1.00  0.00     0.204 A 
ATOM     27  C   UNL     1      -6.997   0.177  -1.029  1.00  0.00     0.131 A 
ATOM     28  N   UNL     1      -6.527   1.117  -1.899  1.00  0.00    -0.245 NA
ENDBRANCH  23  24
ENDBRANCH  16  18
ENDBRANCH  13  16
ENDBRANCH   7  12
ENDBRANCH   3   6
ENDBRANCH   1   2
BRANCH   1  29
ATOM     29  C   UNL     1      -4.738   3.135   2.077  1.00  0.00     0.042 C 
BRANCH  29  30
ATOM     30  C   UNL     1      -5.492   1.851   2.524  1.00  0.00     0.118 C 
BRANCH  30  31
ATOM     31  N   UNL     1      -4.738   0.592   2.499  1.00  0.00    -0.352 N 
ATOM     32  C   UNL     1      -5.129  -0.739   2.446  1.00  0.00     0.251 C 
ATOM     33  H   UNL     1      -3.762   0.716   2.525  1.00  0.00     0.163 HD
ATOM     34  O   UNL     1      -4.349  -1.579   1.997  1.00  0.00    -0.269 OA
BRANCH  32  35
ATOM     35  C   UNL     1      -6.340  -1.222   3.149  1.00  0.00     0.039 A 
ATOM     36  C   UNL     1      -6.205  -2.480   3.764  1.00  0.00     0.014 A 
ATOM     37  C   UNL     1      -7.258  -0.310   3.634  1.00  0.00     0.014 A 
ATOM     38  C   UNL     1      -6.709  -2.661   5.043  1.00  0.00     0.010 A 
ATOM     39  C   UNL     1      -7.603  -0.410   4.962  1.00  0.00     0.010 A 
ATOM     40  C   UNL     1      -7.260  -1.554   5.693  1.00  0.00    -0.014 A 
BRANCH  40  41
ATOM     41  C   UNL     1      -7.379  -1.509   7.161  1.00  0.00     0.031 A 
ATOM     42  C   UNL     1      -8.725  -1.270   7.763  1.00  0.00     0.074 A 
ATOM     43  C   UNL     1      -6.250  -1.543   7.902  1.00  0.00     0.049 A 
ATOM     44  N   UNL     1      -9.042  -1.093   9.014  1.00  0.00    -0.248 NA
ATOM     45  C   UNL     1      -9.861  -1.156   6.829  1.00  0.00     0.031 C 
ATOM     46  C   UNL     1      -4.883  -1.652   7.372  1.00  0.00     0.029 A 
ATOM     47  N   UNL     1      -6.062  -1.480   9.257  1.00  0.00    -0.354 N 
ATOM     48  C   UNL     1     -10.406  -0.843   9.014  1.00  0.00     0.074 A 
ATOM     49  C   UNL     1     -10.839  -0.789   7.639  1.00  0.00     0.031 C 
ATOM     50  C   UNL     1      -4.010  -1.698   8.391  1.00  0.00     0.029 A 
ATOM     51  C   UNL     1      -4.744  -1.583   9.643  1.00  0.00     0.049 A 
ATOM     52  H   UNL     1      -6.802  -1.370   9.898  1.00  0.00     0.167 HD
ATOM     53  C   UNL     1     -11.227  -0.723  10.079  1.00  0.00     0.037 A 
ATOM     54  C   UNL     1      -4.201  -1.591  10.876  1.00  0.00     0.037 A 
ATOM     55  C   UNL     1     -10.760  -0.814  11.433  1.00  0.00     0.049 A 
ATOM     56  C   UNL     1      -5.144  -1.491  12.045  1.00  0.00     0.074 A 
ATOM     57  C   UNL     1     -11.491  -0.764  12.603  1.00  0.00     0.029 A 
ATOM     58  N   UNL     1      -9.427  -0.980  11.792  1.00  0.00    -0.354 N 
ATOM     59  N   UNL     1      -6.451  -1.349  12.036  1.00  0.00    -0.248 NA
ATOM     60  C   UNL     1      -4.554  -1.565  13.386  1.00  0.00     0.031 C 
ATOM     61  C   UNL     1     -10.595  -0.859  13.672  1.00  0.00     0.029 A 
ATOM     62  C   UNL     1      -9.312  -1.021  13.168  1.00  0.00     0.049 A 
ATOM     63  H   UNL     1      -8.677  -1.057  11.160  1.00  0.00     0.167 HD
ATOM     64  C   UNL     1      -6.843  -1.344  13.368  1.00  0.00     0.074 A 
ATOM     65  C   UNL     1      -5.635  -1.517  14.153  1.00  0.00     0.031 C 
ATOM     66  C   UNL     1      -8.083  -1.206  13.901  1.00  0.00     0.037 A 
BRANCH  53  67
ATOM     67  C   UNL     1     -12.688  -0.513   9.804  1.00  0.00     0.058 A 
ATOM     68  C   UNL     1     -13.475  -1.516   9.209  1.00  0.00     0.135 A 
ATOM     69  C   UNL     1     -13.314   0.698  10.133  1.00  0.00     0.135 A 
ATOM     70  F   UNL     1     -12.921  -2.683   8.842  1.00  0.00    -0.206 F 
ATOM     71  C   UNL     1     -14.821  -1.317   8.929  1.00  0.00     0.059 A 
ATOM     72  C   UNL     1     -14.669   0.908   9.892  1.00  0.00     0.059 A 
ATOM     73  F   UNL     1     -12.607   1.696  10.686  1.00  0.00    -0.206 F 
ATOM     74  C   UNL     1     -15.411  -0.102   9.280  1.00  0.00     0.060 A 
BRANCH  74  75
ATOM     75  S   UNL     1     -17.167   0.124   8.935  1.00  0.00     0.124 S 
ATOM     76  O   UNL     1     -17.167   0.242   7.481  1.00  0.00    -0.237 OA
ATOM     77  O   UNL     1     -17.749  -1.097   9.474  1.00  0.00    -0.237 OA
ATOM     78  O   UNL     1     -17.500   1.350   9.663  1.00  0.00    -0.744 OA
ENDBRANCH  74  75
ENDBRANCH  53  67
BRANCH  54  79
ATOM     79  C   UNL     1      -2.730  -1.742  11.066  1.00  0.00     0.058 A 
ATOM     80  C   UNL     1      -2.188  -2.903  11.640  1.00  0.00     0.135 A 
ATOM     81  C   UNL     1      -1.831  -0.737  10.674  1.00  0.00     0.135 A 
ATOM     82  F   UNL     1      -2.999  -3.899  12.029  1.00  0.00    -0.206 F 
ATOM     83  C   UNL     1      -0.819  -3.050  11.848  1.00  0.00     0.059 A 
ATOM     84  C   UNL     1      -0.455  -0.871  10.847  1.00  0.00     0.059 A 
ATOM     85  F   UNL     1      -2.287   0.386  10.097  1.00  0.00    -0.206 F 
ATOM     86  C   UNL     1       0.041  -2.026  11.449  1.00  0.00     0.060 A 
BRANCH  86  87
ATOM     87  S   UNL     1       1.818  -2.237  11.701  1.00  0.00     0.124 S 
ATOM     88  O   UNL     1       1.928  -2.104  13.149  1.00  0.00    -0.237 OA
ATOM     89  O   UNL     1       2.048  -3.574  11.163  1.00  0.00    -0.237 OA
ATOM     90  O   UNL     1       2.399  -1.147  10.922  1.00  0.00    -0.744 OA
ENDBRANCH  86  87
ENDBRANCH  54  79
BRANCH  66  91
ATOM     91  C   UNL     1      -8.188  -1.268  15.396  1.00  0.00     0.058 A 
ATOM     92  C   UNL     1      -7.740  -0.216  16.207  1.00  0.00     0.135 A 
ATOM     93  C   UNL     1      -8.806  -2.367  16.013  1.00  0.00     0.135 A 
ATOM     94  F   UNL     1      -7.138   0.852  15.660  1.00  0.00    -0.206 F 
ATOM     95  C   UNL     1      -7.878  -0.263  17.588  1.00  0.00     0.059 A 
ATOM     96  C   UNL     1      -8.985  -2.419  17.390  1.00  0.00     0.059 A 
ATOM     97  F   UNL     1      -9.264  -3.390  15.275  1.00  0.00    -0.206 F 
ATOM     98  C   UNL     1      -8.506  -1.367  18.169  1.00  0.00     0.060 A 
BRANCH  98  99
ATOM     99  S   UNL     1      -8.712  -1.395  19.960  1.00  0.00     0.124 S 
ATOM    100  O   UNL     1      -7.348  -1.656  20.407  1.00  0.00    -0.237 OA
ATOM    101  O   UNL     1      -9.226  -0.056  20.235  1.00  0.00    -0.237 OA
ATOM    102  O   UNL     1      -9.663  -2.481  20.175  1.00  0.00    -0.744 OA
ENDBRANCH  98  99
ENDBRANCH  66  91
ENDBRANCH  40  41
ENDBRANCH  32  35
ENDBRANCH  30  31
ENDBRANCH  29  30
ENDBRANCH   1  29
TORSDOF 17
