REMARK SMILES O=C(NCCCNC(=O)c1ccc(-n2cc(CSc3nc4ccccc4c(=O)n3-c3ccc(Br)cc3)nn2)cc1)c1ccc(-c2c3nc(c(-c4c(F)cc(S(=O)(=O)[O-])cc4F)c4ccc([nH]4)c(-c4c(F)cc(S(=O)(=O)[O-])cc4F)c4nc(c(-c5c(F)cc(S(=O)(=O)[O-])cc5F)c5ccc2[nH]5)C=C4)C=C3)cc1
REMARK SMILES IDX 6 1 5 2 4 3 3 4 1 5 2 6 41 8 42 9 106 10 43 11 105 12 44 13
REMARK SMILES IDX 45 14 46 15 99 16 47 17 104 18 98 19 100 20 48 21 103 22
REMARK SMILES IDX 97 23 96 24 49 26 83 27 62 28 82 29 63 30 66 31 81 32 101 33
REMARK SMILES IDX 64 34 65 35 80 37 102 38 67 39 50 40 51 41 60 42 52 43 53 44
REMARK SMILES IDX 59 45 61 46 54 47 55 48 56 49 57 50 58 51 84 52 85 53 94 54
REMARK SMILES IDX 86 55 87 56 93 57 95 58 88 59 89 60 90 61 91 62 92 63 68 64
REMARK SMILES IDX 69 65 78 66 70 67 71 68 77 69 79 70 72 71 73 72 74 73 75 74
REMARK SMILES IDX 76 75 7 76 8 77 9 79 10 80 11 81 40 82 12 83 39 84 13 85
REMARK SMILES IDX 14 86 15 87 38 88 16 89 37 90 17 91 18 92 19 93 20 94 29 95
REMARK SMILES IDX 21 96 27 97 22 98 26 99 28 100 23 101 25 102 24 103 30 104
REMARK SMILES IDX 31 105 36 106 32 107 35 108 33 109 34 110
REMARK H PARENT 3 7 100 25 66 36 7 78
REMARK Flexibility Score: inf
ROOT
ATOM      1  C   UNL     1       4.371  -0.102   3.520  1.00  0.00     0.118 C 
ENDROOT
BRANCH   1   2
ATOM      2  C   UNL     1       4.905   0.446   2.196  1.00  0.00     0.042 C 
BRANCH   2   3
ATOM      3  C   UNL     1       4.534  -0.358   0.952  1.00  0.00     0.118 C 
BRANCH   3   4
ATOM      4  N   UNL     1       3.115  -0.559   0.737  1.00  0.00    -0.352 N 
ATOM      5  O   UNL     1       1.079  -0.508  -0.093  1.00  0.00    -0.269 OA
ATOM      6  C   UNL     1       2.119   0.130   0.099  1.00  0.00     0.251 C 
ATOM      7  H   UNL     1       2.789  -1.391   1.149  1.00  0.00     0.163 HD
BRANCH   6   8
ATOM      8  C   UNL     1       2.156   1.568  -0.292  1.00  0.00     0.039 A 
ATOM      9  C   UNL     1       3.287   2.382  -0.363  1.00  0.00     0.014 A 
ATOM     10  C   UNL     1       0.901   2.143  -0.585  1.00  0.00     0.014 A 
ATOM     11  C   UNL     1       3.151   3.748  -0.641  1.00  0.00     0.010 A 
ATOM     12  C   UNL     1       0.762   3.502  -0.857  1.00  0.00     0.010 A 
ATOM     13  C   UNL     1       1.886   4.317  -0.856  1.00  0.00    -0.014 A 
BRANCH  13  14
ATOM     14  C   UNL     1       1.791   5.715  -1.293  1.00  0.00     0.031 A 
ATOM     15  C   UNL     1       2.354   5.943  -2.655  1.00  0.00     0.074 A 
ATOM     16  C   UNL     1       1.139   6.708  -0.647  1.00  0.00     0.049 A 
ATOM     17  N   UNL     1       3.439   6.573  -2.961  1.00  0.00    -0.248 NA
ATOM     18  C   UNL     1       1.720   5.266  -3.798  1.00  0.00     0.031 C 
ATOM     19  C   UNL     1       0.283   6.606   0.536  1.00  0.00     0.029 A 
ATOM     20  N   UNL     1       1.043   8.036  -0.969  1.00  0.00    -0.354 N 
ATOM     21  C   UNL     1       3.507   6.571  -4.353  1.00  0.00     0.074 A 
ATOM     22  C   UNL     1       2.535   5.607  -4.798  1.00  0.00     0.031 C 
ATOM     23  C   UNL     1      -0.403   7.764   0.701  1.00  0.00     0.029 A 
ATOM     24  C   UNL     1       0.056   8.739  -0.276  1.00  0.00     0.049 A 
ATOM     25  H   UNL     1       1.626   8.462  -1.639  1.00  0.00     0.167 HD
ATOM     26  C   UNL     1       4.196   7.533  -5.029  1.00  0.00     0.037 A 
ATOM     27  C   UNL     1      -0.368  10.015  -0.503  1.00  0.00     0.037 A 
ATOM     28  C   UNL     1       5.070   8.261  -4.145  1.00  0.00     0.049 A 
ATOM     29  C   UNL     1       0.712  10.709  -1.248  1.00  0.00     0.074 A 
ATOM     30  C   UNL     1       6.131   7.930  -3.326  1.00  0.00     0.029 A 
ATOM     31  N   UNL     1       4.654   9.504  -3.738  1.00  0.00    -0.354 N 
ATOM     32  N   UNL     1       1.876  10.999  -0.739  1.00  0.00    -0.248 NA
ATOM     33  C   UNL     1       0.652  10.686  -2.701  1.00  0.00     0.031 C 
ATOM     34  C   UNL     1       5.981   8.760  -2.177  1.00  0.00     0.029 A 
ATOM     35  C   UNL     1       4.886   9.598  -2.392  1.00  0.00     0.049 A 
ATOM     36  H   UNL     1       4.260  10.202  -4.310  1.00  0.00     0.167 HD
ATOM     37  C   UNL     1       2.776  10.743  -1.761  1.00  0.00     0.074 A 
ATOM     38  C   UNL     1       1.959  10.640  -2.969  1.00  0.00     0.031 C 
ATOM     39  C   UNL     1       4.057  10.361  -1.488  1.00  0.00     0.037 A 
BRANCH  26  40
ATOM     40  C   UNL     1       3.820   8.078  -6.389  1.00  0.00     0.058 A 
ATOM     41  C   UNL     1       4.697   8.978  -7.035  1.00  0.00     0.135 A 
ATOM     42  C   UNL     1       2.524   7.993  -6.942  1.00  0.00     0.135 A 
ATOM     43  F   UNL     1       5.953   9.148  -6.590  1.00  0.00    -0.206 F 
ATOM     44  C   UNL     1       4.293   9.787  -8.097  1.00  0.00     0.059 A 
ATOM     45  C   UNL     1       2.117   8.752  -8.035  1.00  0.00     0.059 A 
ATOM     46  F   UNL     1       1.560   7.245  -6.394  1.00  0.00    -0.206 F 
ATOM     47  C   UNL     1       2.995   9.674  -8.582  1.00  0.00     0.060 A 
BRANCH  47  48
ATOM     48  S   UNL     1       2.450  10.770  -9.903  1.00  0.00     0.124 S 
ATOM     49  O   UNL     1       2.429  12.059  -9.224  1.00  0.00    -0.237 OA
ATOM     50  O   UNL     1       3.501  10.586 -10.898  1.00  0.00    -0.237 OA
ATOM     51  O   UNL     1       1.145  10.226 -10.271  1.00  0.00    -0.744 OA
ENDBRANCH  47  48
ENDBRANCH  26  40
BRANCH  27  52
ATOM     52  C   UNL     1      -1.740  10.600  -0.410  1.00  0.00     0.058 A 
ATOM     53  C   UNL     1      -1.959  11.991  -0.508  1.00  0.00     0.135 A 
ATOM     54  C   UNL     1      -2.885   9.792  -0.543  1.00  0.00     0.135 A 
ATOM     55  F   UNL     1      -0.928  12.846  -0.412  1.00  0.00    -0.206 F 
ATOM     56  C   UNL     1      -3.220  12.539  -0.785  1.00  0.00     0.059 A 
ATOM     57  C   UNL     1      -4.152  10.315  -0.812  1.00  0.00     0.059 A 
ATOM     58  F   UNL     1      -2.789   8.455  -0.513  1.00  0.00    -0.206 F 
ATOM     59  C   UNL     1      -4.309  11.688  -0.961  1.00  0.00     0.060 A 
BRANCH  59  60
ATOM     60  S   UNL     1      -5.897  12.366  -1.508  1.00  0.00     0.124 S 
ATOM     61  O   UNL     1      -6.343  13.092  -0.324  1.00  0.00    -0.237 OA
ATOM     62  O   UNL     1      -5.508  13.187  -2.650  1.00  0.00    -0.237 OA
ATOM     63  O   UNL     1      -6.677  11.176  -1.839  1.00  0.00    -0.744 OA
ENDBRANCH  59  60
ENDBRANCH  27  52
BRANCH  39  64
ATOM     64  C   UNL     1       4.587  10.564  -0.093  1.00  0.00     0.058 A 
ATOM     65  C   UNL     1       4.078   9.950   1.065  1.00  0.00     0.135 A 
ATOM     66  C   UNL     1       5.765  11.316   0.044  1.00  0.00     0.135 A 
ATOM     67  F   UNL     1       3.016   9.134   1.008  1.00  0.00    -0.206 F 
ATOM     68  C   UNL     1       4.692  10.113   2.309  1.00  0.00     0.059 A 
ATOM     69  C   UNL     1       6.413  11.461   1.265  1.00  0.00     0.059 A 
ATOM     70  F   UNL     1       6.332  11.881  -1.035  1.00  0.00    -0.206 F 
ATOM     71  C   UNL     1       5.862  10.868   2.398  1.00  0.00     0.060 A 
BRANCH  71  72
ATOM     72  S   UNL     1       6.698  11.022   3.991  1.00  0.00     0.124 S 
ATOM     73  O   UNL     1       5.781  11.880   4.737  1.00  0.00    -0.237 OA
ATOM     74  O   UNL     1       6.773   9.634   4.444  1.00  0.00    -0.237 OA
ATOM     75  O   UNL     1       7.980  11.627   3.649  1.00  0.00    -0.744 OA
ENDBRANCH  71  72
ENDBRANCH  39  64
ENDBRANCH  13  14
ENDBRANCH   6   8
ENDBRANCH   3   4
ENDBRANCH   2   3
ENDBRANCH   1   2
BRANCH   1  76
ATOM     76  N   UNL     1       4.889  -1.418   3.862  1.00  0.00    -0.352 N 
ATOM     77  C   UNL     1       5.719  -1.828   4.878  1.00  0.00     0.251 C 
ATOM     78  H   UNL     1       4.594  -2.140   3.261  1.00  0.00     0.163 HD
ATOM     79  O   UNL     1       6.091  -2.994   4.917  1.00  0.00    -0.269 OA
BRANCH  77  80
ATOM     80  C   UNL     1       6.191  -0.886   5.919  1.00  0.00     0.039 A 
ATOM     81  C   UNL     1       7.553  -0.897   6.244  1.00  0.00     0.016 A 
ATOM     82  C   UNL     1       5.313  -0.071   6.640  1.00  0.00     0.016 A 
ATOM     83  C   UNL     1       8.045  -0.062   7.250  1.00  0.00     0.029 A 
ATOM     84  C   UNL     1       5.800   0.763   7.653  1.00  0.00     0.029 A 
ATOM     85  C   UNL     1       7.168   0.759   7.970  1.00  0.00     0.066 A 
BRANCH  85  86
ATOM     86  N   UNL     1       7.669   1.500   9.070  1.00  0.00    -0.220 N 
ATOM     87  C   UNL     1       6.958   2.099  10.080  1.00  0.00     0.141 A 
ATOM     88  N   UNL     1       8.994   1.633   9.328  1.00  0.00    -0.062 NA
ATOM     89  C   UNL     1       7.898   2.452  11.025  1.00  0.00     0.093 A 
ATOM     90  N   UNL     1       9.140   2.213  10.514  1.00  0.00    -0.134 NA
BRANCH  89  91
ATOM     91  C   UNL     1       7.698   3.133  12.321  1.00  0.00     0.138 C 
BRANCH  91  92
ATOM     92  S   UNL     1       7.871   2.250  13.881  1.00  0.00    -0.081 SA
BRANCH  92  93
ATOM     93  C   UNL     1       7.838   0.514  13.683  1.00  0.00     0.176 A 
ATOM     94  N   UNL     1       8.659  -0.080  14.502  1.00  0.00    -0.223 NA
ATOM     95  N   UNL     1       7.031  -0.210  12.814  1.00  0.00    -0.255 N 
ATOM     96  C   UNL     1       8.819  -1.466  14.410  1.00  0.00     0.079 A 
ATOM     97  C   UNL     1       7.627  -1.375  12.307  1.00  0.00     0.266 A 
ATOM     98  C   UNL     1       9.414  -2.194  15.441  1.00  0.00     0.029 A 
ATOM     99  C   UNL     1       8.477  -2.126  13.241  1.00  0.00     0.066 A 
ATOM    100  O   UNL     1       7.489  -1.827  11.166  1.00  0.00    -0.268 OA
ATOM    101  C   UNL     1       9.727  -3.547  15.262  1.00  0.00     0.002 A 
ATOM    102  C   UNL     1       8.835  -3.461  13.022  1.00  0.00     0.016 A 
ATOM    103  C   UNL     1       9.475  -4.170  14.038  1.00  0.00     0.001 A 
BRANCH  95 104
ATOM    104  C   UNL     1       5.674   0.102  12.401  1.00  0.00     0.051 A 
ATOM    105  C   UNL     1       4.910  -0.858  11.701  1.00  0.00     0.028 A 
ATOM    106  C   UNL     1       5.008   1.297  12.689  1.00  0.00     0.028 A 
ATOM    107  C   UNL     1       3.670  -0.558  11.126  1.00  0.00     0.018 A 
ATOM    108  C   UNL     1       3.802   1.640  12.057  1.00  0.00     0.018 A 
ATOM    109  C   UNL     1       3.159   0.721  11.243  1.00  0.00     0.018 A 
ATOM    110  Br  UNL     1       1.608   1.212  10.291  1.00  0.00    -0.051 Br
ENDBRANCH  95 104
ENDBRANCH  92  93
ENDBRANCH  91  92
ENDBRANCH  89  91
ENDBRANCH  85  86
ENDBRANCH  77  80
ENDBRANCH   1  76
TORSDOF 18
