REMARK SMILES C[C@H]1CCC[C@H](C(C)(C)C(=O)NCCCNC(=O)c2ccc(-c3c4nc(c(-c5c(F)cc(S(=O)(=O)[O-])cc5F)c5ccc([nH]5)c(-c5c(F)cc(S(=O)(=O)[O-])cc5F)c5nc(c(-c6c(F)cc(S(=O)(=O)[O-])cc6F)c6ccc3[nH]6)C=C5)C=C4)cc2)C1
REMARK SMILES IDX 15 1 14 2 13 3 12 4 10 5 11 6 7 8 8 9 9 10 6 11 1 12 2 13
REMARK SMILES IDX 3 14 85 15 4 16 5 17 16 18 17 19 18 21 19 22 20 23 84 24
REMARK SMILES IDX 21 25 83 26 22 27 23 28 24 29 77 30 25 31 82 32 76 33 78 34
REMARK SMILES IDX 26 35 81 36 75 37 74 38 27 40 61 41 40 42 60 43 41 44 44 45
REMARK SMILES IDX 59 46 79 47 42 48 43 49 58 51 80 52 45 53 28 54 29 55 38 56
REMARK SMILES IDX 30 57 31 58 37 59 39 60 32 61 33 62 34 63 35 64 36 65 62 66
REMARK SMILES IDX 63 67 72 68 64 69 65 70 71 71 73 72 66 73 67 74 68 75 69 76
REMARK SMILES IDX 70 77 46 78 47 79 56 80 48 81 49 82 55 83 57 84 50 85 51 86
REMARK SMILES IDX 52 87 53 88 54 89
REMARK H PARENT 12 7 16 20 78 39 44 50
REMARK Flexibility Score: inf
ROOT
ATOM      1  C   UNL     1       0.510  -0.279   6.470  1.00  0.00     0.118 C 
ENDROOT
BRANCH   1   2
ATOM      2  C   UNL     1      -0.292  -1.429   5.862  1.00  0.00     0.042 C 
BRANCH   2   3
ATOM      3  C   UNL     1      -1.523  -0.987   5.076  1.00  0.00     0.117 C 
BRANCH   3   4
ATOM      4  N   UNL     1      -1.178  -0.012   4.061  1.00  0.00    -0.356 N 
ATOM      5  C   UNL     1      -0.977  -0.051   2.723  1.00  0.00     0.225 C 
ATOM      6  O   UNL     1      -0.489   0.991   2.288  1.00  0.00    -0.275 OA
ATOM      7  H   UNL     1      -1.063   0.892   4.432  1.00  0.00     0.163 HD
BRANCH   5   8
ATOM      8  C   UNL     1      -1.363  -1.245   1.821  1.00  0.00     0.046 C 
ATOM      9  C   UNL     1      -2.888  -1.466   1.973  1.00  0.00     0.022 C 
ATOM     10  C   UNL     1      -0.619  -2.517   2.280  1.00  0.00     0.022 C 
BRANCH   8  11
ATOM     11  C   UNL     1      -1.066  -1.042   0.262  1.00  0.00     0.004 C 
ATOM     12  C   UNL     1       2.605   0.016  -0.612  1.00  0.00     0.007 C 
ATOM     13  C   UNL     1       1.190   0.177  -0.047  1.00  0.00    -0.014 C 
ATOM     14  C   UNL     1       0.480   1.353  -0.733  1.00  0.00     0.003 C 
ATOM     15  C   UNL     1       0.403  -1.121  -0.206  1.00  0.00     0.008 C 
ATOM     16  C   UNL     1      -1.022   1.462  -0.468  1.00  0.00     0.001 C 
ATOM     17  C   UNL     1      -1.766   0.130  -0.460  1.00  0.00     0.005 C 
ENDBRANCH   8  11
ENDBRANCH   5   8
ENDBRANCH   3   4
ENDBRANCH   2   3
ENDBRANCH   1   2
BRANCH   1  18
ATOM     18  N   UNL     1      -0.295   0.574   7.336  1.00  0.00    -0.352 N 
ATOM     19  C   UNL     1      -0.232   0.772   8.690  1.00  0.00     0.251 C 
ATOM     20  H   UNL     1      -0.995   1.089   6.874  1.00  0.00     0.163 HD
ATOM     21  O   UNL     1      -1.147   1.380   9.254  1.00  0.00    -0.269 OA
BRANCH  19  22
ATOM     22  C   UNL     1       0.902   0.251   9.476  1.00  0.00     0.039 A 
ATOM     23  C   UNL     1       0.649  -0.358  10.707  1.00  0.00     0.014 A 
ATOM     24  C   UNL     1       2.216   0.380   9.016  1.00  0.00     0.014 A 
ATOM     25  C   UNL     1       1.705  -0.899  11.443  1.00  0.00     0.010 A 
ATOM     26  C   UNL     1       3.257  -0.231   9.710  1.00  0.00     0.010 A 
ATOM     27  C   UNL     1       3.013  -0.874  10.932  1.00  0.00    -0.014 A 
BRANCH  27  28
ATOM     28  C   UNL     1       4.133  -1.524  11.661  1.00  0.00     0.031 A 
ATOM     29  C   UNL     1       5.285  -0.702  12.173  1.00  0.00     0.074 A 
ATOM     30  C   UNL     1       4.138  -2.864  11.807  1.00  0.00     0.049 A 
ATOM     31  N   UNL     1       6.371  -1.097  12.787  1.00  0.00    -0.248 NA
ATOM     32  C   UNL     1       5.223   0.750  11.941  1.00  0.00     0.031 C 
ATOM     33  C   UNL     1       3.107  -3.774  11.301  1.00  0.00     0.029 A 
ATOM     34  N   UNL     1       5.043  -3.696  12.415  1.00  0.00    -0.354 N 
ATOM     35  C   UNL     1       7.125   0.051  13.001  1.00  0.00     0.074 A 
ATOM     36  C   UNL     1       6.399   1.150  12.404  1.00  0.00     0.031 C 
ATOM     37  C   UNL     1       3.425  -5.032  11.643  1.00  0.00     0.029 A 
ATOM     38  C   UNL     1       4.696  -5.025  12.359  1.00  0.00     0.049 A 
ATOM     39  H   UNL     1       5.864  -3.372  12.852  1.00  0.00     0.167 HD
ATOM     40  C   UNL     1       8.304   0.181  13.657  1.00  0.00     0.037 A 
ATOM     41  C   UNL     1       5.331  -6.116  12.829  1.00  0.00     0.037 A 
ATOM     42  C   UNL     1       9.008  -0.914  14.273  1.00  0.00     0.049 A 
ATOM     43  C   UNL     1       6.629  -5.945  13.568  1.00  0.00     0.074 A 
ATOM     44  C   UNL     1      10.174  -0.878  15.016  1.00  0.00     0.029 A 
ATOM     45  N   UNL     1       8.611  -2.243  14.216  1.00  0.00    -0.354 N 
ATOM     46  N   UNL     1       7.293  -4.842  13.822  1.00  0.00    -0.248 NA
ATOM     47  C   UNL     1       7.261  -7.163  14.092  1.00  0.00     0.031 C 
ATOM     48  C   UNL     1      10.506  -2.190  15.374  1.00  0.00     0.029 A 
ATOM     49  C   UNL     1       9.520  -3.038  14.895  1.00  0.00     0.049 A 
ATOM     50  H   UNL     1       7.803  -2.572  13.761  1.00  0.00     0.167 HD
ATOM     51  C   UNL     1       8.410  -5.231  14.553  1.00  0.00     0.074 A 
ATOM     52  C   UNL     1       8.321  -6.668  14.716  1.00  0.00     0.031 C 
ATOM     53  C   UNL     1       9.417  -4.468  15.046  1.00  0.00     0.037 A 
BRANCH  40  54
ATOM     54  C   UNL     1       8.902   1.559  13.748  1.00  0.00     0.058 A 
ATOM     55  C   UNL     1       8.325   2.561  14.546  1.00  0.00     0.135 A 
ATOM     56  C   UNL     1      10.083   1.874  13.057  1.00  0.00     0.135 A 
ATOM     57  F   UNL     1       7.188   2.320  15.217  1.00  0.00    -0.206 F 
ATOM     58  C   UNL     1       8.880   3.833  14.632  1.00  0.00     0.059 A 
ATOM     59  C   UNL     1      10.672   3.132  13.151  1.00  0.00     0.059 A 
ATOM     60  F   UNL     1      10.678   0.955  12.280  1.00  0.00    -0.206 F 
ATOM     61  C   UNL     1      10.054   4.110  13.929  1.00  0.00     0.060 A 
BRANCH  61  62
ATOM     62  S   UNL     1      10.764   5.765  14.054  1.00  0.00     0.124 S 
ATOM     63  O   UNL     1       9.834   6.543  13.241  1.00  0.00    -0.237 OA
ATOM     64  O   UNL     1      10.713   6.019  15.490  1.00  0.00    -0.237 OA
ATOM     65  O   UNL     1      12.103   5.604  13.496  1.00  0.00    -0.744 OA
ENDBRANCH  61  62
ENDBRANCH  40  54
BRANCH  41  66
ATOM     66  C   UNL     1       4.731  -7.464  12.639  1.00  0.00     0.058 A 
ATOM     67  C   UNL     1       4.188  -8.171  13.722  1.00  0.00     0.135 A 
ATOM     68  C   UNL     1       4.671  -8.063  11.371  1.00  0.00     0.135 A 
ATOM     69  F   UNL     1       4.226  -7.642  14.954  1.00  0.00    -0.206 F 
ATOM     70  C   UNL     1       3.622  -9.431  13.560  1.00  0.00     0.059 A 
ATOM     71  C   UNL     1       4.087  -9.311  11.179  1.00  0.00     0.059 A 
ATOM     72  F   UNL     1       5.159  -7.419  10.299  1.00  0.00    -0.206 F 
ATOM     73  C   UNL     1       3.574  -9.992  12.283  1.00  0.00     0.060 A 
BRANCH  73  74
ATOM     74  S   UNL     1       2.789 -11.605  12.073  1.00  0.00     0.124 S 
ATOM     75  O   UNL     1       3.794 -12.496  12.641  1.00  0.00    -0.237 OA
ATOM     76  O   UNL     1       1.560 -11.452  12.847  1.00  0.00    -0.237 OA
ATOM     77  O   UNL     1       2.602 -11.701  10.629  1.00  0.00    -0.744 OA
ENDBRANCH  73  74
ENDBRANCH  41  66
BRANCH  53  78
ATOM     78  C   UNL     1      10.491  -5.171  15.829  1.00  0.00     0.058 A 
ATOM     79  C   UNL     1      11.443  -5.990  15.203  1.00  0.00     0.135 A 
ATOM     80  C   UNL     1      10.589  -4.995  17.219  1.00  0.00     0.135 A 
ATOM     81  F   UNL     1      11.390  -6.197  13.877  1.00  0.00    -0.206 F 
ATOM     82  C   UNL     1      12.437  -6.636  15.931  1.00  0.00     0.059 A 
ATOM     83  C   UNL     1      11.592  -5.608  17.963  1.00  0.00     0.059 A 
ATOM     84  F   UNL     1       9.711  -4.212  17.865  1.00  0.00    -0.206 F 
ATOM     85  C   UNL     1      12.502  -6.439  17.312  1.00  0.00     0.060 A 
BRANCH  85  86
ATOM     86  S   UNL     1      13.807  -7.268  18.244  1.00  0.00     0.124 S 
ATOM     87  O   UNL     1      13.315  -8.641  18.281  1.00  0.00    -0.237 OA
ATOM     88  O   UNL     1      14.983  -7.037  17.410  1.00  0.00    -0.237 OA
ATOM     89  O   UNL     1      13.807  -6.566  19.524  1.00  0.00    -0.744 OA
ENDBRANCH  85  86
ENDBRANCH  53  78
ENDBRANCH  27  28
ENDBRANCH  19  22
ENDBRANCH   1  18
TORSDOF 14
