REMARK SMILES C[C@@H](Nc1ccc(C(=O)NCCCNC(=O)c2ccc(-c3c4nc(c(-c5c(F)cc(S(=O)(=O)[O-])cc5F)c5ccc([nH]5)c(-c5c(F)cc(S(=O)(=O)[O-])cc5F)c5nc(c(-c6c(F)cc(S(=O)(=O)[O-])cc6F)c6ccc3[nH]6)C=C5)C=C4)cc2)cc1)C1CC[NH+](C)CC1
REMARK SMILES IDX 12 1 11 2 10 3 8 4 9 5 7 7 4 8 5 9 84 10 6 11 83 12 3 13
REMARK SMILES IDX 2 15 1 16 85 17 86 18 91 19 87 20 90 21 88 22 89 23 13 25
REMARK SMILES IDX 14 26 15 27 16 29 17 30 18 31 82 32 19 33 81 34 20 35 21 36
REMARK SMILES IDX 22 37 75 38 23 39 80 40 74 41 76 42 24 43 79 44 73 45 72 46
REMARK SMILES IDX 25 48 59 49 38 50 58 51 39 52 42 53 57 54 77 55 40 56 41 57
REMARK SMILES IDX 56 59 78 60 43 61 26 62 27 63 36 64 28 65 29 66 35 67 37 68
REMARK SMILES IDX 30 69 31 70 32 71 33 72 34 73 60 74 61 75 70 76 62 77 63 78
REMARK SMILES IDX 69 79 71 80 64 81 65 82 66 83 67 84 68 85 44 86 45 87 54 88
REMARK SMILES IDX 46 89 47 90 53 91 55 92 48 93 49 94 50 95 51 96 52 97
REMARK H PARENT 10 6 3 14 88 24 14 28 76 47 42 58
REMARK Flexibility Score: inf
ROOT
ATOM      1  C   UNL     1      -4.583  -3.543   6.175  1.00  0.00     0.042 C 
ENDROOT
BRANCH   1   2
ATOM      2  C   UNL     1      -4.573  -2.117   5.650  1.00  0.00     0.118 C 
BRANCH   2   3
ATOM      3  N   UNL     1      -4.080  -1.187   6.642  1.00  0.00    -0.352 N 
ATOM      4  C   UNL     1      -2.869  -0.558   6.721  1.00  0.00     0.251 C 
ATOM      5  O   UNL     1      -2.687   0.306   7.575  1.00  0.00    -0.269 OA
ATOM      6  H   UNL     1      -4.710  -0.976   7.368  1.00  0.00     0.163 HD
BRANCH   4   7
ATOM      7  C   UNL     1      -1.796  -0.830   5.758  1.00  0.00     0.039 A 
ATOM      8  C   UNL     1       0.805  -1.168   3.241  1.00  0.00     0.034 A 
ATOM      9  C   UNL     1       0.449   0.470   3.958  1.00  0.00     0.026 A 
ATOM     10  C   UNL     1      -0.014  -2.657   3.885  1.00  0.00     0.026 A 
ATOM     11  C   UNL     1      -0.869   0.636   5.207  1.00  0.00     0.016 A 
ATOM     12  C   UNL     1      -1.333  -2.480   5.166  1.00  0.00     0.016 A 
BRANCH   8  13
ATOM     13  N   UNL     1       1.478  -1.184   2.028  1.00  0.00    -0.382 N 
ATOM     14  H   UNL     1       2.462  -1.218   2.001  1.00  0.00     0.160 HD
BRANCH  13  15
ATOM     15  C   UNL     1       0.698  -1.150   0.783  1.00  0.00     0.079 C 
ATOM     16  C   UNL     1       1.280  -0.038  -0.103  1.00  0.00     0.031 C 
BRANCH  15  17
ATOM     17  C   UNL     1      -0.861  -1.039   0.829  1.00  0.00     0.022 C 
ATOM     18  C   UNL     1      -1.509   0.246   1.359  1.00  0.00     0.067 C 
ATOM     19  C   UNL     1      -1.553  -2.242   1.454  1.00  0.00     0.067 C 
ATOM     20  C   UNL     1      -1.680   0.365   2.891  1.00  0.00     0.262 C 
ATOM     21  C   UNL     1      -2.062  -1.973   2.879  1.00  0.00     0.262 C 
ATOM     22  N   UNL     1      -1.217  -0.899   3.737  1.00  0.00    -0.337 N 
ATOM     23  C   UNL     1       0.216  -1.130   5.234  1.00  0.00     0.332 C 
ATOM     24  H   UNL     1      -0.866  -0.949   4.694  1.00  0.00     0.347 HD
ENDBRANCH  15  17
ENDBRANCH  13  15
ENDBRANCH   8  13
ENDBRANCH   4   7
ENDBRANCH   2   3
ENDBRANCH   1   2
BRANCH   1  25
ATOM     25  C   UNL     1      -5.559  -3.749   7.321  1.00  0.00     0.118 C 
BRANCH  25  26
ATOM     26  N   UNL     1      -6.939  -3.545   6.910  1.00  0.00    -0.352 N 
ATOM     27  C   UNL     1      -7.988  -4.427   6.918  1.00  0.00     0.251 C 
ATOM     28  H   UNL     1      -7.150  -2.642   6.577  1.00  0.00     0.163 HD
ATOM     29  O   UNL     1      -9.012  -4.156   6.296  1.00  0.00    -0.269 OA
BRANCH  27  30
ATOM     30  C   UNL     1      -7.880  -5.697   7.666  1.00  0.00     0.039 A 
ATOM     31  C   UNL     1      -8.445  -6.853   7.126  1.00  0.00     0.014 A 
ATOM     32  C   UNL     1      -7.243  -5.741   8.911  1.00  0.00     0.014 A 
ATOM     33  C   UNL     1      -8.340  -8.058   7.821  1.00  0.00     0.010 A 
ATOM     34  C   UNL     1      -7.044  -6.960   9.546  1.00  0.00     0.010 A 
ATOM     35  C   UNL     1      -7.618  -8.126   9.024  1.00  0.00    -0.014 A 
BRANCH  35  36
ATOM     36  C   UNL     1      -7.486  -9.402   9.767  1.00  0.00     0.031 A 
ATOM     37  C   UNL     1      -8.060  -9.529  11.153  1.00  0.00     0.074 A 
ATOM     38  C   UNL     1      -6.819 -10.429   9.207  1.00  0.00     0.049 A 
ATOM     39  N   UNL     1      -8.048 -10.557  11.961  1.00  0.00    -0.248 NA
ATOM     40  C   UNL     1      -8.706  -8.333  11.720  1.00  0.00     0.031 C 
ATOM     41  C   UNL     1      -6.174 -10.400   7.892  1.00  0.00     0.029 A 
ATOM     42  N   UNL     1      -6.577 -11.698   9.667  1.00  0.00    -0.354 N 
ATOM     43  C   UNL     1      -8.673 -10.130  13.127  1.00  0.00     0.074 A 
ATOM     44  C   UNL     1      -8.982  -8.730  12.952  1.00  0.00     0.031 C 
ATOM     45  C   UNL     1      -5.653 -11.609   7.632  1.00  0.00     0.029 A 
ATOM     46  C   UNL     1      -5.889 -12.485   8.774  1.00  0.00     0.049 A 
ATOM     47  H   UNL     1      -6.869 -12.015  10.552  1.00  0.00     0.167 HD
ATOM     48  C   UNL     1      -8.992 -10.849  14.231  1.00  0.00     0.037 A 
ATOM     49  C   UNL     1      -5.500 -13.771   8.866  1.00  0.00     0.037 A 
ATOM     50  C   UNL     1      -8.686 -12.247  14.385  1.00  0.00     0.049 A 
ATOM     51  C   UNL     1      -5.851 -14.548  10.105  1.00  0.00     0.074 A 
ATOM     52  C   UNL     1      -9.002 -13.087  15.437  1.00  0.00     0.029 A 
ATOM     53  N   UNL     1      -7.984 -13.009  13.461  1.00  0.00    -0.354 N 
ATOM     54  N   UNL     1      -6.506 -14.150  11.170  1.00  0.00    -0.248 NA
ATOM     55  C   UNL     1      -5.417 -15.950  10.152  1.00  0.00     0.031 C 
ATOM     56  C   UNL     1      -8.443 -14.342  15.175  1.00  0.00     0.029 A 
ATOM     57  C   UNL     1      -7.834 -14.304  13.930  1.00  0.00     0.049 A 
ATOM     58  H   UNL     1      -7.644 -12.679  12.598  1.00  0.00     0.167 HD
ATOM     59  C   UNL     1      -6.591 -15.261  12.002  1.00  0.00     0.074 A 
ATOM     60  C   UNL     1      -5.927 -16.348  11.309  1.00  0.00     0.031 C 
ATOM     61  C   UNL     1      -7.169 -15.373  13.224  1.00  0.00     0.037 A 
BRANCH  48  62
ATOM     62  C   UNL     1      -9.699 -10.126  15.348  1.00  0.00     0.058 A 
ATOM     63  C   UNL     1     -11.004  -9.624  15.198  1.00  0.00     0.135 A 
ATOM     64  C   UNL     1      -9.066  -9.926  16.585  1.00  0.00     0.135 A 
ATOM     65  F   UNL     1     -11.656  -9.773  14.034  1.00  0.00    -0.206 F 
ATOM     66  C   UNL     1     -11.632  -8.906  16.210  1.00  0.00     0.059 A 
ATOM     67  C   UNL     1      -9.689  -9.242  17.626  1.00  0.00     0.059 A 
ATOM     68  F   UNL     1      -7.821 -10.385  16.791  1.00  0.00    -0.206 F 
ATOM     69  C   UNL     1     -10.963  -8.715  17.420  1.00  0.00     0.060 A 
BRANCH  69  70
ATOM     70  S   UNL     1     -11.780  -7.758  18.713  1.00  0.00     0.124 S 
ATOM     71  O   UNL     1     -11.705  -6.406  18.166  1.00  0.00    -0.237 OA
ATOM     72  O   UNL     1     -13.112  -8.353  18.748  1.00  0.00    -0.237 OA
ATOM     73  O   UNL     1     -10.956  -8.003  19.892  1.00  0.00    -0.744 OA
ENDBRANCH  69  70
ENDBRANCH  48  62
BRANCH  49  74
ATOM     74  C   UNL     1      -4.784 -14.406   7.728  1.00  0.00     0.058 A 
ATOM     75  C   UNL     1      -5.413 -15.377   6.935  1.00  0.00     0.135 A 
ATOM     76  C   UNL     1      -3.479 -14.023   7.379  1.00  0.00     0.135 A 
ATOM     77  F   UNL     1      -6.658 -15.780   7.230  1.00  0.00    -0.206 F 
ATOM     78  C   UNL     1      -4.775 -15.950   5.840  1.00  0.00     0.059 A 
ATOM     79  C   UNL     1      -2.830 -14.562   6.272  1.00  0.00     0.059 A 
ATOM     80  F   UNL     1      -2.840 -13.084   8.094  1.00  0.00    -0.206 F 
ATOM     81  C   UNL     1      -3.485 -15.529   5.511  1.00  0.00     0.060 A 
BRANCH  81  82
ATOM     82  S   UNL     1      -2.696 -16.227   4.044  1.00  0.00     0.124 S 
ATOM     83  O   UNL     1      -2.433 -17.595   4.473  1.00  0.00    -0.237 OA
ATOM     84  O   UNL     1      -3.736 -16.062   3.033  1.00  0.00    -0.237 OA
ATOM     85  O   UNL     1      -1.517 -15.384   3.863  1.00  0.00    -0.744 OA
ENDBRANCH  81  82
ENDBRANCH  49  74
BRANCH  61  86
ATOM     86  C   UNL     1      -7.143 -16.727  13.880  1.00  0.00     0.058 A 
ATOM     87  C   UNL     1      -5.960 -17.279  14.395  1.00  0.00     0.135 A 
ATOM     88  C   UNL     1      -8.333 -17.456  14.044  1.00  0.00     0.135 A 
ATOM     89  F   UNL     1      -4.794 -16.628  14.258  1.00  0.00    -0.206 F 
ATOM     90  C   UNL     1      -5.953 -18.518  15.027  1.00  0.00     0.059 A 
ATOM     91  C   UNL     1      -8.355 -18.681  14.703  1.00  0.00     0.059 A 
ATOM     92  F   UNL     1      -9.495 -16.968  13.581  1.00  0.00    -0.206 F 
ATOM     93  C   UNL     1      -7.157 -19.209  15.180  1.00  0.00     0.060 A 
BRANCH  93  94
ATOM     94  S   UNL     1      -7.138 -20.799  16.035  1.00  0.00     0.124 S 
ATOM     95  O   UNL     1      -6.489 -21.656  15.049  1.00  0.00    -0.237 OA
ATOM     96  O   UNL     1      -6.354 -20.500  17.230  1.00  0.00    -0.237 OA
ATOM     97  O   UNL     1      -8.552 -21.075  16.273  1.00  0.00    -0.744 OA
ENDBRANCH  93  94
ENDBRANCH  61  86
ENDBRANCH  35  36
ENDBRANCH  27  30
ENDBRANCH  25  26
ENDBRANCH   1  25
TORSDOF 16
