REMARK SMILES Cc1nsc(NC(=O)[C@@H]2C=C[C@@H]([NH3+])C2)c1C(=O)NCCCNC(=O)c1ccc(-c2c3nc(c(-c4c(F)cc(S(=O)(=O)[O-])cc4F)c4ccc([nH]4)c(-c4c(F)cc(S(=O)(=O)[O-])cc4F)c4nc(c(-c5c(F)cc(S(=O)(=O)[O-])cc5F)c5ccc2[nH]5)C=C4)C=C3)cc1
REMARK SMILES IDX 20 1 19 2 18 3 16 4 17 5 15 7 1 8 2 9 3 10 4 11 5 12 6 13
REMARK SMILES IDX 7 14 8 16 9 17 10 18 14 19 11 20 12 21 13 22 21 26 22 27
REMARK SMILES IDX 23 28 24 30 25 31 26 32 90 33 27 34 89 35 28 36 29 37 30 38
REMARK SMILES IDX 83 39 31 40 88 41 82 42 84 43 32 44 87 45 81 46 80 47 33 49
REMARK SMILES IDX 67 50 46 51 66 52 47 53 50 54 65 55 85 56 48 57 49 58 64 60
REMARK SMILES IDX 86 61 51 62 34 63 35 64 44 65 36 66 37 67 43 68 45 69 38 70
REMARK SMILES IDX 39 71 40 72 41 73 42 74 68 75 69 76 78 77 70 78 71 79 77 80
REMARK SMILES IDX 79 81 72 82 73 83 74 84 75 85 76 86 52 87 53 88 62 89 54 90
REMARK SMILES IDX 55 91 61 92 63 93 56 94 57 95 58 96 59 97 60 98
REMARK H PARENT 18 6 6 15 13 23 13 24 13 25 22 29 84 48 50 59
REMARK Flexibility Score: inf
ROOT
ATOM      1  C   UNL     1       4.388  -0.423   6.120  1.00  0.00     0.042 C 
ENDROOT
BRANCH   1   2
ATOM      2  C   UNL     1       3.243   0.045   7.018  1.00  0.00     0.118 C 
BRANCH   2   3
ATOM      3  N   UNL     1       3.107   1.477   7.142  1.00  0.00    -0.352 N 
ATOM      4  C   UNL     1       2.475   2.444   6.411  1.00  0.00     0.256 C 
ATOM      5  O   UNL     1       2.335   3.518   7.008  1.00  0.00    -0.269 OA
ATOM      6  H   UNL     1       3.574   1.838   7.929  1.00  0.00     0.163 HD
BRANCH   4   7
ATOM      7  C   UNL     1       2.091   2.333   4.999  1.00  0.00     0.097 A 
ATOM      8  C   UNL     1       1.580  -0.197   4.311  1.00  0.00     0.069 C 
ATOM      9  C   UNL     1       1.858   1.242   4.064  1.00  0.00     0.066 A 
ATOM     10  N   UNL     1       1.799   1.584   2.770  1.00  0.00    -0.195 NA
ATOM     11  S   UNL     1       1.788   3.224   2.651  1.00  0.00    -0.017 S 
ATOM     12  C   UNL     1       1.677   3.487   4.324  1.00  0.00     0.129 A 
BRANCH  12  13
ATOM     13  N   UNL     1       1.343   4.720   4.845  1.00  0.00    -0.315 N 
ATOM     14  C   UNL     1       0.351   5.587   4.465  1.00  0.00     0.232 C 
ATOM     15  H   UNL     1       1.897   5.021   5.601  1.00  0.00     0.170 HD
ATOM     16  O   UNL     1       0.258   6.647   5.097  1.00  0.00    -0.274 OA
BRANCH  14  17
ATOM     17  C   UNL     1      -0.626   5.274   3.312  1.00  0.00     0.107 C 
ATOM     18  C   UNL     1      -1.819   6.201   3.311  1.00  0.00    -0.012 C 
ATOM     19  C   UNL     1      -1.331   3.905   3.369  1.00  0.00     0.087 C 
ATOM     20  C   UNL     1      -2.963   5.578   3.619  1.00  0.00     0.033 C 
ATOM     21  C   UNL     1      -2.739   4.141   3.917  1.00  0.00     0.205 C 
BRANCH  21  22
ATOM     22  N   UNL     1      -3.697   3.260   3.275  1.00  0.00    -0.352 N 
ATOM     23  H   UNL     1      -3.659   3.396   2.264  1.00  0.00     0.345 HD
ATOM     24  H   UNL     1      -4.635   3.474   3.612  1.00  0.00     0.345 HD
ATOM     25  H   UNL     1      -3.469   2.290   3.495  1.00  0.00     0.345 HD
ENDBRANCH  21  22
ENDBRANCH  14  17
ENDBRANCH  12  13
ENDBRANCH   4   7
ENDBRANCH   2   3
ENDBRANCH   1   2
BRANCH   1  26
ATOM     26  C   UNL     1       5.636  -0.750   6.917  1.00  0.00     0.118 C 
BRANCH  26  27
ATOM     27  N   UNL     1       5.418  -1.882   7.833  1.00  0.00    -0.352 N 
ATOM     28  C   UNL     1       6.226  -2.353   8.859  1.00  0.00     0.251 C 
ATOM     29  H   UNL     1       4.578  -2.377   7.698  1.00  0.00     0.163 HD
ATOM     30  O   UNL     1       6.069  -3.467   9.316  1.00  0.00    -0.269 OA
BRANCH  28  31
ATOM     31  C   UNL     1       7.277  -1.454   9.364  1.00  0.00     0.039 A 
ATOM     32  C   UNL     1       8.575  -1.898   9.615  1.00  0.00     0.014 A 
ATOM     33  C   UNL     1       6.949  -0.109   9.454  1.00  0.00     0.014 A 
ATOM     34  C   UNL     1       9.558  -0.941   9.849  1.00  0.00     0.010 A 
ATOM     35  C   UNL     1       7.950   0.817   9.406  1.00  0.00     0.010 A 
ATOM     36  C   UNL     1       9.242   0.423   9.696  1.00  0.00    -0.014 A 
BRANCH  36  37
ATOM     37  C   UNL     1      10.266   1.457   9.735  1.00  0.00     0.031 A 
ATOM     38  C   UNL     1      11.424   1.169   8.860  1.00  0.00     0.074 A 
ATOM     39  C   UNL     1      10.119   2.645  10.365  1.00  0.00     0.049 A 
ATOM     40  N   UNL     1      12.506   0.552   9.202  1.00  0.00    -0.248 NA
ATOM     41  C   UNL     1      11.293   1.365   7.408  1.00  0.00     0.031 C 
ATOM     42  C   UNL     1       8.912   3.220  10.979  1.00  0.00     0.029 A 
ATOM     43  N   UNL     1      11.036   3.637  10.540  1.00  0.00    -0.354 N 
ATOM     44  C   UNL     1      13.320   0.591   8.079  1.00  0.00     0.074 A 
ATOM     45  C   UNL     1      12.442   0.840   6.967  1.00  0.00     0.031 C 
ATOM     46  C   UNL     1       9.111   4.527  11.256  1.00  0.00     0.029 A 
ATOM     47  C   UNL     1      10.514   4.825  11.041  1.00  0.00     0.049 A 
ATOM     48  H   UNL     1      11.991   3.522  10.329  1.00  0.00     0.167 HD
ATOM     49  C   UNL     1      14.664   0.767   8.223  1.00  0.00     0.037 A 
ATOM     50  C   UNL     1      11.196   5.962  11.323  1.00  0.00     0.037 A 
ATOM     51  C   UNL     1      15.026   0.675   9.620  1.00  0.00     0.049 A 
ATOM     52  C   UNL     1      12.601   5.557  11.569  1.00  0.00     0.074 A 
ATOM     53  C   UNL     1      15.137  -0.320  10.566  1.00  0.00     0.029 A 
ATOM     54  N   UNL     1      14.905   1.867  10.289  1.00  0.00    -0.354 N 
ATOM     55  N   UNL     1      12.961   4.795  12.568  1.00  0.00    -0.248 NA
ATOM     56  C   UNL     1      13.572   5.668  10.488  1.00  0.00     0.031 C 
ATOM     57  C   UNL     1      14.890   0.304  11.826  1.00  0.00     0.029 A 
ATOM     58  C   UNL     1      14.694   1.670  11.627  1.00  0.00     0.049 A 
ATOM     59  H   UNL     1      14.964   2.752   9.861  1.00  0.00     0.167 HD
ATOM     60  C   UNL     1      13.977   4.011  12.055  1.00  0.00     0.074 A 
ATOM     61  C   UNL     1      14.421   4.701  10.849  1.00  0.00     0.031 C 
ATOM     62  C   UNL     1      14.148   2.720  12.465  1.00  0.00     0.037 A 
BRANCH  49  63
ATOM     63  C   UNL     1      15.567   1.506   7.257  1.00  0.00     0.058 A 
ATOM     64  C   UNL     1      16.961   1.490   7.482  1.00  0.00     0.135 A 
ATOM     65  C   UNL     1      15.119   2.455   6.312  1.00  0.00     0.135 A 
ATOM     66  F   UNL     1      17.499   0.637   8.370  1.00  0.00    -0.206 F 
ATOM     67  C   UNL     1      17.833   2.384   6.860  1.00  0.00     0.059 A 
ATOM     68  C   UNL     1      15.977   3.321   5.643  1.00  0.00     0.059 A 
ATOM     69  F   UNL     1      13.822   2.659   6.059  1.00  0.00    -0.206 F 
ATOM     70  C   UNL     1      17.328   3.303   5.946  1.00  0.00     0.060 A 
BRANCH  70  71
ATOM     71  S   UNL     1      18.439   4.494   5.179  1.00  0.00     0.124 S 
ATOM     72  O   UNL     1      18.793   5.339   6.314  1.00  0.00    -0.237 OA
ATOM     73  O   UNL     1      19.497   3.630   4.667  1.00  0.00    -0.237 OA
ATOM     74  O   UNL     1      17.604   5.122   4.159  1.00  0.00    -0.744 OA
ENDBRANCH  70  71
ENDBRANCH  49  63
BRANCH  50  75
ATOM     75  C   UNL     1      10.793   7.369  11.076  1.00  0.00     0.058 A 
ATOM     76  C   UNL     1      11.512   8.441  11.635  1.00  0.00     0.135 A 
ATOM     77  C   UNL     1       9.896   7.694  10.038  1.00  0.00     0.135 A 
ATOM     78  F   UNL     1      12.392   8.218  12.623  1.00  0.00    -0.206 F 
ATOM     79  C   UNL     1      11.404   9.747  11.146  1.00  0.00     0.059 A 
ATOM     80  C   UNL     1       9.771   8.989   9.536  1.00  0.00     0.059 A 
ATOM     81  F   UNL     1       9.188   6.737   9.418  1.00  0.00    -0.206 F 
ATOM     82  C   UNL     1      10.550  10.007  10.075  1.00  0.00     0.060 A 
BRANCH  82  83
ATOM     83  S   UNL     1      10.555  11.650   9.316  1.00  0.00     0.124 S 
ATOM     84  O   UNL     1       9.934  12.464  10.355  1.00  0.00    -0.237 OA
ATOM     85  O   UNL     1      11.978  11.882   9.091  1.00  0.00    -0.237 OA
ATOM     86  O   UNL     1       9.758  11.466   8.106  1.00  0.00    -0.744 OA
ENDBRANCH  82  83
ENDBRANCH  50  75
BRANCH  62  87
ATOM     87  C   UNL     1      13.642   2.343  13.828  1.00  0.00     0.058 A 
ATOM     88  C   UNL     1      12.292   2.265  14.209  1.00  0.00     0.135 A 
ATOM     89  C   UNL     1      14.601   1.951  14.775  1.00  0.00     0.135 A 
ATOM     90  F   UNL     1      11.312   2.552  13.341  1.00  0.00    -0.206 F 
ATOM     91  C   UNL     1      11.918   1.842  15.488  1.00  0.00     0.059 A 
ATOM     92  C   UNL     1      14.251   1.499  16.041  1.00  0.00     0.059 A 
ATOM     93  F   UNL     1      15.906   1.965  14.455  1.00  0.00    -0.206 F 
ATOM     94  C   UNL     1      12.907   1.458  16.397  1.00  0.00     0.060 A 
BRANCH  94  95
ATOM     95  S   UNL     1      12.428   0.854  18.030  1.00  0.00     0.124 S 
ATOM     96  O   UNL     1      11.924   2.065  18.670  1.00  0.00    -0.237 OA
ATOM     97  O   UNL     1      11.426  -0.159  17.711  1.00  0.00    -0.237 OA
ATOM     98  O   UNL     1      13.676   0.332  18.581  1.00  0.00    -0.744 OA
ENDBRANCH  94  95
ENDBRANCH  62  87
ENDBRANCH  36  37
ENDBRANCH  28  31
ENDBRANCH  26  27
ENDBRANCH   1  26
TORSDOF 16
