REMARK SMILES COc1cc(/C=N/NC(N)=O)ccc1OCc1cccc(C(=O)NCCCNC(=O)c2ccc(-c3c4nc(c(-c5c(F)cc(S(=O)(=O)[O-])cc5F)c5ccc([nH]5)c(-c5c(F)cc(S(=O)(=O)[O-])cc5F)c5nc(c(-c6c(F)cc(S(=O)(=O)[O-])cc6F)c6ccc3[nH]6)C=C5)C=C4)cc2)c1
REMARK SMILES IDX 25 1 24 2 22 3 23 4 21 6 17 7 18 8 97 9 19 10 20 11 16 12
REMARK SMILES IDX 15 13 14 14 3 15 4 16 5 17 13 18 12 19 2 20 1 21 6 22 7 23
REMARK SMILES IDX 8 24 9 25 10 27 11 28 26 31 27 32 28 33 29 34 30 36 31 37
REMARK SMILES IDX 32 38 96 39 33 40 95 41 34 42 35 43 36 44 89 45 37 46 94 47
REMARK SMILES IDX 88 48 90 49 38 50 93 51 87 52 86 53 39 55 73 56 52 57 72 58
REMARK SMILES IDX 53 59 56 60 71 61 91 62 54 63 55 64 70 66 92 67 57 68 40 69
REMARK SMILES IDX 41 70 50 71 42 72 43 73 49 74 51 75 44 76 45 77 46 78 47 79
REMARK SMILES IDX 48 80 74 81 75 82 84 83 76 84 77 85 83 86 85 87 78 88 79 89
REMARK SMILES IDX 80 90 81 91 82 92 58 93 59 94 68 95 60 96 61 97 67 98 69 99
REMARK SMILES IDX 62 100 63 101 64 102 65 103 66 104
REMARK H PARENT 24 5 8 26 10 29 10 30 28 35 90 54 56 65
REMARK Flexibility Score: inf
ROOT
ATOM      1  C   UNL     1       3.473  -4.917  -0.206  1.00  0.00     0.118 C 
ENDROOT
BRANCH   1   2
ATOM      2  N   UNL     1       2.142  -5.499  -0.122  1.00  0.00    -0.352 N 
ATOM      3  C   UNL     1       0.898  -4.919  -0.179  1.00  0.00     0.251 C 
ATOM      4  O   UNL     1      -0.094  -5.643  -0.134  1.00  0.00    -0.269 OA
ATOM      5  H   UNL     1       2.131  -6.476  -0.003  1.00  0.00     0.163 HD
BRANCH   3   6
ATOM      6  C   UNL     1       0.734  -3.459  -0.398  1.00  0.00     0.040 A 
ATOM      7  C   UNL     1       1.575  -1.174  -0.310  1.00  0.00    -0.010 A 
ATOM      8  C   UNL     1       0.565  -0.792  -1.202  1.00  0.00     0.007 A 
ATOM      9  C   UNL     1       1.615  -2.506   0.116  1.00  0.00     0.021 A 
ATOM     10  C   UNL     1      -0.413  -1.705  -1.603  1.00  0.00     0.001 A 
ATOM     11  C   UNL     1      -0.324  -3.039  -1.209  1.00  0.00     0.014 A 
BRANCH   7  12
ATOM     12  C   UNL     1       2.667  -0.208   0.112  1.00  0.00     0.265 C 
BRANCH  12  13
ATOM     13  O   UNL     1       3.154  -0.381   1.450  1.00  0.00    -0.485 OA
BRANCH  13  14
ATOM     14  C   UNL     1       2.273  -0.231   2.490  1.00  0.00     0.161 A 
ATOM     15  C   UNL     1       1.146   0.603   2.518  1.00  0.00     0.161 A 
ATOM     16  C   UNL     1       0.297   0.587   3.631  1.00  0.00     0.060 A 
ATOM     17  C   UNL     1       0.596  -0.227   4.732  1.00  0.00    -0.002 A 
ATOM     18  C   UNL     1       2.581  -1.012   3.612  1.00  0.00     0.051 A 
ATOM     19  C   UNL     1       1.749  -1.012   4.734  1.00  0.00     0.014 A 
BRANCH  15  20
ATOM     20  O   UNL     1       0.980   1.526   1.521  1.00  0.00    -0.493 OA
ATOM     21  C   UNL     1      -0.336   1.589   0.986  1.00  0.00     0.278 C 
ENDBRANCH  15  20
BRANCH  17  22
ATOM     22  C   UNL     1      -0.270  -0.223   5.933  1.00  0.00     0.141 C 
ATOM     23  N   UNL     1      -1.411   0.390   5.929  1.00  0.00    -0.179 NA
BRANCH  23  24
ATOM     24  N   UNL     1      -2.152   0.453   7.079  1.00  0.00    -0.229 N 
ATOM     25  C   UNL     1      -1.727   0.282   8.378  1.00  0.00     0.332 C 
ATOM     26  H   UNL     1      -3.110   0.645   6.962  1.00  0.00     0.195 HD
ATOM     27  N   UNL     1      -2.702   0.563   9.288  1.00  0.00    -0.350 N 
ATOM     28  O   UNL     1      -0.619  -0.064   8.772  1.00  0.00    -0.247 OA
ATOM     29  H   UNL     1      -3.595   0.842   8.982  1.00  0.00     0.161 HD
ATOM     30  H   UNL     1      -2.513   0.488  10.252  1.00  0.00     0.161 HD
ENDBRANCH  23  24
ENDBRANCH  17  22
ENDBRANCH  13  14
ENDBRANCH  12  13
ENDBRANCH   7  12
ENDBRANCH   3   6
ENDBRANCH   1   2
BRANCH   1  31
ATOM     31  C   UNL     1       4.094  -4.785   1.182  1.00  0.00     0.042 C 
BRANCH  31  32
ATOM     32  C   UNL     1       4.597  -6.116   1.721  1.00  0.00     0.118 C 
BRANCH  32  33
ATOM     33  N   UNL     1       5.722  -6.612   0.940  1.00  0.00    -0.352 N 
ATOM     34  C   UNL     1       7.002  -6.898   1.337  1.00  0.00     0.251 C 
ATOM     35  H   UNL     1       5.535  -6.766  -0.014  1.00  0.00     0.163 HD
ATOM     36  O   UNL     1       7.880  -7.032   0.489  1.00  0.00    -0.269 OA
BRANCH  34  37
ATOM     37  C   UNL     1       7.317  -7.043   2.772  1.00  0.00     0.039 A 
ATOM     38  C   UNL     1       8.541  -6.568   3.248  1.00  0.00     0.014 A 
ATOM     39  C   UNL     1       6.424  -7.680   3.639  1.00  0.00     0.014 A 
ATOM     40  C   UNL     1       8.850  -6.698   4.601  1.00  0.00     0.010 A 
ATOM     41  C   UNL     1       6.692  -7.723   5.002  1.00  0.00     0.010 A 
ATOM     42  C   UNL     1       7.916  -7.251   5.494  1.00  0.00    -0.014 A 
BRANCH  42  43
ATOM     43  C   UNL     1       8.211  -7.361   6.943  1.00  0.00     0.031 A 
ATOM     44  C   UNL     1       8.273  -8.714   7.599  1.00  0.00     0.074 A 
ATOM     45  C   UNL     1       8.367  -6.238   7.671  1.00  0.00     0.049 A 
ATOM     46  N   UNL     1       8.464  -9.012   8.857  1.00  0.00    -0.248 NA
ATOM     47  C   UNL     1       8.062  -9.886   6.732  1.00  0.00     0.031 C 
ATOM     48  C   UNL     1       8.272  -4.872   7.150  1.00  0.00     0.029 A 
ATOM     49  N   UNL     1       8.631  -6.065   9.005  1.00  0.00    -0.354 N 
ATOM     50  C   UNL     1       8.387 -10.398   8.934  1.00  0.00     0.074 A 
ATOM     51  C   UNL     1       8.065 -10.878   7.609  1.00  0.00     0.031 C 
ATOM     52  C   UNL     1       8.505  -4.004   8.146  1.00  0.00     0.029 A 
ATOM     53  C   UNL     1       8.722  -4.747   9.383  1.00  0.00     0.049 A 
ATOM     54  H   UNL     1       8.744  -6.815   9.634  1.00  0.00     0.167 HD
ATOM     55  C   UNL     1       8.595 -11.199  10.006  1.00  0.00     0.037 A 
ATOM     56  C   UNL     1       8.949  -4.199  10.592  1.00  0.00     0.037 A 
ATOM     57  C   UNL     1       8.933 -10.707  11.316  1.00  0.00     0.049 A 
ATOM     58  C   UNL     1       9.174  -5.108  11.769  1.00  0.00     0.074 A 
ATOM     59  C   UNL     1       9.213 -11.431  12.461  1.00  0.00     0.029 A 
ATOM     60  N   UNL     1       9.035  -9.365  11.656  1.00  0.00    -0.354 N 
ATOM     61  N   UNL     1       9.161  -6.420  11.812  1.00  0.00    -0.248 NA
ATOM     62  C   UNL     1       9.455  -4.466  13.059  1.00  0.00     0.031 C 
ATOM     63  C   UNL     1       9.433 -10.527  13.505  1.00  0.00     0.029 A 
ATOM     64  C   UNL     1       9.353  -9.239  12.999  1.00  0.00     0.049 A 
ATOM     65  H   UNL     1       8.901  -8.613  11.035  1.00  0.00     0.167 HD
ATOM     66  C   UNL     1       9.458  -6.760  13.127  1.00  0.00     0.074 A 
ATOM     67  C   UNL     1       9.662  -5.516  13.841  1.00  0.00     0.031 C 
ATOM     68  C   UNL     1       9.555  -7.990  13.691  1.00  0.00     0.037 A 
BRANCH  55  69
ATOM     69  C   UNL     1       8.469 -12.686   9.803  1.00  0.00     0.058 A 
ATOM     70  C   UNL     1       9.390 -13.406   9.024  1.00  0.00     0.135 A 
ATOM     71  C   UNL     1       7.434 -13.408  10.420  1.00  0.00     0.135 A 
ATOM     72  F   UNL     1      10.391 -12.768   8.397  1.00  0.00    -0.206 F 
ATOM     73  C   UNL     1       9.272 -14.780   8.838  1.00  0.00     0.059 A 
ATOM     74  C   UNL     1       7.315 -14.788  10.274  1.00  0.00     0.059 A 
ATOM     75  F   UNL     1       6.523 -12.773  11.174  1.00  0.00    -0.206 F 
ATOM     76  C   UNL     1       8.232 -15.463   9.469  1.00  0.00     0.060 A 
BRANCH  76  77
ATOM     77  S   UNL     1       8.100 -17.246   9.224  1.00  0.00     0.124 S 
ATOM     78  O   UNL     1       7.663 -17.317   7.833  1.00  0.00    -0.237 OA
ATOM     79  O   UNL     1       9.464 -17.697   9.482  1.00  0.00    -0.237 OA
ATOM     80  O   UNL     1       7.109 -17.655  10.214  1.00  0.00    -0.744 OA
ENDBRANCH  76  77
ENDBRANCH  55  69
BRANCH  56  81
ATOM     81  C   UNL     1       9.001  -2.719  10.737  1.00  0.00     0.058 A 
ATOM     82  C   UNL     1      10.209  -2.062  11.014  1.00  0.00     0.135 A 
ATOM     83  C   UNL     1       7.851  -1.930  10.575  1.00  0.00     0.135 A 
ATOM     84  F   UNL     1      11.336  -2.771  11.180  1.00  0.00    -0.206 F 
ATOM     85  C   UNL     1      10.274  -0.678  11.143  1.00  0.00     0.059 A 
ATOM     86  C   UNL     1       7.896  -0.542  10.671  1.00  0.00     0.059 A 
ATOM     87  F   UNL     1       6.674  -2.507  10.289  1.00  0.00    -0.206 F 
ATOM     88  C   UNL     1       9.112   0.074  10.965  1.00  0.00     0.060 A 
BRANCH  88  89
ATOM     89  S   UNL     1       9.221   1.873  11.083  1.00  0.00     0.124 S 
ATOM     90  O   UNL     1       9.431   2.061  12.514  1.00  0.00    -0.237 OA
ATOM     91  O   UNL     1      10.365   2.166  10.226  1.00  0.00    -0.237 OA
ATOM     92  O   UNL     1       7.931   2.322  10.569  1.00  0.00    -0.744 OA
ENDBRANCH  88  89
ENDBRANCH  56  81
BRANCH  68  93
ATOM     93  C   UNL     1       9.933  -8.053  15.146  1.00  0.00     0.058 A 
ATOM     94  C   UNL     1       9.047  -7.656  16.160  1.00  0.00     0.135 A 
ATOM     95  C   UNL     1      11.184  -8.563  15.531  1.00  0.00     0.135 A 
ATOM     96  F   UNL     1       7.841  -7.157  15.847  1.00  0.00    -0.206 F 
ATOM     97  C   UNL     1       9.400  -7.734  17.503  1.00  0.00     0.059 A 
ATOM     98  C   UNL     1      11.545  -8.681  16.869  1.00  0.00     0.059 A 
ATOM     99  F   UNL     1      12.065  -8.969  14.602  1.00  0.00    -0.206 F 
ATOM    100  C   UNL     1      10.651  -8.250  17.848  1.00  0.00     0.060 A 
BRANCH 100 101
ATOM    101  S   UNL     1      11.085  -8.370  19.596  1.00  0.00     0.124 S 
ATOM    102  O   UNL     1      11.303  -6.969  19.941  1.00  0.00    -0.237 OA
ATOM    103  O   UNL     1       9.893  -8.986  20.171  1.00  0.00    -0.237 OA
ATOM    104  O   UNL     1      12.278  -9.210  19.594  1.00  0.00    -0.744 OA
ENDBRANCH 100 101
ENDBRANCH  68  93
ENDBRANCH  42  43
ENDBRANCH  34  37
ENDBRANCH  32  33
ENDBRANCH  31  32
ENDBRANCH   1  31
TORSDOF 19
