REMARK SMILES Cc1nsc(NC(=O)[C@H]2Cc3[nH]cnc3C[NH2+]2)c1C(=O)NCCCNC(=O)c1ccc(-c2c3nc(c(-c4c(F)cc(S(=O)(=O)[O-])cc4F)c4ccc([nH]4)c(-c4c(F)cc(S(=O)(=O)[O-])cc4F)c4nc(c(-c5c(F)cc(S(=O)(=O)[O-])cc5F)c5ccc2[nH]5)C=C4)C=C3)cc1
REMARK SMILES IDX 23 1 22 2 21 3 19 4 20 5 18 7 1 8 2 9 3 10 4 11 5 12 6 13
REMARK SMILES IDX 7 14 8 16 9 17 10 18 17 19 11 20 16 21 12 24 15 25 13 26
REMARK SMILES IDX 14 28 24 29 25 30 26 31 27 33 28 34 29 35 93 36 30 37 92 38
REMARK SMILES IDX 31 39 32 40 33 41 86 42 34 43 91 44 85 45 87 46 35 47 90 48
REMARK SMILES IDX 84 49 83 50 36 52 70 53 49 54 69 55 50 56 53 57 68 58 88 59
REMARK SMILES IDX 51 60 52 61 67 63 89 64 54 65 37 66 38 67 47 68 39 69 40 70
REMARK SMILES IDX 46 71 48 72 41 73 42 74 43 75 44 76 45 77 71 78 72 79 81 80
REMARK SMILES IDX 73 81 74 82 80 83 82 84 75 85 76 86 77 87 78 88 79 89 55 90
REMARK SMILES IDX 56 91 65 92 57 93 58 94 64 95 66 96 59 97 60 98 61 99 62 100
REMARK SMILES IDX 63 101
REMARK H PARENT 21 6 6 15 17 22 17 23 12 27 25 32 87 51 53 62
REMARK Flexibility Score: inf
ROOT
ATOM      1  C   UNL     1       2.358   0.082   1.794  1.00  0.00     0.042 C 
ENDROOT
BRANCH   1   2
ATOM      2  C   UNL     1       1.264   1.136   1.977  1.00  0.00     0.118 C 
BRANCH   2   3
ATOM      3  N   UNL     1       1.575   2.355   1.273  1.00  0.00    -0.352 N 
ATOM      4  C   UNL     1       1.336   2.801   0.004  1.00  0.00     0.256 C 
ATOM      5  O   UNL     1       1.659   3.981  -0.179  1.00  0.00    -0.269 OA
ATOM      6  H   UNL     1       2.066   3.006   1.826  1.00  0.00     0.163 HD
BRANCH   4   7
ATOM      7  C   UNL     1       0.720   2.031  -1.093  1.00  0.00     0.097 A 
ATOM      8  C   UNL     1       0.638  -0.646  -0.558  1.00  0.00     0.069 C 
ATOM      9  C   UNL     1       0.409   0.605  -1.320  1.00  0.00     0.066 A 
ATOM     10  N   UNL     1      -0.170   0.318  -2.481  1.00  0.00    -0.195 NA
ATOM     11  S   UNL     1      -0.315   1.655  -3.348  1.00  0.00    -0.017 S 
ATOM     12  C   UNL     1       0.349   2.734  -2.262  1.00  0.00     0.129 A 
BRANCH  12  13
ATOM     13  N   UNL     1       0.497   4.083  -2.563  1.00  0.00    -0.311 N 
ATOM     14  C   UNL     1       0.173   4.892  -3.621  1.00  0.00     0.283 C 
ATOM     15  H   UNL     1       0.945   4.579  -1.840  1.00  0.00     0.171 HD
ATOM     16  O   UNL     1       0.581   6.063  -3.552  1.00  0.00    -0.268 OA
BRANCH  14  17
ATOM     17  C   UNL     1      -0.617   4.482  -4.894  1.00  0.00     0.279 C 
ATOM     18  C   UNL     1       0.304   3.697  -5.892  1.00  0.00     0.131 C 
ATOM     19  N   UNL     1      -1.974   3.954  -4.519  1.00  0.00    -0.331 N 
ATOM     20  C   UNL     1      -0.399   2.487  -6.385  1.00  0.00     0.050 A 
ATOM     21  C   UNL     1      -2.671   3.257  -5.627  1.00  0.00     0.320 C 
ATOM     22  H   UNL     1      -2.552   4.738  -4.217  1.00  0.00     0.347 HD
ATOM     23  H   UNL     1      -1.831   3.267  -3.778  1.00  0.00     0.347 HD
ATOM     24  N   UNL     1       0.139   1.299  -6.788  1.00  0.00    -0.348 N 
ATOM     25  C   UNL     1      -1.749   2.263  -6.247  1.00  0.00     0.116 A 
ATOM     26  C   UNL     1      -0.890   0.392  -6.803  1.00  0.00     0.197 A 
ATOM     27  H   UNL     1       1.080   1.127  -7.021  1.00  0.00     0.167 HD
ATOM     28  N   UNL     1      -2.048   0.954  -6.518  1.00  0.00    -0.236 NA
ENDBRANCH  14  17
ENDBRANCH  12  13
ENDBRANCH   4   7
ENDBRANCH   2   3
ENDBRANCH   1   2
BRANCH   1  29
ATOM     29  C   UNL     1       3.402   0.101   2.885  1.00  0.00     0.118 C 
BRANCH  29  30
ATOM     30  N   UNL     1       2.850  -0.377   4.151  1.00  0.00    -0.352 N 
ATOM     31  C   UNL     1       3.450  -0.380   5.388  1.00  0.00     0.251 C 
ATOM     32  H   UNL     1       1.936  -0.741   4.113  1.00  0.00     0.163 HD
ATOM     33  O   UNL     1       3.046  -1.145   6.267  1.00  0.00    -0.269 OA
BRANCH  31  34
ATOM     34  C   UNL     1       4.584   0.522   5.631  1.00  0.00     0.039 A 
ATOM     35  C   UNL     1       5.692   0.096   6.361  1.00  0.00     0.014 A 
ATOM     36  C   UNL     1       4.555   1.792   5.054  1.00  0.00     0.014 A 
ATOM     37  C   UNL     1       6.805   0.928   6.421  1.00  0.00     0.010 A 
ATOM     38  C   UNL     1       5.710   2.527   4.962  1.00  0.00     0.010 A 
ATOM     39  C   UNL     1       6.826   2.127   5.680  1.00  0.00    -0.014 A 
BRANCH  39  40
ATOM     40  C   UNL     1       8.078   2.862   5.506  1.00  0.00     0.031 A 
ATOM     41  C   UNL     1       9.200   1.979   5.098  1.00  0.00     0.074 A 
ATOM     42  C   UNL     1       8.196   4.210   5.532  1.00  0.00     0.049 A 
ATOM     43  N   UNL     1      10.135   1.524   5.863  1.00  0.00    -0.248 NA
ATOM     44  C   UNL     1       9.157   1.334   3.773  1.00  0.00     0.031 C 
ATOM     45  C   UNL     1       7.128   5.210   5.634  1.00  0.00     0.029 A 
ATOM     46  N   UNL     1       9.307   4.987   5.387  1.00  0.00    -0.354 N 
ATOM     47  C   UNL     1      10.975   0.800   5.028  1.00  0.00     0.074 A 
ATOM     48  C   UNL     1      10.197   0.498   3.856  1.00  0.00     0.031 C 
ATOM     49  C   UNL     1       7.612   6.432   5.316  1.00  0.00     0.029 A 
ATOM     50  C   UNL     1       9.051   6.340   5.156  1.00  0.00     0.049 A 
ATOM     51  H   UNL     1      10.220   4.622   5.441  1.00  0.00     0.167 HD
ATOM     52  C   UNL     1      12.321   0.824   5.236  1.00  0.00     0.037 A 
ATOM     53  C   UNL     1       9.953   7.316   4.860  1.00  0.00     0.037 A 
ATOM     54  C   UNL     1      12.620   1.312   6.566  1.00  0.00     0.049 A 
ATOM     55  C   UNL     1      11.274   6.831   5.332  1.00  0.00     0.074 A 
ATOM     56  C   UNL     1      12.234   0.960   7.847  1.00  0.00     0.029 A 
ATOM     57  N   UNL     1      13.112   2.591   6.663  1.00  0.00    -0.354 N 
ATOM     58  N   UNL     1      11.574   6.661   6.590  1.00  0.00    -0.248 NA
ATOM     59  C   UNL     1      12.097   6.094   4.389  1.00  0.00     0.031 C 
ATOM     60  C   UNL     1      12.073   2.197   8.539  1.00  0.00     0.029 A 
ATOM     61  C   UNL     1      12.462   3.229   7.684  1.00  0.00     0.049 A 
ATOM     62  H   UNL     1      13.814   2.983   6.094  1.00  0.00     0.167 HD
ATOM     63  C   UNL     1      12.280   5.469   6.620  1.00  0.00     0.074 A 
ATOM     64  C   UNL     1      12.657   5.220   5.229  1.00  0.00     0.031 C 
ATOM     65  C   UNL     1      12.234   4.657   7.718  1.00  0.00     0.037 A 
BRANCH  52  66
ATOM     66  C   UNL     1      13.349   0.869   4.122  1.00  0.00     0.058 A 
ATOM     67  C   UNL     1      14.718   0.836   4.466  1.00  0.00     0.135 A 
ATOM     68  C   UNL     1      13.072   1.245   2.788  1.00  0.00     0.135 A 
ATOM     69  F   UNL     1      15.103   0.497   5.707  1.00  0.00    -0.206 F 
ATOM     70  C   UNL     1      15.722   1.236   3.585  1.00  0.00     0.059 A 
ATOM     71  C   UNL     1      14.062   1.594   1.878  1.00  0.00     0.059 A 
ATOM     72  F   UNL     1      11.831   1.386   2.314  1.00  0.00    -0.206 F 
ATOM     73  C   UNL     1      15.380   1.625   2.295  1.00  0.00     0.060 A 
BRANCH  73  74
ATOM     74  S   UNL     1      16.662   2.199   1.172  1.00  0.00     0.124 S 
ATOM     75  O   UNL     1      17.038   3.466   1.788  1.00  0.00    -0.237 OA
ATOM     76  O   UNL     1      17.642   1.122   1.265  1.00  0.00    -0.237 OA
ATOM     77  O   UNL     1      15.966   2.296  -0.107  1.00  0.00    -0.744 OA
ENDBRANCH  73  74
ENDBRANCH  52  66
BRANCH  53  78
ATOM     78  C   UNL     1       9.825   8.491   3.950  1.00  0.00     0.058 A 
ATOM     79  C   UNL     1      10.834   9.475   3.885  1.00  0.00     0.135 A 
ATOM     80  C   UNL     1       8.878   8.516   2.909  1.00  0.00     0.135 A 
ATOM     81  F   UNL     1      11.788   9.528   4.827  1.00  0.00    -0.206 F 
ATOM     82  C   UNL     1      10.940  10.376   2.816  1.00  0.00     0.059 A 
ATOM     83  C   UNL     1       8.958   9.410   1.838  1.00  0.00     0.059 A 
ATOM     84  F   UNL     1       7.896   7.605   2.848  1.00  0.00    -0.206 F 
ATOM     85  C   UNL     1      10.010  10.317   1.781  1.00  0.00     0.060 A 
BRANCH  85  86
ATOM     86  S   UNL     1      10.254  11.335   0.303  1.00  0.00     0.124 S 
ATOM     87  O   UNL     1       9.971  12.674   0.807  1.00  0.00    -0.237 OA
ATOM     88  O   UNL     1      11.646  11.062  -0.036  1.00  0.00    -0.237 OA
ATOM     89  O   UNL     1       9.272  10.802  -0.639  1.00  0.00    -0.744 OA
ENDBRANCH  85  86
ENDBRANCH  53  78
BRANCH  65  90
ATOM     90  C   UNL     1      11.755   5.239   9.023  1.00  0.00     0.058 A 
ATOM     91  C   UNL     1      10.475   5.766   9.269  1.00  0.00     0.135 A 
ATOM     92  C   UNL     1      12.626   5.139  10.121  1.00  0.00     0.135 A 
ATOM     93  F   UNL     1       9.544   5.806   8.304  1.00  0.00    -0.206 F 
ATOM     94  C   UNL     1      10.099   6.218  10.538  1.00  0.00     0.059 A 
ATOM     95  C   UNL     1      12.261   5.548  11.398  1.00  0.00     0.059 A 
ATOM     96  F   UNL     1      13.844   4.594   9.966  1.00  0.00    -0.206 F 
ATOM     97  C   UNL     1      11.002   6.105  11.597  1.00  0.00     0.060 A 
BRANCH  97  98
ATOM     98  S   UNL     1      10.510   6.646  13.248  1.00  0.00     0.124 S 
ATOM     99  O   UNL     1      10.452   8.096  13.091  1.00  0.00    -0.237 OA
ATOM    100  O   UNL     1       9.226   5.976  13.432  1.00  0.00    -0.237 OA
ATOM    101  O   UNL     1      11.587   6.155  14.104  1.00  0.00    -0.744 OA
ENDBRANCH  97  98
ENDBRANCH  65  90
ENDBRANCH  39  40
ENDBRANCH  31  34
ENDBRANCH  29  30
ENDBRANCH   1  29
TORSDOF 15
