REMARK SMILES Cn1cccc1C[NH2+]Cc1ccc(C(=O)NCCCNC(=O)c2ccc(-c3c4nc(c(-c5c(F)cc(S(=O)(=O)[O-])cc5F)c5ccc([nH]5)c(-c5c(F)cc(S(=O)(=O)[O-])cc5F)c5nc(c(-c6c(F)cc(S(=O)(=O)[O-])cc6F)c6ccc3[nH]6)C=C5)C=C4)cc2)cc1
REMARK SMILES IDX 17 1 16 2 14 3 15 4 13 6 10 7 11 8 90 9 12 10 89 11 9 12
REMARK SMILES IDX 8 13 7 16 6 17 1 18 2 19 3 20 4 21 5 22 18 23 19 24 20 25
REMARK SMILES IDX 21 26 22 28 23 29 24 30 88 31 25 32 87 33 26 34 27 35 28 36
REMARK SMILES IDX 81 37 29 38 86 39 80 40 82 41 30 42 85 43 79 44 78 45 31 47
REMARK SMILES IDX 65 48 44 49 64 50 45 51 48 52 63 53 83 54 46 55 47 56 62 58
REMARK SMILES IDX 84 59 49 60 32 61 33 62 42 63 34 64 35 65 41 66 43 67 36 68
REMARK SMILES IDX 37 69 38 70 39 71 40 72 66 73 67 74 76 75 68 76 69 77 75 78
REMARK SMILES IDX 77 79 70 80 71 81 72 82 73 83 74 84 50 85 51 86 60 87 52 88
REMARK SMILES IDX 53 89 59 90 61 91 54 92 55 93 56 94 57 95 58 96
REMARK H PARENT 16 5 8 14 8 15 20 27 82 46 48 57
REMARK Flexibility Score: inf
ROOT
ATOM      1  C   UNL     1       6.445  -2.143   1.088  1.00  0.00     0.118 C 
ENDROOT
BRANCH   1   2
ATOM      2  N   UNL     1       6.861  -3.454   1.560  1.00  0.00    -0.352 N 
ATOM      3  C   UNL     1       6.126  -4.582   1.830  1.00  0.00     0.251 C 
ATOM      4  O   UNL     1       6.712  -5.633   2.079  1.00  0.00    -0.269 OA
ATOM      5  H   UNL     1       7.830  -3.548   1.711  1.00  0.00     0.163 HD
BRANCH   3   6
ATOM      6  C   UNL     1       4.645  -4.574   1.760  1.00  0.00     0.039 A 
ATOM      7  C   UNL     1       1.845  -4.595   1.446  1.00  0.00     0.006 A 
ATOM      8  C   UNL     1       2.624  -5.674   0.999  1.00  0.00     0.010 A 
ATOM      9  C   UNL     1       2.481  -3.560   2.147  1.00  0.00     0.010 A 
ATOM     10  C   UNL     1       4.013  -5.664   1.154  1.00  0.00     0.014 A 
ATOM     11  C   UNL     1       3.869  -3.553   2.306  1.00  0.00     0.014 A 
BRANCH   7  12
ATOM     12  C   UNL     1       0.349  -4.612   1.207  1.00  0.00     0.297 C 
BRANCH  12  13
ATOM     13  N   UNL     1      -0.272  -3.305   1.008  1.00  0.00    -0.338 N 
ATOM     14  H   UNL     1      -1.284  -3.432   0.978  1.00  0.00     0.346 HD
ATOM     15  H   UNL     1       0.026  -2.714   1.784  1.00  0.00     0.346 HD
BRANCH  13  16
ATOM     16  C   UNL     1       0.144  -2.635  -0.219  1.00  0.00     0.316 C 
BRANCH  16  17
ATOM     17  C   UNL     1      -0.280  -1.200  -0.145  1.00  0.00     0.072 A 
ATOM     18  C   UNL     1       2.018  -0.106  -0.058  1.00  0.00     0.149 C 
ATOM     19  N   UNL     1       0.571  -0.116  -0.072  1.00  0.00    -0.350 N 
ATOM     20  C   UNL     1      -0.167   1.042  -0.003  1.00  0.00     0.085 A 
ATOM     21  C   UNL     1      -1.500   0.709  -0.024  1.00  0.00     0.020 A 
ATOM     22  C   UNL     1      -1.572  -0.696  -0.117  1.00  0.00     0.029 A 
ENDBRANCH  16  17
ENDBRANCH  13  16
ENDBRANCH  12  13
ENDBRANCH   7  12
ENDBRANCH   3   6
ENDBRANCH   1   2
BRANCH   1  23
ATOM     23  C   UNL     1       6.519  -1.090   2.192  1.00  0.00     0.042 C 
BRANCH  23  24
ATOM     24  C   UNL     1       7.942  -0.703   2.583  1.00  0.00     0.118 C 
BRANCH  24  25
ATOM     25  N   UNL     1       8.606   0.063   1.542  1.00  0.00    -0.352 N 
ATOM     26  C   UNL     1       9.208   1.295   1.595  1.00  0.00     0.251 C 
ATOM     27  H   UNL     1       8.628  -0.371   0.659  1.00  0.00     0.163 HD
ATOM     28  O   UNL     1       9.516   1.843   0.540  1.00  0.00    -0.269 OA
BRANCH  26  29
ATOM     29  C   UNL     1       9.481   1.971   2.887  1.00  0.00     0.039 A 
ATOM     30  C   UNL     1       9.383   3.366   2.939  1.00  0.00     0.014 A 
ATOM     31  C   UNL     1       9.905   1.268   4.019  1.00  0.00     0.014 A 
ATOM     32  C   UNL     1       9.683   4.047   4.122  1.00  0.00     0.010 A 
ATOM     33  C   UNL     1      10.134   1.942   5.220  1.00  0.00     0.010 A 
ATOM     34  C   UNL     1      10.049   3.340   5.278  1.00  0.00    -0.014 A 
BRANCH  34  35
ATOM     35  C   UNL     1      10.381   4.062   6.535  1.00  0.00     0.031 A 
ATOM     36  C   UNL     1      11.782   4.023   7.087  1.00  0.00     0.074 A 
ATOM     37  C   UNL     1       9.416   4.734   7.193  1.00  0.00     0.049 A 
ATOM     38  N   UNL     1      12.262   4.588   8.166  1.00  0.00    -0.248 NA
ATOM     39  C   UNL     1      12.769   3.225   6.342  1.00  0.00     0.031 C 
ATOM     40  C   UNL     1       8.009   4.802   6.791  1.00  0.00     0.029 A 
ATOM     41  N   UNL     1       9.470   5.488   8.338  1.00  0.00    -0.354 N 
ATOM     42  C   UNL     1      13.597   4.205   8.236  1.00  0.00     0.074 A 
ATOM     43  C   UNL     1      13.838   3.317   7.120  1.00  0.00     0.031 C 
ATOM     44  C   UNL     1       7.341   5.579   7.660  1.00  0.00     0.029 A 
ATOM     45  C   UNL     1       8.264   6.044   8.691  1.00  0.00     0.049 A 
ATOM     46  H   UNL     1      10.296   5.618   8.858  1.00  0.00     0.167 HD
ATOM     47  C   UNL     1      14.542   4.577   9.133  1.00  0.00     0.037 A 
ATOM     48  C   UNL     1       7.940   6.846   9.723  1.00  0.00     0.037 A 
ATOM     49  C   UNL     1      14.306   5.485  10.226  1.00  0.00     0.049 A 
ATOM     50  C   UNL     1       9.015   7.281  10.680  1.00  0.00     0.074 A 
ATOM     51  C   UNL     1      15.207   5.962  11.162  1.00  0.00     0.029 A 
ATOM     52  N   UNL     1      13.079   6.060  10.525  1.00  0.00    -0.354 N 
ATOM     53  N   UNL     1      10.285   6.952  10.698  1.00  0.00    -0.248 NA
ATOM     54  C   UNL     1       8.618   8.212  11.745  1.00  0.00     0.031 C 
ATOM     55  C   UNL     1      14.519   6.804  12.044  1.00  0.00     0.029 A 
ATOM     56  C   UNL     1      13.198   6.883  11.633  1.00  0.00     0.049 A 
ATOM     57  H   UNL     1      12.246   5.906  10.023  1.00  0.00     0.167 HD
ATOM     58  C   UNL     1      10.845   7.658  11.758  1.00  0.00     0.074 A 
ATOM     59  C   UNL     1       9.777   8.440  12.347  1.00  0.00     0.031 C 
ATOM     60  C   UNL     1      12.126   7.659  12.203  1.00  0.00     0.037 A 
BRANCH  47  61
ATOM     61  C   UNL     1      15.924   4.007   8.961  1.00  0.00     0.058 A 
ATOM     62  C   UNL     1      16.758   4.403   7.902  1.00  0.00     0.135 A 
ATOM     63  C   UNL     1      16.431   3.070   9.876  1.00  0.00     0.135 A 
ATOM     64  F   UNL     1      16.318   5.284   6.990  1.00  0.00    -0.206 F 
ATOM     65  C   UNL     1      18.030   3.866   7.737  1.00  0.00     0.059 A 
ATOM     66  C   UNL     1      17.712   2.539   9.745  1.00  0.00     0.059 A 
ATOM     67  F   UNL     1      15.679   2.656  10.908  1.00  0.00    -0.206 F 
ATOM     68  C   UNL     1      18.498   2.932   8.662  1.00  0.00     0.060 A 
BRANCH  68  69
ATOM     69  S   UNL     1      20.150   2.240   8.432  1.00  0.00     0.124 S 
ATOM     70  O   UNL     1      19.923   1.308   7.331  1.00  0.00    -0.237 OA
ATOM     71  O   UNL     1      20.943   3.421   8.108  1.00  0.00    -0.237 OA
ATOM     72  O   UNL     1      20.443   1.626   9.723  1.00  0.00    -0.744 OA
ENDBRANCH  68  69
ENDBRANCH  47  61
BRANCH  48  73
ATOM     73  C   UNL     1       6.542   7.329   9.875  1.00  0.00     0.058 A 
ATOM     74  C   UNL     1       6.207   8.664   9.607  1.00  0.00     0.135 A 
ATOM     75  C   UNL     1       5.513   6.464  10.276  1.00  0.00     0.135 A 
ATOM     76  F   UNL     1       7.159   9.530   9.224  1.00  0.00    -0.206 F 
ATOM     77  C   UNL     1       4.905   9.132   9.746  1.00  0.00     0.059 A 
ATOM     78  C   UNL     1       4.198   6.902  10.400  1.00  0.00     0.059 A 
ATOM     79  F   UNL     1       5.779   5.172  10.526  1.00  0.00    -0.206 F 
ATOM     80  C   UNL     1       3.906   8.241  10.143  1.00  0.00     0.060 A 
BRANCH  80  81
ATOM     81  S   UNL     1       2.208   8.842  10.270  1.00  0.00     0.124 S 
ATOM     82  O   UNL     1       2.256   9.595  11.518  1.00  0.00    -0.237 OA
ATOM     83  O   UNL     1       2.069   9.633   9.051  1.00  0.00    -0.237 OA
ATOM     84  O   UNL     1       1.420   7.613  10.302  1.00  0.00    -0.744 OA
ENDBRANCH  80  81
ENDBRANCH  48  73
BRANCH  60  85
ATOM     85  C   UNL     1      12.447   8.567  13.357  1.00  0.00     0.058 A 
ATOM     86  C   UNL     1      12.017   8.283  14.663  1.00  0.00     0.135 A 
ATOM     87  C   UNL     1      13.204   9.731  13.154  1.00  0.00     0.135 A 
ATOM     88  F   UNL     1      11.287   7.183  14.910  1.00  0.00    -0.206 F 
ATOM     89  C   UNL     1      12.291   9.144  15.721  1.00  0.00     0.059 A 
ATOM     90  C   UNL     1      13.512  10.593  14.201  1.00  0.00     0.059 A 
ATOM     91  F   UNL     1      13.652  10.042  11.927  1.00  0.00    -0.206 F 
ATOM     92  C   UNL     1      13.033  10.301  15.478  1.00  0.00     0.060 A 
BRANCH  92  93
ATOM     93  S   UNL     1      13.379  11.418  16.854  1.00  0.00     0.124 S 
ATOM     94  O   UNL     1      12.105  12.116  16.991  1.00  0.00    -0.237 OA
ATOM     95  O   UNL     1      13.714  10.494  17.933  1.00  0.00    -0.237 OA
ATOM     96  O   UNL     1      14.490  12.226  16.362  1.00  0.00    -0.744 OA
ENDBRANCH  92  93
ENDBRANCH  60  85
ENDBRANCH  34  35
ENDBRANCH  26  29
ENDBRANCH  24  25
ENDBRANCH  23  24
ENDBRANCH   1  23
TORSDOF 17
