REMARK SMILES CC(C)CCc1cc2c(cc1Cl)C=C(C(=O)NCCCNC(=O)c1ccc(-c3c4nc(c(-c5c(F)cc(S(=O)(=O)[O-])cc5F)c5ccc([nH]5)c(-c5c(F)cc(S(=O)(=O)[O-])cc5F)c5nc(c(-c6c(F)cc(S(=O)(=O)[O-])cc6F)c6ccc3[nH]6)C=C5)C=C4)cc1)[C@@H](C(F)(F)F)O2
REMARK SMILES IDX 19 1 18 2 17 3 15 4 16 5 14 7 6 8 7 9 11 10 8 11 10 12 12 13
REMARK SMILES IDX 9 14 95 15 13 16 90 17 5 18 4 19 2 20 1 21 3 22 91 23 92 24
REMARK SMILES IDX 93 25 94 26 20 27 21 28 22 29 23 31 24 32 25 33 89 34 26 35
REMARK SMILES IDX 88 36 27 37 28 38 29 39 82 40 30 41 87 42 81 43 83 44 31 45
REMARK SMILES IDX 86 46 80 47 79 48 32 50 66 51 45 52 65 53 46 54 49 55 64 56
REMARK SMILES IDX 84 57 47 58 48 59 63 61 85 62 50 63 33 64 34 65 43 66 35 67
REMARK SMILES IDX 36 68 42 69 44 70 37 71 38 72 39 73 40 74 41 75 67 76 68 77
REMARK SMILES IDX 77 78 69 79 70 80 76 81 78 82 71 83 72 84 73 85 74 86 75 87
REMARK SMILES IDX 51 88 52 89 61 90 53 91 54 92 60 93 62 94 55 95 56 96 57 97
REMARK SMILES IDX 58 98 59 99
REMARK H PARENT 17 6 21 30 83 49 49 60
REMARK Flexibility Score: inf
ROOT
ATOM      1  C   UNL     1      -1.782  11.002   0.349  1.00  0.00     0.042 C 
ENDROOT
BRANCH   1   2
ATOM      2  C   UNL     1      -2.178  10.395  -0.987  1.00  0.00     0.118 C 
BRANCH   2   3
ATOM      3  N   UNL     1      -1.015  10.080  -1.799  1.00  0.00    -0.352 N 
ATOM      4  C   UNL     1      -0.329   8.969  -2.149  1.00  0.00     0.251 C 
ATOM      5  O   UNL     1       0.650   9.162  -2.877  1.00  0.00    -0.270 OA
ATOM      6  H   UNL     1      -0.623  10.889  -2.201  1.00  0.00     0.163 HD
BRANCH   4   7
ATOM      7  C   UNL     1      -0.685   7.583  -1.741  1.00  0.00     0.067 C 
ATOM      8  C   UNL     1      -1.040   2.568  -1.338  1.00  0.00    -0.026 A 
ATOM      9  C   UNL     1      -1.408   3.658  -0.516  1.00  0.00     0.052 A 
ATOM     10  C   UNL     1      -0.350   2.866  -2.528  1.00  0.00     0.045 A 
ATOM     11  C   UNL     1      -1.082   4.965  -0.863  1.00  0.00     0.128 A 
ATOM     12  C   UNL     1       0.068   4.176  -2.812  1.00  0.00     0.032 A 
ATOM     13  Cl  UNL     1      -0.032   1.723  -3.783  1.00  0.00    -0.084 Cl
ATOM     14  C   UNL     1      -0.300   5.228  -1.982  1.00  0.00     0.019 A 
ATOM     15  O   UNL     1      -1.583   5.975  -0.086  1.00  0.00    -0.475 OA
ATOM     16  C   UNL     1       0.063   6.605  -2.285  1.00  0.00     0.025 C 
ATOM     17  C   UNL     1      -1.821   7.213  -0.826  1.00  0.00     0.314 C 
BRANCH   8  18
ATOM     18  C   UNL     1      -1.530   1.214  -0.859  1.00  0.00     0.037 C 
BRANCH  18  19
ATOM     19  C   UNL     1      -0.877  -0.093  -1.322  1.00  0.00     0.008 C 
BRANCH  19  20
ATOM     20  C   UNL     1       0.637  -0.209  -1.066  1.00  0.00    -0.017 C 
ATOM     21  C   UNL     1       0.956  -0.438   0.410  1.00  0.00     0.007 C 
ATOM     22  C   UNL     1       1.213  -1.349  -1.910  1.00  0.00     0.007 C 
ENDBRANCH  19  20
ENDBRANCH  18  19
ENDBRANCH   8  18
BRANCH  17  23
ATOM     23  C   UNL     1      -3.174   7.144  -1.573  1.00  0.00     0.429 C 
ATOM     24  F   UNL     1      -4.207   7.215  -0.699  1.00  0.00    -0.167 F 
ATOM     25  F   UNL     1      -3.336   8.169  -2.446  1.00  0.00    -0.167 F 
ATOM     26  F   UNL     1      -3.331   6.008  -2.290  1.00  0.00    -0.167 F 
ENDBRANCH  17  23
ENDBRANCH   4   7
ENDBRANCH   2   3
ENDBRANCH   1   2
BRANCH   1  27
ATOM     27  C   UNL     1      -1.330  12.449   0.217  1.00  0.00     0.118 C 
BRANCH  27  28
ATOM     28  N   UNL     1      -2.415  13.326  -0.217  1.00  0.00    -0.352 N 
ATOM     29  C   UNL     1      -3.025  14.372   0.437  1.00  0.00     0.251 C 
ATOM     30  H   UNL     1      -2.764  13.140  -1.119  1.00  0.00     0.163 HD
ATOM     31  O   UNL     1      -4.067  14.839  -0.001  1.00  0.00    -0.269 OA
BRANCH  29  32
ATOM     32  C   UNL     1      -2.420  14.911   1.672  1.00  0.00     0.039 A 
ATOM     33  C   UNL     1      -1.037  15.062   1.762  1.00  0.00     0.014 A 
ATOM     34  C   UNL     1      -3.237  15.257   2.752  1.00  0.00     0.014 A 
ATOM     35  C   UNL     1      -0.460  15.358   2.987  1.00  0.00     0.010 A 
ATOM     36  C   UNL     1      -2.655  15.673   3.953  1.00  0.00     0.010 A 
ATOM     37  C   UNL     1      -1.259  15.679   4.096  1.00  0.00    -0.014 A 
BRANCH  37  38
ATOM     38  C   UNL     1      -0.593  16.010   5.382  1.00  0.00     0.031 A 
ATOM     39  C   UNL     1      -0.797  15.148   6.600  1.00  0.00     0.074 A 
ATOM     40  C   UNL     1       0.284  17.036   5.412  1.00  0.00     0.049 A 
ATOM     41  N   UNL     1      -0.267  15.269   7.790  1.00  0.00    -0.248 NA
ATOM     42  C   UNL     1      -1.713  14.002   6.471  1.00  0.00     0.031 C 
ATOM     43  C   UNL     1       0.582  17.922   4.282  1.00  0.00     0.029 A 
ATOM     44  N   UNL     1       1.123  17.476   6.402  1.00  0.00    -0.354 N 
ATOM     45  C   UNL     1      -0.789  14.229   8.551  1.00  0.00     0.074 A 
ATOM     46  C   UNL     1      -1.707  13.504   7.701  1.00  0.00     0.031 C 
ATOM     47  C   UNL     1       1.598  18.732   4.611  1.00  0.00     0.029 A 
ATOM     48  C   UNL     1       1.966  18.487   6.000  1.00  0.00     0.049 A 
ATOM     49  H   UNL     1       1.123  17.105   7.314  1.00  0.00     0.167 HD
ATOM     50  C   UNL     1      -0.513  13.900   9.835  1.00  0.00     0.037 A 
ATOM     51  C   UNL     1       2.921  19.150   6.676  1.00  0.00     0.037 A 
ATOM     52  C   UNL     1       0.423  14.613  10.665  1.00  0.00     0.049 A 
ATOM     53  C   UNL     1       3.156  18.805   8.118  1.00  0.00     0.074 A 
ATOM     54  C   UNL     1       0.754  14.376  11.988  1.00  0.00     0.029 A 
ATOM     55  N   UNL     1       1.190  15.690  10.248  1.00  0.00    -0.354 N 
ATOM     56  N   UNL     1       2.614  17.848   8.833  1.00  0.00    -0.248 NA
ATOM     57  C   UNL     1       4.111  19.644   8.854  1.00  0.00     0.031 C 
ATOM     58  C   UNL     1       1.702  15.327  12.379  1.00  0.00     0.029 A 
ATOM     59  C   UNL     1       1.988  16.133  11.289  1.00  0.00     0.049 A 
ATOM     60  H   UNL     1       1.171  16.082   9.345  1.00  0.00     0.167 HD
ATOM     61  C   UNL     1       3.169  17.965  10.101  1.00  0.00     0.074 A 
ATOM     62  C   UNL     1       4.105  19.070  10.049  1.00  0.00     0.031 C 
ATOM     63  C   UNL     1       2.919  17.230  11.212  1.00  0.00     0.037 A 
BRANCH  50  64
ATOM     64  C   UNL     1      -1.220  12.713  10.429  1.00  0.00     0.058 A 
ATOM     65  C   UNL     1      -0.863  11.401  10.082  1.00  0.00     0.135 A 
ATOM     66  C   UNL     1      -2.208  12.885  11.412  1.00  0.00     0.135 A 
ATOM     67  F   UNL     1       0.061  11.181   9.133  1.00  0.00    -0.206 F 
ATOM     68  C   UNL     1      -1.464  10.301  10.684  1.00  0.00     0.059 A 
ATOM     69  C   UNL     1      -2.808  11.798  12.043  1.00  0.00     0.059 A 
ATOM     70  F   UNL     1      -2.590  14.119  11.778  1.00  0.00    -0.206 F 
ATOM     71  C   UNL     1      -2.432  10.509  11.668  1.00  0.00     0.060 A 
BRANCH  71  72
ATOM     72  S   UNL     1      -3.176   9.067  12.460  1.00  0.00     0.124 S 
ATOM     73  O   UNL     1      -3.982   8.521  11.372  1.00  0.00    -0.237 OA
ATOM     74  O   UNL     1      -2.006   8.282  12.837  1.00  0.00    -0.237 OA
ATOM     75  O   UNL     1      -3.930   9.639  13.572  1.00  0.00    -0.744 OA
ENDBRANCH  71  72
ENDBRANCH  50  64
BRANCH  51  76
ATOM     76  C   UNL     1       3.715  20.213   6.005  1.00  0.00     0.058 A 
ATOM     77  C   UNL     1       5.087  20.044   5.765  1.00  0.00     0.135 A 
ATOM     78  C   UNL     1       3.123  21.416   5.590  1.00  0.00     0.135 A 
ATOM     79  F   UNL     1       5.700  18.914   6.148  1.00  0.00    -0.206 F 
ATOM     80  C   UNL     1       5.847  21.035   5.154  1.00  0.00     0.059 A 
ATOM     81  C   UNL     1       3.855  22.410   4.950  1.00  0.00     0.059 A 
ATOM     82  F   UNL     1       1.810  21.622   5.782  1.00  0.00    -0.206 F 
ATOM     83  C   UNL     1       5.221  22.216   4.750  1.00  0.00     0.060 A 
BRANCH  83  84
ATOM     84  S   UNL     1       6.209  23.486   3.932  1.00  0.00     0.124 S 
ATOM     85  O   UNL     1       6.975  24.024   5.051  1.00  0.00    -0.237 OA
ATOM     86  O   UNL     1       6.964  22.707   2.956  1.00  0.00    -0.237 OA
ATOM     87  O   UNL     1       5.203  24.381   3.366  1.00  0.00    -0.744 OA
ENDBRANCH  83  84
ENDBRANCH  51  76
BRANCH  63  88
ATOM     88  C   UNL     1       3.677  17.586  12.457  1.00  0.00     0.058 A 
ATOM     89  C   UNL     1       3.343  18.719  13.214  1.00  0.00     0.135 A 
ATOM     90  C   UNL     1       4.699  16.750  12.932  1.00  0.00     0.135 A 
ATOM     91  F   UNL     1       2.379  19.553  12.794  1.00  0.00    -0.206 F 
ATOM     92  C   UNL     1       4.005  19.017  14.399  1.00  0.00     0.059 A 
ATOM     93  C   UNL     1       5.358  17.016  14.127  1.00  0.00     0.059 A 
ATOM     94  F   UNL     1       5.049  15.651  12.245  1.00  0.00    -0.206 F 
ATOM     95  C   UNL     1       5.007  18.155  14.851  1.00  0.00     0.060 A 
BRANCH  95  96
ATOM     96  S   UNL     1       5.818  18.527  16.420  1.00  0.00     0.124 S 
ATOM     97  O   UNL     1       6.641  19.677  16.061  1.00  0.00    -0.237 OA
ATOM     98  O   UNL     1       4.686  18.807  17.297  1.00  0.00    -0.237 OA
ATOM     99  O   UNL     1       6.550  17.301  16.724  1.00  0.00    -0.744 OA
ENDBRANCH  95  96
ENDBRANCH  63  88
ENDBRANCH  37  38
ENDBRANCH  29  32
ENDBRANCH  27  28
ENDBRANCH   1  27
TORSDOF 17
