REMARK SMILES O=C(C[C@@H]1C(=O)NC(=S)N1c1ccccc1)NCCCNC(=O)c1ccc(-c2c3nc(c(-c4c(F)cc(S(=O)(=O)[O-])cc4F)c4ccc([nH]4)c(-c4c(F)cc(S(=O)(=O)[O-])cc4F)c4nc(c(-c5c(F)cc(S(=O)(=O)[O-])cc5F)c5ccc2[nH]5)C=C4)C=C3)cc1
REMARK SMILES IDX 19 1 18 2 17 3 1 4 2 5 3 7 4 8 5 9 10 10 6 11 7 12 8 13 9 15
REMARK SMILES IDX 11 16 12 17 16 18 13 19 15 20 14 21 20 22 21 23 22 24 23 26
REMARK SMILES IDX 24 27 25 28 89 29 26 30 88 31 27 32 28 33 29 34 82 35 30 36
REMARK SMILES IDX 87 37 81 38 83 39 31 40 86 41 80 42 79 43 32 45 66 46 45 47
REMARK SMILES IDX 65 48 46 49 49 50 64 51 84 52 47 53 48 54 63 56 85 57 50 58
REMARK SMILES IDX 33 59 34 60 43 61 35 62 36 63 42 64 44 65 37 66 38 67 39 68
REMARK SMILES IDX 40 69 41 70 67 71 68 72 77 73 69 74 70 75 76 76 78 77 71 78
REMARK SMILES IDX 72 79 73 80 74 81 75 82 51 83 52 84 61 85 53 86 54 87 60 88
REMARK SMILES IDX 62 89 55 90 56 91 57 92 58 93 59 94
REMARK H PARENT 17 6 7 14 21 25 83 44 49 55
REMARK Flexibility Score: inf
ROOT
ATOM      1  C   UNL     1       2.461   3.350  -1.305  1.00  0.00     0.042 C 
ENDROOT
BRANCH   1   2
ATOM      2  C   UNL     1       2.149   1.910  -1.687  1.00  0.00     0.117 C 
BRANCH   2   3
ATOM      3  N   UNL     1       2.775   0.948  -0.796  1.00  0.00    -0.356 N 
ATOM      4  O   UNL     1       0.815  -0.074  -0.185  1.00  0.00    -0.275 OA
ATOM      5  C   UNL     1       2.041  -0.018  -0.155  1.00  0.00     0.222 C 
ATOM      6  H   UNL     1       3.748   0.991  -0.649  1.00  0.00     0.163 HD
BRANCH   5   7
ATOM      7  C   UNL     1       2.831  -1.001   0.678  1.00  0.00     0.135 C 
BRANCH   7   8
ATOM      8  C   UNL     1       3.848  -1.877  -0.043  1.00  0.00     0.188 C 
ATOM      9  C   UNL     1       3.540  -2.101  -1.527  1.00  0.00     0.249 C 
ATOM     10  N   UNL     1       3.904  -3.275   0.415  1.00  0.00    -0.306 N 
ATOM     11  O   UNL     1       3.522  -1.250  -2.401  1.00  0.00    -0.272 OA
ATOM     12  N   UNL     1       3.320  -3.422  -1.743  1.00  0.00    -0.301 N 
ATOM     13  C   UNL     1       3.552  -4.155  -0.622  1.00  0.00     0.180 C 
ATOM     14  H   UNL     1       3.029  -3.802  -2.603  1.00  0.00     0.172 HD
ATOM     15  S   UNL     1       3.355  -5.805  -0.622  1.00  0.00    -0.040 S 
BRANCH  10  16
ATOM     16  C   UNL     1       4.457  -3.642   1.670  1.00  0.00     0.044 A 
ATOM     17  C   UNL     1       5.477  -4.600   1.743  1.00  0.00     0.026 A 
ATOM     18  C   UNL     1       3.985  -3.084   2.863  1.00  0.00     0.026 A 
ATOM     19  C   UNL     1       5.986  -5.015   2.977  1.00  0.00     0.002 A 
ATOM     20  C   UNL     1       4.479  -3.513   4.099  1.00  0.00     0.002 A 
ATOM     21  C   UNL     1       5.476  -4.481   4.157  1.00  0.00     0.000 A 
ENDBRANCH  10  16
ENDBRANCH   7   8
ENDBRANCH   5   7
ENDBRANCH   2   3
ENDBRANCH   1   2
BRANCH   1  22
ATOM     22  C   UNL     1       3.937   3.721  -1.382  1.00  0.00     0.118 C 
BRANCH  22  23
ATOM     23  N   UNL     1       4.483   3.626  -2.727  1.00  0.00    -0.352 N 
ATOM     24  C   UNL     1       5.155   4.557  -3.480  1.00  0.00     0.251 C 
ATOM     25  H   UNL     1       4.350   2.755  -3.167  1.00  0.00     0.163 HD
ATOM     26  O   UNL     1       5.396   4.308  -4.659  1.00  0.00    -0.269 OA
BRANCH  24  27
ATOM     27  C   UNL     1       5.576   5.855  -2.902  1.00  0.00     0.039 A 
ATOM     28  C   UNL     1       5.496   7.000  -3.701  1.00  0.00     0.014 A 
ATOM     29  C   UNL     1       6.091   5.953  -1.607  1.00  0.00     0.014 A 
ATOM     30  C   UNL     1       5.893   8.239  -3.191  1.00  0.00     0.010 A 
ATOM     31  C   UNL     1       6.404   7.202  -1.070  1.00  0.00     0.010 A 
ATOM     32  C   UNL     1       6.331   8.357  -1.862  1.00  0.00    -0.014 A 
BRANCH  32  33
ATOM     33  C   UNL     1       6.753   9.671  -1.308  1.00  0.00     0.031 A 
ATOM     34  C   UNL     1       8.177   9.882  -0.859  1.00  0.00     0.074 A 
ATOM     35  C   UNL     1       5.854  10.668  -1.180  1.00  0.00     0.049 A 
ATOM     36  N   UNL     1       8.730  10.947  -0.334  1.00  0.00    -0.248 NA
ATOM     37  C   UNL     1       9.094   8.739  -0.992  1.00  0.00     0.031 C 
ATOM     38  C   UNL     1       4.435  10.577  -1.533  1.00  0.00     0.029 A 
ATOM     39  N   UNL     1       5.997  11.953  -0.718  1.00  0.00    -0.354 N 
ATOM     40  C   UNL     1      10.050  10.598  -0.067  1.00  0.00     0.074 A 
ATOM     41  C   UNL     1      10.198   9.206  -0.427  1.00  0.00     0.031 C 
ATOM     42  C   UNL     1       3.848  11.762  -1.303  1.00  0.00     0.029 A 
ATOM     43  C   UNL     1       4.835  12.687  -0.755  1.00  0.00     0.049 A 
ATOM     44  H   UNL     1       6.853  12.314  -0.391  1.00  0.00     0.167 HD
ATOM     45  C   UNL     1      11.055  11.373   0.406  1.00  0.00     0.037 A 
ATOM     46  C   UNL     1       4.592  13.961  -0.389  1.00  0.00     0.037 A 
ATOM     47  C   UNL     1      10.909  12.767   0.740  1.00  0.00     0.049 A 
ATOM     48  C   UNL     1       5.725  14.805   0.131  1.00  0.00     0.074 A 
ATOM     49  C   UNL     1      11.877  13.652   1.181  1.00  0.00     0.029 A 
ATOM     50  N   UNL     1       9.721  13.479   0.669  1.00  0.00    -0.354 N 
ATOM     51  N   UNL     1       6.981  14.475   0.320  1.00  0.00    -0.248 NA
ATOM     52  C   UNL     1       5.413  16.199   0.474  1.00  0.00     0.031 C 
ATOM     53  C   UNL     1      11.265  14.886   1.423  1.00  0.00     0.029 A 
ATOM     54  C   UNL     1       9.928  14.787   1.074  1.00  0.00     0.049 A 
ATOM     55  H   UNL     1       8.857  13.109   0.374  1.00  0.00     0.167 HD
ATOM     56  C   UNL     1       7.616  15.630   0.766  1.00  0.00     0.074 A 
ATOM     57  C   UNL     1       6.606  16.668   0.811  1.00  0.00     0.031 C 
ATOM     58  C   UNL     1       8.917  15.816   1.102  1.00  0.00     0.037 A 
BRANCH  45  59
ATOM     59  C   UNL     1      12.406  10.732   0.588  1.00  0.00     0.058 A 
ATOM     60  C   UNL     1      13.184  10.323  -0.508  1.00  0.00     0.135 A 
ATOM     61  C   UNL     1      12.944  10.551   1.873  1.00  0.00     0.135 A 
ATOM     62  F   UNL     1      12.715  10.457  -1.758  1.00  0.00    -0.206 F 
ATOM     63  C   UNL     1      14.430   9.729  -0.336  1.00  0.00     0.059 A 
ATOM     64  C   UNL     1      14.203   9.988   2.067  1.00  0.00     0.059 A 
ATOM     65  F   UNL     1      12.246  10.923   2.958  1.00  0.00    -0.206 F 
ATOM     66  C   UNL     1      14.931   9.565   0.957  1.00  0.00     0.060 A 
BRANCH  66  67
ATOM     67  S   UNL     1      16.549   8.793   1.161  1.00  0.00     0.124 S 
ATOM     68  O   UNL     1      16.252   7.402   0.829  1.00  0.00    -0.237 OA
ATOM     69  O   UNL     1      17.365   9.515   0.190  1.00  0.00    -0.237 OA
ATOM     70  O   UNL     1      16.874   9.047   2.561  1.00  0.00    -0.744 OA
ENDBRANCH  66  67
ENDBRANCH  45  59
BRANCH  46  71
ATOM     71  C   UNL     1       3.223  14.529  -0.532  1.00  0.00     0.058 A 
ATOM     72  C   UNL     1       2.945  15.518  -1.488  1.00  0.00     0.135 A 
ATOM     73  C   UNL     1       2.164  14.091   0.280  1.00  0.00     0.135 A 
ATOM     74  F   UNL     1       3.924  15.974  -2.284  1.00  0.00    -0.206 F 
ATOM     75  C   UNL     1       1.675  16.070  -1.620  1.00  0.00     0.059 A 
ATOM     76  C   UNL     1       0.879  14.607   0.147  1.00  0.00     0.059 A 
ATOM     77  F   UNL     1       2.372  13.135   1.198  1.00  0.00    -0.206 F 
ATOM     78  C   UNL     1       0.647  15.605  -0.798  1.00  0.00     0.060 A 
BRANCH  78  79
ATOM     79  S   UNL     1      -1.008  16.299  -1.006  1.00  0.00     0.124 S 
ATOM     80  O   UNL     1      -0.838  17.635  -0.446  1.00  0.00    -0.237 OA
ATOM     81  O   UNL     1      -1.189  16.230  -2.452  1.00  0.00    -0.237 OA
ATOM     82  O   UNL     1      -1.851  15.393  -0.232  1.00  0.00    -0.744 OA
ENDBRANCH  78  79
ENDBRANCH  46  71
BRANCH  58  83
ATOM     83  C   UNL     1       9.341  17.205   1.495  1.00  0.00     0.058 A 
ATOM     84  C   UNL     1       8.947  17.791   2.708  1.00  0.00     0.135 A 
ATOM     85  C   UNL     1      10.191  17.947   0.656  1.00  0.00     0.135 A 
ATOM     86  F   UNL     1       8.134  17.128   3.546  1.00  0.00    -0.206 F 
ATOM     87  C   UNL     1       9.350  19.076   3.060  1.00  0.00     0.059 A 
ATOM     88  C   UNL     1      10.632  19.220   1.003  1.00  0.00     0.059 A 
ATOM     89  F   UNL     1      10.610  17.430  -0.510  1.00  0.00    -0.206 F 
ATOM     90  C   UNL     1      10.193  19.782   2.199  1.00  0.00     0.060 A 
BRANCH  90  91
ATOM     91  S   UNL     1      10.722  21.442   2.674  1.00  0.00     0.124 S 
ATOM     92  O   UNL     1       9.501  22.212   2.460  1.00  0.00    -0.237 OA
ATOM     93  O   UNL     1      11.118  21.257   4.067  1.00  0.00    -0.237 OA
ATOM     94  O   UNL     1      11.816  21.728   1.750  1.00  0.00    -0.744 OA
ENDBRANCH  90  91
ENDBRANCH  58  83
ENDBRANCH  32  33
ENDBRANCH  24  27
ENDBRANCH  22  23
ENDBRANCH   1  22
TORSDOF 15
