REMARK SMILES O=C1[NH+]=C(Nc2ccc(C(=O)NCCCNC(=O)c3ccc(-c4c5nc(c(-c6c(F)cc(S(=O)(=O)[O-])cc6F)c6ccc([nH]6)c(-c6c(F)cc(S(=O)(=O)[O-])cc6F)c6nc(c(-c7c(F)cc(S(=O)(=O)[O-])cc7F)c7ccc4[nH]7)C=C6)C=C5)cc3)c(O)c2)S/C1=C\c1ccc[nH]1
REMARK SMILES IDX 14 1 13 2 12 3 10 4 11 5 9 7 6 8 7 9 87 10 8 11 85 12 5 13
REMARK SMILES IDX 1 14 2 15 3 16 89 17 4 18 88 20 90 21 91 23 92 24 95 25
REMARK SMILES IDX 93 26 94 27 86 29 15 31 16 32 17 33 18 35 19 36 20 37 84 38
REMARK SMILES IDX 21 39 83 40 22 41 23 42 24 43 77 44 25 45 82 46 76 47 78 48
REMARK SMILES IDX 26 49 81 50 75 51 74 52 27 54 61 55 40 56 60 57 41 58 44 59
REMARK SMILES IDX 59 60 79 61 42 62 43 63 58 65 80 66 45 67 28 68 29 69 38 70
REMARK SMILES IDX 30 71 31 72 37 73 39 74 32 75 33 76 34 77 35 78 36 79 62 80
REMARK SMILES IDX 63 81 72 82 64 83 65 84 71 85 73 86 66 87 67 88 68 89 69 90
REMARK SMILES IDX 70 91 46 92 47 93 56 94 48 95 49 96 55 97 57 98 50 99 51 100
REMARK SMILES IDX 52 101 53 102 54 103
REMARK H PARENT 12 6 3 19 5 22 95 28 86 30 16 34 78 53 44 64
REMARK Flexibility Score: inf
ROOT
ATOM      1  C   UNL     1      -1.072   8.578  -3.495  1.00  0.00     0.042 C 
ENDROOT
BRANCH   1   2
ATOM      2  C   UNL     1      -0.126   8.216  -2.363  1.00  0.00     0.118 C 
BRANCH   2   3
ATOM      3  N   UNL     1      -0.626   8.516  -1.028  1.00  0.00    -0.352 N 
ATOM      4  C   UNL     1      -0.533   7.810   0.147  1.00  0.00     0.255 C 
ATOM      5  O   UNL     1      -1.044   8.281   1.161  1.00  0.00    -0.269 OA
ATOM      6  H   UNL     1      -1.113   9.369  -0.956  1.00  0.00     0.163 HD
BRANCH   4   7
ATOM      7  C   UNL     1       0.115   6.480   0.216  1.00  0.00     0.081 A 
ATOM      8  C   UNL     1       1.047   3.814   0.278  1.00  0.00     0.129 A 
ATOM      9  C   UNL     1      -0.081   4.193   1.011  1.00  0.00     0.053 A 
ATOM     10  C   UNL     1       1.743   4.803  -0.426  1.00  0.00     0.098 A 
ATOM     11  C   UNL     1      -0.544   5.511   0.984  1.00  0.00     0.022 A 
ATOM     12  C   UNL     1       1.310   6.130  -0.415  1.00  0.00     0.132 A 
BRANCH   8  13
ATOM     13  N   UNL     1       1.453   2.481   0.158  1.00  0.00    -0.234 N 
ATOM     14  O   UNL     1      -2.288  -0.308   0.036  1.00  0.00    -0.240 OA
ATOM     15  C   UNL     1      -1.106   0.012   0.078  1.00  0.00     0.346 C 
ATOM     16  N   UNL     1      -0.639   1.303   0.148  1.00  0.00    -0.199 N 
ATOM     17  C   UNL     1       0.008  -0.978   0.077  1.00  0.00     0.111 C 
ATOM     18  C   UNL     1       0.649   1.381   0.154  1.00  0.00     0.322 C 
ATOM     19  H   UNL     1      -1.229   2.090   0.190  1.00  0.00     0.316 HD
ATOM     20  S   UNL     1       1.509  -0.141   0.113  1.00  0.00     0.006 SA
ATOM     21  C   UNL     1      -0.209  -2.299   0.041  1.00  0.00     0.050 C 
ATOM     22  H   UNL     1       2.420   2.321   0.068  1.00  0.00     0.313 HD
BRANCH  21  23
ATOM     23  C   UNL     1       0.841  -3.243   0.132  1.00  0.00     0.039 A 
ATOM     24  C   UNL     1       1.841  -3.466   1.059  1.00  0.00     0.027 A 
ATOM     25  N   UNL     1       0.984  -4.176  -0.865  1.00  0.00    -0.362 N 
ATOM     26  C   UNL     1       2.628  -4.542   0.590  1.00  0.00     0.020 A 
ATOM     27  C   UNL     1       2.082  -4.957  -0.604  1.00  0.00     0.083 A 
ATOM     28  H   UNL     1       0.392  -4.269  -1.646  1.00  0.00     0.166 HD
ENDBRANCH  21  23
ENDBRANCH   8  13
BRANCH  12  29
ATOM     29  O   UNL     1       2.145   7.023  -1.028  1.00  0.00    -0.507 OA
ATOM     30  H   UNL     1       1.919   7.931  -1.059  1.00  0.00     0.293 HD
ENDBRANCH  12  29
ENDBRANCH   4   7
ENDBRANCH   2   3
ENDBRANCH   1   2
BRANCH   1  31
ATOM     31  C   UNL     1      -1.502  10.036  -3.544  1.00  0.00     0.118 C 
BRANCH  31  32
ATOM     32  N   UNL     1      -0.404  10.974  -3.752  1.00  0.00    -0.352 N 
ATOM     33  C   UNL     1      -0.049  11.727  -4.850  1.00  0.00     0.251 C 
ATOM     34  H   UNL     1       0.185  11.089  -2.972  1.00  0.00     0.163 HD
ATOM     35  O   UNL     1       1.002  12.361  -4.827  1.00  0.00    -0.269 OA
BRANCH  33  36
ATOM     36  C   UNL     1      -0.896  11.743  -6.065  1.00  0.00     0.039 A 
ATOM     37  C   UNL     1      -0.287  11.709  -7.323  1.00  0.00     0.014 A 
ATOM     38  C   UNL     1      -2.286  11.781  -5.975  1.00  0.00     0.014 A 
ATOM     39  C   UNL     1      -1.075  11.602  -8.474  1.00  0.00     0.010 A 
ATOM     40  C   UNL     1      -3.060  11.540  -7.103  1.00  0.00     0.010 A 
ATOM     41  C   UNL     1      -2.467  11.456  -8.370  1.00  0.00    -0.014 A 
BRANCH  41  42
ATOM     42  C   UNL     1      -3.328  11.228  -9.563  1.00  0.00     0.031 A 
ATOM     43  C   UNL     1      -4.448  12.187  -9.877  1.00  0.00     0.074 A 
ATOM     44  C   UNL     1      -3.156  10.121 -10.315  1.00  0.00     0.049 A 
ATOM     45  N   UNL     1      -5.365  12.112 -10.808  1.00  0.00    -0.248 NA
ATOM     46  C   UNL     1      -4.578  13.368  -9.007  1.00  0.00     0.031 C 
ATOM     47  C   UNL     1      -2.143   9.088 -10.086  1.00  0.00     0.029 A 
ATOM     48  N   UNL     1      -3.835   9.674 -11.422  1.00  0.00    -0.354 N 
ATOM     49  C   UNL     1      -6.184  13.220 -10.623  1.00  0.00     0.074 A 
ATOM     50  C   UNL     1      -5.702  13.911  -9.448  1.00  0.00     0.031 C 
ATOM     51  C   UNL     1      -2.244   8.150 -11.041  1.00  0.00     0.029 A 
ATOM     52  C   UNL     1      -3.358   8.483 -11.921  1.00  0.00     0.049 A 
ATOM     53  H   UNL     1      -4.592  10.160 -11.821  1.00  0.00     0.167 HD
ATOM     54  C   UNL     1      -7.222  13.646 -11.382  1.00  0.00     0.037 A 
ATOM     55  C   UNL     1      -3.776   7.739 -12.964  1.00  0.00     0.037 A 
ATOM     56  C   UNL     1      -7.681  12.967 -12.565  1.00  0.00     0.049 A 
ATOM     57  C   UNL     1      -4.946   8.221 -13.782  1.00  0.00     0.074 A 
ATOM     58  C   UNL     1      -8.690  13.341 -13.434  1.00  0.00     0.029 A 
ATOM     59  N   UNL     1      -7.163  11.771 -13.043  1.00  0.00    -0.354 N 
ATOM     60  N   UNL     1      -5.667   9.306 -13.630  1.00  0.00    -0.248 NA
ATOM     61  C   UNL     1      -5.357   7.379 -14.914  1.00  0.00     0.031 C 
ATOM     62  C   UNL     1      -8.819  12.345 -14.407  1.00  0.00     0.029 A 
ATOM     63  C   UNL     1      -7.848  11.381 -14.182  1.00  0.00     0.049 A 
ATOM     64  H   UNL     1      -6.419  11.274 -12.634  1.00  0.00     0.167 HD
ATOM     65  C   UNL     1      -6.594   9.295 -14.668  1.00  0.00     0.074 A 
ATOM     66  C   UNL     1      -6.334   8.101 -15.445  1.00  0.00     0.031 C 
ATOM     67  C   UNL     1      -7.570  10.194 -14.952  1.00  0.00     0.037 A 
BRANCH  54  68
ATOM     68  C   UNL     1      -7.927  14.908 -10.956  1.00  0.00     0.058 A 
ATOM     69  C   UNL     1      -7.294  16.161 -11.010  1.00  0.00     0.135 A 
ATOM     70  C   UNL     1      -9.258  14.869 -10.512  1.00  0.00     0.135 A 
ATOM     71  F   UNL     1      -6.016  16.258 -11.411  1.00  0.00    -0.206 F 
ATOM     72  C   UNL     1      -7.941  17.323 -10.603  1.00  0.00     0.059 A 
ATOM     73  C   UNL     1      -9.938  16.024 -10.134  1.00  0.00     0.059 A 
ATOM     74  F   UNL     1      -9.914  13.700 -10.440  1.00  0.00    -0.206 F 
ATOM     75  C   UNL     1      -9.264  17.244 -10.167  1.00  0.00     0.060 A 
BRANCH  75  76
ATOM     76  S   UNL     1     -10.088  18.763  -9.644  1.00  0.00     0.124 S 
ATOM     77  O   UNL     1      -9.402  19.047  -8.386  1.00  0.00    -0.237 OA
ATOM     78  O   UNL     1      -9.792  19.672 -10.746  1.00  0.00    -0.237 OA
ATOM     79  O   UNL     1     -11.487  18.366  -9.519  1.00  0.00    -0.744 OA
ENDBRANCH  75  76
ENDBRANCH  54  68
BRANCH  55  80
ATOM     80  C   UNL     1      -3.070   6.476 -13.314  1.00  0.00     0.058 A 
ATOM     81  C   UNL     1      -2.319   6.373 -14.495  1.00  0.00     0.135 A 
ATOM     82  C   UNL     1      -3.121   5.351 -12.476  1.00  0.00     0.135 A 
ATOM     83  F   UNL     1      -2.243   7.417 -15.334  1.00  0.00    -0.206 F 
ATOM     84  C   UNL     1      -1.661   5.197 -14.843  1.00  0.00     0.059 A 
ATOM     85  C   UNL     1      -2.447   4.173 -12.787  1.00  0.00     0.059 A 
ATOM     86  F   UNL     1      -3.811   5.399 -11.325  1.00  0.00    -0.206 F 
ATOM     87  C   UNL     1      -1.728   4.103 -13.979  1.00  0.00     0.060 A 
BRANCH  87  88
ATOM     88  S   UNL     1      -0.832   2.598 -14.420  1.00  0.00     0.124 S 
ATOM     89  O   UNL     1      -1.623   2.102 -15.540  1.00  0.00    -0.237 OA
ATOM     90  O   UNL     1       0.491   3.118 -14.752  1.00  0.00    -0.237 OA
ATOM     91  O   UNL     1      -0.895   1.800 -13.199  1.00  0.00    -0.744 OA
ENDBRANCH  87  88
ENDBRANCH  55  80
BRANCH  67  92
ATOM     92  C   UNL     1      -8.405   9.949 -16.180  1.00  0.00     0.058 A 
ATOM     93  C   UNL     1      -9.351   8.915 -16.240  1.00  0.00     0.135 A 
ATOM     94  C   UNL     1      -8.296  10.803 -17.290  1.00  0.00     0.135 A 
ATOM     95  F   UNL     1      -9.492   8.065 -15.210  1.00  0.00    -0.206 F 
ATOM     96  C   UNL     1     -10.145   8.721 -17.367  1.00  0.00     0.059 A 
ATOM     97  C   UNL     1      -9.102  10.649 -18.413  1.00  0.00     0.059 A 
ATOM     98  F   UNL     1      -7.415  11.816 -17.282  1.00  0.00    -0.206 F 
ATOM     99  C   UNL     1     -10.016   9.597 -18.446  1.00  0.00     0.060 A 
BRANCH  99 100
ATOM    100  S   UNL     1     -11.081   9.358 -19.884  1.00  0.00     0.124 S 
ATOM    101  O   UNL     1     -10.515   8.149 -20.473  1.00  0.00    -0.237 OA
ATOM    102  O   UNL     1     -12.399   9.210 -19.273  1.00  0.00    -0.237 OA
ATOM    103  O   UNL     1     -10.890  10.582 -20.657  1.00  0.00    -0.744 OA
ENDBRANCH  99 100
ENDBRANCH  67  92
ENDBRANCH  41  42
ENDBRANCH  33  36
ENDBRANCH  31  32
ENDBRANCH   1  31
TORSDOF 16
