REMARK SMILES COc1c(C)cc([C@H](C(=O)NCCCNC(=O)c2ccc(-c3c4nc(c(-c5c(F)cc(S(=O)(=O)[O-])cc5F)c5ccc([nH]5)c(-c5c(F)cc(S(=O)(=O)[O-])cc5F)c5nc(c(-c6c(F)cc(S(=O)(=O)[O-])cc6F)c6ccc3[nH]6)C=C5)C=C4)cc2)[N@@H+](C)CCN2CCCCC2=O)cc1C
REMARK SMILES IDX 12 1 11 2 9 3 10 4 8 6 7 7 3 8 4 9 96 10 5 11 6 12 95 13
REMARK SMILES IDX 97 14 2 15 1 16 84 17 85 18 86 20 87 21 88 22 89 23 93 24
REMARK SMILES IDX 90 25 92 26 94 27 91 28 13 29 14 30 15 31 16 32 17 34 18 35
REMARK SMILES IDX 19 36 83 37 20 38 82 39 21 40 22 41 23 42 76 43 24 44 81 45
REMARK SMILES IDX 75 46 77 47 25 48 80 49 74 50 73 51 26 53 60 54 39 55 59 56
REMARK SMILES IDX 40 57 43 58 58 59 78 60 41 61 42 62 57 64 79 65 44 66 27 67
REMARK SMILES IDX 28 68 37 69 29 70 30 71 36 72 38 73 31 74 32 75 33 76 34 77
REMARK SMILES IDX 35 78 61 79 62 80 71 81 63 82 64 83 70 84 72 85 65 86 66 87
REMARK SMILES IDX 67 88 68 89 69 90 45 91 46 92 55 93 47 94 48 95 54 96 56 97
REMARK SMILES IDX 49 98 50 99 51 100 52 101 53 102
REMARK H PARENT 11 5 84 19 15 33 77 52 43 63
REMARK Flexibility Score: inf
ROOT
ATOM      1  C   UNL     1       2.576   4.642   3.634  1.00  0.00     0.118 C 
ENDROOT
BRANCH   1   2
ATOM      2  N   UNL     1       1.728   3.502   4.043  1.00  0.00    -0.351 N 
ATOM      3  C   UNL     1       1.452   2.829   5.221  1.00  0.00     0.283 C 
ATOM      4  O   UNL     1       0.454   2.093   5.197  1.00  0.00    -0.268 OA
ATOM      5  H   UNL     1       1.232   3.123   3.281  1.00  0.00     0.163 HD
BRANCH   3   6
ATOM      6  C   UNL     1       2.229   3.034   6.555  1.00  0.00     0.305 C 
BRANCH   6   7
ATOM      7  C   UNL     1       2.322   1.883   7.609  1.00  0.00     0.020 A 
ATOM      8  C   UNL     1       3.207  -0.013   9.571  1.00  0.00     0.124 A 
ATOM      9  C   UNL     1       2.577   1.180   9.965  1.00  0.00    -0.008 A 
ATOM     10  C   UNL     1       3.402  -0.263   8.217  1.00  0.00    -0.008 A 
ATOM     11  C   UNL     1       2.361   1.464  11.427  1.00  0.00     0.048 C 
ATOM     12  C   UNL     1       2.153   2.119   8.986  1.00  0.00     0.017 A 
ATOM     13  C   UNL     1       2.845   0.631   7.279  1.00  0.00     0.017 A 
ATOM     14  C   UNL     1       4.353  -1.311   7.704  1.00  0.00     0.048 C 
BRANCH   8  15
ATOM     15  O   UNL     1       3.726  -0.819  10.551  1.00  0.00    -0.496 OA
ATOM     16  C   UNL     1       3.272  -2.172  10.508  1.00  0.00     0.278 C 
ENDBRANCH   8  15
ENDBRANCH   6   7
BRANCH   6  17
ATOM     17  N   UNL     1       3.531   3.679   6.271  1.00  0.00    -0.322 N 
ATOM     18  C   UNL     1       3.795   4.685   7.319  1.00  0.00     0.333 C 
ATOM     19  H   UNL     1       3.412   4.094   5.347  1.00  0.00     0.348 HD
BRANCH  17  20
ATOM     20  C   UNL     1       4.714   2.811   6.061  1.00  0.00     0.284 C 
BRANCH  20  21
ATOM     21  C   UNL     1       5.050   1.688   4.962  1.00  0.00     0.180 C 
BRANCH  21  22
ATOM     22  N   UNL     1       4.159   0.600   4.484  1.00  0.00    -0.337 N 
ATOM     23  C   UNL     1       4.832  -0.675   4.232  1.00  0.00     0.119 C 
ATOM     24  C   UNL     1       3.082   0.768   3.622  1.00  0.00     0.222 C 
ATOM     25  C   UNL     1       3.926  -1.801   3.717  1.00  0.00     0.022 C 
ATOM     26  C   UNL     1       1.977  -0.271   3.773  1.00  0.00     0.100 C 
ATOM     27  O   UNL     1       3.011   1.628   2.757  1.00  0.00    -0.275 OA
ATOM     28  C   UNL     1       2.493  -1.635   4.180  1.00  0.00     0.012 C 
ENDBRANCH  21  22
ENDBRANCH  20  21
ENDBRANCH  17  20
ENDBRANCH   6  17
ENDBRANCH   3   6
ENDBRANCH   1   2
BRANCH   1  29
ATOM     29  C   UNL     1       3.967   4.383   2.988  1.00  0.00     0.042 C 
BRANCH  29  30
ATOM     30  C   UNL     1       4.063   3.791   1.563  1.00  0.00     0.118 C 
BRANCH  30  31
ATOM     31  N   UNL     1       4.590   4.732   0.577  1.00  0.00    -0.352 N 
ATOM     32  C   UNL     1       5.795   4.885  -0.069  1.00  0.00     0.251 C 
ATOM     33  H   UNL     1       3.931   5.415   0.315  1.00  0.00     0.163 HD
ATOM     34  O   UNL     1       5.911   5.885  -0.783  1.00  0.00    -0.269 OA
BRANCH  32  35
ATOM     35  C   UNL     1       6.971   3.967   0.034  1.00  0.00     0.039 A 
ATOM     36  C   UNL     1       8.245   4.562  -0.029  1.00  0.00     0.014 A 
ATOM     37  C   UNL     1       6.904   2.571   0.022  1.00  0.00     0.014 A 
ATOM     38  C   UNL     1       9.419   3.791  -0.066  1.00  0.00     0.010 A 
ATOM     39  C   UNL     1       8.088   1.794   0.016  1.00  0.00     0.010 A 
ATOM     40  C   UNL     1       9.361   2.392  -0.024  1.00  0.00    -0.014 A 
BRANCH  40  41
ATOM     41  C   UNL     1      10.621   1.578   0.012  1.00  0.00     0.031 A 
ATOM     42  C   UNL     1      11.046   0.716  -1.153  1.00  0.00     0.074 A 
ATOM     43  C   UNL     1      11.412   1.608   1.106  1.00  0.00     0.049 A 
ATOM     44  N   UNL     1      12.088  -0.074  -1.265  1.00  0.00    -0.248 NA
ATOM     45  C   UNL     1      10.190   0.747  -2.345  1.00  0.00     0.031 C 
ATOM     46  C   UNL     1      11.159   2.410   2.304  1.00  0.00     0.029 A 
ATOM     47  N   UNL     1      12.587   0.951   1.392  1.00  0.00    -0.354 N 
ATOM     48  C   UNL     1      12.011  -0.641  -2.533  1.00  0.00     0.074 A 
ATOM     49  C   UNL     1      10.800  -0.124  -3.140  1.00  0.00     0.031 C 
ATOM     50  C   UNL     1      12.153   2.212   3.184  1.00  0.00     0.029 A 
ATOM     51  C   UNL     1      13.094   1.236   2.639  1.00  0.00     0.049 A 
ATOM     52  H   UNL     1      13.024   0.333   0.762  1.00  0.00     0.167 HD
ATOM     53  C   UNL     1      12.868  -1.501  -3.144  1.00  0.00     0.037 A 
ATOM     54  C   UNL     1      14.179   0.762   3.286  1.00  0.00     0.037 A 
ATOM     55  C   UNL     1      14.080  -2.018  -2.556  1.00  0.00     0.049 A 
ATOM     56  C   UNL     1      15.067  -0.258   2.626  1.00  0.00     0.074 A 
ATOM     57  C   UNL     1      15.023  -2.861  -3.124  1.00  0.00     0.029 A 
ATOM     58  N   UNL     1      14.514  -1.756  -1.265  1.00  0.00    -0.354 N 
ATOM     59  N   UNL     1      14.986  -0.762   1.419  1.00  0.00    -0.248 NA
ATOM     60  C   UNL     1      16.187  -0.783   3.423  1.00  0.00     0.031 C 
ATOM     61  C   UNL     1      16.000  -3.146  -2.162  1.00  0.00     0.029 A 
ATOM     62  C   UNL     1      15.689  -2.449  -1.007  1.00  0.00     0.049 A 
ATOM     63  H   UNL     1      14.056  -1.165  -0.625  1.00  0.00     0.167 HD
ATOM     64  C   UNL     1      16.052  -1.649   1.305  1.00  0.00     0.074 A 
ATOM     65  C   UNL     1      16.768  -1.609   2.563  1.00  0.00     0.031 C 
ATOM     66  C   UNL     1      16.401  -2.423   0.248  1.00  0.00     0.037 A 
BRANCH  53  67
ATOM     67  C   UNL     1      12.509  -1.962  -4.533  1.00  0.00     0.058 A 
ATOM     68  C   UNL     1      12.602  -1.106  -5.642  1.00  0.00     0.135 A 
ATOM     69  C   UNL     1      12.079  -3.280  -4.760  1.00  0.00     0.135 A 
ATOM     70  F   UNL     1      13.008   0.164  -5.483  1.00  0.00    -0.206 F 
ATOM     71  C   UNL     1      12.231  -1.524  -6.917  1.00  0.00     0.059 A 
ATOM     72  C   UNL     1      11.727  -3.727  -6.031  1.00  0.00     0.059 A 
ATOM     73  F   UNL     1      11.987  -4.147  -3.739  1.00  0.00    -0.206 F 
ATOM     74  C   UNL     1      11.781  -2.832  -7.099  1.00  0.00     0.060 A 
BRANCH  74  75
ATOM     75  S   UNL     1      11.250  -3.348  -8.746  1.00  0.00     0.124 S 
ATOM     76  O   UNL     1       9.941  -2.711  -8.839  1.00  0.00    -0.237 OA
ATOM     77  O   UNL     1      12.290  -2.783  -9.604  1.00  0.00    -0.237 OA
ATOM     78  O   UNL     1      11.237  -4.803  -8.660  1.00  0.00    -0.744 OA
ENDBRANCH  74  75
ENDBRANCH  53  67
BRANCH  54  79
ATOM     79  C   UNL     1      14.491   1.256   4.654  1.00  0.00     0.058 A 
ATOM     80  C   UNL     1      15.573   2.120   4.876  1.00  0.00     0.135 A 
ATOM     81  C   UNL     1      13.699   0.899   5.757  1.00  0.00     0.135 A 
ATOM     82  F   UNL     1      16.368   2.474   3.855  1.00  0.00    -0.206 F 
ATOM     83  C   UNL     1      15.855   2.622   6.142  1.00  0.00     0.059 A 
ATOM     84  C   UNL     1      13.949   1.404   7.028  1.00  0.00     0.059 A 
ATOM     85  F   UNL     1      12.650   0.078   5.594  1.00  0.00    -0.206 F 
ATOM     86  C   UNL     1      15.031   2.265   7.211  1.00  0.00     0.060 A 
BRANCH  86  87
ATOM     87  S   UNL     1      15.354   2.989   8.834  1.00  0.00     0.124 S 
ATOM     88  O   UNL     1      16.539   2.252   9.255  1.00  0.00    -0.237 OA
ATOM     89  O   UNL     1      15.559   4.397   8.506  1.00  0.00    -0.237 OA
ATOM     90  O   UNL     1      14.131   2.700   9.578  1.00  0.00    -0.744 OA
ENDBRANCH  86  87
ENDBRANCH  54  79
BRANCH  66  91
ATOM     91  C   UNL     1      17.617  -3.297   0.392  1.00  0.00     0.058 A 
ATOM     92  C   UNL     1      17.586  -4.477   1.152  1.00  0.00     0.135 A 
ATOM     93  C   UNL     1      18.809  -2.985  -0.282  1.00  0.00     0.135 A 
ATOM     94  F   UNL     1      16.476  -4.816   1.827  1.00  0.00    -0.206 F 
ATOM     95  C   UNL     1      18.694  -5.314   1.243  1.00  0.00     0.059 A 
ATOM     96  C   UNL     1      19.924  -3.818  -0.221  1.00  0.00     0.059 A 
ATOM     97  F   UNL     1      18.894  -1.871  -1.025  1.00  0.00    -0.206 F 
ATOM     98  C   UNL     1      19.858  -4.979   0.549  1.00  0.00     0.060 A 
BRANCH  98  99
ATOM     99  S   UNL     1      21.271  -6.103   0.631  1.00  0.00     0.124 S 
ATOM    100  O   UNL     1      21.776  -5.844   1.975  1.00  0.00    -0.237 OA
ATOM    101  O   UNL     1      20.646  -7.407   0.429  1.00  0.00    -0.237 OA
ATOM    102  O   UNL     1      22.128  -5.651  -0.461  1.00  0.00    -0.744 OA
ENDBRANCH  98  99
ENDBRANCH  66  91
ENDBRANCH  40  41
ENDBRANCH  32  35
ENDBRANCH  30  31
ENDBRANCH  29  30
ENDBRANCH   1  29
TORSDOF 19
