REMARK SMILES CC(C)(C)OC(=O)N1CCC[C@H]1C(=O)N1CCC[C@H]1C(=O)N1CCC[C@@H]1C(=O)NCCCNC(=O)c1ccc(-c2c3nc(c(-c4c(F)cc(S(=O)(=O)[O-])cc4F)c4ccc([nH]4)c(-c4c(F)cc(S(=O)(=O)[O-])cc4F)c4nc(c(-c5c(F)cc(S(=O)(=O)[O-])cc5F)c5ccc2[nH]5)C=C4)C=C3)cc1
REMARK SMILES IDX 27 1 28 2 29 3 26 5 22 6 23 7 24 8 25 9 20 10 21 11 19 12
REMARK SMILES IDX 15 13 16 14 17 15 18 16 13 17 14 18 12 19 8 20 9 21 10 22
REMARK SMILES IDX 11 23 6 24 7 25 5 26 2 27 1 28 3 29 4 30 30 31 31 32 32 33
REMARK SMILES IDX 33 34 34 35 35 37 36 38 37 39 101 40 38 41 100 42 39 43
REMARK SMILES IDX 40 44 41 45 94 46 42 47 99 48 93 49 95 50 43 51 98 52 92 53
REMARK SMILES IDX 91 54 44 56 78 57 57 58 77 59 58 60 61 61 76 62 96 63 59 64
REMARK SMILES IDX 60 65 75 67 97 68 62 69 45 70 46 71 55 72 47 73 48 74 54 75
REMARK SMILES IDX 56 76 49 77 50 78 51 79 52 80 53 81 79 82 80 83 89 84 81 85
REMARK SMILES IDX 82 86 88 87 90 88 83 89 84 90 85 91 86 92 87 93 63 94 64 95
REMARK SMILES IDX 73 96 65 97 66 98 72 99 74 100 67 101 68 102 69 103 70 104
REMARK SMILES IDX 71 105
REMARK H PARENT 29 4 33 36 95 55 61 66
REMARK Flexibility Score: inf
ROOT
ATOM      1  C   UNL     1       0.599  -1.954   7.720  1.00  0.00     0.242 C 
ATOM      2  O   UNL     1       1.764  -1.868   8.125  1.00  0.00    -0.273 OA
ATOM      3  N   UNL     1       0.319  -1.392   6.509  1.00  0.00    -0.354 N 
ATOM      4  H   UNL     1       1.106  -1.056   6.022  1.00  0.00     0.163 HD
ENDROOT
BRANCH   1   5
ATOM      5  C   UNL     1      -0.511  -2.483   8.657  1.00  0.00     0.174 C 
ATOM      6  N   UNL     1      -1.545  -3.259   7.983  1.00  0.00    -0.329 N 
ATOM      7  C   UNL     1      -2.874  -2.828   8.366  1.00  0.00     0.120 C 
ATOM      8  C   UNL     1      -2.699  -1.397   8.844  1.00  0.00     0.024 C 
ATOM      9  C   UNL     1      -1.252  -1.319   9.331  1.00  0.00     0.037 C 
BRANCH   6  10
ATOM     10  C   UNL     1      -1.243  -4.477   7.394  1.00  0.00     0.246 C 
ATOM     11  O   UNL     1      -0.434  -5.263   7.884  1.00  0.00    -0.272 OA
BRANCH  10  12
ATOM     12  C   UNL     1      -1.960  -4.735   6.048  1.00  0.00     0.174 C 
ATOM     13  N   UNL     1      -1.185  -5.514   5.071  1.00  0.00    -0.329 N 
ATOM     14  C   UNL     1      -1.879  -6.733   4.713  1.00  0.00     0.120 C 
ATOM     15  C   UNL     1      -3.334  -6.406   4.987  1.00  0.00     0.024 C 
ATOM     16  C   UNL     1      -3.265  -5.516   6.224  1.00  0.00     0.037 C 
BRANCH  13  17
ATOM     17  C   UNL     1      -0.080  -4.951   4.457  1.00  0.00     0.246 C 
ATOM     18  O   UNL     1       0.577  -4.070   5.014  1.00  0.00    -0.272 OA
BRANCH  17  19
ATOM     19  C   UNL     1       0.247  -5.417   3.016  1.00  0.00     0.178 C 
ATOM     20  N   UNL     1       1.050  -4.435   2.287  1.00  0.00    -0.296 N 
ATOM     21  C   UNL     1       2.326  -4.971   1.872  1.00  0.00     0.124 C 
ATOM     22  C   UNL     1       2.056  -6.461   1.800  1.00  0.00     0.024 C 
ATOM     23  C   UNL     1       1.085  -6.697   2.960  1.00  0.00     0.037 C 
BRANCH  20  24
ATOM     24  C   UNL     1       0.545  -3.203   1.974  1.00  0.00     0.410 C 
ATOM     25  O   UNL     1      -0.503  -2.784   2.454  1.00  0.00    -0.224 OA
BRANCH  24  26
ATOM     26  O   UNL     1       1.321  -2.542   1.072  1.00  0.00    -0.444 OA
BRANCH  26  27
ATOM     27  C   UNL     1       1.008  -1.171   0.717  1.00  0.00     0.106 C 
ATOM     28  C   UNL     1       1.923  -0.788  -0.455  1.00  0.00     0.056 C 
ATOM     29  C   UNL     1       1.366  -0.279   1.906  1.00  0.00     0.056 C 
ATOM     30  C   UNL     1      -0.432  -1.006   0.220  1.00  0.00     0.056 C 
ENDBRANCH  26  27
ENDBRANCH  24  26
ENDBRANCH  20  24
ENDBRANCH  17  19
ENDBRANCH  13  17
ENDBRANCH  10  12
ENDBRANCH   6  10
ENDBRANCH   1   5
BRANCH   3  31
ATOM     31  C   UNL     1      -0.937  -1.205   5.819  1.00  0.00     0.117 C 
BRANCH  31  32
ATOM     32  C   UNL     1      -1.377   0.253   5.793  1.00  0.00     0.042 C 
BRANCH  32  33
ATOM     33  C   UNL     1      -0.962   0.949   4.511  1.00  0.00     0.118 C 
BRANCH  33  34
ATOM     34  N   UNL     1      -1.639   0.360   3.363  1.00  0.00    -0.352 N 
ATOM     35  C   UNL     1      -2.187   0.930   2.250  1.00  0.00     0.251 C 
ATOM     36  H   UNL     1      -1.713  -0.621   3.395  1.00  0.00     0.163 HD
ATOM     37  O   UNL     1      -3.003   0.275   1.603  1.00  0.00    -0.269 OA
BRANCH  35  38
ATOM     38  C   UNL     1      -1.811   2.286   1.793  1.00  0.00     0.039 A 
ATOM     39  C   UNL     1      -2.651   2.895   0.852  1.00  0.00     0.014 A 
ATOM     40  C   UNL     1      -0.661   2.954   2.224  1.00  0.00     0.014 A 
ATOM     41  C   UNL     1      -2.408   4.200   0.442  1.00  0.00     0.010 A 
ATOM     42  C   UNL     1      -0.454   4.279   1.877  1.00  0.00     0.010 A 
ATOM     43  C   UNL     1      -1.354   4.917   1.021  1.00  0.00    -0.014 A 
BRANCH  43  44
ATOM     44  C   UNL     1      -1.300   6.384   0.909  1.00  0.00     0.031 A 
ATOM     45  C   UNL     1      -0.181   7.063   0.194  1.00  0.00     0.074 A 
ATOM     46  C   UNL     1      -2.230   7.074   1.598  1.00  0.00     0.049 A 
ATOM     47  N   UNL     1       0.026   8.341   0.030  1.00  0.00    -0.248 NA
ATOM     48  C   UNL     1       0.861   6.199  -0.383  1.00  0.00     0.031 C 
ATOM     49  C   UNL     1      -3.286   6.469   2.420  1.00  0.00     0.029 A 
ATOM     50  N   UNL     1      -2.431   8.417   1.741  1.00  0.00    -0.354 N 
ATOM     51  C   UNL     1       1.220   8.440  -0.671  1.00  0.00     0.074 A 
ATOM     52  C   UNL     1       1.719   7.094  -0.852  1.00  0.00     0.031 C 
ATOM     53  C   UNL     1      -4.036   7.438   2.961  1.00  0.00     0.029 A 
ATOM     54  C   UNL     1      -3.497   8.727   2.550  1.00  0.00     0.049 A 
ATOM     55  H   UNL     1      -1.867   9.097   1.306  1.00  0.00     0.167 HD
ATOM     56  C   UNL     1       1.823   9.562  -1.130  1.00  0.00     0.037 A 
ATOM     57  C   UNL     1      -3.985   9.924   2.918  1.00  0.00     0.037 A 
ATOM     58  C   UNL     1       1.297  10.885  -0.909  1.00  0.00     0.049 A 
ATOM     59  C   UNL     1      -3.327  11.149   2.361  1.00  0.00     0.074 A 
ATOM     60  C   UNL     1       1.772  12.095  -1.380  1.00  0.00     0.029 A 
ATOM     61  N   UNL     1       0.179  11.170  -0.133  1.00  0.00    -0.354 N 
ATOM     62  N   UNL     1      -2.264  11.231   1.596  1.00  0.00    -0.248 NA
ATOM     63  C   UNL     1      -3.937  12.438   2.696  1.00  0.00     0.031 C 
ATOM     64  C   UNL     1       0.968  13.113  -0.852  1.00  0.00     0.029 A 
ATOM     65  C   UNL     1      -0.039  12.537  -0.091  1.00  0.00     0.049 A 
ATOM     66  H   UNL     1      -0.378  10.497   0.322  1.00  0.00     0.167 HD
ATOM     67  C   UNL     1      -2.082  12.582   1.342  1.00  0.00     0.074 A 
ATOM     68  C   UNL     1      -3.159  13.277   2.024  1.00  0.00     0.031 C 
ATOM     69  C   UNL     1      -1.116  13.194   0.612  1.00  0.00     0.037 A 
BRANCH  56  70
ATOM     70  C   UNL     1       3.105   9.393  -1.900  1.00  0.00     0.058 A 
ATOM     71  C   UNL     1       3.129   8.777  -3.164  1.00  0.00     0.135 A 
ATOM     72  C   UNL     1       4.326   9.840  -1.372  1.00  0.00     0.135 A 
ATOM     73  F   UNL     1       1.994   8.317  -3.714  1.00  0.00    -0.206 F 
ATOM     74  C   UNL     1       4.320   8.569  -3.853  1.00  0.00     0.059 A 
ATOM     75  C   UNL     1       5.527   9.669  -2.058  1.00  0.00     0.059 A 
ATOM     76  F   UNL     1       4.366  10.436  -0.171  1.00  0.00    -0.206 F 
ATOM     77  C   UNL     1       5.516   9.011  -3.287  1.00  0.00     0.060 A 
BRANCH  77  78
ATOM     78  S   UNL     1       7.056   8.706  -4.179  1.00  0.00     0.124 S 
ATOM     79  O   UNL     1       7.236   7.274  -3.964  1.00  0.00    -0.237 OA
ATOM     80  O   UNL     1       6.713   9.103  -5.541  1.00  0.00    -0.237 OA
ATOM     81  O   UNL     1       8.018   9.569  -3.501  1.00  0.00    -0.744 OA
ENDBRANCH  77  78
ENDBRANCH  56  70
BRANCH  57  82
ATOM     82  C   UNL     1      -5.179   9.983   3.798  1.00  0.00     0.058 A 
ATOM     83  C   UNL     1      -6.438  10.316   3.279  1.00  0.00     0.135 A 
ATOM     84  C   UNL     1      -5.106   9.608   5.149  1.00  0.00     0.135 A 
ATOM     85  F   UNL     1      -6.559  10.671   1.991  1.00  0.00    -0.206 F 
ATOM     86  C   UNL     1      -7.583  10.278   4.067  1.00  0.00     0.059 A 
ATOM     87  C   UNL     1      -6.240   9.542   5.952  1.00  0.00     0.059 A 
ATOM     88  F   UNL     1      -3.929   9.247   5.684  1.00  0.00    -0.206 F 
ATOM     89  C   UNL     1      -7.475   9.882   5.402  1.00  0.00     0.060 A 
BRANCH  89  90
ATOM     90  S   UNL     1      -8.981   9.758   6.391  1.00  0.00     0.124 S 
ATOM     91  O   UNL     1      -9.313  11.162   6.600  1.00  0.00    -0.237 OA
ATOM     92  O   UNL     1      -9.871   9.017   5.503  1.00  0.00    -0.237 OA
ATOM     93  O   UNL     1      -8.545   9.028   7.578  1.00  0.00    -0.744 OA
ENDBRANCH  89  90
ENDBRANCH  57  82
BRANCH  69  94
ATOM     94  C   UNL     1      -1.196  14.690   0.512  1.00  0.00     0.058 A 
ATOM     95  C   UNL     1      -0.868  15.515   1.599  1.00  0.00     0.135 A 
ATOM     96  C   UNL     1      -1.565  15.301  -0.696  1.00  0.00     0.135 A 
ATOM     97  F   UNL     1      -0.520  14.976   2.778  1.00  0.00    -0.206 F 
ATOM     98  C   UNL     1      -0.926  16.900   1.497  1.00  0.00     0.059 A 
ATOM     99  C   UNL     1      -1.602  16.684  -0.828  1.00  0.00     0.059 A 
ATOM    100  F   UNL     1      -1.880  14.553  -1.765  1.00  0.00    -0.206 F 
ATOM    101  C   UNL     1      -1.292  17.475   0.278  1.00  0.00     0.060 A 
BRANCH 101 102
ATOM    102  S   UNL     1      -1.330  19.274   0.149  1.00  0.00     0.124 S 
ATOM    103  O   UNL     1      -2.551  19.594   0.881  1.00  0.00    -0.237 OA
ATOM    104  O   UNL     1      -0.081  19.660   0.798  1.00  0.00    -0.237 OA
ATOM    105  O   UNL     1      -1.380  19.509  -1.291  1.00  0.00    -0.744 OA
ENDBRANCH 101 102
ENDBRANCH  69  94
ENDBRANCH  43  44
ENDBRANCH  35  38
ENDBRANCH  33  34
ENDBRANCH  32  33
ENDBRANCH  31  32
ENDBRANCH   3  31
TORSDOF 20
