REMARK SMILES Cc1ccc(N2C(=O)/C(=C\c3ccccc3O[C@H](C)C(=O)NCCCNC(=O)c3ccc(-c4c5nc(c(-c6c(F)cc(S(=O)(=O)[O-])cc6F)c6ccc([nH]6)c(-c6c(F)cc(S(=O)(=O)[O-])cc6F)c6nc(c(-c7c(F)cc(S(=O)(=O)[O-])cc7F)c7ccc4[nH]7)C=C6)C=C5)cc3)SC2=S)c(C)c1
REMARK SMILES IDX 23 1 22 2 20 3 21 4 18 6 19 7 17 8 16 9 11 10 12 11 13 12
REMARK SMILES IDX 15 13 14 14 10 15 6 16 7 17 96 18 8 19 9 20 95 21 97 22 5 23
REMARK SMILES IDX 1 24 2 25 3 26 100 27 4 28 98 29 99 30 24 31 25 32 26 33
REMARK SMILES IDX 27 34 28 36 29 37 30 38 94 39 31 40 93 41 32 42 33 43 34 44
REMARK SMILES IDX 87 45 35 46 92 47 86 48 88 49 36 50 91 51 85 52 84 53 37 55
REMARK SMILES IDX 71 56 50 57 70 58 51 59 54 60 69 61 89 62 52 63 53 64 68 66
REMARK SMILES IDX 90 67 55 68 38 69 39 70 48 71 40 72 41 73 47 74 49 75 42 76
REMARK SMILES IDX 43 77 44 78 45 79 46 80 72 81 73 82 82 83 74 84 75 85 81 86
REMARK SMILES IDX 83 87 76 88 77 89 78 90 79 91 80 92 56 93 57 94 66 95 58 96
REMARK SMILES IDX 59 97 65 98 67 99 60 100 61 101 62 102 63 103 64 104
REMARK H PARENT 22 5 26 35 88 54 54 65
REMARK Flexibility Score: inf
ROOT
ATOM      1  C   UNL     1      -6.277  -2.163  -2.056  1.00  0.00     0.118 C 
ENDROOT
BRANCH   1   2
ATOM      2  N   UNL     1      -5.836  -3.547  -1.936  1.00  0.00    -0.353 N 
ATOM      3  C   UNL     1      -4.578  -4.082  -2.059  1.00  0.00     0.260 C 
ATOM      4  O   UNL     1      -4.439  -5.286  -1.823  1.00  0.00    -0.271 OA
ATOM      5  H   UNL     1      -6.548  -4.196  -1.735  1.00  0.00     0.163 HD
BRANCH   3   6
ATOM      6  C   UNL     1      -3.392  -3.212  -2.514  1.00  0.00     0.258 C 
ATOM      7  C   UNL     1      -3.614  -2.821  -3.971  1.00  0.00     0.064 C 
BRANCH   6   8
ATOM      8  O   UNL     1      -3.365  -2.173  -1.545  1.00  0.00    -0.480 OA
BRANCH   8   9
ATOM      9  C   UNL     1      -2.586  -1.061  -1.585  1.00  0.00     0.127 A 
ATOM     10  C   UNL     1      -2.724  -0.214  -0.461  1.00  0.00     0.018 A 
ATOM     11  C   UNL     1      -2.078   1.027  -0.436  1.00  0.00     0.012 A 
ATOM     12  C   UNL     1      -1.261   1.406  -1.498  1.00  0.00     0.001 A 
ATOM     13  C   UNL     1      -1.722  -0.698  -2.611  1.00  0.00     0.047 A 
ATOM     14  C   UNL     1      -1.069   0.538  -2.571  1.00  0.00     0.004 A 
BRANCH  10  15
ATOM     15  C   UNL     1      -3.532  -0.611   0.707  1.00  0.00     0.033 C 
ATOM     16  N   UNL     1      -2.313  -3.702   2.256  1.00  0.00    -0.261 N 
ATOM     17  C   UNL     1      -2.158  -2.659   1.348  1.00  0.00     0.270 C 
ATOM     18  C   UNL     1      -3.399  -3.622   3.113  1.00  0.00     0.152 C 
ATOM     19  O   UNL     1      -1.236  -2.523   0.553  1.00  0.00    -0.268 OA
ATOM     20  C   UNL     1      -3.292  -1.690   1.471  1.00  0.00     0.081 C 
ATOM     21  S   UNL     1      -4.335  -2.170   2.754  1.00  0.00    -0.054 SA
ATOM     22  S   UNL     1      -3.816  -4.606   4.403  1.00  0.00    -0.051 S 
BRANCH  16  23
ATOM     23  C   UNL     1      -1.396  -4.798   2.221  1.00  0.00     0.054 A 
ATOM     24  C   UNL     1       1.274  -8.159   1.672  1.00  0.00     0.044 C 
ATOM     25  C   UNL     1       0.336  -7.009   1.890  1.00  0.00    -0.051 A 
ATOM     26  C   UNL     1      -1.046  -7.185   1.841  1.00  0.00     0.005 A 
ATOM     27  C   UNL     1       0.848  -5.728   2.124  1.00  0.00     0.009 A 
ATOM     28  C   UNL     1      -1.902  -6.091   2.000  1.00  0.00     0.027 A 
ATOM     29  C   UNL     1       0.001  -4.619   2.310  1.00  0.00    -0.027 A 
ATOM     30  C   UNL     1       0.660  -3.294   2.590  1.00  0.00     0.046 C 
ENDBRANCH  16  23
ENDBRANCH  10  15
ENDBRANCH   8   9
ENDBRANCH   6   8
ENDBRANCH   3   6
ENDBRANCH   1   2
BRANCH   1  31
ATOM     31  C   UNL     1      -7.020  -1.880  -3.354  1.00  0.00     0.042 C 
BRANCH  31  32
ATOM     32  C   UNL     1      -8.377  -2.563  -3.453  1.00  0.00     0.118 C 
BRANCH  32  33
ATOM     33  N   UNL     1      -9.322  -2.074  -2.459  1.00  0.00    -0.352 N 
ATOM     34  C   UNL     1     -10.505  -1.392  -2.610  1.00  0.00     0.251 C 
ATOM     35  H   UNL     1      -9.073  -2.264  -1.526  1.00  0.00     0.163 HD
ATOM     36  O   UNL     1     -11.041  -0.903  -1.619  1.00  0.00    -0.269 OA
BRANCH  34  37
ATOM     37  C   UNL     1     -11.126  -1.225  -3.944  1.00  0.00     0.039 A 
ATOM     38  C   UNL     1     -11.738  -0.007  -4.255  1.00  0.00     0.014 A 
ATOM     39  C   UNL     1     -11.147  -2.268  -4.874  1.00  0.00     0.014 A 
ATOM     40  C   UNL     1     -12.308   0.187  -5.516  1.00  0.00     0.010 A 
ATOM     41  C   UNL     1     -11.642  -2.047  -6.157  1.00  0.00     0.010 A 
ATOM     42  C   UNL     1     -12.232  -0.820  -6.491  1.00  0.00    -0.014 A 
BRANCH  42  43
ATOM     43  C   UNL     1     -12.767  -0.615  -7.863  1.00  0.00     0.031 A 
ATOM     44  C   UNL     1     -13.900  -1.468  -8.369  1.00  0.00     0.074 A 
ATOM     45  C   UNL     1     -12.185   0.288  -8.677  1.00  0.00     0.049 A 
ATOM     46  N   UNL     1     -14.439  -1.503  -9.560  1.00  0.00    -0.248 NA
ATOM     47  C   UNL     1     -14.484  -2.429  -7.419  1.00  0.00     0.031 C 
ATOM     48  C   UNL     1     -11.051   1.144  -8.320  1.00  0.00     0.029 A 
ATOM     49  N   UNL     1     -12.458   0.629  -9.978  1.00  0.00    -0.354 N 
ATOM     50  C   UNL     1     -15.403  -2.503  -9.512  1.00  0.00     0.074 A 
ATOM     51  C   UNL     1     -15.349  -3.078  -8.186  1.00  0.00     0.031 C 
ATOM     52  C   UNL     1     -10.741   1.925  -9.368  1.00  0.00     0.029 A 
ATOM     53  C   UNL     1     -11.626   1.601 -10.482  1.00  0.00     0.049 A 
ATOM     54  H   UNL     1     -13.182   0.216 -10.502  1.00  0.00     0.167 HD
ATOM     55  C   UNL     1     -16.267  -2.894 -10.480  1.00  0.00     0.037 A 
ATOM     56  C   UNL     1     -11.577   2.163 -11.705  1.00  0.00     0.037 A 
ATOM     57  C   UNL     1     -16.348  -2.287 -11.782  1.00  0.00     0.049 A 
ATOM     58  C   UNL     1     -12.559   1.723 -12.756  1.00  0.00     0.074 A 
ATOM     59  C   UNL     1     -17.244  -2.557 -12.802  1.00  0.00     0.029 A 
ATOM     60  N   UNL     1     -15.506  -1.286 -12.244  1.00  0.00    -0.354 N 
ATOM     61  N   UNL     1     -13.506   0.820 -12.671  1.00  0.00    -0.248 NA
ATOM     62  C   UNL     1     -12.469   2.380 -14.067  1.00  0.00     0.031 C 
ATOM     63  C   UNL     1     -16.921  -1.746 -13.895  1.00  0.00     0.029 A 
ATOM     64  C   UNL     1     -15.849  -0.941 -13.541  1.00  0.00     0.049 A 
ATOM     65  H   UNL     1     -14.773  -0.881 -11.727  1.00  0.00     0.167 HD
ATOM     66  C   UNL     1     -14.143   0.821 -13.907  1.00  0.00     0.074 A 
ATOM     67  C   UNL     1     -13.479   1.820 -14.719  1.00  0.00     0.031 C 
ATOM     68  C   UNL     1     -15.185   0.064 -14.331  1.00  0.00     0.037 A 
BRANCH  55  69
ATOM     69  C   UNL     1     -17.202  -4.029 -10.167  1.00  0.00     0.058 A 
ATOM     70  C   UNL     1     -18.285  -3.872  -9.287  1.00  0.00     0.135 A 
ATOM     71  C   UNL     1     -17.041  -5.277 -10.790  1.00  0.00     0.135 A 
ATOM     72  F   UNL     1     -18.476  -2.704  -8.653  1.00  0.00    -0.206 F 
ATOM     73  C   UNL     1     -19.161  -4.918  -9.018  1.00  0.00     0.059 A 
ATOM     74  C   UNL     1     -17.919  -6.331 -10.555  1.00  0.00     0.059 A 
ATOM     75  F   UNL     1     -16.021  -5.482 -11.639  1.00  0.00    -0.206 F 
ATOM     76  C   UNL     1     -18.969  -6.145  -9.656  1.00  0.00     0.060 A 
BRANCH  76  77
ATOM     77  S   UNL     1     -20.122  -7.489  -9.306  1.00  0.00     0.124 S 
ATOM     78  O   UNL     1     -19.694  -7.899  -7.972  1.00  0.00    -0.237 OA
ATOM     79  O   UNL     1     -21.417  -6.819  -9.377  1.00  0.00    -0.237 OA
ATOM     80  O   UNL     1     -19.858  -8.450 -10.373  1.00  0.00    -0.744 OA
ENDBRANCH  76  77
ENDBRANCH  55  69
BRANCH  56  81
ATOM     81  C   UNL     1     -10.577   3.224 -11.999  1.00  0.00     0.058 A 
ATOM     82  C   UNL     1     -10.976   4.559 -12.162  1.00  0.00     0.135 A 
ATOM     83  C   UNL     1      -9.211   2.929 -12.120  1.00  0.00     0.135 A 
ATOM     84  F   UNL     1     -12.273   4.888 -12.061  1.00  0.00    -0.206 F 
ATOM     85  C   UNL     1     -10.059   5.563 -12.454  1.00  0.00     0.059 A 
ATOM     86  C   UNL     1      -8.271   3.920 -12.389  1.00  0.00     0.059 A 
ATOM     87  F   UNL     1      -8.777   1.670 -11.955  1.00  0.00    -0.206 F 
ATOM     88  C   UNL     1      -8.708   5.233 -12.566  1.00  0.00     0.060 A 
BRANCH  88  89
ATOM     89  S   UNL     1      -7.519   6.549 -12.907  1.00  0.00     0.124 S 
ATOM     90  O   UNL     1      -7.748   6.792 -14.326  1.00  0.00    -0.237 OA
ATOM     91  O   UNL     1      -7.958   7.604 -11.998  1.00  0.00    -0.237 OA
ATOM     92  O   UNL     1      -6.237   5.936 -12.569  1.00  0.00    -0.744 OA
ENDBRANCH  88  89
ENDBRANCH  56  81
BRANCH  68  93
ATOM     93  C   UNL     1     -15.698   0.312 -15.721  1.00  0.00     0.058 A 
ATOM     94  C   UNL     1     -14.996  -0.125 -16.854  1.00  0.00     0.135 A 
ATOM     95  C   UNL     1     -16.934   0.950 -15.918  1.00  0.00     0.135 A 
ATOM     96  F   UNL     1     -13.807  -0.734 -16.719  1.00  0.00    -0.206 F 
ATOM     97  C   UNL     1     -15.492   0.079 -18.138  1.00  0.00     0.059 A 
ATOM     98  C   UNL     1     -17.460   1.143 -17.191  1.00  0.00     0.059 A 
ATOM     99  F   UNL     1     -17.649   1.378 -14.866  1.00  0.00    -0.206 F 
ATOM    100  C   UNL     1     -16.726   0.713 -18.296  1.00  0.00     0.060 A 
BRANCH 100 101
ATOM    101  S   UNL     1     -17.377   0.941 -19.964  1.00  0.00     0.124 S 
ATOM    102  O   UNL     1     -16.567   2.056 -20.445  1.00  0.00    -0.237 OA
ATOM    103  O   UNL     1     -17.108  -0.352 -20.586  1.00  0.00    -0.237 OA
ATOM    104  O   UNL     1     -18.788   1.239 -19.739  1.00  0.00    -0.744 OA
ENDBRANCH 100 101
ENDBRANCH  68  93
ENDBRANCH  42  43
ENDBRANCH  34  37
ENDBRANCH  32  33
ENDBRANCH  31  32
ENDBRANCH   1  31
TORSDOF 17
