REMARK SMILES CCc1noc(C)c1C(=O)Nc1cc(Cl)ccc1C(=O)NCCCNC(=O)c1ccc(-c2c3nc(c(-c4c(F)cc(S(=O)(=O)[O-])cc4F)c4ccc([nH]4)c(-c4c(F)cc(S(=O)(=O)[O-])cc4F)c4nc(c(-c5c(F)cc(S(=O)(=O)[O-])cc5F)c5ccc2[nH]5)C=C4)C=C3)cc1
REMARK SMILES IDX 23 1 22 2 21 3 19 4 20 5 18 7 12 8 13 9 14 10 17 11 15 12
REMARK SMILES IDX 16 13 11 14 9 15 10 16 8 18 3 19 4 20 5 21 6 22 7 23 2 24
REMARK SMILES IDX 1 25 24 26 25 27 26 28 27 30 28 31 29 32 93 33 30 34 92 35
REMARK SMILES IDX 31 36 32 37 33 38 86 39 34 40 91 41 85 42 87 43 35 44 90 45
REMARK SMILES IDX 84 46 83 47 36 49 70 50 49 51 69 52 50 53 53 54 68 55 88 56
REMARK SMILES IDX 51 57 52 58 67 60 89 61 54 62 37 63 38 64 47 65 39 66 40 67
REMARK SMILES IDX 46 68 48 69 41 70 42 71 43 72 44 73 45 74 71 75 72 76 81 77
REMARK SMILES IDX 73 78 74 79 80 80 82 81 75 82 76 83 77 84 78 85 79 86 55 87
REMARK SMILES IDX 56 88 65 89 57 90 58 91 64 92 66 93 59 94 60 95 61 96 62 97
REMARK SMILES IDX 63 98
REMARK H PARENT 21 6 11 17 25 29 87 48 53 59
REMARK Flexibility Score: inf
ROOT
ATOM      1  C   UNL     1      -3.468  -3.012  -1.334  1.00  0.00     0.042 C 
ENDROOT
BRANCH   1   2
ATOM      2  C   UNL     1      -2.297  -3.956  -1.106  1.00  0.00     0.118 C 
BRANCH   2   3
ATOM      3  N   UNL     1      -2.565  -5.375  -1.212  1.00  0.00    -0.352 N 
ATOM      4  C   UNL     1      -1.771  -6.454  -1.520  1.00  0.00     0.253 C 
ATOM      5  O   UNL     1      -2.317  -7.560  -1.449  1.00  0.00    -0.269 OA
ATOM      6  H   UNL     1      -3.502  -5.615  -1.026  1.00  0.00     0.163 HD
BRANCH   4   7
ATOM      7  C   UNL     1      -0.339  -6.420  -1.977  1.00  0.00     0.063 A 
ATOM      8  C   UNL     1       0.682  -5.513  -1.625  1.00  0.00     0.055 A 
ATOM      9  C   UNL     1       1.996  -5.698  -2.092  1.00  0.00     0.047 A 
ATOM     10  C   UNL     1       2.297  -6.750  -2.954  1.00  0.00     0.043 A 
ATOM     11  C   UNL     1      -0.002  -7.460  -2.873  1.00  0.00     0.017 A 
ATOM     12  Cl  UNL     1       3.905  -6.960  -3.524  1.00  0.00    -0.084 Cl
ATOM     13  C   UNL     1       1.298  -7.621  -3.364  1.00  0.00     0.021 A 
BRANCH   8  14
ATOM     14  N   UNL     1       0.477  -4.491  -0.707  1.00  0.00    -0.321 N 
ATOM     15  C   UNL     1       0.698  -3.130  -0.773  1.00  0.00     0.261 C 
ATOM     16  O   UNL     1       0.465  -2.542   0.286  1.00  0.00    -0.269 OA
ATOM     17  H   UNL     1       0.105  -4.795   0.152  1.00  0.00     0.170 HD
BRANCH  15  18
ATOM     18  C   UNL     1       1.034  -2.374  -1.982  1.00  0.00     0.105 A 
ATOM     19  C   UNL     1       1.163  -0.933  -2.016  1.00  0.00     0.096 A 
ATOM     20  N   UNL     1       1.588  -0.504  -3.206  1.00  0.00    -0.084 NA
ATOM     21  O   UNL     1       1.564  -1.595  -4.022  1.00  0.00    -0.361 OA
ATOM     22  C   UNL     1       1.118  -2.683  -3.337  1.00  0.00     0.146 A 
ATOM     23  C   UNL     1       0.796  -3.791  -4.257  1.00  0.00     0.092 C 
BRANCH  19  24
ATOM     24  C   UNL     1       0.756   0.101  -1.013  1.00  0.00     0.057 C 
ATOM     25  C   UNL     1       1.721   0.306   0.137  1.00  0.00     0.011 C 
ENDBRANCH  19  24
ENDBRANCH  15  18
ENDBRANCH   8  14
ENDBRANCH   4   7
ENDBRANCH   2   3
ENDBRANCH   1   2
BRANCH   1  26
ATOM     26  C   UNL     1      -4.668  -3.207  -0.417  1.00  0.00     0.118 C 
BRANCH  26  27
ATOM     27  N   UNL     1      -4.414  -2.947   0.994  1.00  0.00    -0.352 N 
ATOM     28  C   UNL     1      -4.641  -1.859   1.806  1.00  0.00     0.251 C 
ATOM     29  H   UNL     1      -3.994  -3.704   1.463  1.00  0.00     0.163 HD
ATOM     30  O   UNL     1      -4.280  -1.923   2.981  1.00  0.00    -0.269 OA
BRANCH  28  31
ATOM     31  C   UNL     1      -5.248  -0.601   1.304  1.00  0.00     0.039 A 
ATOM     32  C   UNL     1      -4.760   0.617   1.796  1.00  0.00     0.014 A 
ATOM     33  C   UNL     1      -6.291  -0.584   0.382  1.00  0.00     0.014 A 
ATOM     34  C   UNL     1      -5.226   1.829   1.273  1.00  0.00     0.010 A 
ATOM     35  C   UNL     1      -6.679   0.614  -0.217  1.00  0.00     0.010 A 
ATOM     36  C   UNL     1      -6.135   1.836   0.204  1.00  0.00    -0.014 A 
BRANCH  36  37
ATOM     37  C   UNL     1      -6.492   3.087  -0.521  1.00  0.00     0.031 A 
ATOM     38  C   UNL     1      -7.928   3.530  -0.630  1.00  0.00     0.074 A 
ATOM     39  C   UNL     1      -5.531   3.765  -1.183  1.00  0.00     0.049 A 
ATOM     40  N   UNL     1      -8.443   4.495  -1.348  1.00  0.00    -0.248 NA
ATOM     41  C   UNL     1      -8.921   2.766   0.143  1.00  0.00     0.031 C 
ATOM     42  C   UNL     1      -4.108   3.413  -1.206  1.00  0.00     0.029 A 
ATOM     43  N   UNL     1      -5.604   4.878  -1.984  1.00  0.00    -0.354 N 
ATOM     44  C   UNL     1      -9.816   4.439  -1.135  1.00  0.00     0.074 A 
ATOM     45  C   UNL     1     -10.059   3.316  -0.256  1.00  0.00     0.031 C 
ATOM     46  C   UNL     1      -3.444   4.300  -1.961  1.00  0.00     0.029 A 
ATOM     47  C   UNL     1      -4.394   5.253  -2.522  1.00  0.00     0.049 A 
ATOM     48  H   UNL     1      -6.443   5.363  -2.157  1.00  0.00     0.167 HD
ATOM     49  C   UNL     1     -10.783   5.260  -1.612  1.00  0.00     0.037 A 
ATOM     50  C   UNL     1      -4.083   6.237  -3.389  1.00  0.00     0.037 A 
ATOM     51  C   UNL     1     -10.532   6.401  -2.454  1.00  0.00     0.049 A 
ATOM     52  C   UNL     1      -5.174   7.129  -3.912  1.00  0.00     0.074 A 
ATOM     53  C   UNL     1     -11.434   7.344  -2.915  1.00  0.00     0.029 A 
ATOM     54  N   UNL     1      -9.291   6.753  -2.965  1.00  0.00    -0.354 N 
ATOM     55  N   UNL     1      -6.458   7.101  -3.643  1.00  0.00    -0.248 NA
ATOM     56  C   UNL     1      -4.779   8.179  -4.861  1.00  0.00     0.031 C 
ATOM     57  C   UNL     1     -10.747   8.240  -3.741  1.00  0.00     0.029 A 
ATOM     58  C   UNL     1      -9.409   7.880  -3.762  1.00  0.00     0.049 A 
ATOM     59  H   UNL     1      -8.450   6.272  -2.787  1.00  0.00     0.167 HD
ATOM     60  C   UNL     1      -7.022   8.134  -4.383  1.00  0.00     0.074 A 
ATOM     61  C   UNL     1      -5.938   8.781  -5.093  1.00  0.00     0.031 C 
ATOM     62  C   UNL     1      -8.322   8.509  -4.469  1.00  0.00     0.037 A 
BRANCH  49  63
ATOM     63  C   UNL     1     -12.207   4.961  -1.228  1.00  0.00     0.058 A 
ATOM     64  C   UNL     1     -12.675   5.165   0.080  1.00  0.00     0.135 A 
ATOM     65  C   UNL     1     -13.126   4.506  -2.187  1.00  0.00     0.135 A 
ATOM     66  F   UNL     1     -11.837   5.588   1.040  1.00  0.00    -0.206 F 
ATOM     67  C   UNL     1     -13.994   4.898   0.431  1.00  0.00     0.059 A 
ATOM     68  C   UNL     1     -14.458   4.258  -1.865  1.00  0.00     0.059 A 
ATOM     69  F   UNL     1     -12.734   4.297  -3.454  1.00  0.00    -0.206 F 
ATOM     70  C   UNL     1     -14.878   4.442  -0.548  1.00  0.00     0.060 A 
BRANCH  70  71
ATOM     71  S   UNL     1     -16.587   4.101  -0.075  1.00  0.00     0.124 S 
ATOM     72  O   UNL     1     -16.436   2.859   0.677  1.00  0.00    -0.237 OA
ATOM     73  O   UNL     1     -16.935   5.279   0.712  1.00  0.00    -0.237 OA
ATOM     74  O   UNL     1     -17.277   3.979  -1.355  1.00  0.00    -0.744 OA
ENDBRANCH  70  71
ENDBRANCH  49  63
BRANCH  50  75
ATOM     75  C   UNL     1      -2.671   6.431  -3.815  1.00  0.00     0.058 A 
ATOM     76  C   UNL     1      -1.934   7.539  -3.373  1.00  0.00     0.135 A 
ATOM     77  C   UNL     1      -2.024   5.507  -4.652  1.00  0.00     0.135 A 
ATOM     78  F   UNL     1      -2.511   8.453  -2.578  1.00  0.00    -0.206 F 
ATOM     79  C   UNL     1      -0.611   7.734  -3.755  1.00  0.00     0.059 A 
ATOM     80  C   UNL     1      -0.694   5.667  -5.027  1.00  0.00     0.059 A 
ATOM     81  F   UNL     1      -2.682   4.422  -5.090  1.00  0.00    -0.206 F 
ATOM     82  C   UNL     1       0.002   6.789  -4.580  1.00  0.00     0.060 A 
BRANCH  82  83
ATOM     83  S   UNL     1       1.735   7.032  -5.029  1.00  0.00     0.124 S 
ATOM     84  O   UNL     1       1.640   8.132  -5.981  1.00  0.00    -0.237 OA
ATOM     85  O   UNL     1       2.342   7.352  -3.741  1.00  0.00    -0.237 OA
ATOM     86  O   UNL     1       2.119   5.741  -5.592  1.00  0.00    -0.744 OA
ENDBRANCH  82  83
ENDBRANCH  50  75
BRANCH  62  87
ATOM     87  C   UNL     1      -8.650   9.671  -5.363  1.00  0.00     0.058 A 
ATOM     88  C   UNL     1      -8.653   9.539  -6.760  1.00  0.00     0.135 A 
ATOM     89  C   UNL     1      -9.029  10.909  -4.819  1.00  0.00     0.135 A 
ATOM     90  F   UNL     1      -8.287   8.379  -7.329  1.00  0.00    -0.206 F 
ATOM     91  C   UNL     1      -9.012  10.596  -7.589  1.00  0.00     0.059 A 
ATOM     92  C   UNL     1      -9.416  11.973  -5.628  1.00  0.00     0.059 A 
ATOM     93  F   UNL     1      -9.049  11.085  -3.489  1.00  0.00    -0.206 F 
ATOM     94  C   UNL     1      -9.399  11.808  -7.013  1.00  0.00     0.060 A 
BRANCH  94  95
ATOM     95  S   UNL     1      -9.918  13.154  -8.099  1.00  0.00     0.124 S 
ATOM     96  O   UNL     1      -8.643  13.589  -8.659  1.00  0.00    -0.237 OA
ATOM     97  O   UNL     1     -10.820  12.476  -9.026  1.00  0.00    -0.237 OA
ATOM     98  O   UNL     1     -10.559  14.098  -7.188  1.00  0.00    -0.744 OA
ENDBRANCH  94  95
ENDBRANCH  62  87
ENDBRANCH  36  37
ENDBRANCH  28  31
ENDBRANCH  26  27
ENDBRANCH   1  26
TORSDOF 16
