REMARK SMILES COc1ccc(OC)c([C@H](C(=O)NCCCNC(=O)c2ccc(-c3c4nc(c(-c5c(F)cc(S(=O)(=O)[O-])cc5F)c5ccc([nH]5)c(-c5c(F)cc(S(=O)(=O)[O-])cc5F)c5nc(c(-c6c(F)cc(S(=O)(=O)[O-])cc6F)c6ccc3[nH]6)C=C5)C=C4)cc2)[NH+]2CC[NH+](Cc3nccn3C)CC2)c1
REMARK SMILES IDX 15 1 14 2 13 3 11 4 12 5 10 7 9 8 3 9 4 10 99 11 5 12 6 13
REMARK SMILES IDX 2 14 1 15 7 16 8 17 86 18 87 19 98 20 88 22 97 23 89 24
REMARK SMILES IDX 90 26 91 27 92 28 95 29 93 30 94 31 96 32 16 33 17 34 18 35
REMARK SMILES IDX 19 37 20 38 21 39 85 40 22 41 84 42 23 43 24 44 25 45 78 46
REMARK SMILES IDX 26 47 83 48 77 49 79 50 27 51 82 52 76 53 75 54 28 56 62 57
REMARK SMILES IDX 41 58 61 59 42 60 45 61 60 62 80 63 43 64 44 65 59 67 81 68
REMARK SMILES IDX 46 69 29 70 30 71 39 72 31 73 32 74 38 75 40 76 33 77 34 78
REMARK SMILES IDX 35 79 36 80 37 81 63 82 64 83 73 84 65 85 66 86 72 87 74 88
REMARK SMILES IDX 67 89 68 90 69 91 70 92 71 93 47 94 48 95 57 96 49 97 50 98
REMARK SMILES IDX 56 99 58 100 51 101 52 102 53 103 54 104 55 105
REMARK H PARENT 13 6 86 21 89 25 17 36 79 55 45 66
REMARK Flexibility Score: inf
ROOT
ATOM      1  C   UNL     1       1.297  -4.932   5.321  1.00  0.00     0.042 C 
ENDROOT
BRANCH   1   2
ATOM      2  C   UNL     1       1.819  -5.170   3.932  1.00  0.00     0.118 C 
BRANCH   2   3
ATOM      3  N   UNL     1       1.586  -4.011   3.074  1.00  0.00    -0.351 N 
ATOM      4  C   UNL     1       2.419  -3.370   2.202  1.00  0.00     0.283 C 
ATOM      5  O   UNL     1       1.948  -2.410   1.579  1.00  0.00    -0.268 OA
ATOM      6  H   UNL     1       0.681  -3.630   3.134  1.00  0.00     0.163 HD
BRANCH   4   7
ATOM      7  C   UNL     1       3.867  -3.850   1.940  1.00  0.00     0.309 C 
BRANCH   7   8
ATOM      8  C   UNL     1       4.753  -4.006   3.205  1.00  0.00     0.065 A 
ATOM      9  C   UNL     1       4.985  -3.482   5.621  1.00  0.00     0.119 A 
ATOM     10  C   UNL     1       6.060  -4.342   5.723  1.00  0.00     0.050 A 
ATOM     11  C   UNL     1       4.375  -3.278   4.379  1.00  0.00     0.060 A 
ATOM     12  C   UNL     1       6.532  -4.970   4.571  1.00  0.00     0.051 A 
ATOM     13  C   UNL     1       5.919  -4.792   3.310  1.00  0.00     0.128 A 
BRANCH   9  14
ATOM     14  O   UNL     1       4.622  -2.751   6.717  1.00  0.00    -0.497 OA
ATOM     15  C   UNL     1       3.513  -3.308   7.423  1.00  0.00     0.278 C 
ENDBRANCH   9  14
BRANCH  13  16
ATOM     16  O   UNL     1       6.553  -5.526   2.346  1.00  0.00    -0.496 OA
ATOM     17  C   UNL     1       6.729  -4.966   1.053  1.00  0.00     0.278 C 
ENDBRANCH  13  16
ENDBRANCH   7   8
BRANCH   7  18
ATOM     18  N   UNL     1       3.853  -4.957   0.951  1.00  0.00    -0.311 N 
ATOM     19  C   UNL     1       3.306  -6.251   1.345  1.00  0.00     0.325 C 
ATOM     20  C   UNL     1       3.460  -4.614  -0.424  1.00  0.00     0.325 C 
ATOM     21  H   UNL     1       4.862  -5.104   0.950  1.00  0.00     0.349 HD
ATOM     22  C   UNL     1       1.820  -6.504   0.973  1.00  0.00     0.324 C 
ATOM     23  C   UNL     1       2.013  -4.959  -0.877  1.00  0.00     0.324 C 
ATOM     24  N   UNL     1       1.424  -6.213  -0.403  1.00  0.00    -0.319 N 
ATOM     25  H   UNL     1       0.426  -6.003  -0.436  1.00  0.00     0.348 HD
BRANCH  24  26
ATOM     26  C   UNL     1       1.463  -7.388  -1.273  1.00  0.00     0.339 C 
BRANCH  26  27
ATOM     27  C   UNL     1       2.806  -8.029  -1.414  1.00  0.00     0.164 A 
ATOM     28  N   UNL     1       3.359  -8.842  -0.528  1.00  0.00    -0.236 NA
ATOM     29  N   UNL     1       3.671  -7.817  -2.458  1.00  0.00    -0.333 N 
ATOM     30  C   UNL     1       4.662  -8.993  -0.916  1.00  0.00     0.131 A 
ATOM     31  C   UNL     1       4.882  -8.352  -2.109  1.00  0.00     0.107 A 
ATOM     32  C   UNL     1       3.400  -7.165  -3.713  1.00  0.00     0.151 C 
ENDBRANCH  26  27
ENDBRANCH  24  26
ENDBRANCH   7  18
ENDBRANCH   4   7
ENDBRANCH   2   3
ENDBRANCH   1   2
BRANCH   1  33
ATOM     33  C   UNL     1      -0.215  -4.950   5.337  1.00  0.00     0.118 C 
BRANCH  33  34
ATOM     34  N   UNL     1      -0.750  -6.303   5.368  1.00  0.00    -0.352 N 
ATOM     35  C   UNL     1      -1.162  -7.069   6.435  1.00  0.00     0.251 C 
ATOM     36  H   UNL     1      -0.829  -6.739   4.489  1.00  0.00     0.163 HD
ATOM     37  O   UNL     1      -1.381  -8.262   6.278  1.00  0.00    -0.269 OA
BRANCH  35  38
ATOM     38  C   UNL     1      -1.297  -6.451   7.773  1.00  0.00     0.039 A 
ATOM     39  C   UNL     1      -0.919  -7.174   8.905  1.00  0.00     0.014 A 
ATOM     40  C   UNL     1      -1.787  -5.154   7.914  1.00  0.00     0.014 A 
ATOM     41  C   UNL     1      -0.974  -6.563  10.161  1.00  0.00     0.010 A 
ATOM     42  C   UNL     1      -1.670  -4.495   9.126  1.00  0.00     0.010 A 
ATOM     43  C   UNL     1      -1.310  -5.204  10.276  1.00  0.00    -0.014 A 
BRANCH  43  44
ATOM     44  C   UNL     1      -1.366  -4.515  11.590  1.00  0.00     0.031 A 
ATOM     45  C   UNL     1      -2.652  -3.866  12.040  1.00  0.00     0.074 A 
ATOM     46  C   UNL     1      -0.257  -4.425  12.349  1.00  0.00     0.049 A 
ATOM     47  N   UNL     1      -2.893  -3.172  13.122  1.00  0.00    -0.248 NA
ATOM     48  C   UNL     1      -3.810  -3.977  11.136  1.00  0.00     0.031 C 
ATOM     49  C   UNL     1       1.060  -4.963  11.996  1.00  0.00     0.029 A 
ATOM     50  N   UNL     1      -0.060  -3.851  13.579  1.00  0.00    -0.354 N 
ATOM     51  C   UNL     1      -4.214  -2.751  13.013  1.00  0.00     0.074 A 
ATOM     52  C   UNL     1      -4.695  -3.190  11.725  1.00  0.00     0.031 C 
ATOM     53  C   UNL     1       1.912  -4.739  13.009  1.00  0.00     0.029 A 
ATOM     54  C   UNL     1       1.219  -4.001  14.060  1.00  0.00     0.049 A 
ATOM     55  H   UNL     1      -0.768  -3.376  14.070  1.00  0.00     0.167 HD
ATOM     56  C   UNL     1      -4.975  -2.093  13.920  1.00  0.00     0.037 A 
ATOM     57  C   UNL     1       1.768  -3.593  15.220  1.00  0.00     0.037 A 
ATOM     58  C   UNL     1      -4.497  -1.689  15.214  1.00  0.00     0.049 A 
ATOM     59  C   UNL     1       0.911  -2.856  16.212  1.00  0.00     0.074 A 
ATOM     60  C   UNL     1      -5.194  -1.069  16.235  1.00  0.00     0.029 A 
ATOM     61  N   UNL     1      -3.195  -1.862  15.665  1.00  0.00    -0.354 N 
ATOM     62  N   UNL     1      -0.356  -2.524  16.122  1.00  0.00    -0.248 NA
ATOM     63  C   UNL     1       1.555  -2.443  17.465  1.00  0.00     0.031 C 
ATOM     64  C   UNL     1      -4.301  -0.818  17.281  1.00  0.00     0.029 A 
ATOM     65  C   UNL     1      -3.062  -1.337  16.939  1.00  0.00     0.049 A 
ATOM     66  H   UNL     1      -2.474  -2.295  15.154  1.00  0.00     0.167 HD
ATOM     67  C   UNL     1      -0.669  -1.888  17.318  1.00  0.00     0.074 A 
ATOM     68  C   UNL     1       0.540  -1.893  18.118  1.00  0.00     0.031 C 
ATOM     69  C   UNL     1      -1.849  -1.352  17.720  1.00  0.00     0.037 A 
BRANCH  56  70
ATOM     70  C   UNL     1      -6.397  -1.778  13.534  1.00  0.00     0.058 A 
ATOM     71  C   UNL     1      -7.356  -2.788  13.342  1.00  0.00     0.135 A 
ATOM     72  C   UNL     1      -6.806  -0.448  13.342  1.00  0.00     0.135 A 
ATOM     73  F   UNL     1      -7.019  -4.079  13.494  1.00  0.00    -0.206 F 
ATOM     74  C   UNL     1      -8.650  -2.496  12.924  1.00  0.00     0.059 A 
ATOM     75  C   UNL     1      -8.107  -0.130  12.960  1.00  0.00     0.059 A 
ATOM     76  F   UNL     1      -5.936   0.559  13.511  1.00  0.00    -0.206 F 
ATOM     77  C   UNL     1      -9.014  -1.163  12.730  1.00  0.00     0.060 A 
BRANCH  77  78
ATOM     78  S   UNL     1     -10.689  -0.803  12.162  1.00  0.00     0.124 S 
ATOM     79  O   UNL     1     -10.626  -1.245  10.772  1.00  0.00    -0.237 OA
ATOM     80  O   UNL     1     -11.504  -1.625  13.051  1.00  0.00    -0.237 OA
ATOM     81  O   UNL     1     -10.812   0.638  12.357  1.00  0.00    -0.744 OA
ENDBRANCH  77  78
ENDBRANCH  56  70
BRANCH  57  82
ATOM     82  C   UNL     1       3.189  -3.918  15.517  1.00  0.00     0.058 A 
ATOM     83  C   UNL     1       3.519  -4.866  16.497  1.00  0.00     0.135 A 
ATOM     84  C   UNL     1       4.241  -3.325  14.802  1.00  0.00     0.135 A 
ATOM     85  F   UNL     1       2.549  -5.457  17.212  1.00  0.00    -0.206 F 
ATOM     86  C   UNL     1       4.840  -5.212  16.762  1.00  0.00     0.059 A 
ATOM     87  C   UNL     1       5.569  -3.673  15.030  1.00  0.00     0.059 A 
ATOM     88  F   UNL     1       3.978  -2.425  13.841  1.00  0.00    -0.206 F 
ATOM     89  C   UNL     1       5.858  -4.615  16.017  1.00  0.00     0.060 A 
BRANCH  89  90
ATOM     90  S   UNL     1       7.563  -5.127  16.321  1.00  0.00     0.124 S 
ATOM     91  O   UNL     1       7.815  -4.544  17.634  1.00  0.00    -0.237 OA
ATOM     92  O   UNL     1       7.456  -6.582  16.277  1.00  0.00    -0.237 OA
ATOM     93  O   UNL     1       8.297  -4.526  15.212  1.00  0.00    -0.744 OA
ENDBRANCH  89  90
ENDBRANCH  57  82
BRANCH  69  94
ATOM     94  C   UNL     1      -1.904  -0.753  19.099  1.00  0.00     0.058 A 
ATOM     95  C   UNL     1      -1.260   0.454  19.407  1.00  0.00     0.135 A 
ATOM     96  C   UNL     1      -2.660  -1.371  20.108  1.00  0.00     0.135 A 
ATOM     97  F   UNL     1      -0.519   1.082  18.481  1.00  0.00    -0.206 F 
ATOM     98  C   UNL     1      -1.343   1.017  20.677  1.00  0.00     0.059 A 
ATOM     99  C   UNL     1      -2.784  -0.809  21.375  1.00  0.00     0.059 A 
ATOM    100  F   UNL     1      -3.307  -2.522  19.863  1.00  0.00    -0.206 F 
ATOM    101  C   UNL     1      -2.111   0.379  21.653  1.00  0.00     0.060 A 
BRANCH 101 102
ATOM    102  S   UNL     1      -2.240   1.140  23.285  1.00  0.00     0.124 S 
ATOM    103  O   UNL     1      -0.908   0.894  23.829  1.00  0.00    -0.237 OA
ATOM    104  O   UNL     1      -2.544   2.529  22.957  1.00  0.00    -0.237 OA
ATOM    105  O   UNL     1      -3.325   0.400  23.921  1.00  0.00    -0.744 OA
ENDBRANCH 101 102
ENDBRANCH  69  94
ENDBRANCH  43  44
ENDBRANCH  35  38
ENDBRANCH  33  34
ENDBRANCH   1  33
TORSDOF 19
