REMARK SMILES CN(C)S(=O)(=O)c1ccc(NC(=O)[C@@H]2CCCC[C@@H]2C(=O)NCCCNC(=O)c2ccc(-c3c4nc(c(-c5c(F)cc(S(=O)(=O)[O-])cc5F)c5ccc([nH]5)c(-c5c(F)cc(S(=O)(=O)[O-])cc5F)c5nc(c(-c6c(F)cc(S(=O)(=O)[O-])cc6F)c6ccc3[nH]6)C=C5)C=C4)cc2)cc1
REMARK SMILES IDX 23 1 22 2 20 3 21 4 19 6 14 7 15 8 16 9 18 10 17 11 12 12
REMARK SMILES IDX 11 13 13 15 10 16 7 17 8 18 96 19 9 20 95 21 4 22 5 23 6 24
REMARK SMILES IDX 2 25 1 26 3 27 24 28 25 29 26 30 27 31 28 33 29 34 30 35
REMARK SMILES IDX 94 36 31 37 93 38 32 39 33 40 34 41 87 42 35 43 92 44 86 45
REMARK SMILES IDX 88 46 36 47 91 48 85 49 84 50 37 52 71 53 50 54 70 55 51 56
REMARK SMILES IDX 54 57 69 58 89 59 52 60 53 61 68 63 90 64 55 65 38 66 39 67
REMARK SMILES IDX 48 68 40 69 41 70 47 71 49 72 42 73 43 74 44 75 45 76 46 77
REMARK SMILES IDX 72 78 73 79 82 80 74 81 75 82 81 83 83 84 76 85 77 86 78 87
REMARK SMILES IDX 79 88 80 89 56 90 57 91 66 92 58 93 59 94 65 95 67 96 60 97
REMARK SMILES IDX 61 98 62 99 63 100 64 101
REMARK H PARENT 22 5 11 14 26 32 88 51 54 62
REMARK Flexibility Score: inf
ROOT
ATOM      1  C   UNL     1      -1.297  12.114  -3.986  1.00  0.00     0.117 C 
ENDROOT
BRANCH   1   2
ATOM      2  N   UNL     1      -1.909  10.808  -4.085  1.00  0.00    -0.356 N 
ATOM      3  C   UNL     1      -1.372   9.566  -4.129  1.00  0.00     0.223 C 
ATOM      4  O   UNL     1      -2.190   8.641  -4.138  1.00  0.00    -0.275 OA
ATOM      5  H   UNL     1      -2.893  10.825  -4.127  1.00  0.00     0.163 HD
BRANCH   3   6
ATOM      6  C   UNL     1       0.151   9.332  -4.184  1.00  0.00     0.091 C 
ATOM      7  C   UNL     1       0.461   7.795  -4.133  1.00  0.00     0.091 C 
ATOM      8  C   UNL     1       0.023   7.252  -2.747  1.00  0.00     0.014 C 
ATOM      9  C   UNL     1       0.702   7.989  -1.592  1.00  0.00     0.001 C 
ATOM     10  C   UNL     1       0.938  10.010  -3.047  1.00  0.00     0.014 C 
ATOM     11  C   UNL     1       0.520   9.495  -1.677  1.00  0.00     0.001 C 
BRANCH   7  12
ATOM     12  C   UNL     1      -0.103   7.100  -5.397  1.00  0.00     0.228 C 
ATOM     13  N   UNL     1      -0.246   5.743  -5.506  1.00  0.00    -0.326 N 
ATOM     14  H   UNL     1      -0.778   5.447  -6.279  1.00  0.00     0.169 HD
ATOM     15  O   UNL     1      -0.420   7.763  -6.393  1.00  0.00    -0.274 OA
BRANCH  13  16
ATOM     16  C   UNL     1       0.238   4.709  -4.701  1.00  0.00     0.041 A 
ATOM     17  C   UNL     1       0.835   2.930  -2.651  1.00  0.00     0.082 A 
ATOM     18  C   UNL     1       1.779   3.888  -3.045  1.00  0.00     0.024 A 
ATOM     19  C   UNL     1      -0.307   2.725  -3.423  1.00  0.00     0.024 A 
ATOM     20  C   UNL     1       1.488   4.764  -4.088  1.00  0.00     0.027 A 
ATOM     21  C   UNL     1      -0.603   3.620  -4.458  1.00  0.00     0.027 A 
BRANCH  17  22
ATOM     22  S   UNL     1       1.118   2.145  -1.079  1.00  0.00     0.242 S 
ATOM     23  O   UNL     1       0.530   2.998  -0.069  1.00  0.00    -0.207 OA
ATOM     24  O   UNL     1       2.532   1.822  -1.050  1.00  0.00    -0.207 OA
BRANCH  22  25
ATOM     25  N   UNL     1       0.261   0.659  -1.056  1.00  0.00    -0.204 NA
ATOM     26  C   UNL     1       0.893  -0.317  -0.124  1.00  0.00     0.124 C 
ATOM     27  C   UNL     1      -1.190   0.766  -0.746  1.00  0.00     0.124 C 
ENDBRANCH  22  25
ENDBRANCH  17  22
ENDBRANCH  13  16
ENDBRANCH   7  12
ENDBRANCH   3   6
ENDBRANCH   1   2
BRANCH   1  28
ATOM     28  C   UNL     1      -2.071  13.203  -4.715  1.00  0.00     0.042 C 
BRANCH  28  29
ATOM     29  C   UNL     1      -3.565  13.263  -4.426  1.00  0.00     0.118 C 
BRANCH  29  30
ATOM     30  N   UNL     1      -3.896  13.630  -3.055  1.00  0.00    -0.352 N 
ATOM     31  C   UNL     1      -4.404  14.803  -2.541  1.00  0.00     0.251 C 
ATOM     32  H   UNL     1      -3.729  12.926  -2.388  1.00  0.00     0.163 HD
ATOM     33  O   UNL     1      -4.522  14.931  -1.325  1.00  0.00    -0.269 OA
BRANCH  31  34
ATOM     34  C   UNL     1      -4.751  15.928  -3.439  1.00  0.00     0.039 A 
ATOM     35  C   UNL     1      -4.305  17.211  -3.110  1.00  0.00     0.014 A 
ATOM     36  C   UNL     1      -5.473  15.725  -4.615  1.00  0.00     0.014 A 
ATOM     37  C   UNL     1      -4.469  18.257  -4.022  1.00  0.00     0.010 A 
ATOM     38  C   UNL     1      -5.546  16.741  -5.565  1.00  0.00     0.010 A 
ATOM     39  C   UNL     1      -5.024  18.013  -5.289  1.00  0.00    -0.014 A 
BRANCH  39  40
ATOM     40  C   UNL     1      -5.014  19.049  -6.358  1.00  0.00     0.031 A 
ATOM     41  C   UNL     1      -6.303  19.518  -6.978  1.00  0.00     0.074 A 
ATOM     42  C   UNL     1      -3.833  19.486  -6.845  1.00  0.00     0.049 A 
ATOM     43  N   UNL     1      -6.483  20.310  -8.004  1.00  0.00    -0.248 NA
ATOM     44  C   UNL     1      -7.553  19.007  -6.391  1.00  0.00     0.031 C 
ATOM     45  C   UNL     1      -2.510  19.056  -6.379  1.00  0.00     0.029 A 
ATOM     46  N   UNL     1      -3.550  20.371  -7.857  1.00  0.00    -0.354 N 
ATOM     47  C   UNL     1      -7.857  20.369  -8.203  1.00  0.00     0.074 A 
ATOM     48  C   UNL     1      -8.465  19.506  -7.214  1.00  0.00     0.031 C 
ATOM     49  C   UNL     1      -1.563  19.687  -7.091  1.00  0.00     0.029 A 
ATOM     50  C   UNL     1      -2.203  20.531  -8.093  1.00  0.00     0.049 A 
ATOM     51  H   UNL     1      -4.245  20.847  -8.365  1.00  0.00     0.167 HD
ATOM     52  C   UNL     1      -8.548  21.093  -9.115  1.00  0.00     0.037 A 
ATOM     53  C   UNL     1      -1.554  21.256  -9.025  1.00  0.00     0.037 A 
ATOM     54  C   UNL     1      -7.944  21.995 -10.059  1.00  0.00     0.049 A 
ATOM     55  C   UNL     1      -2.350  22.064 -10.013  1.00  0.00     0.074 A 
ATOM     56  C   UNL     1      -8.569  22.858 -10.942  1.00  0.00     0.029 A 
ATOM     57  N   UNL     1      -6.579  22.152 -10.245  1.00  0.00    -0.354 N 
ATOM     58  N   UNL     1      -3.652  22.176 -10.124  1.00  0.00    -0.248 NA
ATOM     59  C   UNL     1      -1.592  22.839 -11.005  1.00  0.00     0.031 C 
ATOM     60  C   UNL     1      -7.583  23.508 -11.691  1.00  0.00     0.029 A 
ATOM     61  C   UNL     1      -6.344  23.076 -11.250  1.00  0.00     0.049 A 
ATOM     62  H   UNL     1      -5.881  21.678  -9.738  1.00  0.00     0.167 HD
ATOM     63  C   UNL     1      -3.867  23.043 -11.189  1.00  0.00     0.074 A 
ATOM     64  C   UNL     1      -2.564  23.443 -11.675  1.00  0.00     0.031 C 
ATOM     65  C   UNL     1      -5.040  23.464 -11.721  1.00  0.00     0.037 A 
BRANCH  52  66
ATOM     66  C   UNL     1     -10.045  20.965  -9.132  1.00  0.00     0.058 A 
ATOM     67  C   UNL     1     -10.843  21.559  -8.143  1.00  0.00     0.135 A 
ATOM     68  C   UNL     1     -10.692  20.320 -10.199  1.00  0.00     0.135 A 
ATOM     69  F   UNL     1     -10.274  22.175  -7.094  1.00  0.00    -0.206 F 
ATOM     70  C   UNL     1     -12.232  21.513  -8.206  1.00  0.00     0.059 A 
ATOM     71  C   UNL     1     -12.080  20.280 -10.293  1.00  0.00     0.059 A 
ATOM     72  F   UNL     1      -9.973  19.733 -11.169  1.00  0.00    -0.206 F 
ATOM     73  C   UNL     1     -12.841  20.877  -9.289  1.00  0.00     0.060 A 
BRANCH  73  74
ATOM     74  S   UNL     1     -14.644  20.870  -9.381  1.00  0.00     0.124 S 
ATOM     75  O   UNL     1     -14.985  19.897  -8.347  1.00  0.00    -0.237 OA
ATOM     76  O   UNL     1     -14.977  22.259  -9.078  1.00  0.00    -0.237 OA
ATOM     77  O   UNL     1     -14.914  20.450 -10.752  1.00  0.00    -0.744 OA
ENDBRANCH  73  74
ENDBRANCH  52  66
BRANCH  53  78
ATOM     78  C   UNL     1      -0.068  21.247  -9.085  1.00  0.00     0.058 A 
ATOM     79  C   UNL     1       0.675  22.383  -8.729  1.00  0.00     0.135 A 
ATOM     80  C   UNL     1       0.637  20.115  -9.522  1.00  0.00     0.135 A 
ATOM     81  F   UNL     1       0.045  23.491  -8.312  1.00  0.00    -0.206 F 
ATOM     82  C   UNL     1       2.062  22.407  -8.832  1.00  0.00     0.059 A 
ATOM     83  C   UNL     1       2.025  20.107  -9.610  1.00  0.00     0.059 A 
ATOM     84  F   UNL     1      -0.027  18.997  -9.857  1.00  0.00    -0.206 F 
ATOM     85  C   UNL     1       2.728  21.265  -9.279  1.00  0.00     0.060 A 
BRANCH  85  86
ATOM     86  S   UNL     1       4.530  21.296  -9.393  1.00  0.00     0.124 S 
ATOM     87  O   UNL     1       4.731  22.048 -10.626  1.00  0.00    -0.237 OA
ATOM     88  O   UNL     1       4.908  21.979  -8.159  1.00  0.00    -0.237 OA
ATOM     89  O   UNL     1       4.884  19.881  -9.449  1.00  0.00    -0.744 OA
ENDBRANCH  85  86
ENDBRANCH  53  78
BRANCH  65  90
ATOM     90  C   UNL     1      -4.970  24.413 -12.883  1.00  0.00     0.058 A 
ATOM     91  C   UNL     1      -4.619  23.968 -14.167  1.00  0.00     0.135 A 
ATOM     92  C   UNL     1      -5.309  25.765 -12.723  1.00  0.00     0.135 A 
ATOM     93  F   UNL     1      -4.277  22.686 -14.367  1.00  0.00    -0.206 F 
ATOM     94  C   UNL     1      -4.593  24.837 -15.252  1.00  0.00     0.059 A 
ATOM     95  C   UNL     1      -5.312  26.647 -13.800  1.00  0.00     0.059 A 
ATOM     96  F   UNL     1      -5.659  26.237 -11.516  1.00  0.00    -0.206 F 
ATOM     97  C   UNL     1      -4.944  26.174 -15.059  1.00  0.00     0.060 A 
BRANCH  97  98
ATOM     98  S   UNL     1      -4.949  27.283 -16.484  1.00  0.00     0.124 S 
ATOM     99  O   UNL     1      -3.522  27.517 -16.678  1.00  0.00    -0.237 OA
ATOM    100  O   UNL     1      -5.604  26.475 -17.509  1.00  0.00    -0.237 OA
ATOM    101  O   UNL     1      -5.717  28.433 -16.016  1.00  0.00    -0.744 OA
ENDBRANCH  97  98
ENDBRANCH  65  90
ENDBRANCH  39  40
ENDBRANCH  31  34
ENDBRANCH  29  30
ENDBRANCH  28  29
ENDBRANCH   1  28
TORSDOF 17
