REMARK SMILES COc1ccc(-c2c(C(=O)NCCCNC(=O)c3ccc(-c4c5nc(c(-c6c(F)cc(S(=O)(=O)[O-])cc6F)c6ccc([nH]6)c(-c6c(F)cc(S(=O)(=O)[O-])cc6F)c6nc(c(-c7c(F)cc(S(=O)(=O)[O-])cc7F)c7ccc4[nH]7)C=C6)C=C5)cc3)nnn2-c2ccc3c(c2)OCCO3)cc1
REMARK SMILES IDX 13 1 12 2 11 3 9 4 10 5 8 7 7 8 86 9 84 10 85 11 6 12 3 13
REMARK SMILES IDX 4 14 98 15 5 16 97 17 2 18 1 19 87 20 88 21 92 22 89 23
REMARK SMILES IDX 91 24 90 25 93 26 96 27 94 28 95 29 14 30 15 31 16 32 17 34
REMARK SMILES IDX 18 35 19 36 83 37 20 38 82 39 21 40 22 41 23 42 76 43 24 44
REMARK SMILES IDX 81 45 75 46 77 47 25 48 80 49 74 50 73 51 26 53 60 54 39 55
REMARK SMILES IDX 59 56 40 57 43 58 58 59 78 60 41 61 42 62 57 64 79 65 44 66
REMARK SMILES IDX 27 67 28 68 37 69 29 70 30 71 36 72 38 73 31 74 32 75 33 76
REMARK SMILES IDX 34 77 35 78 61 79 62 80 71 81 63 82 64 83 70 84 72 85 65 86
REMARK SMILES IDX 66 87 67 88 68 89 69 90 45 91 46 92 55 93 47 94 48 95 54 96
REMARK SMILES IDX 56 97 49 98 50 99 51 100 52 101 53 102
REMARK H PARENT 11 6 15 33 77 52 43 63
REMARK Flexibility Score: inf
ROOT
ATOM      1  C   UNL     1       0.284  -2.041   4.248  1.00  0.00     0.042 C 
ENDROOT
BRANCH   1   2
ATOM      2  C   UNL     1      -0.516  -1.343   5.342  1.00  0.00     0.118 C 
BRANCH   2   3
ATOM      3  N   UNL     1      -0.234  -1.836   6.658  1.00  0.00    -0.351 N 
ATOM      4  C   UNL     1       0.572  -1.401   7.672  1.00  0.00     0.274 C 
ATOM      5  O   UNL     1       0.355  -1.974   8.746  1.00  0.00    -0.267 OA
ATOM      6  H   UNL     1      -0.723  -2.662   6.877  1.00  0.00     0.163 HD
BRANCH   4   7
ATOM      7  C   UNL     1       1.625  -0.376   7.592  1.00  0.00     0.178 A 
ATOM      8  C   UNL     1       2.129   0.538   6.656  1.00  0.00     0.107 A 
ATOM      9  N   UNL     1       3.166   1.160   7.365  1.00  0.00    -0.212 N 
ATOM     10  N   UNL     1       2.383  -0.251   8.755  1.00  0.00    -0.124 NA
ATOM     11  N   UNL     1       3.301   0.676   8.598  1.00  0.00    -0.061 NA
BRANCH   8  12
ATOM     12  C   UNL     1       1.846   0.889   5.248  1.00  0.00     0.003 A 
ATOM     13  C   UNL     1       1.166   1.190   2.514  1.00  0.00     0.118 A 
ATOM     14  C   UNL     1       0.369   1.760   3.510  1.00  0.00     0.047 A 
ATOM     15  C   UNL     1       2.375   0.601   2.875  1.00  0.00     0.047 A 
ATOM     16  C   UNL     1       0.726   1.646   4.867  1.00  0.00     0.014 A 
ATOM     17  C   UNL     1       2.704   0.439   4.232  1.00  0.00     0.014 A 
BRANCH  13  18
ATOM     18  O   UNL     1       0.681   1.261   1.237  1.00  0.00    -0.497 OA
ATOM     19  C   UNL     1       1.019   0.162   0.386  1.00  0.00     0.278 C 
ENDBRANCH  13  18
ENDBRANCH   8  12
BRANCH   9  20
ATOM     20  C   UNL     1       3.788   2.369   7.020  1.00  0.00     0.071 A 
ATOM     21  C   UNL     1       4.928   2.319   6.207  1.00  0.00     0.032 A 
ATOM     22  C   UNL     1       2.990   3.509   7.128  1.00  0.00     0.078 A 
ATOM     23  C   UNL     1       5.171   3.377   5.337  1.00  0.00     0.052 A 
ATOM     24  C   UNL     1       3.187   4.508   6.201  1.00  0.00     0.163 A 
ATOM     25  C   UNL     1       4.228   4.400   5.268  1.00  0.00     0.161 A 
ATOM     26  O   UNL     1       2.202   5.450   6.110  1.00  0.00    -0.486 OA
ATOM     27  O   UNL     1       4.178   5.150   4.114  1.00  0.00    -0.486 OA
ATOM     28  C   UNL     1       1.947   5.845   4.754  1.00  0.00     0.271 C 
ATOM     29  C   UNL     1       2.795   5.113   3.716  1.00  0.00     0.271 C 
ENDBRANCH   9  20
ENDBRANCH   4   7
ENDBRANCH   2   3
ENDBRANCH   1   2
BRANCH   1  30
ATOM     30  C   UNL     1      -0.632  -2.883   3.388  1.00  0.00     0.118 C 
BRANCH  30  31
ATOM     31  N   UNL     1      -1.591  -2.063   2.628  1.00  0.00    -0.352 N 
ATOM     32  C   UNL     1      -2.601  -2.487   1.774  1.00  0.00     0.251 C 
ATOM     33  H   UNL     1      -1.506  -1.089   2.741  1.00  0.00     0.163 HD
ATOM     34  O   UNL     1      -3.148  -1.726   1.007  1.00  0.00    -0.269 OA
BRANCH  32  35
ATOM     35  C   UNL     1      -2.970  -3.913   1.839  1.00  0.00     0.039 A 
ATOM     36  C   UNL     1      -3.078  -4.705   0.694  1.00  0.00     0.014 A 
ATOM     37  C   UNL     1      -3.037  -4.466   3.109  1.00  0.00     0.014 A 
ATOM     38  C   UNL     1      -3.139  -6.088   0.853  1.00  0.00     0.010 A 
ATOM     39  C   UNL     1      -2.833  -5.806   3.245  1.00  0.00     0.010 A 
ATOM     40  C   UNL     1      -2.978  -6.629   2.137  1.00  0.00    -0.014 A 
BRANCH  40  41
ATOM     41  C   UNL     1      -2.850  -8.060   2.371  1.00  0.00     0.031 A 
ATOM     42  C   UNL     1      -1.736  -8.705   1.621  1.00  0.00     0.074 A 
ATOM     43  C   UNL     1      -3.503  -8.665   3.390  1.00  0.00     0.049 A 
ATOM     44  N   UNL     1      -1.822  -9.508   0.613  1.00  0.00    -0.248 NA
ATOM     45  C   UNL     1      -0.358  -8.261   1.901  1.00  0.00     0.031 C 
ATOM     46  C   UNL     1      -4.363  -8.054   4.417  1.00  0.00     0.029 A 
ATOM     47  N   UNL     1      -3.441  -9.956   3.803  1.00  0.00    -0.354 N 
ATOM     48  C   UNL     1      -0.513  -9.889   0.322  1.00  0.00     0.074 A 
ATOM     49  C   UNL     1       0.329  -8.912   0.959  1.00  0.00     0.031 C 
ATOM     50  C   UNL     1      -4.525  -8.908   5.450  1.00  0.00     0.029 A 
ATOM     51  C   UNL     1      -3.954 -10.186   5.079  1.00  0.00     0.049 A 
ATOM     52  H   UNL     1      -3.064 -10.674   3.245  1.00  0.00     0.167 HD
ATOM     53  C   UNL     1      -0.236 -11.132  -0.166  1.00  0.00     0.037 A 
ATOM     54  C   UNL     1      -3.887 -11.348   5.778  1.00  0.00     0.037 A 
ATOM     55  C   UNL     1      -1.446 -11.779  -0.619  1.00  0.00     0.049 A 
ATOM     56  C   UNL     1      -3.614 -12.421   4.783  1.00  0.00     0.074 A 
ATOM     57  C   UNL     1      -2.420 -11.481  -1.552  1.00  0.00     0.029 A 
ATOM     58  N   UNL     1      -2.002 -12.722   0.214  1.00  0.00    -0.354 N 
ATOM     59  N   UNL     1      -4.451 -12.757   3.837  1.00  0.00    -0.248 NA
ATOM     60  C   UNL     1      -2.222 -12.761   4.531  1.00  0.00     0.031 C 
ATOM     61  C   UNL     1      -3.647 -11.877  -0.941  1.00  0.00     0.029 A 
ATOM     62  C   UNL     1      -3.349 -12.476   0.285  1.00  0.00     0.049 A 
ATOM     63  H   UNL     1      -1.520 -13.445   0.675  1.00  0.00     0.167 HD
ATOM     64  C   UNL     1      -3.661 -12.953   2.712  1.00  0.00     0.074 A 
ATOM     65  C   UNL     1      -2.290 -13.010   3.220  1.00  0.00     0.031 C 
ATOM     66  C   UNL     1      -4.158 -12.750   1.455  1.00  0.00     0.037 A 
BRANCH  53  67
ATOM     67  C   UNL     1       1.021 -11.929   0.134  1.00  0.00     0.058 A 
ATOM     68  C   UNL     1       1.202 -13.175  -0.506  1.00  0.00     0.135 A 
ATOM     69  C   UNL     1       1.898 -11.675   1.212  1.00  0.00     0.135 A 
ATOM     70  F   UNL     1       0.437 -13.525  -1.553  1.00  0.00    -0.206 F 
ATOM     71  C   UNL     1       2.107 -14.132  -0.045  1.00  0.00     0.059 A 
ATOM     72  C   UNL     1       2.844 -12.594   1.653  1.00  0.00     0.059 A 
ATOM     73  F   UNL     1       1.829 -10.567   1.956  1.00  0.00    -0.206 F 
ATOM     74  C   UNL     1       2.911 -13.837   1.049  1.00  0.00     0.060 A 
BRANCH  74  75
ATOM     75  S   UNL     1       4.005 -15.103   1.712  1.00  0.00     0.124 S 
ATOM     76  O   UNL     1       3.046 -16.056   2.260  1.00  0.00    -0.237 OA
ATOM     77  O   UNL     1       4.724 -15.533   0.518  1.00  0.00    -0.237 OA
ATOM     78  O   UNL     1       4.805 -14.375   2.692  1.00  0.00    -0.744 OA
ENDBRANCH  74  75
ENDBRANCH  53  67
BRANCH  54  79
ATOM     79  C   UNL     1      -3.671 -11.528   7.240  1.00  0.00     0.058 A 
ATOM     80  C   UNL     1      -3.861 -12.778   7.856  1.00  0.00     0.135 A 
ATOM     81  C   UNL     1      -2.997 -10.556   8.007  1.00  0.00     0.135 A 
ATOM     82  F   UNL     1      -4.478 -13.768   7.193  1.00  0.00    -0.206 F 
ATOM     83  C   UNL     1      -3.365 -13.065   9.134  1.00  0.00     0.059 A 
ATOM     84  C   UNL     1      -2.500 -10.816   9.285  1.00  0.00     0.059 A 
ATOM     85  F   UNL     1      -2.718  -9.346   7.498  1.00  0.00    -0.206 F 
ATOM     86  C   UNL     1      -2.664 -12.083   9.833  1.00  0.00     0.060 A 
BRANCH  86  87
ATOM     87  S   UNL     1      -1.865 -12.503  11.402  1.00  0.00     0.124 S 
ATOM     88  O   UNL     1      -3.012 -12.684  12.286  1.00  0.00    -0.237 OA
ATOM     89  O   UNL     1      -1.127 -13.713  11.059  1.00  0.00    -0.237 OA
ATOM     90  O   UNL     1      -1.039 -11.332  11.685  1.00  0.00    -0.744 OA
ENDBRANCH  86  87
ENDBRANCH  54  79
BRANCH  66  91
ATOM     91  C   UNL     1      -5.651 -12.600   1.287  1.00  0.00     0.058 A 
ATOM     92  C   UNL     1      -6.417 -11.535   1.797  1.00  0.00     0.135 A 
ATOM     93  C   UNL     1      -6.302 -13.497   0.428  1.00  0.00     0.135 A 
ATOM     94  F   UNL     1      -5.853 -10.575   2.543  1.00  0.00    -0.206 F 
ATOM     95  C   UNL     1      -7.774 -11.391   1.495  1.00  0.00     0.059 A 
ATOM     96  C   UNL     1      -7.645 -13.357   0.089  1.00  0.00     0.059 A 
ATOM     97  F   UNL     1      -5.614 -14.499  -0.142  1.00  0.00    -0.206 F 
ATOM     98  C   UNL     1      -8.379 -12.308   0.637  1.00  0.00     0.060 A 
BRANCH  98  99
ATOM     99  S   UNL     1     -10.116 -12.090   0.190  1.00  0.00     0.124 S 
ATOM    100  O   UNL     1     -10.797 -12.409   1.440  1.00  0.00    -0.237 OA
ATOM    101  O   UNL     1     -10.165 -10.689  -0.219  1.00  0.00    -0.237 OA
ATOM    102  O   UNL     1     -10.314 -13.052  -0.891  1.00  0.00    -0.744 OA
ENDBRANCH  98  99
ENDBRANCH  66  91
ENDBRANCH  40  41
ENDBRANCH  32  35
ENDBRANCH  30  31
ENDBRANCH   1  30
TORSDOF 16
