REMARK SMILES CCn1ncc(CNc2ccccc2C(=O)NCCCNC(=O)c2ccc(-c3c4nc(c(-c5c(F)cc(S(=O)(=O)[O-])cc5F)c5ccc([nH]5)c(-c5c(F)cc(S(=O)(=O)[O-])cc5F)c5nc(c(-c6c(F)cc(S(=O)(=O)[O-])cc6F)c6ccc3[nH]6)C=C5)C=C4)cc2)c1C
REMARK SMILES IDX 18 1 17 2 15 3 16 4 14 6 9 7 10 8 11 9 13 10 12 11 8 12 7 14
REMARK SMILES IDX 6 15 3 16 4 17 90 18 5 19 91 20 2 21 1 22 19 23 20 24 21 25
REMARK SMILES IDX 22 26 23 28 24 29 25 30 89 31 26 32 88 33 27 34 28 35 29 36
REMARK SMILES IDX 82 37 30 38 87 39 81 40 83 41 31 42 86 43 80 44 79 45 32 47
REMARK SMILES IDX 66 48 45 49 65 50 46 51 49 52 64 53 84 54 47 55 48 56 63 58
REMARK SMILES IDX 85 59 50 60 33 61 34 62 43 63 35 64 36 65 42 66 44 67 37 68
REMARK SMILES IDX 38 69 39 70 40 71 41 72 67 73 68 74 77 75 69 76 70 77 76 78
REMARK SMILES IDX 78 79 71 80 72 81 73 82 74 83 75 84 51 85 52 86 61 87 53 88
REMARK SMILES IDX 54 89 60 90 62 91 55 92 56 93 57 94 58 95 59 96
REMARK H PARENT 17 5 8 13 21 27 83 46 49 57
REMARK Flexibility Score: inf
ROOT
ATOM      1  C   UNL     1       2.933   5.065   5.460  1.00  0.00     0.118 C 
ENDROOT
BRANCH   1   2
ATOM      2  N   UNL     1       4.316   5.029   5.824  1.00  0.00    -0.352 N 
ATOM      3  C   UNL     1       5.034   3.840   5.809  1.00  0.00     0.253 C 
ATOM      4  O   UNL     1       6.188   3.855   5.380  1.00  0.00    -0.269 OA
ATOM      5  H   UNL     1       4.767   5.863   6.091  1.00  0.00     0.163 HD
BRANCH   3   6
ATOM      6  C   UNL     1       4.541   2.609   6.513  1.00  0.00     0.062 A 
ATOM      7  C   UNL     1       3.337   1.880   6.369  1.00  0.00     0.047 A 
ATOM      8  C   UNL     1       3.109   0.847   7.319  1.00  0.00     0.026 A 
ATOM      9  C   UNL     1       4.021   0.499   8.318  1.00  0.00     0.002 A 
ATOM     10  C   UNL     1       5.471   2.217   7.516  1.00  0.00     0.016 A 
ATOM     11  C   UNL     1       5.221   1.174   8.403  1.00  0.00     0.001 A 
BRANCH   7  12
ATOM     12  N   UNL     1       2.352   1.946   5.397  1.00  0.00    -0.380 N 
ATOM     13  H   UNL     1       1.461   1.650   5.693  1.00  0.00     0.160 HD
BRANCH  12  14
ATOM     14  C   UNL     1       2.419   2.378   4.015  1.00  0.00     0.152 C 
BRANCH  14  15
ATOM     15  C   UNL     1       1.473   1.692   3.091  1.00  0.00     0.012 A 
ATOM     16  N   UNL     1       0.446   0.260   1.792  1.00  0.00    -0.270 N 
ATOM     17  N   UNL     1      -0.274   1.386   1.661  1.00  0.00    -0.181 NA
ATOM     18  C   UNL     1       1.465   0.366   2.704  1.00  0.00     0.040 A 
ATOM     19  C   UNL     1       0.379   2.271   2.408  1.00  0.00     0.141 A 
ATOM     20  C   UNL     1       2.378  -0.720   3.128  1.00  0.00     0.067 C 
BRANCH  16  21
ATOM     21  C   UNL     1       0.134  -0.840   0.903  1.00  0.00     0.141 C 
ATOM     22  C   UNL     1       0.847  -0.678  -0.428  1.00  0.00     0.029 C 
ENDBRANCH  16  21
ENDBRANCH  14  15
ENDBRANCH  12  14
ENDBRANCH   7  12
ENDBRANCH   3   6
ENDBRANCH   1   2
BRANCH   1  23
ATOM     23  C   UNL     1       2.088   6.312   5.635  1.00  0.00     0.042 C 
BRANCH  23  24
ATOM     24  C   UNL     1       1.764   6.959   4.287  1.00  0.00     0.118 C 
BRANCH  24  25
ATOM     25  N   UNL     1       1.063   6.089   3.317  1.00  0.00    -0.352 N 
ATOM     26  C   UNL     1       0.762   6.372   1.988  1.00  0.00     0.251 C 
ATOM     27  H   UNL     1       0.776   5.208   3.650  1.00  0.00     0.163 HD
ATOM     28  O   UNL     1       0.046   5.642   1.312  1.00  0.00    -0.269 OA
BRANCH  26  29
ATOM     29  C   UNL     1       1.321   7.612   1.427  1.00  0.00     0.039 A 
ATOM     30  C   UNL     1       0.485   8.705   1.182  1.00  0.00     0.014 A 
ATOM     31  C   UNL     1       2.690   7.758   1.563  1.00  0.00     0.014 A 
ATOM     32  C   UNL     1       1.016   9.991   1.289  1.00  0.00     0.010 A 
ATOM     33  C   UNL     1       3.152   9.019   1.860  1.00  0.00     0.010 A 
ATOM     34  C   UNL     1       2.338  10.153   1.728  1.00  0.00    -0.014 A 
BRANCH  34  35
ATOM     35  C   UNL     1       2.812  11.453   2.249  1.00  0.00     0.031 A 
ATOM     36  C   UNL     1       1.890  12.211   3.170  1.00  0.00     0.074 A 
ATOM     37  C   UNL     1       4.113  11.821   2.200  1.00  0.00     0.049 A 
ATOM     38  N   UNL     1       1.462  13.430   3.062  1.00  0.00    -0.248 NA
ATOM     39  C   UNL     1       1.336  11.507   4.340  1.00  0.00     0.031 C 
ATOM     40  C   UNL     1       5.248  11.080   1.631  1.00  0.00     0.029 A 
ATOM     41  N   UNL     1       4.728  12.873   2.809  1.00  0.00    -0.354 N 
ATOM     42  C   UNL     1       0.745  13.714   4.230  1.00  0.00     0.074 A 
ATOM     43  C   UNL     1       0.583  12.453   4.906  1.00  0.00     0.031 C 
ATOM     44  C   UNL     1       6.398  11.523   2.177  1.00  0.00     0.029 A 
ATOM     45  C   UNL     1       6.103  12.725   2.927  1.00  0.00     0.049 A 
ATOM     46  H   UNL     1       4.242  13.665   3.136  1.00  0.00     0.167 HD
ATOM     47  C   UNL     1       0.502  14.993   4.648  1.00  0.00     0.037 A 
ATOM     48  C   UNL     1       6.968  13.527   3.585  1.00  0.00     0.037 A 
ATOM     49  C   UNL     1       0.753  15.941   3.594  1.00  0.00     0.049 A 
ATOM     50  C   UNL     1       6.320  14.851   3.715  1.00  0.00     0.074 A 
ATOM     51  C   UNL     1       0.242  16.173   2.334  1.00  0.00     0.029 A 
ATOM     52  N   UNL     1       1.918  16.665   3.662  1.00  0.00    -0.354 N 
ATOM     53  N   UNL     1       6.004  15.611   2.700  1.00  0.00    -0.248 NA
ATOM     54  C   UNL     1       5.659  15.179   4.967  1.00  0.00     0.031 C 
ATOM     55  C   UNL     1       1.354  16.620   1.561  1.00  0.00     0.029 A 
ATOM     56  C   UNL     1       2.464  16.675   2.406  1.00  0.00     0.049 A 
ATOM     57  H   UNL     1       2.291  17.097   4.465  1.00  0.00     0.167 HD
ATOM     58  C   UNL     1       4.819  16.225   3.072  1.00  0.00     0.074 A 
ATOM     59  C   UNL     1       4.734  16.030   4.516  1.00  0.00     0.031 C 
ATOM     60  C   UNL     1       3.886  16.587   2.142  1.00  0.00     0.037 A 
BRANCH  47  61
ATOM     61  C   UNL     1       0.371  15.454   6.093  1.00  0.00     0.058 A 
ATOM     62  C   UNL     1       0.021  16.800   6.364  1.00  0.00     0.135 A 
ATOM     63  C   UNL     1       0.869  14.733   7.199  1.00  0.00     0.135 A 
ATOM     64  F   UNL     1      -0.484  17.584   5.398  1.00  0.00    -0.206 F 
ATOM     65  C   UNL     1       0.260  17.409   7.598  1.00  0.00     0.059 A 
ATOM     66  C   UNL     1       1.065  15.308   8.454  1.00  0.00     0.059 A 
ATOM     67  F   UNL     1       1.286  13.467   7.095  1.00  0.00    -0.206 F 
ATOM     68  C   UNL     1       0.814  16.659   8.629  1.00  0.00     0.060 A 
BRANCH  68  69
ATOM     69  S   UNL     1       1.285  17.473  10.168  1.00  0.00     0.124 S 
ATOM     70  O   UNL     1       2.457  18.230   9.744  1.00  0.00    -0.237 OA
ATOM     71  O   UNL     1       0.095  18.257  10.479  1.00  0.00    -0.237 OA
ATOM     72  O   UNL     1       1.545  16.354  11.069  1.00  0.00    -0.744 OA
ENDBRANCH  68  69
ENDBRANCH  47  61
BRANCH  48  73
ATOM     73  C   UNL     1       8.198  13.121   4.302  1.00  0.00     0.058 A 
ATOM     74  C   UNL     1       9.221  14.037   4.583  1.00  0.00     0.135 A 
ATOM     75  C   UNL     1       8.284  11.865   4.940  1.00  0.00     0.135 A 
ATOM     76  F   UNL     1       9.200  15.260   4.032  1.00  0.00    -0.206 F 
ATOM     77  C   UNL     1      10.255  13.740   5.476  1.00  0.00     0.059 A 
ATOM     78  C   UNL     1       9.310  11.542   5.826  1.00  0.00     0.059 A 
ATOM     79  F   UNL     1       7.320  10.944   4.782  1.00  0.00    -0.206 F 
ATOM     80  C   UNL     1      10.281  12.496   6.107  1.00  0.00     0.060 A 
BRANCH  80  81
ATOM     81  S   UNL     1      11.522  12.178   7.384  1.00  0.00     0.124 S 
ATOM     82  O   UNL     1      12.750  12.111   6.600  1.00  0.00    -0.237 OA
ATOM     83  O   UNL     1      11.379  13.346   8.247  1.00  0.00    -0.237 OA
ATOM     84  O   UNL     1      11.087  10.914   7.973  1.00  0.00    -0.744 OA
ENDBRANCH  80  81
ENDBRANCH  48  73
BRANCH  60  85
ATOM     85  C   UNL     1       4.292  16.643   0.691  1.00  0.00     0.058 A 
ATOM     86  C   UNL     1       4.619  15.516  -0.082  1.00  0.00     0.135 A 
ATOM     87  C   UNL     1       4.149  17.862   0.012  1.00  0.00     0.135 A 
ATOM     88  F   UNL     1       4.680  14.297   0.466  1.00  0.00    -0.206 F 
ATOM     89  C   UNL     1       4.813  15.599  -1.462  1.00  0.00     0.059 A 
ATOM     90  C   UNL     1       4.309  17.964  -1.368  1.00  0.00     0.059 A 
ATOM     91  F   UNL     1       3.776  18.965   0.683  1.00  0.00    -0.206 F 
ATOM     92  C   UNL     1       4.646  16.827  -2.099  1.00  0.00     0.060 A 
BRANCH  92  93
ATOM     93  S   UNL     1       4.772  16.905  -3.899  1.00  0.00     0.124 S 
ATOM     94  O   UNL     1       6.210  16.788  -4.112  1.00  0.00    -0.237 OA
ATOM     95  O   UNL     1       3.973  15.759  -4.326  1.00  0.00    -0.237 OA
ATOM     96  O   UNL     1       4.196  18.208  -4.225  1.00  0.00    -0.744 OA
ENDBRANCH  92  93
ENDBRANCH  60  85
ENDBRANCH  34  35
ENDBRANCH  26  29
ENDBRANCH  24  25
ENDBRANCH  23  24
ENDBRANCH   1  23
TORSDOF 17
