REMARK SMILES CC[C@@H](C)[C@H](NC(=O)C1CCN(C(=O)OC(C)(C)C)CC1)C(=O)NCCCNC(=O)c1ccc(-c2c3nc(c(-c4c(F)cc(S(=O)(=O)[O-])cc4F)c4ccc([nH]4)c(-c4c(F)cc(S(=O)(=O)[O-])cc4F)c4nc(c(-c5c(F)cc(S(=O)(=O)[O-])cc5F)c5ccc2[nH]5)C=C4)C=C3)cc1
REMARK SMILES IDX 25 1 24 2 22 3 23 4 5 6 3 7 4 8 2 9 1 10 6 11 7 12 8 14 9 15
REMARK SMILES IDX 10 16 21 17 11 18 20 19 12 20 13 21 14 22 15 23 16 24 17 25
REMARK SMILES IDX 18 26 19 27 26 28 27 29 28 30 29 31 30 33 31 34 32 35 96 36
REMARK SMILES IDX 33 37 95 38 34 39 35 40 36 41 89 42 37 43 94 44 88 45 90 46
REMARK SMILES IDX 38 47 93 48 87 49 86 50 39 52 73 53 52 54 72 55 53 56 56 57
REMARK SMILES IDX 71 58 91 59 54 60 55 61 70 63 92 64 57 65 40 66 41 67 50 68
REMARK SMILES IDX 42 69 43 70 49 71 51 72 44 73 45 74 46 75 47 76 48 77 74 78
REMARK SMILES IDX 75 79 84 80 76 81 77 82 83 83 85 84 78 85 79 86 80 87 81 88
REMARK SMILES IDX 82 89 58 90 59 91 68 92 60 93 61 94 67 95 69 96 62 97 63 98
REMARK SMILES IDX 64 99 65 100 66 101
REMARK H PARENT 24 5 6 13 28 32 90 51 56 62
REMARK Flexibility Score: inf
ROOT
ATOM      1  C   UNL     1       3.549  -4.222   0.170  1.00  0.00     0.117 C 
ENDROOT
BRANCH   1   2
ATOM      2  N   UNL     1       2.329  -4.871   0.600  1.00  0.00    -0.354 N 
ATOM      3  C   UNL     1       1.032  -4.641   0.247  1.00  0.00     0.242 C 
ATOM      4  O   UNL     1       0.206  -5.510   0.547  1.00  0.00    -0.273 OA
ATOM      5  H   UNL     1       2.456  -5.596   1.253  1.00  0.00     0.163 HD
BRANCH   3   6
ATOM      6  C   UNL     1       0.601  -3.415  -0.599  1.00  0.00     0.174 C 
BRANCH   6   7
ATOM      7  C   UNL     1       0.853  -3.619  -2.128  1.00  0.00     0.018 C 
ATOM      8  C   UNL     1       2.265  -3.292  -2.630  1.00  0.00     0.010 C 
BRANCH   7   9
ATOM      9  C   UNL     1      -0.208  -2.841  -2.936  1.00  0.00     0.002 C 
ATOM     10  C   UNL     1      -0.081  -3.014  -4.446  1.00  0.00     0.004 C 
ENDBRANCH   7   9
ENDBRANCH   6   7
BRANCH   6  11
ATOM     11  N   UNL     1       1.142  -2.174  -0.035  1.00  0.00    -0.344 N 
ATOM     12  C   UNL     1       0.548  -1.179   0.668  1.00  0.00     0.223 C 
ATOM     13  H   UNL     1       2.104  -2.040  -0.196  1.00  0.00     0.164 HD
ATOM     14  O   UNL     1       1.290  -0.494   1.374  1.00  0.00    -0.275 OA
BRANCH  12  15
ATOM     15  C   UNL     1      -0.932  -0.867   0.515  1.00  0.00     0.082 C 
ATOM     16  C   UNL     1      -1.093   0.472  -0.223  1.00  0.00     0.035 C 
ATOM     17  C   UNL     1      -1.641  -0.842   1.878  1.00  0.00     0.035 C 
ATOM     18  C   UNL     1      -0.776   1.678   0.659  1.00  0.00     0.124 C 
ATOM     19  C   UNL     1      -1.355   0.417   2.703  1.00  0.00     0.124 C 
ATOM     20  N   UNL     1      -1.528   1.624   1.903  1.00  0.00    -0.308 N 
ATOM     21  C   UNL     1      -2.223   2.748   2.317  1.00  0.00     0.410 C 
ATOM     22  O   UNL     1      -2.308   3.767   1.648  1.00  0.00    -0.224 OA
BRANCH  21  23
ATOM     23  O   UNL     1      -2.817   2.585   3.532  1.00  0.00    -0.444 OA
BRANCH  23  24
ATOM     24  C   UNL     1      -3.618   3.655   4.100  1.00  0.00     0.106 C 
ATOM     25  C   UNL     1      -2.774   4.902   4.388  1.00  0.00     0.056 C 
ATOM     26  C   UNL     1      -4.830   3.970   3.214  1.00  0.00     0.056 C 
ATOM     27  C   UNL     1      -4.135   3.104   5.440  1.00  0.00     0.056 C 
ENDBRANCH  23  24
ENDBRANCH  21  23
ENDBRANCH  12  15
ENDBRANCH   6  11
ENDBRANCH   3   6
ENDBRANCH   1   2
BRANCH   1  28
ATOM     28  C   UNL     1       4.378  -3.668   1.305  1.00  0.00     0.042 C 
BRANCH  28  29
ATOM     29  C   UNL     1       5.118  -4.747   2.066  1.00  0.00     0.118 C 
BRANCH  29  30
ATOM     30  N   UNL     1       6.048  -5.490   1.218  1.00  0.00    -0.352 N 
ATOM     31  C   UNL     1       7.420  -5.539   1.226  1.00  0.00     0.251 C 
ATOM     32  H   UNL     1       5.620  -6.046   0.528  1.00  0.00     0.163 HD
ATOM     33  O   UNL     1       8.009  -6.051   0.279  1.00  0.00    -0.269 OA
BRANCH  31  34
ATOM     34  C   UNL     1       8.175  -4.973   2.362  1.00  0.00     0.039 A 
ATOM     35  C   UNL     1       9.405  -4.353   2.130  1.00  0.00     0.014 A 
ATOM     36  C   UNL     1       7.675  -5.065   3.661  1.00  0.00     0.014 A 
ATOM     37  C   UNL     1      10.097  -3.781   3.199  1.00  0.00     0.010 A 
ATOM     38  C   UNL     1       8.286  -4.369   4.690  1.00  0.00     0.010 A 
ATOM     39  C   UNL     1       9.527  -3.757   4.483  1.00  0.00    -0.014 A 
BRANCH  39  40
ATOM     40  C   UNL     1      10.235  -3.162   5.641  1.00  0.00     0.031 A 
ATOM     41  C   UNL     1      10.558  -4.021   6.838  1.00  0.00     0.074 A 
ATOM     42  C   UNL     1      10.534  -1.848   5.640  1.00  0.00     0.049 A 
ATOM     43  N   UNL     1      11.114  -3.683   7.972  1.00  0.00    -0.248 NA
ATOM     44  C   UNL     1      10.164  -5.439   6.770  1.00  0.00     0.031 C 
ATOM     45  C   UNL     1      10.206  -0.904   4.569  1.00  0.00     0.029 A 
ATOM     46  N   UNL     1      11.177  -1.078   6.574  1.00  0.00    -0.354 N 
ATOM     47  C   UNL     1      11.120  -4.836   8.748  1.00  0.00     0.074 A 
ATOM     48  C   UNL     1      10.436  -5.860   7.995  1.00  0.00     0.031 C 
ATOM     49  C   UNL     1      10.682   0.309   4.891  1.00  0.00     0.029 A 
ATOM     50  C   UNL     1      11.312   0.239   6.205  1.00  0.00     0.049 A 
ATOM     51  H   UNL     1      11.511  -1.435   7.429  1.00  0.00     0.167 HD
ATOM     52  C   UNL     1      11.683  -5.038   9.962  1.00  0.00     0.037 A 
ATOM     53  C   UNL     1      11.881   1.272   6.854  1.00  0.00     0.037 A 
ATOM     54  C   UNL     1      12.393  -4.020  10.688  1.00  0.00     0.049 A 
ATOM     55  C   UNL     1      12.520   1.021   8.194  1.00  0.00     0.074 A 
ATOM     56  C   UNL     1      13.049  -4.125  11.901  1.00  0.00     0.029 A 
ATOM     57  N   UNL     1      12.545  -2.708  10.262  1.00  0.00    -0.354 N 
ATOM     58  N   UNL     1      12.575  -0.093   8.886  1.00  0.00    -0.248 NA
ATOM     59  C   UNL     1      13.189   2.161   8.833  1.00  0.00     0.031 C 
ATOM     60  C   UNL     1      13.557  -2.865  12.232  1.00  0.00     0.029 A 
ATOM     61  C   UNL     1      13.271  -1.989  11.196  1.00  0.00     0.049 A 
ATOM     62  H   UNL     1      12.188  -2.342   9.421  1.00  0.00     0.167 HD
ATOM     63  C   UNL     1      13.311   0.204  10.028  1.00  0.00     0.074 A 
ATOM     64  C   UNL     1      13.691   1.599   9.924  1.00  0.00     0.031 C 
ATOM     65  C   UNL     1      13.645  -0.602  11.067  1.00  0.00     0.037 A 
BRANCH  52  66
ATOM     66  C   UNL     1      11.564  -6.413  10.565  1.00  0.00     0.058 A 
ATOM     67  C   UNL     1      12.215  -7.525  10.003  1.00  0.00     0.135 A 
ATOM     68  C   UNL     1      10.803  -6.623  11.726  1.00  0.00     0.135 A 
ATOM     69  F   UNL     1      12.941  -7.390   8.881  1.00  0.00    -0.206 F 
ATOM     70  C   UNL     1      12.086  -8.799  10.547  1.00  0.00     0.059 A 
ATOM     71  C   UNL     1      10.688  -7.883  12.308  1.00  0.00     0.059 A 
ATOM     72  F   UNL     1      10.156  -5.599  12.305  1.00  0.00    -0.206 F 
ATOM     73  C   UNL     1      11.320  -8.967  11.701  1.00  0.00     0.060 A 
BRANCH  73  74
ATOM     74  S   UNL     1      11.166 -10.626  12.396  1.00  0.00     0.124 S 
ATOM     75  O   UNL     1      10.299 -11.273  11.416  1.00  0.00    -0.237 OA
ATOM     76  O   UNL     1      12.552 -11.085  12.415  1.00  0.00    -0.237 OA
ATOM     77  O   UNL     1      10.568 -10.393  13.706  1.00  0.00    -0.744 OA
ENDBRANCH  73  74
ENDBRANCH  52  66
BRANCH  53  78
ATOM     78  C   UNL     1      11.901   2.622   6.229  1.00  0.00     0.058 A 
ATOM     79  C   UNL     1      13.097   3.187   5.762  1.00  0.00     0.135 A 
ATOM     80  C   UNL     1      10.721   3.364   6.064  1.00  0.00     0.135 A 
ATOM     81  F   UNL     1      14.253   2.519   5.898  1.00  0.00    -0.206 F 
ATOM     82  C   UNL     1      13.127   4.447   5.173  1.00  0.00     0.059 A 
ATOM     83  C   UNL     1      10.721   4.613   5.451  1.00  0.00     0.059 A 
ATOM     84  F   UNL     1       9.546   2.859   6.473  1.00  0.00    -0.206 F 
ATOM     85  C   UNL     1      11.932   5.151   5.019  1.00  0.00     0.060 A 
BRANCH  85  86
ATOM     86  S   UNL     1      11.977   6.764   4.208  1.00  0.00     0.124 S 
ATOM     87  O   UNL     1      12.620   7.587   5.226  1.00  0.00    -0.237 OA
ATOM     88  O   UNL     1      12.772   6.485   3.016  1.00  0.00    -0.237 OA
ATOM     89  O   UNL     1      10.569   7.055   3.959  1.00  0.00    -0.744 OA
ENDBRANCH  85  86
ENDBRANCH  53  78
BRANCH  65  90
ATOM     90  C   UNL     1      14.500  -0.008  12.152  1.00  0.00     0.058 A 
ATOM     91  C   UNL     1      14.004   0.950  13.049  1.00  0.00     0.135 A 
ATOM     92  C   UNL     1      15.827  -0.438  12.319  1.00  0.00     0.135 A 
ATOM     93  F   UNL     1      12.744   1.397  12.933  1.00  0.00    -0.206 F 
ATOM     94  C   UNL     1      14.805   1.490  14.050  1.00  0.00     0.059 A 
ATOM     95  C   UNL     1      16.635   0.062  13.334  1.00  0.00     0.059 A 
ATOM     96  F   UNL     1      16.347  -1.365  11.498  1.00  0.00    -0.206 F 
ATOM     97  C   UNL     1      16.120   1.040  14.183  1.00  0.00     0.060 A 
BRANCH  97  98
ATOM     98  S   UNL     1      17.145   1.739  15.494  1.00  0.00     0.124 S 
ATOM     99  O   UNL     1      17.418   3.074  14.973  1.00  0.00    -0.237 OA
ATOM    100  O   UNL     1      16.256   1.679  16.650  1.00  0.00    -0.237 OA
ATOM    101  O   UNL     1      18.292   0.838  15.546  1.00  0.00    -0.744 OA
ENDBRANCH  97  98
ENDBRANCH  65  90
ENDBRANCH  39  40
ENDBRANCH  31  34
ENDBRANCH  29  30
ENDBRANCH  28  29
ENDBRANCH   1  28
TORSDOF 19
