REMARK SMILES CC(C)(C)c1csc(C[NH+]2CC(C(=O)NCCCNC(=O)c3ccc(-c4c5nc(c(-c6c(F)cc(S(=O)(=O)[O-])cc6F)c6ccc([nH]6)c(-c6c(F)cc(S(=O)(=O)[O-])cc6F)c6nc(c(-c7c(F)cc(S(=O)(=O)[O-])cc7F)c7ccc4[nH]7)C=C6)C=C5)cc3)C2)n1
REMARK SMILES IDX 17 1 16 2 15 3 13 4 14 5 12 7 10 8 11 9 88 10 9 12 8 13 5 14
REMARK SMILES IDX 6 15 89 16 7 17 2 18 1 19 3 20 4 21 18 22 19 23 20 24 21 26
REMARK SMILES IDX 22 27 23 28 87 29 24 30 86 31 25 32 26 33 27 34 80 35 28 36
REMARK SMILES IDX 85 37 79 38 81 39 29 40 84 41 78 42 77 43 30 45 64 46 43 47
REMARK SMILES IDX 63 48 44 49 47 50 62 51 82 52 45 53 46 54 61 56 83 57 48 58
REMARK SMILES IDX 31 59 32 60 41 61 33 62 34 63 40 64 42 65 35 66 36 67 37 68
REMARK SMILES IDX 38 69 39 70 65 71 66 72 75 73 67 74 68 75 74 76 76 77 69 78
REMARK SMILES IDX 70 79 71 80 72 81 73 82 49 83 50 84 59 85 51 86 52 87 58 88
REMARK SMILES IDX 60 89 53 90 54 91 55 92 56 93 57 94
REMARK H PARENT 15 6 10 11 19 25 81 44 47 55
REMARK Flexibility Score: inf
ROOT
ATOM      1  C   UNL     1       3.786  -1.692  -5.301  1.00  0.00     0.042 C 
ENDROOT
BRANCH   1   2
ATOM      2  C   UNL     1       4.270  -0.601  -4.356  1.00  0.00     0.117 C 
BRANCH   2   3
ATOM      3  N   UNL     1       5.474   0.043  -4.841  1.00  0.00    -0.355 N 
ATOM      4  C   UNL     1       5.697   1.323  -5.285  1.00  0.00     0.234 C 
ATOM      5  O   UNL     1       6.865   1.559  -5.637  1.00  0.00    -0.274 OA
ATOM      6  H   UNL     1       6.270  -0.537  -4.854  1.00  0.00     0.163 HD
BRANCH   4   7
ATOM      7  C   UNL     1       4.615   2.401  -5.343  1.00  0.00     0.188 C 
ATOM      8  N   UNL     1       2.662   3.083  -5.064  1.00  0.00    -0.327 N 
ATOM      9  C   UNL     1       3.752   2.779  -4.116  1.00  0.00     0.282 C 
ATOM     10  C   UNL     1       3.268   2.182  -6.065  1.00  0.00     0.282 C 
ATOM     11  H   UNL     1       2.453   4.050  -5.309  1.00  0.00     0.348 HD
BRANCH   8  12
ATOM     12  C   UNL     1       1.311   2.712  -4.615  1.00  0.00     0.331 C 
BRANCH  12  13
ATOM     13  C   UNL     1       1.032   1.337  -4.050  1.00  0.00     0.147 A 
ATOM     14  C   UNL     1       0.665  -0.278  -2.550  1.00  0.00     0.057 A 
ATOM     15  C   UNL     1       0.301  -0.948  -3.706  1.00  0.00     0.091 A 
ATOM     16  N   UNL     1       1.132   1.015  -2.773  1.00  0.00    -0.240 NA
ATOM     17  S   UNL     1       0.399   0.093  -5.060  1.00  0.00    -0.121 S 
BRANCH  14  18
ATOM     18  C   UNL     1       0.506  -0.795  -1.124  1.00  0.00     0.005 C 
ATOM     19  C   UNL     1       1.151   0.157  -0.096  1.00  0.00     0.017 C 
ATOM     20  C   UNL     1       1.153  -2.184  -0.954  1.00  0.00     0.017 C 
ATOM     21  C   UNL     1      -0.999  -0.901  -0.799  1.00  0.00     0.017 C 
ENDBRANCH  14  18
ENDBRANCH  12  13
ENDBRANCH   8  12
ENDBRANCH   4   7
ENDBRANCH   2   3
ENDBRANCH   1   2
BRANCH   1  22
ATOM     22  C   UNL     1       4.646  -2.947  -5.261  1.00  0.00     0.118 C 
BRANCH  22  23
ATOM     23  N   UNL     1       4.524  -3.656  -3.990  1.00  0.00    -0.352 N 
ATOM     24  C   UNL     1       3.867  -4.821  -3.674  1.00  0.00     0.251 C 
ATOM     25  H   UNL     1       4.990  -3.229  -3.235  1.00  0.00     0.163 HD
ATOM     26  O   UNL     1       3.684  -5.107  -2.492  1.00  0.00    -0.269 OA
BRANCH  24  27
ATOM     27  C   UNL     1       3.360  -5.716  -4.738  1.00  0.00     0.039 A 
ATOM     28  C   UNL     1       2.124  -6.350  -4.570  1.00  0.00     0.014 A 
ATOM     29  C   UNL     1       4.106  -5.949  -5.894  1.00  0.00     0.014 A 
ATOM     30  C   UNL     1       1.599  -7.138  -5.599  1.00  0.00     0.010 A 
ATOM     31  C   UNL     1       3.541  -6.650  -6.953  1.00  0.00     0.010 A 
ATOM     32  C   UNL     1       2.280  -7.252  -6.820  1.00  0.00    -0.014 A 
BRANCH  32  33
ATOM     33  C   UNL     1       1.724  -7.991  -7.985  1.00  0.00     0.031 A 
ATOM     34  C   UNL     1       2.499  -9.141  -8.572  1.00  0.00     0.074 A 
ATOM     35  C   UNL     1       0.602  -7.553  -8.589  1.00  0.00     0.049 A 
ATOM     36  N   UNL     1       2.325  -9.762  -9.709  1.00  0.00    -0.248 NA
ATOM     37  C   UNL     1       3.651  -9.625  -7.793  1.00  0.00     0.031 C 
ATOM     38  C   UNL     1      -0.224  -6.430  -8.139  1.00  0.00     0.029 A 
ATOM     39  N   UNL     1      -0.023  -7.981  -9.736  1.00  0.00    -0.354 N 
ATOM     40  C   UNL     1       3.366 -10.679  -9.801  1.00  0.00     0.074 A 
ATOM     41  C   UNL     1       4.188 -10.506  -8.624  1.00  0.00     0.031 C 
ATOM     42  C   UNL     1      -1.246  -6.262  -8.994  1.00  0.00     0.029 A 
ATOM     43  C   UNL     1      -1.120  -7.226 -10.082  1.00  0.00     0.049 A 
ATOM     44  H   UNL     1       0.286  -8.754 -10.260  1.00  0.00     0.167 HD
ATOM     45  C   UNL     1       3.605 -11.591 -10.773  1.00  0.00     0.037 A 
ATOM     46  C   UNL     1      -1.918  -7.285 -11.166  1.00  0.00     0.037 A 
ATOM     47  C   UNL     1       2.753 -11.790 -11.915  1.00  0.00     0.049 A 
ATOM     48  C   UNL     1      -1.642  -8.316 -12.227  1.00  0.00     0.074 A 
ATOM     49  C   UNL     1       2.872 -12.731 -12.922  1.00  0.00     0.029 A 
ATOM     50  N   UNL     1       1.620 -11.041 -12.196  1.00  0.00    -0.354 N 
ATOM     51  N   UNL     1      -0.674  -9.199 -12.281  1.00  0.00    -0.248 NA
ATOM     52  C   UNL     1      -2.561  -8.359 -13.373  1.00  0.00     0.031 C 
ATOM     53  C   UNL     1       1.828 -12.530 -13.831  1.00  0.00     0.029 A 
ATOM     54  C   UNL     1       1.036 -11.492 -13.366  1.00  0.00     0.049 A 
ATOM     55  H   UNL     1       1.282 -10.298 -11.645  1.00  0.00     0.167 HD
ATOM     56  C   UNL     1      -0.886  -9.925 -13.449  1.00  0.00     0.074 A 
ATOM     57  C   UNL     1      -2.073  -9.377 -14.071  1.00  0.00     0.031 C 
ATOM     58  C   UNL     1      -0.165 -10.953 -13.956  1.00  0.00     0.037 A 
BRANCH  45  59
ATOM     59  C   UNL     1       4.835 -12.447 -10.640  1.00  0.00     0.058 A 
ATOM     60  C   UNL     1       4.934 -13.449  -9.662  1.00  0.00     0.135 A 
ATOM     61  C   UNL     1       5.915 -12.285 -11.523  1.00  0.00     0.135 A 
ATOM     62  F   UNL     1       3.937 -13.637  -8.783  1.00  0.00    -0.206 F 
ATOM     63  C   UNL     1       6.074 -14.236  -9.540  1.00  0.00     0.059 A 
ATOM     64  C   UNL     1       7.054 -13.081 -11.438  1.00  0.00     0.059 A 
ATOM     65  F   UNL     1       5.873 -11.343 -12.478  1.00  0.00    -0.206 F 
ATOM     66  C   UNL     1       7.130 -14.043 -10.432  1.00  0.00     0.060 A 
BRANCH  66  67
ATOM     67  S   UNL     1       8.603 -15.072 -10.260  1.00  0.00     0.124 S 
ATOM     68  O   UNL     1       9.230 -14.485  -9.080  1.00  0.00    -0.237 OA
ATOM     69  O   UNL     1       8.036 -16.404 -10.079  1.00  0.00    -0.237 OA
ATOM     70  O   UNL     1       9.313 -14.862 -11.518  1.00  0.00    -0.744 OA
ENDBRANCH  66  67
ENDBRANCH  45  59
BRANCH  46  71
ATOM     71  C   UNL     1      -3.063  -6.344 -11.297  1.00  0.00     0.058 A 
ATOM     72  C   UNL     1      -4.382  -6.796 -11.151  1.00  0.00     0.135 A 
ATOM     73  C   UNL     1      -2.864  -4.978 -11.549  1.00  0.00     0.135 A 
ATOM     74  F   UNL     1      -4.623  -8.095 -10.915  1.00  0.00    -0.206 F 
ATOM     75  C   UNL     1      -5.466  -5.931 -11.262  1.00  0.00     0.059 A 
ATOM     76  C   UNL     1      -3.930  -4.088 -11.641  1.00  0.00     0.059 A 
ATOM     77  F   UNL     1      -1.619  -4.492 -11.678  1.00  0.00    -0.206 F 
ATOM     78  C   UNL     1      -5.229  -4.577 -11.505  1.00  0.00     0.060 A 
BRANCH  78  79
ATOM     79  S   UNL     1      -6.641  -3.454 -11.594  1.00  0.00     0.124 S 
ATOM     80  O   UNL     1      -7.202  -3.791 -12.897  1.00  0.00    -0.237 OA
ATOM     81  O   UNL     1      -7.429  -3.859 -10.434  1.00  0.00    -0.237 OA
ATOM     82  O   UNL     1      -6.024  -2.134 -11.493  1.00  0.00    -0.744 OA
ENDBRANCH  78  79
ENDBRANCH  46  71
BRANCH  58  83
ATOM     83  C   UNL     1      -0.657 -11.601 -15.218  1.00  0.00     0.058 A 
ATOM     84  C   UNL     1      -0.477 -11.002 -16.473  1.00  0.00     0.135 A 
ATOM     85  C   UNL     1      -1.217 -12.889 -15.175  1.00  0.00     0.135 A 
ATOM     86  F   UNL     1       0.046  -9.769 -16.564  1.00  0.00    -0.206 F 
ATOM     87  C   UNL     1      -0.833 -11.660 -17.646  1.00  0.00     0.059 A 
ATOM     88  C   UNL     1      -1.559 -13.573 -16.336  1.00  0.00     0.059 A 
ATOM     89  F   UNL     1      -1.402 -13.506 -13.998  1.00  0.00    -0.206 F 
ATOM     90  C   UNL     1      -1.363 -12.950 -17.568  1.00  0.00     0.060 A 
BRANCH  90  91
ATOM     91  S   UNL     1      -1.740 -13.825 -19.101  1.00  0.00     0.124 S 
ATOM     92  O   UNL     1      -2.956 -13.147 -19.536  1.00  0.00    -0.237 OA
ATOM     93  O   UNL     1      -0.549 -13.572 -19.907  1.00  0.00    -0.237 OA
ATOM     94  O   UNL     1      -1.913 -15.209 -18.669  1.00  0.00    -0.744 OA
ENDBRANCH  90  91
ENDBRANCH  58  83
ENDBRANCH  32  33
ENDBRANCH  24  27
ENDBRANCH  22  23
ENDBRANCH   1  22
TORSDOF 16
