REMARK SMILES C[C@H](C(=O)NCCCNC(=O)c1ccc(-c2c3nc(c(-c4c(F)cc(S(=O)(=O)[O-])cc4F)c4ccc([nH]4)c(-c4c(F)cc(S(=O)(=O)[O-])cc4F)c4nc(c(-c5c(F)cc(S(=O)(=O)[O-])cc5F)c5ccc2[nH]5)C=C4)C=C3)cc1)[C@@H](C)[NH2+]C[C@@H]1CCCC[C@@H]1CO
REMARK SMILES IDX 3 1 4 2 5 3 2 5 1 6 78 7 79 8 80 9 81 12 82 13 83 14 87 15
REMARK SMILES IDX 84 16 86 17 85 18 88 19 89 20 6 22 7 23 8 24 9 25 10 26
REMARK SMILES IDX 11 28 12 29 13 30 77 31 14 32 76 33 15 34 16 35 17 36 70 37
REMARK SMILES IDX 18 38 75 39 69 40 71 41 19 42 74 43 68 44 67 45 20 47 54 48
REMARK SMILES IDX 33 49 53 50 34 51 37 52 52 53 72 54 35 55 36 56 51 58 73 59
REMARK SMILES IDX 38 60 21 61 22 62 31 63 23 64 24 65 30 66 32 67 25 68 26 69
REMARK SMILES IDX 27 70 28 71 29 72 55 73 56 74 65 75 57 76 58 77 64 78 66 79
REMARK SMILES IDX 59 80 60 81 61 82 62 83 63 84 39 85 40 86 49 87 41 88 42 89
REMARK SMILES IDX 48 90 50 91 43 92 44 93 45 94 46 95 47 96
REMARK H PARENT 5 4 80 10 80 11 89 21 9 27 71 46 37 57
REMARK Flexibility Score: inf
ROOT
ATOM      1  C   UNL     1       1.234  -0.358   0.199  1.00  0.00     0.228 C 
ATOM      2  O   UNL     1       2.392  -0.455   0.635  1.00  0.00    -0.275 OA
ATOM      3  N   UNL     1       0.574   0.757   0.609  1.00  0.00    -0.356 N 
ATOM      4  H   UNL     1       0.970   1.147   1.422  1.00  0.00     0.163 HD
ENDROOT
BRANCH   1   5
ATOM      5  C   UNL     1       0.664  -1.531  -0.640  1.00  0.00     0.133 C 
ATOM      6  C   UNL     1       0.551  -2.734   0.301  1.00  0.00     0.024 C 
BRANCH   5   7
ATOM      7  C   UNL     1      -0.582  -1.199  -1.495  1.00  0.00     0.191 C 
ATOM      8  C   UNL     1      -0.074  -0.310  -2.666  1.00  0.00     0.076 C 
BRANCH   7   9
ATOM      9  N   UNL     1      -1.414  -2.304  -2.032  1.00  0.00    -0.343 N 
ATOM     10  H   UNL     1      -1.034  -3.188  -1.691  1.00  0.00     0.346 HD
ATOM     11  H   UNL     1      -1.382  -2.233  -3.049  1.00  0.00     0.346 HD
BRANCH   9  12
ATOM     12  C   UNL     1      -2.850  -2.225  -1.634  1.00  0.00     0.264 C 
BRANCH  12  13
ATOM     13  C   UNL     1      -3.819  -1.226  -2.379  1.00  0.00     0.049 C 
ATOM     14  C   UNL     1      -3.262   0.200  -2.432  1.00  0.00     0.010 C 
ATOM     15  C   UNL     1      -5.289  -1.229  -1.829  1.00  0.00     0.023 C 
ATOM     16  C   UNL     1      -4.162   1.311  -2.946  1.00  0.00     0.001 C 
ATOM     17  C   UNL     1      -6.134  -0.125  -2.508  1.00  0.00     0.006 C 
ATOM     18  C   UNL     1      -5.539   1.265  -2.323  1.00  0.00     0.000 C 
BRANCH  15  19
ATOM     19  C   UNL     1      -5.409  -1.084  -0.300  1.00  0.00     0.160 C 
BRANCH  19  20
ATOM     20  O   UNL     1      -5.045  -2.293   0.350  1.00  0.00    -0.396 OA
ATOM     21  H   UNL     1      -5.637  -3.006   0.063  1.00  0.00     0.210 HD
ENDBRANCH  19  20
ENDBRANCH  15  19
ENDBRANCH  12  13
ENDBRANCH   9  12
ENDBRANCH   7   9
ENDBRANCH   5   7
ENDBRANCH   1   5
BRANCH   3  22
ATOM     22  C   UNL     1      -0.575   1.515   0.140  1.00  0.00     0.117 C 
BRANCH  22  23
ATOM     23  C   UNL     1      -1.710   1.616   1.147  1.00  0.00     0.042 C 
BRANCH  23  24
ATOM     24  C   UNL     1      -1.821   3.018   1.725  1.00  0.00     0.118 C 
BRANCH  24  25
ATOM     25  N   UNL     1      -2.138   4.027   0.714  1.00  0.00    -0.352 N 
ATOM     26  C   UNL     1      -3.084   5.027   0.704  1.00  0.00     0.251 C 
ATOM     27  H   UNL     1      -1.580   3.983  -0.096  1.00  0.00     0.163 HD
ATOM     28  O   UNL     1      -3.249   5.682  -0.312  1.00  0.00    -0.269 OA
BRANCH  26  29
ATOM     29  C   UNL     1      -3.915   5.277   1.903  1.00  0.00     0.039 A 
ATOM     30  C   UNL     1      -5.250   5.653   1.736  1.00  0.00     0.014 A 
ATOM     31  C   UNL     1      -3.389   5.132   3.185  1.00  0.00     0.014 A 
ATOM     32  C   UNL     1      -6.067   5.815   2.858  1.00  0.00     0.010 A 
ATOM     33  C   UNL     1      -4.232   5.151   4.285  1.00  0.00     0.010 A 
ATOM     34  C   UNL     1      -5.574   5.525   4.141  1.00  0.00    -0.014 A 
BRANCH  34  35
ATOM     35  C   UNL     1      -6.418   5.657   5.354  1.00  0.00     0.031 A 
ATOM     36  C   UNL     1      -5.987   6.583   6.465  1.00  0.00     0.074 A 
ATOM     37  C   UNL     1      -7.524   4.899   5.489  1.00  0.00     0.049 A 
ATOM     38  N   UNL     1      -6.531   6.777   7.638  1.00  0.00    -0.248 NA
ATOM     39  C   UNL     1      -4.753   7.360   6.247  1.00  0.00     0.031 C 
ATOM     40  C   UNL     1      -8.002   3.913   4.516  1.00  0.00     0.029 A 
ATOM     41  N   UNL     1      -8.446   4.834   6.503  1.00  0.00    -0.354 N 
ATOM     42  C   UNL     1      -5.694   7.670   8.299  1.00  0.00     0.074 A 
ATOM     43  C   UNL     1      -4.566   7.915   7.433  1.00  0.00     0.031 C 
ATOM     44  C   UNL     1      -9.147   3.371   4.963  1.00  0.00     0.029 A 
ATOM     45  C   UNL     1      -9.463   3.939   6.269  1.00  0.00     0.049 A 
ATOM     46  H   UNL     1      -8.385   5.378   7.321  1.00  0.00     0.167 HD
ATOM     47  C   UNL     1      -5.870   8.265   9.502  1.00  0.00     0.037 A 
ATOM     48  C   UNL     1     -10.531   3.615   7.024  1.00  0.00     0.037 A 
ATOM     49  C   UNL     1      -7.023   8.052  10.334  1.00  0.00     0.049 A 
ATOM     50  C   UNL     1     -10.726   4.316   8.341  1.00  0.00     0.074 A 
ATOM     51  C   UNL     1      -7.338   8.651  11.540  1.00  0.00     0.029 A 
ATOM     52  N   UNL     1      -8.056   7.174  10.040  1.00  0.00    -0.354 N 
ATOM     53  N   UNL     1      -9.958   5.209   8.921  1.00  0.00    -0.248 NA
ATOM     54  C   UNL     1     -11.936   3.978   9.100  1.00  0.00     0.031 C 
ATOM     55  C   UNL     1      -8.542   8.105  11.995  1.00  0.00     0.029 A 
ATOM     56  C   UNL     1      -9.005   7.206  11.047  1.00  0.00     0.049 A 
ATOM     57  H   UNL     1      -8.107   6.611   9.233  1.00  0.00     0.167 HD
ATOM     58  C   UNL     1     -10.609   5.563  10.098  1.00  0.00     0.074 A 
ATOM     59  C   UNL     1     -11.839   4.797  10.138  1.00  0.00     0.031 C 
ATOM     60  C   UNL     1     -10.227   6.441  11.059  1.00  0.00     0.037 A 
BRANCH  47  61
ATOM     61  C   UNL     1      -4.801   9.215   9.973  1.00  0.00     0.058 A 
ATOM     62  C   UNL     1      -4.568  10.443   9.330  1.00  0.00     0.135 A 
ATOM     63  C   UNL     1      -4.010   8.906  11.091  1.00  0.00     0.135 A 
ATOM     64  F   UNL     1      -5.280  10.785   8.244  1.00  0.00    -0.206 F 
ATOM     65  C   UNL     1      -3.568  11.311   9.755  1.00  0.00     0.059 A 
ATOM     66  C   UNL     1      -3.026   9.775  11.555  1.00  0.00     0.059 A 
ATOM     67  F   UNL     1      -4.185   7.746  11.743  1.00  0.00    -0.206 F 
ATOM     68  C   UNL     1      -2.802  10.968  10.870  1.00  0.00     0.060 A 
BRANCH  68  69
ATOM     69  S   UNL     1      -1.514  12.111  11.412  1.00  0.00     0.124 S 
ATOM     70  O   UNL     1      -0.512  11.938  10.364  1.00  0.00    -0.237 OA
ATOM     71  O   UNL     1      -2.214  13.391  11.413  1.00  0.00    -0.237 OA
ATOM     72  O   UNL     1      -1.140  11.602  12.728  1.00  0.00    -0.744 OA
ENDBRANCH  68  69
ENDBRANCH  47  61
BRANCH  48  73
ATOM     73  C   UNL     1     -11.514   2.611   6.533  1.00  0.00     0.058 A 
ATOM     74  C   UNL     1     -12.804   2.996   6.139  1.00  0.00     0.135 A 
ATOM     75  C   UNL     1     -11.179   1.252   6.429  1.00  0.00     0.135 A 
ATOM     76  F   UNL     1     -13.174   4.283   6.221  1.00  0.00    -0.206 F 
ATOM     77  C   UNL     1     -13.735   2.069   5.680  1.00  0.00     0.059 A 
ATOM     78  C   UNL     1     -12.082   0.310   5.946  1.00  0.00     0.059 A 
ATOM     79  F   UNL     1      -9.950   0.834   6.771  1.00  0.00    -0.206 F 
ATOM     80  C   UNL     1     -13.363   0.727   5.584  1.00  0.00     0.060 A 
BRANCH  80  81
ATOM     81  S   UNL     1     -14.562  -0.460   4.939  1.00  0.00     0.124 S 
ATOM     82  O   UNL     1     -15.505  -0.557   6.047  1.00  0.00    -0.237 OA
ATOM     83  O   UNL     1     -15.049   0.218   3.742  1.00  0.00    -0.237 OA
ATOM     84  O   UNL     1     -13.754  -1.650   4.690  1.00  0.00    -0.744 OA
ENDBRANCH  80  81
ENDBRANCH  48  73
BRANCH  60  85
ATOM     85  C   UNL     1     -11.169   6.656  12.211  1.00  0.00     0.058 A 
ATOM     86  C   UNL     1     -11.371   5.677  13.196  1.00  0.00     0.135 A 
ATOM     87  C   UNL     1     -11.845   7.879  12.352  1.00  0.00     0.135 A 
ATOM     88  F   UNL     1     -10.752   4.489  13.106  1.00  0.00    -0.206 F 
ATOM     89  C   UNL     1     -12.239   5.890  14.262  1.00  0.00     0.059 A 
ATOM     90  C   UNL     1     -12.691   8.126  13.427  1.00  0.00     0.059 A 
ATOM     91  F   UNL     1     -11.675   8.855  11.445  1.00  0.00    -0.206 F 
ATOM     92  C   UNL     1     -12.895   7.118  14.368  1.00  0.00     0.060 A 
BRANCH  92  93
ATOM     93  S   UNL     1     -14.004   7.388  15.765  1.00  0.00     0.124 S 
ATOM     94  O   UNL     1     -15.151   6.566  15.392  1.00  0.00    -0.237 OA
ATOM     95  O   UNL     1     -13.214   6.899  16.891  1.00  0.00    -0.237 OA
ATOM     96  O   UNL     1     -14.232   8.830  15.746  1.00  0.00    -0.744 OA
ENDBRANCH  92  93
ENDBRANCH  60  85
ENDBRANCH  34  35
ENDBRANCH  26  29
ENDBRANCH  24  25
ENDBRANCH  23  24
ENDBRANCH  22  23
ENDBRANCH   3  22
TORSDOF 19
