REMARK SMILES O=C(C[NH+]1CC[NH+](Cc2cc(Cl)ccc2[N+](=O)[O-])CC1)NCCCNC(=O)c1ccc(-c2c3nc(c(-c4c(F)cc(S(=O)(=O)[O-])cc4F)c4ccc([nH]4)c(-c4c(F)cc(S(=O)(=O)[O-])cc4F)c4nc(c(-c5c(F)cc(S(=O)(=O)[O-])cc5F)c5ccc2[nH]5)C=C4)C=C3)cc1
REMARK SMILES IDX 22 1 21 2 1 3 2 4 3 6 4 7 5 8 20 9 6 11 19 12 7 13 8 15 9 16
REMARK SMILES IDX 10 17 15 18 11 19 14 20 12 21 13 22 16 23 17 24 18 25 23 26
REMARK SMILES IDX 24 27 25 28 26 29 27 31 28 32 29 33 93 34 30 35 92 36 31 37
REMARK SMILES IDX 32 38 33 39 86 40 34 41 91 42 85 43 87 44 35 45 90 46 84 47
REMARK SMILES IDX 83 48 36 50 70 51 49 52 69 53 50 54 53 55 68 56 88 57 51 58
REMARK SMILES IDX 52 59 67 61 89 62 54 63 37 64 38 65 47 66 39 67 40 68 46 69
REMARK SMILES IDX 48 70 41 71 42 72 43 73 44 74 45 75 71 76 72 77 81 78 73 79
REMARK SMILES IDX 74 80 80 81 82 82 75 83 76 84 77 85 78 86 79 87 55 88 56 89
REMARK SMILES IDX 65 90 57 91 58 92 64 93 66 94 59 95 60 96 61 97 62 98 63 99
REMARK H PARENT 21 5 4 10 7 14 25 30 87 49 53 60
REMARK Flexibility Score: inf
ROOT
ATOM      1  C   UNL     1       1.605   1.810   1.738  1.00  0.00     0.118 C 
ENDROOT
BRANCH   1   2
ATOM      2  N   UNL     1       2.090   0.484   1.415  1.00  0.00    -0.351 N 
ATOM      3  O   UNL     1       0.604   0.068  -0.293  1.00  0.00    -0.269 OA
ATOM      4  C   UNL     1       1.639  -0.209   0.304  1.00  0.00     0.275 C 
ATOM      5  H   UNL     1       2.760   0.065   2.001  1.00  0.00     0.163 HD
BRANCH   4   6
ATOM      6  C   UNL     1       2.673  -1.232  -0.200  1.00  0.00     0.363 C 
BRANCH   6   7
ATOM      7  N   UNL     1       3.465  -0.714  -1.340  1.00  0.00    -0.318 N 
ATOM      8  C   UNL     1       3.676   0.742  -1.363  1.00  0.00     0.325 C 
ATOM      9  C   UNL     1       4.766  -1.399  -1.478  1.00  0.00     0.325 C 
ATOM     10  H   UNL     1       2.872  -0.927  -2.141  1.00  0.00     0.348 HD
ATOM     11  C   UNL     1       4.772   1.273  -0.414  1.00  0.00     0.324 C 
ATOM     12  C   UNL     1       5.914  -0.863  -0.574  1.00  0.00     0.324 C 
ATOM     13  N   UNL     1       6.064   0.595  -0.507  1.00  0.00    -0.322 N 
ATOM     14  H   UNL     1       6.536   0.747   0.384  1.00  0.00     0.348 HD
BRANCH  13  15
ATOM     15  C   UNL     1       7.065   1.229  -1.376  1.00  0.00     0.306 C 
BRANCH  15  16
ATOM     16  C   UNL     1       6.813   1.130  -2.869  1.00  0.00     0.085 A 
ATOM     17  C   UNL     1       5.887   2.056  -3.410  1.00  0.00     0.037 A 
ATOM     18  C   UNL     1       7.326   0.145  -3.741  1.00  0.00     0.278 A 
ATOM     19  C   UNL     1       5.347   1.893  -4.686  1.00  0.00     0.042 A 
ATOM     20  C   UNL     1       6.781   0.001  -5.038  1.00  0.00     0.088 A 
ATOM     21  Cl  UNL     1       4.094   2.941  -5.223  1.00  0.00    -0.084 Cl
ATOM     22  C   UNL     1       5.769   0.847  -5.490  1.00  0.00     0.027 A 
BRANCH  18  23
ATOM     23  N   UNL     1       8.451  -0.756  -3.401  1.00  0.00     0.063 N 
ATOM     24  O   UNL     1       8.900  -1.470  -4.311  1.00  0.00    -0.258 OA
ATOM     25  O   UNL     1       8.906  -0.752  -2.255  1.00  0.00    -0.258 OA
ENDBRANCH  18  23
ENDBRANCH  15  16
ENDBRANCH  13  15
ENDBRANCH   6   7
ENDBRANCH   4   6
ENDBRANCH   1   2
BRANCH   1  26
ATOM     26  C   UNL     1       2.035   2.268   3.126  1.00  0.00     0.042 C 
BRANCH  26  27
ATOM     27  C   UNL     1       3.544   2.407   3.327  1.00  0.00     0.118 C 
BRANCH  27  28
ATOM     28  N   UNL     1       4.112   3.602   2.725  1.00  0.00    -0.352 N 
ATOM     29  C   UNL     1       4.938   4.550   3.293  1.00  0.00     0.251 C 
ATOM     30  H   UNL     1       3.875   3.756   1.782  1.00  0.00     0.163 HD
ATOM     31  O   UNL     1       5.236   5.554   2.659  1.00  0.00    -0.269 OA
BRANCH  29  32
ATOM     32  C   UNL     1       5.430   4.374   4.683  1.00  0.00     0.039 A 
ATOM     33  C   UNL     1       5.334   5.449   5.571  1.00  0.00     0.014 A 
ATOM     34  C   UNL     1       5.970   3.160   5.118  1.00  0.00     0.014 A 
ATOM     35  C   UNL     1       5.708   5.283   6.909  1.00  0.00     0.010 A 
ATOM     36  C   UNL     1       6.272   2.975   6.469  1.00  0.00     0.010 A 
ATOM     37  C   UNL     1       6.141   4.032   7.383  1.00  0.00    -0.014 A 
BRANCH  37  38
ATOM     38  C   UNL     1       6.436   3.820   8.828  1.00  0.00     0.031 A 
ATOM     39  C   UNL     1       7.822   3.447   9.285  1.00  0.00     0.074 A 
ATOM     40  C   UNL     1       5.441   3.919   9.735  1.00  0.00     0.049 A 
ATOM     41  N   UNL     1       8.255   3.201  10.496  1.00  0.00    -0.248 NA
ATOM     42  C   UNL     1       8.852   3.311   8.243  1.00  0.00     0.031 C 
ATOM     43  C   UNL     1       4.042   4.224   9.424  1.00  0.00     0.029 A 
ATOM     44  N   UNL     1       5.448   3.770  11.101  1.00  0.00    -0.354 N 
ATOM     45  C   UNL     1       9.601   2.877  10.363  1.00  0.00     0.074 A 
ATOM     46  C   UNL     1       9.899   2.901   8.947  1.00  0.00     0.031 C 
ATOM     47  C   UNL     1       3.335   4.267  10.565  1.00  0.00     0.029 A 
ATOM     48  C   UNL     1       4.217   3.955  11.686  1.00  0.00     0.049 A 
ATOM     49  H   UNL     1       6.260   3.552  11.613  1.00  0.00     0.167 HD
ATOM     50  C   UNL     1      10.512   2.608  11.330  1.00  0.00     0.037 A 
ATOM     51  C   UNL     1       3.834   3.878  12.976  1.00  0.00     0.037 A 
ATOM     52  C   UNL     1      10.217   2.599  12.741  1.00  0.00     0.049 A 
ATOM     53  C   UNL     1       4.861   3.565  14.032  1.00  0.00     0.074 A 
ATOM     54  C   UNL     1      11.085   2.391  13.799  1.00  0.00     0.029 A 
ATOM     55  N   UNL     1       8.960   2.799  13.293  1.00  0.00    -0.354 N 
ATOM     56  N   UNL     1       6.144   3.332  13.891  1.00  0.00    -0.248 NA
ATOM     57  C   UNL     1       4.391   3.515  15.424  1.00  0.00     0.031 C 
ATOM     58  C   UNL     1      10.345   2.410  14.985  1.00  0.00     0.029 A 
ATOM     59  C   UNL     1       9.025   2.693  14.673  1.00  0.00     0.049 A 
ATOM     60  H   UNL     1       8.141   2.988  12.779  1.00  0.00     0.167 HD
ATOM     61  C   UNL     1       6.639   3.137  15.177  1.00  0.00     0.074 A 
ATOM     62  C   UNL     1       5.521   3.294  16.082  1.00  0.00     0.031 C 
ATOM     63  C   UNL     1       7.907   2.855  15.570  1.00  0.00     0.037 A 
BRANCH  50  64
ATOM     64  C   UNL     1      11.922   2.302  10.898  1.00  0.00     0.058 A 
ATOM     65  C   UNL     1      12.756   3.288  10.345  1.00  0.00     0.135 A 
ATOM     66  C   UNL     1      12.464   1.019  11.083  1.00  0.00     0.135 A 
ATOM     67  F   UNL     1      12.288   4.528  10.134  1.00  0.00    -0.206 F 
ATOM     68  C   UNL     1      14.063   3.005   9.961  1.00  0.00     0.059 A 
ATOM     69  C   UNL     1      13.779   0.722  10.735  1.00  0.00     0.059 A 
ATOM     70  F   UNL     1      11.715   0.038  11.610  1.00  0.00    -0.206 F 
ATOM     71  C   UNL     1      14.566   1.719  10.161  1.00  0.00     0.060 A 
BRANCH  71  72
ATOM     72  S   UNL     1      16.266   1.373   9.662  1.00  0.00     0.124 S 
ATOM     73  O   UNL     1      16.151   1.388   8.207  1.00  0.00    -0.237 OA
ATOM     74  O   UNL     1      16.997   2.490  10.251  1.00  0.00    -0.237 OA
ATOM     75  O   UNL     1      16.537   0.067  10.256  1.00  0.00    -0.744 OA
ENDBRANCH  71  72
ENDBRANCH  50  64
BRANCH  51  76
ATOM     76  C   UNL     1       2.413   4.120  13.348  1.00  0.00     0.058 A 
ATOM     77  C   UNL     1       2.037   5.260  14.074  1.00  0.00     0.135 A 
ATOM     78  C   UNL     1       1.401   3.218  12.982  1.00  0.00     0.135 A 
ATOM     79  F   UNL     1       2.968   6.148  14.455  1.00  0.00    -0.206 F 
ATOM     80  C   UNL     1       0.715   5.490  14.440  1.00  0.00     0.059 A 
ATOM     81  C   UNL     1       0.067   3.441  13.311  1.00  0.00     0.059 A 
ATOM     82  F   UNL     1       1.703   2.118  12.274  1.00  0.00    -0.206 F 
ATOM     83  C   UNL     1      -0.265   4.575  14.050  1.00  0.00     0.060 A 
BRANCH  83  84
ATOM     84  S   UNL     1      -1.984   4.907  14.489  1.00  0.00     0.124 S 
ATOM     85  O   UNL     1      -1.975   4.655  15.925  1.00  0.00    -0.237 OA
ATOM     86  O   UNL     1      -2.139   6.301  14.086  1.00  0.00    -0.237 OA
ATOM     87  O   UNL     1      -2.728   3.944  13.683  1.00  0.00    -0.744 OA
ENDBRANCH  83  84
ENDBRANCH  51  76
BRANCH  63  88
ATOM     88  C   UNL     1       8.166   2.736  17.049  1.00  0.00     0.058 A 
ATOM     89  C   UNL     1       7.690   1.651  17.802  1.00  0.00     0.135 A 
ATOM     90  C   UNL     1       8.939   3.703  17.713  1.00  0.00     0.135 A 
ATOM     91  F   UNL     1       6.942   0.701  17.219  1.00  0.00    -0.206 F 
ATOM     92  C   UNL     1       7.944   1.545  19.166  1.00  0.00     0.059 A 
ATOM     93  C   UNL     1       9.232   3.600  19.070  1.00  0.00     0.059 A 
ATOM     94  F   UNL     1       9.430   4.756  17.041  1.00  0.00    -0.206 F 
ATOM     95  C   UNL     1       8.718   2.524  19.791  1.00  0.00     0.060 A 
BRANCH  95  96
ATOM     96  S   UNL     1       9.060   2.361  21.556  1.00  0.00     0.124 S 
ATOM     97  O   UNL     1       7.762   2.686  22.139  1.00  0.00    -0.237 OA
ATOM     98  O   UNL     1       9.473   0.966  21.666  1.00  0.00    -0.237 OA
ATOM     99  O   UNL     1      10.116   3.341  21.791  1.00  0.00    -0.744 OA
ENDBRANCH  95  96
ENDBRANCH  63  88
ENDBRANCH  37  38
ENDBRANCH  29  32
ENDBRANCH  27  28
ENDBRANCH  26  27
ENDBRANCH   1  26
TORSDOF 17
