REMARK SMILES COc1ccc(F)c(Nc2ccc(C(=O)NCCCNC(=O)c3ccc(-c4c5nc(c(-c6c(F)cc(S(=O)(=O)[O-])cc6F)c6ccc([nH]6)c(-c6c(F)cc(S(=O)(=O)[O-])cc6F)c6nc(c(-c7c(F)cc(S(=O)(=O)[O-])cc7F)c7ccc4[nH]7)C=C6)C=C5)cc3)cc2)c1
REMARK SMILES IDX 18 1 17 2 16 3 14 4 15 5 13 7 10 8 11 9 90 10 12 11 89 12
REMARK SMILES IDX 9 13 8 15 3 16 4 17 91 18 5 19 6 20 7 21 2 22 1 23 19 24
REMARK SMILES IDX 20 25 21 26 22 28 23 29 24 30 88 31 25 32 87 33 26 34 27 35
REMARK SMILES IDX 28 36 81 37 29 38 86 39 80 40 82 41 30 42 85 43 79 44 78 45
REMARK SMILES IDX 31 47 65 48 44 49 64 50 45 51 48 52 63 53 83 54 46 55 47 56
REMARK SMILES IDX 62 58 84 59 49 60 32 61 33 62 42 63 34 64 35 65 41 66 43 67
REMARK SMILES IDX 36 68 37 69 38 70 39 71 40 72 66 73 67 74 76 75 68 76 69 77
REMARK SMILES IDX 75 78 77 79 70 80 71 81 72 82 73 83 74 84 50 85 51 86 60 87
REMARK SMILES IDX 52 88 53 89 59 90 61 91 54 92 55 93 56 94 57 95 58 96
REMARK H PARENT 16 6 9 14 20 27 82 46 48 57
REMARK Flexibility Score: inf
ROOT
ATOM      1  C   UNL     1      -6.785   2.426  -1.699  1.00  0.00     0.042 C 
ENDROOT
BRANCH   1   2
ATOM      2  C   UNL     1      -6.330   1.103  -2.315  1.00  0.00     0.118 C 
BRANCH   2   3
ATOM      3  N   UNL     1      -6.769   0.987  -3.695  1.00  0.00    -0.352 N 
ATOM      4  C   UNL     1      -6.109   1.139  -4.888  1.00  0.00     0.251 C 
ATOM      5  O   UNL     1      -6.732   0.902  -5.923  1.00  0.00    -0.269 OA
ATOM      6  H   UNL     1      -7.721   0.756  -3.793  1.00  0.00     0.163 HD
BRANCH   4   7
ATOM      7  C   UNL     1      -4.669   1.504  -4.980  1.00  0.00     0.039 A 
ATOM      8  C   UNL     1      -1.899   1.970  -5.230  1.00  0.00     0.038 A 
ATOM      9  C   UNL     1      -2.579   1.236  -6.202  1.00  0.00     0.027 A 
ATOM     10  C   UNL     1      -2.627   2.529  -4.176  1.00  0.00     0.027 A 
ATOM     11  C   UNL     1      -3.950   0.993  -6.071  1.00  0.00     0.016 A 
ATOM     12  C   UNL     1      -4.007   2.329  -4.071  1.00  0.00     0.016 A 
BRANCH   8  13
ATOM     13  N   UNL     1      -0.506   2.091  -5.286  1.00  0.00    -0.353 N 
ATOM     14  H   UNL     1      -0.145   2.519  -6.096  1.00  0.00     0.167 HD
BRANCH  13  15
ATOM     15  C   UNL     1       0.447   1.680  -4.334  1.00  0.00     0.078 A 
ATOM     16  C   UNL     1       1.080   0.466  -2.317  1.00  0.00     0.121 A 
ATOM     17  C   UNL     1       2.391   0.927  -2.431  1.00  0.00     0.049 A 
ATOM     18  C   UNL     1       0.120   0.835  -3.264  1.00  0.00     0.075 A 
ATOM     19  C   UNL     1       2.733   1.777  -3.483  1.00  0.00     0.045 A 
ATOM     20  C   UNL     1       1.766   2.146  -4.416  1.00  0.00     0.146 A 
ATOM     21  F   UNL     1       2.119   2.955  -5.427  1.00  0.00    -0.205 F 
BRANCH  16  22
ATOM     22  O   UNL     1       0.665  -0.414  -1.354  1.00  0.00    -0.497 OA
ATOM     23  C   UNL     1       1.091  -0.068  -0.039  1.00  0.00     0.278 C 
ENDBRANCH  16  22
ENDBRANCH  13  15
ENDBRANCH   8  13
ENDBRANCH   4   7
ENDBRANCH   2   3
ENDBRANCH   1   2
BRANCH   1  24
ATOM     24  C   UNL     1      -8.280   2.470  -1.390  1.00  0.00     0.118 C 
BRANCH  24  25
ATOM     25  N   UNL     1      -8.632   1.599  -0.278  1.00  0.00    -0.352 N 
ATOM     26  C   UNL     1      -9.281   1.889   0.896  1.00  0.00     0.251 C 
ATOM     27  H   UNL     1      -8.363   0.658  -0.385  1.00  0.00     0.163 HD
ATOM     28  O   UNL     1      -9.288   1.057   1.798  1.00  0.00    -0.269 OA
BRANCH  26  29
ATOM     29  C   UNL     1      -9.958   3.192   1.087  1.00  0.00     0.039 A 
ATOM     30  C   UNL     1      -9.857   3.825   2.329  1.00  0.00     0.014 A 
ATOM     31  C   UNL     1     -10.728   3.769   0.072  1.00  0.00     0.014 A 
ATOM     32  C   UNL     1     -10.482   5.058   2.536  1.00  0.00     0.010 A 
ATOM     33  C   UNL     1     -11.298   5.027   0.258  1.00  0.00     0.010 A 
ATOM     34  C   UNL     1     -11.184   5.683   1.493  1.00  0.00    -0.014 A 
BRANCH  34  35
ATOM     35  C   UNL     1     -11.796   7.024   1.675  1.00  0.00     0.031 A 
ATOM     36  C   UNL     1     -13.290   7.193   1.615  1.00  0.00     0.074 A 
ATOM     37  C   UNL     1     -11.001   8.099   1.845  1.00  0.00     0.049 A 
ATOM     38  N   UNL     1     -13.999   8.290   1.681  1.00  0.00    -0.248 NA
ATOM     39  C   UNL     1     -14.091   5.971   1.436  1.00  0.00     0.031 C 
ATOM     40  C   UNL     1      -9.537   8.067   1.886  1.00  0.00     0.029 A 
ATOM     41  N   UNL     1     -11.307   9.427   2.007  1.00  0.00    -0.354 N 
ATOM     42  C   UNL     1     -15.324   7.895   1.543  1.00  0.00     0.074 A 
ATOM     43  C   UNL     1     -15.319   6.463   1.342  1.00  0.00     0.031 C 
ATOM     44  C   UNL     1      -9.075   9.311   2.088  1.00  0.00     0.029 A 
ATOM     45  C   UNL     1     -10.204  10.235   2.151  1.00  0.00     0.049 A 
ATOM     46  H   UNL     1     -12.230   9.769   2.019  1.00  0.00     0.167 HD
ATOM     47  C   UNL     1     -16.444   8.655   1.602  1.00  0.00     0.037 A 
ATOM     48  C   UNL     1     -10.109  11.570   2.308  1.00  0.00     0.037 A 
ATOM     49  C   UNL     1     -16.443  10.078   1.829  1.00  0.00     0.049 A 
ATOM     50  C   UNL     1     -11.365  12.394   2.358  1.00  0.00     0.074 A 
ATOM     51  C   UNL     1     -17.528  10.928   1.953  1.00  0.00     0.029 A 
ATOM     52  N   UNL     1     -15.305  10.859   1.969  1.00  0.00    -0.354 N 
ATOM     53  N   UNL     1     -12.612  11.998   2.265  1.00  0.00    -0.248 NA
ATOM     54  C   UNL     1     -11.205  13.844   2.535  1.00  0.00     0.031 C 
ATOM     55  C   UNL     1     -17.046  12.229   2.130  1.00  0.00     0.029 A 
ATOM     56  C   UNL     1     -15.661  12.184   2.161  1.00  0.00     0.049 A 
ATOM     57  H   UNL     1     -14.381  10.521   1.937  1.00  0.00     0.167 HD
ATOM     58  C   UNL     1     -13.386  13.146   2.388  1.00  0.00     0.074 A 
ATOM     59  C   UNL     1     -12.467  14.251   2.576  1.00  0.00     0.031 C 
ATOM     60  C   UNL     1     -14.735  13.273   2.346  1.00  0.00     0.037 A 
BRANCH  47  61
ATOM     61  C   UNL     1     -17.770   7.967   1.434  1.00  0.00     0.058 A 
ATOM     62  C   UNL     1     -18.551   8.184   0.288  1.00  0.00     0.135 A 
ATOM     63  C   UNL     1     -18.298   7.139   2.438  1.00  0.00     0.135 A 
ATOM     64  F   UNL     1     -18.093   8.962  -0.706  1.00  0.00    -0.206 F 
ATOM     65  C   UNL     1     -19.813   7.615   0.148  1.00  0.00     0.059 A 
ATOM     66  C   UNL     1     -19.547   6.539   2.309  1.00  0.00     0.059 A 
ATOM     67  F   UNL     1     -17.584   6.882   3.546  1.00  0.00    -0.206 F 
ATOM     68  C   UNL     1     -20.304   6.795   1.166  1.00  0.00     0.060 A 
BRANCH  68  69
ATOM     69  S   UNL     1     -21.929   6.037   0.956  1.00  0.00     0.124 S 
ATOM     70  O   UNL     1     -22.817   7.183   1.109  1.00  0.00    -0.237 OA
ATOM     71  O   UNL     1     -21.836   5.477  -0.389  1.00  0.00    -0.237 OA
ATOM     72  O   UNL     1     -21.982   5.050   2.031  1.00  0.00    -0.744 OA
ENDBRANCH  68  69
ENDBRANCH  47  61
BRANCH  48  73
ATOM     73  C   UNL     1      -8.770  12.198   2.460  1.00  0.00     0.058 A 
ATOM     74  C   UNL     1      -7.873  12.275   1.384  1.00  0.00     0.135 A 
ATOM     75  C   UNL     1      -8.345  12.690   3.703  1.00  0.00     0.135 A 
ATOM     76  F   UNL     1      -8.227  11.809   0.176  1.00  0.00    -0.206 F 
ATOM     77  C   UNL     1      -6.591  12.791   1.541  1.00  0.00     0.059 A 
ATOM     78  C   UNL     1      -7.076  13.233   3.880  1.00  0.00     0.059 A 
ATOM     79  F   UNL     1      -9.174  12.649   4.758  1.00  0.00    -0.206 F 
ATOM     80  C   UNL     1      -6.199  13.260   2.796  1.00  0.00     0.060 A 
BRANCH  80  81
ATOM     81  S   UNL     1      -4.521  13.900   2.987  1.00  0.00     0.124 S 
ATOM     82  O   UNL     1      -3.730  12.678   2.875  1.00  0.00    -0.237 OA
ATOM     83  O   UNL     1      -4.418  14.829   1.866  1.00  0.00    -0.237 OA
ATOM     84  O   UNL     1      -4.543  14.515   4.310  1.00  0.00    -0.744 OA
ENDBRANCH  80  81
ENDBRANCH  48  73
BRANCH  60  85
ATOM     85  C   UNL     1     -15.311  14.650   2.519  1.00  0.00     0.058 A 
ATOM     86  C   UNL     1     -15.997  14.993   3.695  1.00  0.00     0.135 A 
ATOM     87  C   UNL     1     -15.256  15.601   1.489  1.00  0.00     0.135 A 
ATOM     88  F   UNL     1     -16.081  14.118   4.710  1.00  0.00    -0.206 F 
ATOM     89  C   UNL     1     -16.626  16.225   3.836  1.00  0.00     0.059 A 
ATOM     90  C   UNL     1     -15.858  16.849   1.617  1.00  0.00     0.059 A 
ATOM     91  F   UNL     1     -14.602  15.325   0.349  1.00  0.00    -0.206 F 
ATOM     92  C   UNL     1     -16.556  17.145   2.788  1.00  0.00     0.060 A 
BRANCH  92  93
ATOM     93  S   UNL     1     -17.375  18.741   2.989  1.00  0.00     0.124 S 
ATOM     94  O   UNL     1     -18.783  18.369   2.894  1.00  0.00    -0.237 OA
ATOM     95  O   UNL     1     -16.917  19.161   4.310  1.00  0.00    -0.237 OA
ATOM     96  O   UNL     1     -16.858  19.529   1.874  1.00  0.00    -0.744 OA
ENDBRANCH  92  93
ENDBRANCH  60  85
ENDBRANCH  34  35
ENDBRANCH  26  29
ENDBRANCH  24  25
ENDBRANCH   1  24
TORSDOF 16
