REMARK SMILES Cc1ccc(S(=O)(=O)Nc2ccccn2)cc1C(=O)NCCCNC(=O)c1ccc(-c2c3nc(c(-c4c(F)cc(S(=O)(=O)[O-])cc4F)c4ccc([nH]4)c(-c4c(F)cc(S(=O)(=O)[O-])cc4F)c4nc(c(-c5c(F)cc(S(=O)(=O)[O-])cc5F)c5ccc2[nH]5)C=C4)C=C3)cc1
REMARK SMILES IDX 22 1 21 2 20 3 18 4 19 5 17 7 1 8 2 9 3 10 4 11 16 12 5 13
REMARK SMILES IDX 6 14 7 15 8 16 9 17 10 19 11 20 15 21 12 22 14 23 13 24
REMARK SMILES IDX 23 25 24 26 25 27 26 29 27 30 28 31 92 32 29 33 91 34 30 35
REMARK SMILES IDX 31 36 32 37 85 38 33 39 90 40 84 41 86 42 34 43 89 44 83 45
REMARK SMILES IDX 82 46 35 48 69 49 48 50 68 51 49 52 52 53 67 54 87 55 50 56
REMARK SMILES IDX 51 57 66 59 88 60 53 61 36 62 37 63 46 64 38 65 39 66 45 67
REMARK SMILES IDX 47 68 40 69 41 70 42 71 43 72 44 73 70 74 71 75 80 76 72 77
REMARK SMILES IDX 73 78 79 79 81 80 74 81 75 82 76 83 77 84 78 85 54 86 55 87
REMARK SMILES IDX 64 88 56 89 57 90 63 91 65 92 58 93 59 94 60 95 61 96 62 97
REMARK H PARENT 20 6 9 18 24 28 86 47 52 58
REMARK Flexibility Score: inf
ROOT
ATOM      1  C   UNL     1       4.690  -0.268   0.407  1.00  0.00     0.042 C 
ENDROOT
BRANCH   1   2
ATOM      2  C   UNL     1       3.390   0.240   1.230  1.00  0.00     0.118 C 
BRANCH   2   3
ATOM      3  N   UNL     1       2.502   1.249   0.609  1.00  0.00    -0.352 N 
ATOM      4  C   UNL     1       1.146   1.447   0.420  1.00  0.00     0.251 C 
ATOM      5  O   UNL     1       0.723   2.595   0.248  1.00  0.00    -0.269 OA
ATOM      6  H   UNL     1       3.024   1.988   0.220  1.00  0.00     0.163 HD
BRANCH   4   7
ATOM      7  C   UNL     1       0.116   0.361   0.355  1.00  0.00     0.044 A 
ATOM      8  C   UNL     1       1.634  -1.275  -0.901  1.00  0.00     0.045 C 
ATOM      9  C   UNL     1       0.371  -0.914  -0.174  1.00  0.00    -0.038 A 
ATOM     10  C   UNL     1      -0.650  -1.878  -0.174  1.00  0.00     0.005 A 
ATOM     11  C   UNL     1      -1.968  -1.511   0.062  1.00  0.00     0.022 A 
ATOM     12  C   UNL     1      -1.244   0.729   0.585  1.00  0.00     0.036 A 
ATOM     13  C   UNL     1      -2.281  -0.176   0.325  1.00  0.00     0.088 A 
BRANCH  13  14
ATOM     14  S   UNL     1      -3.991   0.241   0.004  1.00  0.00     0.263 S 
ATOM     15  O   UNL     1      -4.210  -0.039  -1.403  1.00  0.00    -0.201 OA
ATOM     16  O   UNL     1      -4.767  -0.465   1.006  1.00  0.00    -0.201 OA
BRANCH  14  17
ATOM     17  N   UNL     1      -4.311   1.834   0.257  1.00  0.00    -0.263 N 
ATOM     18  H   UNL     1      -5.130   2.056   0.756  1.00  0.00     0.182 HD
BRANCH  17  19
ATOM     19  C   UNL     1      -3.519   2.897  -0.175  1.00  0.00     0.139 A 
ATOM     20  C   UNL     1      -2.768   2.956  -1.334  1.00  0.00     0.048 A 
ATOM     21  N   UNL     1      -3.565   3.865   0.760  1.00  0.00    -0.239 NA
ATOM     22  C   UNL     1      -1.908   4.043  -1.476  1.00  0.00     0.005 A 
ATOM     23  C   UNL     1      -2.731   4.909   0.585  1.00  0.00     0.113 A 
ATOM     24  C   UNL     1      -1.876   5.031  -0.495  1.00  0.00     0.020 A 
ENDBRANCH  17  19
ENDBRANCH  14  17
ENDBRANCH  13  14
ENDBRANCH   4   7
ENDBRANCH   2   3
ENDBRANCH   1   2
BRANCH   1  25
ATOM     25  C   UNL     1       6.067   0.479   0.710  1.00  0.00     0.118 C 
BRANCH  25  26
ATOM     26  N   UNL     1       7.437   0.194   0.013  1.00  0.00    -0.352 N 
ATOM     27  C   UNL     1       8.647   0.956  -0.265  1.00  0.00     0.251 C 
ATOM     28  H   UNL     1       7.497  -0.730  -0.320  1.00  0.00     0.163 HD
ATOM     29  O   UNL     1       9.637   0.566   0.380  1.00  0.00    -0.269 OA
BRANCH  27  30
ATOM     30  C   UNL     1       8.980   2.127  -1.276  1.00  0.00     0.039 A 
ATOM     31  C   UNL     1       9.891   3.171  -0.908  1.00  0.00     0.014 A 
ATOM     32  C   UNL     1       8.377   2.352  -2.506  1.00  0.00     0.014 A 
ATOM     33  C   UNL     1       9.731   4.522  -1.416  1.00  0.00     0.010 A 
ATOM     34  C   UNL     1       8.207   3.685  -3.003  1.00  0.00     0.010 A 
ATOM     35  C   UNL     1       8.692   4.809  -2.317  1.00  0.00    -0.014 A 
BRANCH  35  36
ATOM     36  C   UNL     1       7.926   6.128  -2.371  1.00  0.00     0.031 A 
ATOM     37  C   UNL     1       8.149   7.091  -3.443  1.00  0.00     0.074 A 
ATOM     38  C   UNL     1       6.869   6.540  -1.605  1.00  0.00     0.049 A 
ATOM     39  N   UNL     1       8.357   8.357  -3.273  1.00  0.00    -0.248 NA
ATOM     40  C   UNL     1       8.013   6.669  -4.823  1.00  0.00     0.031 C 
ATOM     41  C   UNL     1       5.958   7.699  -1.654  1.00  0.00     0.029 A 
ATOM     42  N   UNL     1       6.298   5.890  -0.538  1.00  0.00    -0.354 N 
ATOM     43  C   UNL     1       8.047   8.938  -4.485  1.00  0.00     0.074 A 
ATOM     44  C   UNL     1       8.061   7.848  -5.444  1.00  0.00     0.031 C 
ATOM     45  C   UNL     1       5.296   7.813  -0.478  1.00  0.00     0.029 A 
ATOM     46  C   UNL     1       5.774   6.769   0.405  1.00  0.00     0.049 A 
ATOM     47  H   UNL     1       6.264   4.910  -0.450  1.00  0.00     0.167 HD
ATOM     48  C   UNL     1       7.498  10.191  -4.568  1.00  0.00     0.037 A 
ATOM     49  C   UNL     1       6.361   6.835   1.646  1.00  0.00     0.037 A 
ATOM     50  C   UNL     1       7.045  10.691  -3.253  1.00  0.00     0.049 A 
ATOM     51  C   UNL     1       7.151   8.120   1.751  1.00  0.00     0.074 A 
ATOM     52  C   UNL     1       5.796  10.960  -2.702  1.00  0.00     0.029 A 
ATOM     53  N   UNL     1       7.916  10.711  -2.176  1.00  0.00    -0.354 N 
ATOM     54  N   UNL     1       6.967   9.122   0.940  1.00  0.00    -0.248 NA
ATOM     55  C   UNL     1       8.249   8.370   2.684  1.00  0.00     0.031 C 
ATOM     56  C   UNL     1       5.944  11.160  -1.296  1.00  0.00     0.029 A 
ATOM     57  C   UNL     1       7.284  11.032  -0.985  1.00  0.00     0.049 A 
ATOM     58  H   UNL     1       8.879  10.519  -2.249  1.00  0.00     0.167 HD
ATOM     59  C   UNL     1       7.957  10.042   1.095  1.00  0.00     0.074 A 
ATOM     60  C   UNL     1       8.707   9.558   2.243  1.00  0.00     0.031 C 
ATOM     61  C   UNL     1       8.088  11.094   0.232  1.00  0.00     0.037 A 
BRANCH  48  62
ATOM     62  C   UNL     1       7.094  10.822  -5.896  1.00  0.00     0.058 A 
ATOM     63  C   UNL     1       6.180  11.894  -5.972  1.00  0.00     0.135 A 
ATOM     64  C   UNL     1       7.633  10.440  -7.147  1.00  0.00     0.135 A 
ATOM     65  F   UNL     1       5.699  12.486  -4.871  1.00  0.00    -0.206 F 
ATOM     66  C   UNL     1       5.751  12.448  -7.182  1.00  0.00     0.059 A 
ATOM     67  C   UNL     1       7.162  10.917  -8.372  1.00  0.00     0.059 A 
ATOM     68  F   UNL     1       8.711   9.646  -7.230  1.00  0.00    -0.206 F 
ATOM     69  C   UNL     1       6.223  11.933  -8.381  1.00  0.00     0.060 A 
BRANCH  69  70
ATOM     70  S   UNL     1       5.686  12.675  -9.933  1.00  0.00     0.124 S 
ATOM     71  O   UNL     1       4.233  12.568  -9.844  1.00  0.00    -0.237 OA
ATOM     72  O   UNL     1       6.232  14.024  -9.825  1.00  0.00    -0.237 OA
ATOM     73  O   UNL     1       6.309  11.831 -10.949  1.00  0.00    -0.744 OA
ENDBRANCH  69  70
ENDBRANCH  48  62
BRANCH  49  74
ATOM     74  C   UNL     1       6.772   5.471   2.267  1.00  0.00     0.058 A 
ATOM     75  C   UNL     1       5.673   4.624   2.530  1.00  0.00     0.135 A 
ATOM     76  C   UNL     1       7.770   4.838   1.551  1.00  0.00     0.135 A 
ATOM     77  F   UNL     1       4.951   4.802   3.642  1.00  0.00    -0.206 F 
ATOM     78  C   UNL     1       5.241   3.669   1.603  1.00  0.00     0.059 A 
ATOM     79  C   UNL     1       7.342   3.903   0.599  1.00  0.00     0.059 A 
ATOM     80  F   UNL     1       8.963   5.439   1.387  1.00  0.00    -0.206 F 
ATOM     81  C   UNL     1       6.026   3.484   0.488  1.00  0.00     0.060 A 
BRANCH  81  82
ATOM     82  S   UNL     1       5.213   2.997  -1.223  1.00  0.00     0.124 S 
ATOM     83  O   UNL     1       3.844   2.779  -0.786  1.00  0.00    -0.237 OA
ATOM     84  O   UNL     1       5.370   4.149  -2.072  1.00  0.00    -0.237 OA
ATOM     85  O   UNL     1       5.878   1.786  -1.691  1.00  0.00    -0.744 OA
ENDBRANCH  81  82
ENDBRANCH  49  74
BRANCH  61  86
ATOM     86  C   UNL     1       9.027  12.252   0.439  1.00  0.00     0.058 A 
ATOM     87  C   UNL     1       9.358  12.740   1.714  1.00  0.00     0.135 A 
ATOM     88  C   UNL     1       9.525  13.009  -0.648  1.00  0.00     0.135 A 
ATOM     89  F   UNL     1       8.814  12.214   2.823  1.00  0.00    -0.206 F 
ATOM     90  C   UNL     1      10.224  13.816   1.897  1.00  0.00     0.059 A 
ATOM     91  C   UNL     1      10.353  14.111  -0.489  1.00  0.00     0.059 A 
ATOM     92  F   UNL     1       9.234  12.719  -1.921  1.00  0.00    -0.206 F 
ATOM     93  C   UNL     1      10.731  14.484   0.787  1.00  0.00     0.060 A 
BRANCH  93  94
ATOM     94  S   UNL     1      11.861  15.861   1.021  1.00  0.00     0.124 S 
ATOM     95  O   UNL     1      11.218  16.612   2.095  1.00  0.00    -0.237 OA
ATOM     96  O   UNL     1      13.091  15.165   1.384  1.00  0.00    -0.237 OA
ATOM     97  O   UNL     1      11.872  16.522  -0.280  1.00  0.00    -0.744 OA
ENDBRANCH  93  94
ENDBRANCH  61  86
ENDBRANCH  35  36
ENDBRANCH  27  30
ENDBRANCH  25  26
ENDBRANCH   1  25
TORSDOF 16
