REMARK SMILES COc1ccc(/C=C(\Sc2nc(C)n[nH]2)C(=O)NCCCNC(=O)c2ccc(-c3c4nc(c(-c5c(F)cc(S(=O)(=O)[O-])cc5F)c5ccc([nH]5)c(-c5c(F)cc(S(=O)(=O)[O-])cc5F)c5nc(c(-c6c(F)cc(S(=O)(=O)[O-])cc6F)c6ccc3[nH]6)C=C5)C=C4)cc2)c(OC)c1
REMARK SMILES IDX 20 1 19 2 18 3 16 4 17 5 8 7 7 8 6 9 3 10 4 11 94 12 5 13
REMARK SMILES IDX 91 14 2 15 1 16 92 17 93 18 9 19 10 20 11 21 15 22 12 23
REMARK SMILES IDX 14 24 13 26 21 27 22 28 23 29 24 31 25 32 26 33 90 34 27 35
REMARK SMILES IDX 89 36 28 37 29 38 30 39 83 40 31 41 88 42 82 43 84 44 32 45
REMARK SMILES IDX 87 46 81 47 80 48 33 50 67 51 46 52 66 53 47 54 50 55 65 56
REMARK SMILES IDX 85 57 48 58 49 59 64 61 86 62 51 63 34 64 35 65 44 66 36 67
REMARK SMILES IDX 37 68 43 69 45 70 38 71 39 72 40 73 41 74 42 75 68 76 69 77
REMARK SMILES IDX 78 78 70 79 71 80 77 81 79 82 72 83 73 84 74 85 75 86 76 87
REMARK SMILES IDX 52 88 53 89 62 90 54 91 55 92 61 93 63 94 56 95 57 96 58 97
REMARK SMILES IDX 59 98 60 99
REMARK H PARENT 18 6 15 25 22 30 84 49 50 60
REMARK Flexibility Score: inf
ROOT
ATOM      1  C   UNL     1      -1.523   8.804   4.774  1.00  0.00     0.042 C 
ENDROOT
BRANCH   1   2
ATOM      2  C   UNL     1      -0.348   9.279   3.903  1.00  0.00     0.118 C 
BRANCH   2   3
ATOM      3  N   UNL     1       0.950   8.737   4.299  1.00  0.00    -0.352 N 
ATOM      4  C   UNL     1       1.661   7.603   4.020  1.00  0.00     0.258 C 
ATOM      5  O   UNL     1       2.832   7.623   4.418  1.00  0.00    -0.269 OA
ATOM      6  H   UNL     1       1.429   9.334   4.918  1.00  0.00     0.163 HD
BRANCH   4   7
ATOM      7  C   UNL     1       1.120   6.364   3.293  1.00  0.00     0.081 C 
ATOM      8  C   UNL     1       1.979   5.311   3.295  1.00  0.00     0.033 C 
BRANCH   8   9
ATOM      9  C   UNL     1       1.813   3.938   2.775  1.00  0.00     0.018 A 
ATOM     10  C   UNL     1       1.158   1.676   1.280  1.00  0.00     0.122 A 
ATOM     11  C   UNL     1       0.308   2.108   2.290  1.00  0.00     0.047 A 
ATOM     12  C   UNL     1       2.421   2.243   1.141  1.00  0.00     0.093 A 
ATOM     13  C   UNL     1       0.650   3.218   3.061  1.00  0.00     0.016 A 
ATOM     14  C   UNL     1       2.775   3.339   1.939  1.00  0.00     0.129 A 
BRANCH  10  15
ATOM     15  O   UNL     1       0.624   0.841   0.340  1.00  0.00    -0.497 OA
ATOM     16  C   UNL     1       1.288  -0.408   0.252  1.00  0.00     0.278 C 
ENDBRANCH  10  15
BRANCH  14  17
ATOM     17  O   UNL     1       4.028   3.897   1.851  1.00  0.00    -0.496 OA
ATOM     18  C   UNL     1       5.069   2.917   1.968  1.00  0.00     0.278 C 
ENDBRANCH  14  17
ENDBRANCH   8   9
BRANCH   7  19
ATOM     19  S   UNL     1      -0.510   6.452   2.738  1.00  0.00    -0.045 SA
BRANCH  19  20
ATOM     20  C   UNL     1      -0.811   5.326   1.501  1.00  0.00     0.188 A 
ATOM     21  N   UNL     1      -1.869   4.551   1.475  1.00  0.00    -0.206 NA
ATOM     22  N   UNL     1      -0.109   5.187   0.347  1.00  0.00    -0.254 N 
ATOM     23  C   UNL     1      -1.735   3.887   0.290  1.00  0.00     0.148 A 
ATOM     24  N   UNL     1      -0.703   4.285  -0.468  1.00  0.00    -0.158 NA
ATOM     25  H   UNL     1       0.719   5.676   0.133  1.00  0.00     0.192 HD
ATOM     26  C   UNL     1      -2.645   2.777  -0.056  1.00  0.00     0.092 C 
ENDBRANCH  19  20
ENDBRANCH   7  19
ENDBRANCH   4   7
ENDBRANCH   2   3
ENDBRANCH   1   2
BRANCH   1  27
ATOM     27  C   UNL     1      -1.878   9.808   5.857  1.00  0.00     0.118 C 
BRANCH  27  28
ATOM     28  N   UNL     1      -2.411  11.060   5.302  1.00  0.00    -0.352 N 
ATOM     29  C   UNL     1      -2.678  12.261   5.941  1.00  0.00     0.251 C 
ATOM     30  H   UNL     1      -2.607  11.043   4.338  1.00  0.00     0.163 HD
ATOM     31  O   UNL     1      -3.398  13.095   5.426  1.00  0.00    -0.269 OA
BRANCH  29  32
ATOM     32  C   UNL     1      -2.071  12.497   7.263  1.00  0.00     0.039 A 
ATOM     33  C   UNL     1      -2.788  13.084   8.309  1.00  0.00     0.014 A 
ATOM     34  C   UNL     1      -0.773  12.043   7.454  1.00  0.00     0.014 A 
ATOM     35  C   UNL     1      -2.211  13.116   9.577  1.00  0.00     0.010 A 
ATOM     36  C   UNL     1      -0.309  11.873   8.726  1.00  0.00     0.010 A 
ATOM     37  C   UNL     1      -0.977  12.481   9.780  1.00  0.00    -0.014 A 
BRANCH  37  38
ATOM     38  C   UNL     1      -0.386  12.361  11.107  1.00  0.00     0.031 A 
ATOM     39  C   UNL     1      -1.259  11.713  12.124  1.00  0.00     0.074 A 
ATOM     40  C   UNL     1       0.931  12.571  11.322  1.00  0.00     0.049 A 
ATOM     41  N   UNL     1      -1.805  12.256  13.161  1.00  0.00    -0.248 NA
ATOM     42  C   UNL     1      -1.708  10.332  11.878  1.00  0.00     0.031 C 
ATOM     43  C   UNL     1       1.987  12.870  10.344  1.00  0.00     0.029 A 
ATOM     44  N   UNL     1       1.638  12.427  12.471  1.00  0.00    -0.354 N 
ATOM     45  C   UNL     1      -2.458  11.226  13.833  1.00  0.00     0.074 A 
ATOM     46  C   UNL     1      -2.550  10.138  12.895  1.00  0.00     0.031 C 
ATOM     47  C   UNL     1       3.196  12.617  10.889  1.00  0.00     0.029 A 
ATOM     48  C   UNL     1       3.013  12.326  12.297  1.00  0.00     0.049 A 
ATOM     49  H   UNL     1       1.210  12.396  13.357  1.00  0.00     0.167 HD
ATOM     50  C   UNL     1      -2.639  11.262  15.185  1.00  0.00     0.037 A 
ATOM     51  C   UNL     1       3.920  11.976  13.244  1.00  0.00     0.037 A 
ATOM     52  C   UNL     1      -2.403  12.590  15.701  1.00  0.00     0.049 A 
ATOM     53  C   UNL     1       3.265  12.211  14.562  1.00  0.00     0.074 A 
ATOM     54  C   UNL     1      -2.927  13.840  15.426  1.00  0.00     0.029 A 
ATOM     55  N   UNL     1      -1.214  12.826  16.353  1.00  0.00    -0.354 N 
ATOM     56  N   UNL     1       2.910  13.394  14.995  1.00  0.00    -0.248 NA
ATOM     57  C   UNL     1       2.554  11.093  15.165  1.00  0.00     0.031 C 
ATOM     58  C   UNL     1      -1.802  14.717  15.441  1.00  0.00     0.029 A 
ATOM     59  C   UNL     1      -0.682  13.971  15.813  1.00  0.00     0.049 A 
ATOM     60  H   UNL     1      -0.820  12.279  17.070  1.00  0.00     0.167 HD
ATOM     61  C   UNL     1       1.670  13.204  15.591  1.00  0.00     0.074 A 
ATOM     62  C   UNL     1       1.536  11.753  15.726  1.00  0.00     0.031 C 
ATOM     63  C   UNL     1       0.739  14.203  15.651  1.00  0.00     0.037 A 
BRANCH  50  64
ATOM     64  C   UNL     1      -2.662  10.047  16.086  1.00  0.00     0.058 A 
ATOM     65  C   UNL     1      -3.000  10.206  17.448  1.00  0.00     0.135 A 
ATOM     66  C   UNL     1      -2.104   8.794  15.746  1.00  0.00     0.135 A 
ATOM     67  F   UNL     1      -3.536  11.355  17.890  1.00  0.00    -0.206 F 
ATOM     68  C   UNL     1      -2.725   9.231  18.407  1.00  0.00     0.059 A 
ATOM     69  C   UNL     1      -1.876   7.787  16.677  1.00  0.00     0.059 A 
ATOM     70  F   UNL     1      -1.659   8.515  14.516  1.00  0.00    -0.206 F 
ATOM     71  C   UNL     1      -2.146   8.030  18.012  1.00  0.00     0.060 A 
BRANCH  71  72
ATOM     72  S   UNL     1      -1.686   6.815  19.258  1.00  0.00     0.124 S 
ATOM     73  O   UNL     1      -0.577   7.488  19.923  1.00  0.00    -0.237 OA
ATOM     74  O   UNL     1      -2.918   6.694  20.031  1.00  0.00    -0.237 OA
ATOM     75  O   UNL     1      -1.332   5.641  18.467  1.00  0.00    -0.744 OA
ENDBRANCH  71  72
ENDBRANCH  50  64
BRANCH  51  76
ATOM     76  C   UNL     1       5.118  11.109  13.061  1.00  0.00     0.058 A 
ATOM     77  C   UNL     1       6.087  10.982  14.071  1.00  0.00     0.135 A 
ATOM     78  C   UNL     1       5.207  10.179  12.002  1.00  0.00     0.135 A 
ATOM     79  F   UNL     1       6.070  11.809  15.127  1.00  0.00    -0.206 F 
ATOM     80  C   UNL     1       7.053   9.967  14.059  1.00  0.00     0.059 A 
ATOM     81  C   UNL     1       6.167   9.168  11.961  1.00  0.00     0.059 A 
ATOM     82  F   UNL     1       4.302  10.165  11.011  1.00  0.00    -0.206 F 
ATOM     83  C   UNL     1       7.072   9.051  13.007  1.00  0.00     0.060 A 
BRANCH  83  84
ATOM     84  S   UNL     1       8.199   7.637  13.071  1.00  0.00     0.124 S 
ATOM     85  O   UNL     1       9.498   8.276  12.887  1.00  0.00    -0.237 OA
ATOM     86  O   UNL     1       7.938   7.093  14.399  1.00  0.00    -0.237 OA
ATOM     87  O   UNL     1       7.756   6.798  11.960  1.00  0.00    -0.744 OA
ENDBRANCH  83  84
ENDBRANCH  51  76
BRANCH  63  88
ATOM     88  C   UNL     1       1.147  15.615  15.303  1.00  0.00     0.058 A 
ATOM     89  C   UNL     1       1.605  16.028  14.038  1.00  0.00     0.135 A 
ATOM     90  C   UNL     1       0.880  16.625  16.240  1.00  0.00     0.135 A 
ATOM     91  F   UNL     1       1.786  15.147  13.047  1.00  0.00    -0.206 F 
ATOM     92  C   UNL     1       1.821  17.376  13.734  1.00  0.00     0.059 A 
ATOM     93  C   UNL     1       1.057  17.975  15.949  1.00  0.00     0.059 A 
ATOM     94  F   UNL     1       0.381  16.307  17.446  1.00  0.00    -0.206 F 
ATOM     95  C   UNL     1       1.539  18.344  14.696  1.00  0.00     0.060 A 
BRANCH  95  96
ATOM     96  S   UNL     1       1.743  20.090  14.279  1.00  0.00     0.124 S 
ATOM     97  O   UNL     1       3.194  20.218  14.195  1.00  0.00    -0.237 OA
ATOM     98  O   UNL     1       1.023  20.200  13.013  1.00  0.00    -0.237 OA
ATOM     99  O   UNL     1       1.119  20.785  15.402  1.00  0.00    -0.744 OA
ENDBRANCH  95  96
ENDBRANCH  63  88
ENDBRANCH  37  38
ENDBRANCH  29  32
ENDBRANCH  27  28
ENDBRANCH   1  27
TORSDOF 18
