REMARK SMILES Cc1nsc(NC(=O)c2ccc(N)cc2)c1C(=O)NCCCNC(=O)c1ccc(-c2c3nc(c(-c4c(F)cc(S(=O)(=O)[O-])cc4F)c4ccc([nH]4)c(-c4c(F)cc(S(=O)(=O)[O-])cc4F)c4nc(c(-c5c(F)cc(S(=O)(=O)[O-])cc5F)c5ccc2[nH]5)C=C4)C=C3)cc1
REMARK SMILES IDX 21 1 20 2 19 3 17 4 18 5 16 7 1 8 2 9 3 10 4 11 5 12 6 13
REMARK SMILES IDX 7 14 8 16 9 17 10 18 15 19 11 20 14 21 12 22 13 23 22 26
REMARK SMILES IDX 23 27 24 28 25 30 26 31 27 32 91 33 28 34 90 35 29 36 30 37
REMARK SMILES IDX 31 38 84 39 32 40 89 41 83 42 85 43 33 44 88 45 82 46 81 47
REMARK SMILES IDX 34 49 68 50 47 51 67 52 48 53 51 54 66 55 86 56 49 57 50 58
REMARK SMILES IDX 65 60 87 61 52 62 35 63 36 64 45 65 37 66 38 67 44 68 46 69
REMARK SMILES IDX 39 70 40 71 41 72 42 73 43 74 69 75 70 76 79 77 71 78 72 79
REMARK SMILES IDX 78 80 80 81 73 82 74 83 75 84 76 85 77 86 53 87 54 88 63 89
REMARK SMILES IDX 55 90 56 91 62 92 64 93 57 94 58 95 59 96 60 97 61 98
REMARK H PARENT 19 6 6 15 13 24 13 25 23 29 85 48 51 59
REMARK Flexibility Score: inf
ROOT
ATOM      1  C   UNL     1       1.024   1.469  -1.521  1.00  0.00     0.042 C 
ENDROOT
BRANCH   1   2
ATOM      2  C   UNL     1       1.923   1.883  -0.356  1.00  0.00     0.118 C 
BRANCH   2   3
ATOM      3  N   UNL     1       1.211   2.608   0.665  1.00  0.00    -0.352 N 
ATOM      4  C   UNL     1       0.530   2.255   1.795  1.00  0.00     0.256 C 
ATOM      5  O   UNL     1       0.261   3.227   2.514  1.00  0.00    -0.269 OA
ATOM      6  H   UNL     1       1.215   3.580   0.513  1.00  0.00     0.163 HD
BRANCH   4   7
ATOM      7  C   UNL     1       0.094   0.904   2.198  1.00  0.00     0.097 A 
ATOM      8  C   UNL     1       0.676  -0.972   0.334  1.00  0.00     0.069 C 
ATOM      9  C   UNL     1       0.100  -0.433   1.591  1.00  0.00     0.066 A 
ATOM     10  N   UNL     1      -0.565  -1.381   2.259  1.00  0.00    -0.195 NA
ATOM     11  S   UNL     1      -1.261  -0.736   3.578  1.00  0.00    -0.017 S 
ATOM     12  C   UNL     1      -0.490   0.768   3.472  1.00  0.00     0.129 A 
BRANCH  12  13
ATOM     13  N   UNL     1      -0.591   1.717   4.483  1.00  0.00    -0.312 N 
ATOM     14  C   UNL     1      -0.926   1.598   5.816  1.00  0.00     0.256 C 
ATOM     15  H   UNL     1      -0.387   2.637   4.197  1.00  0.00     0.171 HD
ATOM     16  O   UNL     1      -1.134   2.594   6.506  1.00  0.00    -0.269 OA
BRANCH  14  17
ATOM     17  C   UNL     1      -0.990   0.283   6.483  1.00  0.00     0.040 A 
ATOM     18  C   UNL     1       0.102  -0.590   6.459  1.00  0.00     0.016 A 
ATOM     19  C   UNL     1      -2.185  -0.098   7.095  1.00  0.00     0.016 A 
ATOM     20  C   UNL     1      -0.051  -1.893   6.937  1.00  0.00     0.026 A 
ATOM     21  C   UNL     1      -2.318  -1.397   7.590  1.00  0.00     0.026 A 
ATOM     22  C   UNL     1      -1.273  -2.319   7.468  1.00  0.00     0.031 A 
BRANCH  22  23
ATOM     23  N   UNL     1      -1.414  -3.608   7.954  1.00  0.00    -0.399 N 
ATOM     24  H   UNL     1      -0.674  -4.252   7.864  1.00  0.00     0.156 HD
ATOM     25  H   UNL     1      -2.254  -3.882   8.388  1.00  0.00     0.156 HD
ENDBRANCH  22  23
ENDBRANCH  14  17
ENDBRANCH  12  13
ENDBRANCH   4   7
ENDBRANCH   2   3
ENDBRANCH   1   2
BRANCH   1  26
ATOM     26  C   UNL     1       1.004   2.487  -2.638  1.00  0.00     0.118 C 
BRANCH  26  27
ATOM     27  N   UNL     1       2.278   2.531  -3.365  1.00  0.00    -0.352 N 
ATOM     28  C   UNL     1       2.643   3.360  -4.416  1.00  0.00     0.251 C 
ATOM     29  H   UNL     1       2.963   1.889  -3.068  1.00  0.00     0.163 HD
ATOM     30  O   UNL     1       3.562   3.060  -5.156  1.00  0.00    -0.269 OA
BRANCH  28  31
ATOM     31  C   UNL     1       1.885   4.610  -4.600  1.00  0.00     0.039 A 
ATOM     32  C   UNL     1       1.553   5.115  -5.859  1.00  0.00     0.014 A 
ATOM     33  C   UNL     1       1.440   5.236  -3.444  1.00  0.00     0.014 A 
ATOM     34  C   UNL     1       0.708   6.222  -5.921  1.00  0.00     0.010 A 
ATOM     35  C   UNL     1       0.397   6.105  -3.518  1.00  0.00     0.010 A 
ATOM     36  C   UNL     1       0.122   6.697  -4.736  1.00  0.00    -0.014 A 
BRANCH  36  37
ATOM     37  C   UNL     1      -0.873   7.758  -4.716  1.00  0.00     0.031 A 
ATOM     38  C   UNL     1      -2.050   7.465  -5.567  1.00  0.00     0.074 A 
ATOM     39  C   UNL     1      -0.837   8.766  -3.814  1.00  0.00     0.049 A 
ATOM     40  N   UNL     1      -2.318   7.964  -6.726  1.00  0.00    -0.248 NA
ATOM     41  C   UNL     1      -2.909   6.324  -5.201  1.00  0.00     0.031 C 
ATOM     42  C   UNL     1       0.098   8.970  -2.696  1.00  0.00     0.029 A 
ATOM     43  N   UNL     1      -1.709   9.794  -3.645  1.00  0.00    -0.354 N 
ATOM     44  C   UNL     1      -3.543   7.415  -7.088  1.00  0.00     0.074 A 
ATOM     45  C   UNL     1      -3.706   6.245  -6.269  1.00  0.00     0.031 C 
ATOM     46  C   UNL     1      -0.394   9.900  -1.846  1.00  0.00     0.029 A 
ATOM     47  C   UNL     1      -1.576  10.489  -2.443  1.00  0.00     0.049 A 
ATOM     48  H   UNL     1      -2.384  10.031  -4.321  1.00  0.00     0.167 HD
ATOM     49  C   UNL     1      -4.446   8.147  -7.800  1.00  0.00     0.037 A 
ATOM     50  C   UNL     1      -2.397  11.469  -1.980  1.00  0.00     0.037 A 
ATOM     51  C   UNL     1      -3.817   9.325  -8.354  1.00  0.00     0.049 A 
ATOM     52  C   UNL     1      -3.136  11.990  -3.162  1.00  0.00     0.074 A 
ATOM     53  C   UNL     1      -2.748   9.550  -9.200  1.00  0.00     0.029 A 
ATOM     54  N   UNL     1      -4.035  10.516  -7.701  1.00  0.00    -0.354 N 
ATOM     55  N   UNL     1      -2.559  12.615  -4.155  1.00  0.00    -0.248 NA
ATOM     56  C   UNL     1      -4.414  11.371  -3.474  1.00  0.00     0.031 C 
ATOM     57  C   UNL     1      -2.085  10.691  -8.661  1.00  0.00     0.029 A 
ATOM     58  C   UNL     1      -2.831  11.161  -7.579  1.00  0.00     0.049 A 
ATOM     59  H   UNL     1      -4.904  10.848  -7.377  1.00  0.00     0.167 HD
ATOM     60  C   UNL     1      -3.166  12.107  -5.296  1.00  0.00     0.074 A 
ATOM     61  C   UNL     1      -4.348  11.396  -4.809  1.00  0.00     0.031 C 
ATOM     62  C   UNL     1      -2.498  12.054  -6.487  1.00  0.00     0.037 A 
BRANCH  49  63
ATOM     63  C   UNL     1      -5.948   8.040  -7.654  1.00  0.00     0.058 A 
ATOM     64  C   UNL     1      -6.768   8.780  -8.533  1.00  0.00     0.135 A 
ATOM     65  C   UNL     1      -6.611   7.479  -6.539  1.00  0.00     0.135 A 
ATOM     66  F   UNL     1      -6.249   9.357  -9.628  1.00  0.00    -0.206 F 
ATOM     67  C   UNL     1      -8.118   9.016  -8.278  1.00  0.00     0.059 A 
ATOM     68  C   UNL     1      -7.968   7.657  -6.295  1.00  0.00     0.059 A 
ATOM     69  F   UNL     1      -5.970   6.810  -5.575  1.00  0.00    -0.206 F 
ATOM     70  C   UNL     1      -8.705   8.461  -7.146  1.00  0.00     0.060 A 
BRANCH  70  71
ATOM     71  S   UNL     1     -10.423   8.834  -6.766  1.00  0.00     0.124 S 
ATOM     72  O   UNL     1     -10.345  10.252  -6.434  1.00  0.00    -0.237 OA
ATOM     73  O   UNL     1     -11.085   8.505  -8.024  1.00  0.00    -0.237 OA
ATOM     74  O   UNL     1     -10.723   7.938  -5.653  1.00  0.00    -0.744 OA
ENDBRANCH  70  71
ENDBRANCH  49  63
BRANCH  50  75
ATOM     75  C   UNL     1      -2.847  11.717  -0.580  1.00  0.00     0.058 A 
ATOM     76  C   UNL     1      -3.521  12.901  -0.225  1.00  0.00     0.135 A 
ATOM     77  C   UNL     1      -2.891  10.675   0.369  1.00  0.00     0.135 A 
ATOM     78  F   UNL     1      -3.550  13.940  -1.074  1.00  0.00    -0.206 F 
ATOM     79  C   UNL     1      -4.238  13.026   0.974  1.00  0.00     0.059 A 
ATOM     80  C   UNL     1      -3.595  10.778   1.571  1.00  0.00     0.059 A 
ATOM     81  F   UNL     1      -2.326   9.486   0.112  1.00  0.00    -0.206 F 
ATOM     82  C   UNL     1      -4.288  11.948   1.857  1.00  0.00     0.060 A 
BRANCH  82  83
ATOM     83  S   UNL     1      -5.355  12.038   3.318  1.00  0.00     0.124 S 
ATOM     84  O   UNL     1      -4.658  13.020   4.141  1.00  0.00    -0.237 OA
ATOM     85  O   UNL     1      -6.626  12.473   2.747  1.00  0.00    -0.237 OA
ATOM     86  O   UNL     1      -5.342  10.671   3.831  1.00  0.00    -0.744 OA
ENDBRANCH  82  83
ENDBRANCH  50  75
BRANCH  62  87
ATOM     87  C   UNL     1      -1.212  12.832  -6.627  1.00  0.00     0.058 A 
ATOM     88  C   UNL     1      -0.024  12.571  -5.918  1.00  0.00     0.135 A 
ATOM     89  C   UNL     1      -1.141  13.783  -7.657  1.00  0.00     0.135 A 
ATOM     90  F   UNL     1       0.025  11.612  -4.984  1.00  0.00    -0.206 F 
ATOM     91  C   UNL     1       1.167  13.248  -6.200  1.00  0.00     0.059 A 
ATOM     92  C   UNL     1       0.039  14.445  -7.976  1.00  0.00     0.059 A 
ATOM     93  F   UNL     1      -2.224  14.036  -8.410  1.00  0.00    -0.206 F 
ATOM     94  C   UNL     1       1.188  14.183  -7.236  1.00  0.00     0.060 A 
BRANCH  94  95
ATOM     95  S   UNL     1       2.739  15.010  -7.653  1.00  0.00     0.124 S 
ATOM     96  O   UNL     1       2.940  15.885  -6.503  1.00  0.00    -0.237 OA
ATOM     97  O   UNL     1       3.673  13.894  -7.771  1.00  0.00    -0.237 OA
ATOM     98  O   UNL     1       2.436  15.691  -8.909  1.00  0.00    -0.744 OA
ENDBRANCH  94  95
ENDBRANCH  62  87
ENDBRANCH  36  37
ENDBRANCH  28  31
ENDBRANCH  26  27
ENDBRANCH   1  26
TORSDOF 16
