REMARK SMILES COc1ccc(C(=O)/C=C/c2c(F)cccc2F)cc1CC(=O)NCCCNC(=O)c1ccc(-c2c3nc(c(-c4c(F)cc(S(=O)(=O)[O-])cc4F)c4ccc([nH]4)c(-c4c(F)cc(S(=O)(=O)[O-])cc4F)c4nc(c(-c5c(F)cc(S(=O)(=O)[O-])cc5F)c5ccc2[nH]5)C=C4)C=C3)cc1
REMARK SMILES IDX 25 1 24 2 22 3 23 4 21 6 20 7 3 8 4 9 5 10 19 11 6 12 2 13
REMARK SMILES IDX 1 14 7 15 8 16 9 17 10 18 11 19 12 20 17 21 13 22 14 23
REMARK SMILES IDX 16 24 18 25 15 26 26 27 27 28 28 29 29 30 30 32 31 33 32 34
REMARK SMILES IDX 96 35 33 36 95 37 34 38 35 39 36 40 89 41 37 42 94 43 88 44
REMARK SMILES IDX 90 45 38 46 93 47 87 48 86 49 39 51 73 52 52 53 72 54 53 55
REMARK SMILES IDX 56 56 71 57 91 58 54 59 55 60 70 62 92 63 57 64 40 65 41 66
REMARK SMILES IDX 50 67 42 68 43 69 49 70 51 71 44 72 45 73 46 74 47 75 48 76
REMARK SMILES IDX 74 77 75 78 84 79 76 80 77 81 83 82 85 83 78 84 79 85 80 86
REMARK SMILES IDX 81 87 82 88 58 89 59 90 68 91 60 92 61 93 67 94 69 95 62 96
REMARK SMILES IDX 63 97 64 98 65 99 66 100
REMARK H PARENT 24 5 28 31 90 50 56 61
REMARK Flexibility Score: inf
ROOT
ATOM      1  C   UNL     1       2.794   2.923   0.795  1.00  0.00     0.117 C 
ENDROOT
BRANCH   1   2
ATOM      2  N   UNL     1       4.039   2.265   1.145  1.00  0.00    -0.356 N 
ATOM      3  C   UNL     1       4.241   0.949   1.439  1.00  0.00     0.224 C 
ATOM      4  O   UNL     1       5.373   0.565   1.734  1.00  0.00    -0.275 OA
ATOM      5  H   UNL     1       4.837   2.840   1.173  1.00  0.00     0.163 HD
BRANCH   3   6
ATOM      6  C   UNL     1       3.079  -0.019   1.345  1.00  0.00     0.139 C 
BRANCH   6   7
ATOM      7  C   UNL     1       2.042   0.123   2.436  1.00  0.00     0.004 A 
ATOM      8  C   UNL     1       0.666   0.303   2.225  1.00  0.00     0.122 A 
ATOM      9  C   UNL     1      -0.194   0.417   3.326  1.00  0.00     0.047 A 
ATOM     10  C   UNL     1       0.287   0.320   4.636  1.00  0.00     0.016 A 
ATOM     11  C   UNL     1       2.512   0.076   3.770  1.00  0.00     0.020 A 
ATOM     12  C   UNL     1       1.651   0.145   4.874  1.00  0.00     0.022 A 
BRANCH   8  13
ATOM     13  O   UNL     1       0.059   0.559   1.027  1.00  0.00    -0.496 OA
ATOM     14  C   UNL     1       0.281  -0.363  -0.030  1.00  0.00     0.278 C 
ENDBRANCH   8  13
BRANCH  12  15
ATOM     15  C   UNL     1       2.126   0.111   6.293  1.00  0.00     0.185 C 
ATOM     16  O   UNL     1       1.358   0.407   7.205  1.00  0.00    -0.289 OA
BRANCH  15  17
ATOM     17  C   UNL     1       3.536  -0.219   6.636  1.00  0.00     0.053 C 
ATOM     18  C   UNL     1       4.242  -1.195   6.049  1.00  0.00     0.018 C 
BRANCH  18  19
ATOM     19  C   UNL     1       5.651  -1.444   6.356  1.00  0.00     0.046 A 
ATOM     20  C   UNL     1       6.662  -0.735   5.698  1.00  0.00     0.133 A 
ATOM     21  C   UNL     1       6.028  -2.430   7.267  1.00  0.00     0.133 A 
ATOM     22  F   UNL     1       6.347   0.224   4.814  1.00  0.00    -0.206 F 
ATOM     23  C   UNL     1       8.009  -1.016   5.923  1.00  0.00     0.040 A 
ATOM     24  C   UNL     1       7.371  -2.717   7.508  1.00  0.00     0.040 A 
ATOM     25  F   UNL     1       5.094  -3.140   7.918  1.00  0.00    -0.206 F 
ATOM     26  C   UNL     1       8.367  -2.014   6.828  1.00  0.00     0.006 A 
ENDBRANCH  18  19
ENDBRANCH  15  17
ENDBRANCH  12  15
ENDBRANCH   6   7
ENDBRANCH   3   6
ENDBRANCH   1   2
BRANCH   1  27
ATOM     27  C   UNL     1       2.204   3.706   1.964  1.00  0.00     0.042 C 
BRANCH  27  28
ATOM     28  C   UNL     1       3.036   4.915   2.377  1.00  0.00     0.118 C 
BRANCH  28  29
ATOM     29  N   UNL     1       3.184   5.878   1.296  1.00  0.00    -0.352 N 
ATOM     30  C   UNL     1       2.928   7.222   1.258  1.00  0.00     0.251 C 
ATOM     31  H   UNL     1       3.526   5.500   0.454  1.00  0.00     0.163 HD
ATOM     32  O   UNL     1       2.931   7.793   0.169  1.00  0.00    -0.269 OA
BRANCH  30  33
ATOM     33  C   UNL     1       2.647   7.987   2.493  1.00  0.00     0.039 A 
ATOM     34  C   UNL     1       1.720   9.032   2.429  1.00  0.00     0.014 A 
ATOM     35  C   UNL     1       3.333   7.739   3.686  1.00  0.00     0.014 A 
ATOM     36  C   UNL     1       1.460   9.803   3.562  1.00  0.00     0.010 A 
ATOM     37  C   UNL     1       3.021   8.464   4.836  1.00  0.00     0.010 A 
ATOM     38  C   UNL     1       2.095   9.515   4.781  1.00  0.00    -0.014 A 
BRANCH  38  39
ATOM     39  C   UNL     1       1.805  10.321   5.993  1.00  0.00     0.031 A 
ATOM     40  C   UNL     1       2.875  11.181   6.612  1.00  0.00     0.074 A 
ATOM     41  C   UNL     1       0.581  10.256   6.552  1.00  0.00     0.049 A 
ATOM     42  N   UNL     1       2.805  11.955   7.665  1.00  0.00    -0.248 NA
ATOM     43  C   UNL     1       4.203  11.150   5.979  1.00  0.00     0.031 C 
ATOM     44  C   UNL     1      -0.520   9.414   6.078  1.00  0.00     0.029 A 
ATOM     45  N   UNL     1       0.057  10.907   7.639  1.00  0.00    -0.354 N 
ATOM     46  C   UNL     1       4.077  12.492   7.828  1.00  0.00     0.074 A 
ATOM     47  C   UNL     1       4.912  11.916   6.796  1.00  0.00     0.031 C 
ATOM     48  C   UNL     1      -1.598   9.623   6.851  1.00  0.00     0.029 A 
ATOM     49  C   UNL     1      -1.258  10.593   7.888  1.00  0.00     0.049 A 
ATOM     50  H   UNL     1       0.573  11.541   8.188  1.00  0.00     0.167 HD
ATOM     51  C   UNL     1       4.505  13.399   8.739  1.00  0.00     0.037 A 
ATOM     52  C   UNL     1      -2.098  11.042   8.840  1.00  0.00     0.037 A 
ATOM     53  C   UNL     1       3.662  13.988   9.748  1.00  0.00     0.049 A 
ATOM     54  C   UNL     1      -1.611  12.079   9.815  1.00  0.00     0.074 A 
ATOM     55  C   UNL     1       3.986  14.951  10.688  1.00  0.00     0.029 A 
ATOM     56  N   UNL     1       2.326  13.671   9.945  1.00  0.00    -0.354 N 
ATOM     57  N   UNL     1      -0.420  12.620   9.917  1.00  0.00    -0.248 NA
ATOM     58  C   UNL     1      -2.588  12.580  10.791  1.00  0.00     0.031 C 
ATOM     59  C   UNL     1       2.852  15.196  11.472  1.00  0.00     0.029 A 
ATOM     60  C   UNL     1       1.812  14.416  10.994  1.00  0.00     0.049 A 
ATOM     61  H   UNL     1       1.817  13.014   9.417  1.00  0.00     0.167 HD
ATOM     62  C   UNL     1      -0.512  13.545  10.951  1.00  0.00     0.074 A 
ATOM     63  C   UNL     1      -1.878  13.498  11.431  1.00  0.00     0.031 C 
ATOM     64  C   UNL     1       0.447  14.360  11.456  1.00  0.00     0.037 A 
BRANCH  51  65
ATOM     65  C   UNL     1       5.950  13.816   8.678  1.00  0.00     0.058 A 
ATOM     66  C   UNL     1       6.441  14.618   7.635  1.00  0.00     0.135 A 
ATOM     67  C   UNL     1       6.849  13.433   9.686  1.00  0.00     0.135 A 
ATOM     68  F   UNL     1       5.628  15.001   6.637  1.00  0.00    -0.206 F 
ATOM     69  C   UNL     1       7.777  14.998   7.576  1.00  0.00     0.059 A 
ATOM     70  C   UNL     1       8.186  13.824   9.661  1.00  0.00     0.059 A 
ATOM     71  F   UNL     1       6.435  12.667  10.707  1.00  0.00    -0.206 F 
ATOM     72  C   UNL     1       8.644  14.594   8.592  1.00  0.00     0.060 A 
BRANCH  72  73
ATOM     73  S   UNL     1      10.376  15.094   8.502  1.00  0.00     0.124 S 
ATOM     74  O   UNL     1      10.882  14.203   7.462  1.00  0.00    -0.237 OA
ATOM     75  O   UNL     1      10.278  16.503   8.135  1.00  0.00    -0.237 OA
ATOM     76  O   UNL     1      10.876  14.834   9.849  1.00  0.00    -0.744 OA
ENDBRANCH  72  73
ENDBRANCH  51  65
BRANCH  52  77
ATOM     77  C   UNL     1      -3.498  10.547   8.885  1.00  0.00     0.058 A 
ATOM     78  C   UNL     1      -4.566  11.373   8.501  1.00  0.00     0.135 A 
ATOM     79  C   UNL     1      -3.797   9.238   9.291  1.00  0.00     0.135 A 
ATOM     80  F   UNL     1      -4.330  12.633   8.107  1.00  0.00    -0.206 F 
ATOM     81  C   UNL     1      -5.882  10.925   8.534  1.00  0.00     0.059 A 
ATOM     82  C   UNL     1      -5.103   8.759   9.311  1.00  0.00     0.059 A 
ATOM     83  F   UNL     1      -2.808   8.404   9.650  1.00  0.00    -0.206 F 
ATOM     84  C   UNL     1      -6.140   9.615   8.941  1.00  0.00     0.060 A 
BRANCH  84  85
ATOM     85  S   UNL     1      -7.848   9.026   8.934  1.00  0.00     0.124 S 
ATOM     86  O   UNL     1      -8.387   9.675  10.123  1.00  0.00    -0.237 OA
ATOM     87  O   UNL     1      -8.341   9.526   7.654  1.00  0.00    -0.237 OA
ATOM     88  O   UNL     1      -7.702   7.576   9.015  1.00  0.00    -0.744 OA
ENDBRANCH  84  85
ENDBRANCH  52  77
BRANCH  64  89
ATOM     89  C   UNL     1       0.037  15.295  12.559  1.00  0.00     0.058 A 
ATOM     90  C   UNL     1      -0.226  14.834  13.859  1.00  0.00     0.135 A 
ATOM     91  C   UNL     1      -0.084  16.672  12.314  1.00  0.00     0.135 A 
ATOM     92  F   UNL     1      -0.128  13.526  14.145  1.00  0.00    -0.206 F 
ATOM     93  C   UNL     1      -0.635  15.701  14.867  1.00  0.00     0.059 A 
ATOM     94  C   UNL     1      -0.466  17.560  13.314  1.00  0.00     0.059 A 
ATOM     95  F   UNL     1       0.169  17.166  11.091  1.00  0.00    -0.206 F 
ATOM     96  C   UNL     1      -0.758  17.062  14.583  1.00  0.00     0.060 A 
BRANCH  96  97
ATOM     97  S   UNL     1      -1.292  18.180  15.895  1.00  0.00     0.124 S 
ATOM     98  O   UNL     1      -2.729  17.927  15.929  1.00  0.00    -0.237 OA
ATOM     99  O   UNL     1      -0.537  17.698  17.048  1.00  0.00    -0.237 OA
ATOM    100  O   UNL     1      -0.896  19.495  15.401  1.00  0.00    -0.744 OA
ENDBRANCH  96  97
ENDBRANCH  64  89
ENDBRANCH  38  39
ENDBRANCH  30  33
ENDBRANCH  28  29
ENDBRANCH  27  28
ENDBRANCH   1  27
TORSDOF 18
