REMARK SMILES O=C(NCCCNC(=O)[C@H](Cc1ccccn1)[C@H]1CCS(=O)(=O)C1)c1ccc(-c2c3nc(c(-c4c(F)cc(S(=O)(=O)[O-])cc4F)c4ccc([nH]4)c(-c4c(F)cc(S(=O)(=O)[O-])cc4F)c4nc(c(-c5c(F)cc(S(=O)(=O)[O-])cc5F)c5ccc2[nH]5)C=C4)C=C3)cc1
REMARK SMILES IDX 4 1 3 2 1 3 2 4 25 6 26 7 90 8 27 9 89 10 28 11 29 12 30 13
REMARK SMILES IDX 83 14 31 15 88 16 82 17 84 18 32 19 87 20 81 21 80 22 33 24
REMARK SMILES IDX 67 25 46 26 66 27 47 28 50 29 65 30 85 31 48 32 49 33 64 35
REMARK SMILES IDX 86 36 51 37 34 38 35 39 44 40 36 41 37 42 43 43 45 44 38 45
REMARK SMILES IDX 39 46 40 47 41 48 42 49 68 50 69 51 78 52 70 53 71 54 77 55
REMARK SMILES IDX 79 56 72 57 73 58 74 59 75 60 76 61 52 62 53 63 62 64 54 65
REMARK SMILES IDX 55 66 61 67 63 68 56 69 57 70 58 71 59 72 60 73 5 74 6 75
REMARK SMILES IDX 7 76 8 77 9 79 10 80 11 81 12 82 13 83 17 84 14 85 16 86
REMARK SMILES IDX 15 87 18 88 19 89 24 90 20 91 21 92 22 93 23 94
REMARK H PARENT 3 5 84 23 50 34 7 78
REMARK Flexibility Score: inf
ROOT
ATOM      1  C   UNL     1       4.531 -12.054  -1.215  1.00  0.00     0.118 C 
ENDROOT
BRANCH   1   2
ATOM      2  N   UNL     1       5.086 -13.065  -2.107  1.00  0.00    -0.352 N 
ATOM      3  O   UNL     1       5.874 -15.071  -2.758  1.00  0.00    -0.269 OA
ATOM      4  C   UNL     1       5.292 -14.412  -1.901  1.00  0.00     0.251 C 
ATOM      5  H   UNL     1       5.356 -12.734  -2.994  1.00  0.00     0.163 HD
BRANCH   4   6
ATOM      6  C   UNL     1       4.856 -15.053  -0.638  1.00  0.00     0.039 A 
ATOM      7  C   UNL     1       3.618 -14.755  -0.071  1.00  0.00     0.014 A 
ATOM      8  C   UNL     1       5.711 -15.958  -0.001  1.00  0.00     0.014 A 
ATOM      9  C   UNL     1       3.326 -15.191   1.218  1.00  0.00     0.010 A 
ATOM     10  C   UNL     1       5.365 -16.483   1.250  1.00  0.00     0.010 A 
ATOM     11  C   UNL     1       4.194 -16.060   1.898  1.00  0.00    -0.014 A 
BRANCH  11  12
ATOM     12  C   UNL     1       3.841 -16.515   3.272  1.00  0.00     0.031 A 
ATOM     13  C   UNL     1       4.716 -16.184   4.455  1.00  0.00     0.074 A 
ATOM     14  C   UNL     1       2.689 -17.192   3.459  1.00  0.00     0.049 A 
ATOM     15  N   UNL     1       4.521 -16.449   5.723  1.00  0.00    -0.248 NA
ATOM     16  C   UNL     1       5.974 -15.472   4.184  1.00  0.00     0.031 C 
ATOM     17  C   UNL     1       1.762 -17.585   2.394  1.00  0.00     0.029 A 
ATOM     18  N   UNL     1       2.087 -17.647   4.604  1.00  0.00    -0.354 N 
ATOM     19  C   UNL     1       5.636 -15.959   6.396  1.00  0.00     0.074 A 
ATOM     20  C   UNL     1       6.519 -15.407   5.391  1.00  0.00     0.031 C 
ATOM     21  C   UNL     1       0.685 -18.168   2.939  1.00  0.00     0.029 A 
ATOM     22  C   UNL     1       0.872 -18.253   4.383  1.00  0.00     0.049 A 
ATOM     23  H   UNL     1       2.486 -17.550   5.499  1.00  0.00     0.167 HD
ATOM     24  C   UNL     1       5.894 -15.960   7.728  1.00  0.00     0.037 A 
ATOM     25  C   UNL     1       0.006 -18.826   5.241  1.00  0.00     0.037 A 
ATOM     26  C   UNL     1       5.002 -16.498   8.725  1.00  0.00     0.049 A 
ATOM     27  C   UNL     1       0.328 -18.832   6.709  1.00  0.00     0.074 A 
ATOM     28  C   UNL     1       5.155 -16.506  10.101  1.00  0.00     0.029 A 
ATOM     29  N   UNL     1       3.797 -17.133   8.456  1.00  0.00    -0.354 N 
ATOM     30  N   UNL     1       1.366 -18.322   7.328  1.00  0.00    -0.248 NA
ATOM     31  C   UNL     1      -0.641 -19.488   7.595  1.00  0.00     0.031 C 
ATOM     32  C   UNL     1       4.075 -17.199  10.659  1.00  0.00     0.029 A 
ATOM     33  C   UNL     1       3.212 -17.561   9.638  1.00  0.00     0.049 A 
ATOM     34  H   UNL     1       3.414 -17.261   7.558  1.00  0.00     0.167 HD
ATOM     35  C   UNL     1       1.158 -18.567   8.681  1.00  0.00     0.074 A 
ATOM     36  C   UNL     1      -0.111 -19.258   8.788  1.00  0.00     0.031 C 
ATOM     37  C   UNL     1       1.944 -18.243   9.737  1.00  0.00     0.037 A 
BRANCH  24  38
ATOM     38  C   UNL     1       7.208 -15.383   8.192  1.00  0.00     0.058 A 
ATOM     39  C   UNL     1       7.486 -14.008   8.127  1.00  0.00     0.135 A 
ATOM     40  C   UNL     1       8.188 -16.218   8.757  1.00  0.00     0.135 A 
ATOM     41  F   UNL     1       6.594 -13.163   7.587  1.00  0.00    -0.206 F 
ATOM     42  C   UNL     1       8.697 -13.487   8.574  1.00  0.00     0.059 A 
ATOM     43  C   UNL     1       9.394 -15.714   9.239  1.00  0.00     0.059 A 
ATOM     44  F   UNL     1       7.978 -17.541   8.850  1.00  0.00    -0.206 F 
ATOM     45  C   UNL     1       9.645 -14.348   9.129  1.00  0.00     0.060 A 
BRANCH  45  46
ATOM     46  S   UNL     1      11.211 -13.655   9.701  1.00  0.00     0.124 S 
ATOM     47  O   UNL     1      11.858 -13.316   8.437  1.00  0.00    -0.237 OA
ATOM     48  O   UNL     1      10.773 -12.523  10.511  1.00  0.00    -0.237 OA
ATOM     49  O   UNL     1      11.822 -14.755  10.441  1.00  0.00    -0.744 OA
ENDBRANCH  45  46
ENDBRANCH  24  38
BRANCH  25  50
ATOM     50  C   UNL     1      -1.252 -19.433   4.729  1.00  0.00     0.058 A 
ATOM     51  C   UNL     1      -2.502 -18.871   5.030  1.00  0.00     0.135 A 
ATOM     52  C   UNL     1      -1.229 -20.579   3.919  1.00  0.00     0.135 A 
ATOM     53  F   UNL     1      -2.578 -17.778   5.804  1.00  0.00    -0.206 F 
ATOM     54  C   UNL     1      -3.685 -19.435   4.563  1.00  0.00     0.059 A 
ATOM     55  C   UNL     1      -2.395 -21.142   3.413  1.00  0.00     0.059 A 
ATOM     56  F   UNL     1      -0.058 -21.145   3.587  1.00  0.00    -0.206 F 
ATOM     57  C   UNL     1      -3.620 -20.569   3.752  1.00  0.00     0.060 A 
BRANCH  57  58
ATOM     58  S   UNL     1      -5.159 -21.267   3.116  1.00  0.00     0.124 S 
ATOM     59  O   UNL     1      -5.735 -21.852   4.321  1.00  0.00    -0.237 OA
ATOM     60  O   UNL     1      -5.836 -20.085   2.592  1.00  0.00    -0.237 OA
ATOM     61  O   UNL     1      -4.704 -22.218   2.107  1.00  0.00    -0.744 OA
ENDBRANCH  57  58
ENDBRANCH  25  50
BRANCH  37  62
ATOM     62  C   UNL     1       1.430 -18.584  11.111  1.00  0.00     0.058 A 
ATOM     63  C   UNL     1       1.334 -19.909  11.565  1.00  0.00     0.135 A 
ATOM     64  C   UNL     1       1.049 -17.562  11.995  1.00  0.00     0.135 A 
ATOM     65  F   UNL     1       1.679 -20.927  10.760  1.00  0.00    -0.206 F 
ATOM     66  C   UNL     1       0.842 -20.210  12.832  1.00  0.00     0.059 A 
ATOM     67  C   UNL     1       0.587 -17.837  13.278  1.00  0.00     0.059 A 
ATOM     68  F   UNL     1       1.130 -16.276  11.619  1.00  0.00    -0.206 F 
ATOM     69  C   UNL     1       0.469 -19.166  13.681  1.00  0.00     0.060 A 
BRANCH  69  70
ATOM     70  S   UNL     1      -0.158 -19.568  15.325  1.00  0.00     0.124 S 
ATOM     71  O   UNL     1      -1.483 -20.093  15.014  1.00  0.00    -0.237 OA
ATOM     72  O   UNL     1       0.816 -20.546  15.800  1.00  0.00    -0.237 OA
ATOM     73  O   UNL     1      -0.138 -18.285  16.020  1.00  0.00    -0.744 OA
ENDBRANCH  69  70
ENDBRANCH  37  62
ENDBRANCH  11  12
ENDBRANCH   4   6
ENDBRANCH   1   2
BRANCH   1  74
ATOM     74  C   UNL     1       5.457 -10.864  -0.981  1.00  0.00     0.042 C 
BRANCH  74  75
ATOM     75  C   UNL     1       5.698  -9.997  -2.212  1.00  0.00     0.117 C 
BRANCH  75  76
ATOM     76  N   UNL     1       4.452  -9.454  -2.737  1.00  0.00    -0.356 N 
ATOM     77  C   UNL     1       3.901  -8.215  -2.642  1.00  0.00     0.223 C 
ATOM     78  H   UNL     1       3.915 -10.098  -3.253  1.00  0.00     0.163 HD
ATOM     79  O   UNL     1       2.713  -8.083  -2.944  1.00  0.00    -0.275 OA
BRANCH  77  80
ATOM     80  C   UNL     1       4.726  -7.021  -2.177  1.00  0.00     0.088 C 
BRANCH  80  81
ATOM     81  C   UNL     1       4.289  -6.771  -0.703  1.00  0.00     0.070 C 
BRANCH  81  82
ATOM     82  C   UNL     1       4.018  -5.368  -0.250  1.00  0.00     0.041 A 
ATOM     83  C   UNL     1       2.715  -4.868  -0.243  1.00  0.00     0.024 A 
ATOM     84  N   UNL     1       5.095  -4.605   0.052  1.00  0.00    -0.261 NA
ATOM     85  C   UNL     1       2.519  -3.513   0.011  1.00  0.00     0.003 A 
ATOM     86  C   UNL     1       4.867  -3.303   0.344  1.00  0.00     0.111 A 
ATOM     87  C   UNL     1       3.615  -2.712   0.307  1.00  0.00     0.020 A 
ENDBRANCH  81  82
ENDBRANCH  80  81
BRANCH  80  88
ATOM     88  C   UNL     1       4.788  -5.894  -3.277  1.00  0.00     0.018 C 
ATOM     89  C   UNL     1       4.454  -6.365  -4.719  1.00  0.00     0.021 C 
ATOM     90  C   UNL     1       3.940  -4.636  -3.109  1.00  0.00     0.141 C 
ATOM     91  C   UNL     1       4.475  -5.156  -5.650  1.00  0.00     0.137 C 
ATOM     92  S   UNL     1       4.013  -3.759  -4.655  1.00  0.00     0.150 S 
ATOM     93  O   UNL     1       5.128  -2.837  -4.623  1.00  0.00    -0.229 OA
ATOM     94  O   UNL     1       2.674  -3.329  -5.014  1.00  0.00    -0.229 OA
ENDBRANCH  80  88
ENDBRANCH  77  80
ENDBRANCH  75  76
ENDBRANCH  74  75
ENDBRANCH   1  74
TORSDOF 16
