REMARK SMILES O=C(NCCCNC(=O)c1ccc(C2SCCCS2)cc1)c1ccc(-c2c3nc(c(-c4c(F)cc(S(=O)(=O)[O-])cc4F)c4ccc([nH]4)c(-c4c(F)cc(S(=O)(=O)[O-])cc4F)c4nc(c(-c5c(F)cc(S(=O)(=O)[O-])cc5F)c5ccc2[nH]5)C=C4)C=C3)cc1
REMARK SMILES IDX 4 1 3 2 1 3 2 4 22 6 23 7 87 8 24 9 86 10 25 11 26 12 27 13
REMARK SMILES IDX 80 14 28 15 85 16 79 17 81 18 29 19 84 20 78 21 77 22 30 24
REMARK SMILES IDX 64 25 43 26 63 27 44 28 47 29 62 30 82 31 45 32 46 33 61 35
REMARK SMILES IDX 83 36 48 37 31 38 32 39 41 40 33 41 34 42 40 43 42 44 35 45
REMARK SMILES IDX 36 46 37 47 38 48 39 49 65 50 66 51 75 52 67 53 68 54 74 55
REMARK SMILES IDX 76 56 69 57 70 58 71 59 72 60 73 61 49 62 50 63 59 64 51 65
REMARK SMILES IDX 52 66 58 67 60 68 53 69 54 70 55 71 56 72 57 73 5 74 6 75
REMARK SMILES IDX 7 76 8 77 9 79 10 80 11 81 21 82 12 83 20 84 13 85 14 86
REMARK SMILES IDX 15 87 19 88 16 89 18 90 17 91
REMARK H PARENT 3 5 81 23 47 34 7 78
REMARK Flexibility Score: inf
ROOT
ATOM      1  C   UNL     1       4.577   0.422  -1.310  1.00  0.00     0.118 C 
ENDROOT
BRANCH   1   2
ATOM      2  N   UNL     1       3.139   0.447  -1.062  1.00  0.00    -0.352 N 
ATOM      3  O   UNL     1       1.193  -0.057  -0.046  1.00  0.00    -0.269 OA
ATOM      4  C   UNL     1       2.418  -0.012   0.017  1.00  0.00     0.251 C 
ATOM      5  H   UNL     1       2.600   0.855  -1.777  1.00  0.00     0.163 HD
BRANCH   4   6
ATOM      6  C   UNL     1       3.123  -0.473   1.233  1.00  0.00     0.039 A 
ATOM      7  C   UNL     1       4.240   0.216   1.702  1.00  0.00     0.014 A 
ATOM      8  C   UNL     1       2.669  -1.609   1.911  1.00  0.00     0.014 A 
ATOM      9  C   UNL     1       5.019  -0.338   2.706  1.00  0.00     0.010 A 
ATOM     10  C   UNL     1       3.383  -2.091   3.014  1.00  0.00     0.010 A 
ATOM     11  C   UNL     1       4.587  -1.481   3.397  1.00  0.00    -0.014 A 
BRANCH  11  12
ATOM     12  C   UNL     1       5.389  -1.951   4.556  1.00  0.00     0.031 A 
ATOM     13  C   UNL     1       6.029  -3.312   4.572  1.00  0.00     0.074 A 
ATOM     14  C   UNL     1       5.589  -1.093   5.577  1.00  0.00     0.049 A 
ATOM     15  N   UNL     1       6.798  -3.845   5.488  1.00  0.00    -0.248 NA
ATOM     16  C   UNL     1       5.773  -4.193   3.422  1.00  0.00     0.031 C 
ATOM     17  C   UNL     1       4.999   0.247   5.677  1.00  0.00     0.029 A 
ATOM     18  N   UNL     1       6.360  -1.195   6.705  1.00  0.00    -0.354 N 
ATOM     19  C   UNL     1       7.111  -5.121   5.034  1.00  0.00     0.074 A 
ATOM     20  C   UNL     1       6.419  -5.298   3.775  1.00  0.00     0.031 C 
ATOM     21  C   UNL     1       5.478   0.862   6.766  1.00  0.00     0.029 A 
ATOM     22  C   UNL     1       6.344  -0.063   7.485  1.00  0.00     0.049 A 
ATOM     23  H   UNL     1       6.875  -2.002   6.935  1.00  0.00     0.167 HD
ATOM     24  C   UNL     1       7.912  -6.050   5.609  1.00  0.00     0.037 A 
ATOM     25  C   UNL     1       6.940   0.201   8.661  1.00  0.00     0.037 A 
ATOM     26  C   UNL     1       8.601  -5.859   6.862  1.00  0.00     0.049 A 
ATOM     27  C   UNL     1       7.807  -0.855   9.283  1.00  0.00     0.074 A 
ATOM     28  C   UNL     1       9.434  -6.740   7.531  1.00  0.00     0.029 A 
ATOM     29  N   UNL     1       8.540  -4.708   7.635  1.00  0.00    -0.354 N 
ATOM     30  N   UNL     1       8.096  -2.052   8.831  1.00  0.00    -0.248 NA
ATOM     31  C   UNL     1       8.427  -0.528  10.572  1.00  0.00     0.031 C 
ATOM     32  C   UNL     1       9.847  -6.136   8.723  1.00  0.00     0.029 A 
ATOM     33  C   UNL     1       9.312  -4.860   8.776  1.00  0.00     0.049 A 
ATOM     34  H   UNL     1       8.025  -3.901   7.405  1.00  0.00     0.167 HD
ATOM     35  C   UNL     1       8.941  -2.618   9.776  1.00  0.00     0.074 A 
ATOM     36  C   UNL     1       9.139  -1.620  10.809  1.00  0.00     0.031 C 
ATOM     37  C   UNL     1       9.496  -3.855   9.794  1.00  0.00     0.037 A 
BRANCH  24  38
ATOM     38  C   UNL     1       8.091  -7.364   4.894  1.00  0.00     0.058 A 
ATOM     39  C   UNL     1       8.850  -7.463   3.717  1.00  0.00     0.135 A 
ATOM     40  C   UNL     1       7.549  -8.547   5.422  1.00  0.00     0.135 A 
ATOM     41  F   UNL     1       9.379  -6.363   3.159  1.00  0.00    -0.206 F 
ATOM     42  C   UNL     1       9.048  -8.684   3.079  1.00  0.00     0.059 A 
ATOM     43  C   UNL     1       7.755  -9.783   4.814  1.00  0.00     0.059 A 
ATOM     44  F   UNL     1       6.815  -8.512   6.546  1.00  0.00    -0.206 F 
ATOM     45  C   UNL     1       8.498  -9.839   3.636  1.00  0.00     0.060 A 
BRANCH  45  46
ATOM     46  S   UNL     1       8.778 -11.416   2.801  1.00  0.00     0.124 S 
ATOM     47  O   UNL     1       7.926 -11.277   1.623  1.00  0.00    -0.237 OA
ATOM     48  O   UNL     1      10.215 -11.386   2.550  1.00  0.00    -0.237 OA
ATOM     49  O   UNL     1       8.335 -12.404   3.780  1.00  0.00    -0.744 OA
ENDBRANCH  45  46
ENDBRANCH  24  38
BRANCH  25  50
ATOM     50  C   UNL     1       6.709   1.506   9.333  1.00  0.00     0.058 A 
ATOM     51  C   UNL     1       7.738   2.447   9.478  1.00  0.00     0.135 A 
ATOM     52  C   UNL     1       5.440   1.842   9.833  1.00  0.00     0.135 A 
ATOM     53  F   UNL     1       8.967   2.173   9.015  1.00  0.00    -0.206 F 
ATOM     54  C   UNL     1       7.526   3.663  10.118  1.00  0.00     0.059 A 
ATOM     55  C   UNL     1       5.196   3.064  10.447  1.00  0.00     0.059 A 
ATOM     56  F   UNL     1       4.415   0.986   9.698  1.00  0.00    -0.206 F 
ATOM     57  C   UNL     1       6.250   3.962  10.601  1.00  0.00     0.060 A 
BRANCH  57  58
ATOM     58  S   UNL     1       5.975   5.552  11.410  1.00  0.00     0.124 S 
ATOM     59  O   UNL     1       6.600   5.330  12.708  1.00  0.00    -0.237 OA
ATOM     60  O   UNL     1       6.666   6.476  10.517  1.00  0.00    -0.237 OA
ATOM     61  O   UNL     1       4.520   5.673  11.420  1.00  0.00    -0.744 OA
ENDBRANCH  57  58
ENDBRANCH  25  50
BRANCH  37  62
ATOM     62  C   UNL     1      10.390  -4.181  10.957  1.00  0.00     0.058 A 
ATOM     63  C   UNL     1       9.874  -4.397  12.245  1.00  0.00     0.135 A 
ATOM     64  C   UNL     1      11.778  -4.290  10.779  1.00  0.00     0.135 A 
ATOM     65  F   UNL     1       8.554  -4.296  12.469  1.00  0.00    -0.206 F 
ATOM     66  C   UNL     1      10.707  -4.676  13.323  1.00  0.00     0.059 A 
ATOM     67  C   UNL     1      12.627  -4.595  11.837  1.00  0.00     0.059 A 
ATOM     68  F   UNL     1      12.321  -4.101   9.566  1.00  0.00    -0.206 F 
ATOM     69  C   UNL     1      12.083  -4.769  13.109  1.00  0.00     0.060 A 
BRANCH  69  70
ATOM     70  S   UNL     1      13.153  -5.141  14.514  1.00  0.00     0.124 S 
ATOM     71  O   UNL     1      13.162  -3.865  15.221  1.00  0.00    -0.237 OA
ATOM     72  O   UNL     1      12.437  -6.227  15.175  1.00  0.00    -0.237 OA
ATOM     73  O   UNL     1      14.416  -5.521  13.887  1.00  0.00    -0.744 OA
ENDBRANCH  69  70
ENDBRANCH  37  62
ENDBRANCH  11  12
ENDBRANCH   4   6
ENDBRANCH   1   2
BRANCH   1  74
ATOM     74  C   UNL     1       4.957  -0.459  -2.485  1.00  0.00     0.042 C 
BRANCH  74  75
ATOM     75  C   UNL     1       4.430   0.053  -3.813  1.00  0.00     0.118 C 
BRANCH  75  76
ATOM     76  N   UNL     1       5.001   1.347  -4.176  1.00  0.00    -0.352 N 
ATOM     77  C   UNL     1       5.933   1.653  -5.138  1.00  0.00     0.251 C 
ATOM     78  H   UNL     1       4.670   2.113  -3.654  1.00  0.00     0.163 HD
ATOM     79  O   UNL     1       6.454   2.764  -5.173  1.00  0.00    -0.269 OA
BRANCH  77  80
ATOM     80  C   UNL     1       6.300   0.635  -6.139  1.00  0.00     0.039 A 
ATOM     81  C   UNL     1       7.639   0.370  -6.417  1.00  0.00     0.014 A 
ATOM     82  C   UNL     1       5.299  -0.074  -6.794  1.00  0.00     0.014 A 
ATOM     83  C   UNL     1       7.968  -0.679  -7.284  1.00  0.00     0.006 A 
ATOM     84  C   UNL     1       5.633  -1.144  -7.615  1.00  0.00     0.006 A 
ATOM     85  C   UNL     1       6.968  -1.476  -7.882  1.00  0.00    -0.025 A 
BRANCH  85  86
ATOM     86  C   UNL     1       7.368  -2.666  -8.741  1.00  0.00     0.133 C 
ATOM     87  S   UNL     1       7.319  -4.258  -7.880  1.00  0.00    -0.143 SA
ATOM     88  S   UNL     1       6.642  -2.734 -10.404  1.00  0.00    -0.143 SA
ATOM     89  C   UNL     1       5.540  -4.577  -7.846  1.00  0.00     0.072 C 
ATOM     90  C   UNL     1       4.983  -3.394 -10.086  1.00  0.00     0.072 C 
ATOM     91  C   UNL     1       4.903  -4.647  -9.225  1.00  0.00     0.022 C 
ENDBRANCH  85  86
ENDBRANCH  77  80
ENDBRANCH  75  76
ENDBRANCH  74  75
ENDBRANCH   1  74
TORSDOF 14
