REMARK SMILES C#CCN(CC(=O)NCCCNC(=O)c1ccc(-c2c3nc(c(-c4c(F)cc(S(=O)(=O)[O-])cc4F)c4ccc([nH]4)c(-c4c(F)cc(S(=O)(=O)[O-])cc4F)c4nc(c(-c5c(F)cc(S(=O)(=O)[O-])cc5F)c5ccc2[nH]5)C=C4)C=C3)cc1)C(=O)NCc1ccnc(C)n1
REMARK SMILES IDX 9 1 8 2 6 3 7 4 5 6 4 7 3 8 2 9 1 10 81 11 82 12 83 13 84 15
REMARK SMILES IDX 85 16 86 17 91 18 87 19 89 20 88 21 90 22 10 23 11 24 12 25
REMARK SMILES IDX 13 26 14 28 15 29 16 30 80 31 17 32 79 33 18 34 19 35 20 36
REMARK SMILES IDX 73 37 21 38 78 39 72 40 74 41 22 42 77 43 71 44 70 45 23 47
REMARK SMILES IDX 57 48 36 49 56 50 37 51 40 52 55 53 75 54 38 55 39 56 54 58
REMARK SMILES IDX 76 59 41 60 24 61 25 62 34 63 26 64 27 65 33 66 35 67 28 68
REMARK SMILES IDX 29 69 30 70 31 71 32 72 58 73 59 74 68 75 60 76 61 77 67 78
REMARK SMILES IDX 69 79 62 80 63 81 64 82 65 83 66 84 42 85 43 86 52 87 44 88
REMARK SMILES IDX 45 89 51 90 53 91 46 92 47 93 48 94 49 95 50 96
REMARK H PARENT 8 5 83 14 12 27 74 46 40 57
REMARK Flexibility Score: inf
ROOT
ATOM      1  C   UNL     1      -5.110  -0.123  -0.235  1.00  0.00     0.117 C 
ENDROOT
BRANCH   1   2
ATOM      2  N   UNL     1      -5.361   1.204   0.288  1.00  0.00    -0.354 N 
ATOM      3  C   UNL     1      -4.549   2.301   0.284  1.00  0.00     0.239 C 
ATOM      4  O   UNL     1      -5.082   3.412   0.385  1.00  0.00    -0.273 OA
ATOM      5  H   UNL     1      -6.243   1.334   0.705  1.00  0.00     0.163 HD
BRANCH   3   6
ATOM      6  C   UNL     1      -3.043   2.198  -0.007  1.00  0.00     0.222 C 
BRANCH   6   7
ATOM      7  N   UNL     1      -2.328   1.175   0.746  1.00  0.00    -0.304 N 
BRANCH   7   8
ATOM      8  C   UNL     1      -1.765   0.075  -0.029  1.00  0.00     0.211 C 
BRANCH   8   9
ATOM      9  C   UNL     1      -0.245   0.075  -0.029  1.00  0.00    -0.085 C 
ATOM     10  C   UNL     1       1.059   0.075  -0.029  1.00  0.00     0.006 C 
ENDBRANCH   8   9
ENDBRANCH   7   8
BRANCH   7  11
ATOM     11  C   UNL     1      -2.140   1.121   2.096  1.00  0.00     0.318 C 
ATOM     12  O   UNL     1      -1.633   0.128   2.630  1.00  0.00    -0.249 OA
ATOM     13  N   UNL     1      -2.484   2.091   2.949  1.00  0.00    -0.332 N 
ATOM     14  H   UNL     1      -2.277   1.822   3.873  1.00  0.00     0.165 HD
BRANCH  13  15
ATOM     15  C   UNL     1      -3.069   3.420   2.929  1.00  0.00     0.174 C 
BRANCH  15  16
ATOM     16  C   UNL     1      -4.472   3.462   3.503  1.00  0.00     0.063 A 
ATOM     17  C   UNL     1      -5.111   4.681   3.638  1.00  0.00     0.046 A 
ATOM     18  N   UNL     1      -5.060   2.301   3.880  1.00  0.00    -0.236 NA
ATOM     19  C   UNL     1      -6.378   4.649   4.169  1.00  0.00     0.115 A 
ATOM     20  C   UNL     1      -6.302   2.378   4.393  1.00  0.00     0.125 A 
ATOM     21  N   UNL     1      -6.997   3.519   4.549  1.00  0.00    -0.242 NA
ATOM     22  C   UNL     1      -6.983   1.097   4.759  1.00  0.00     0.089 C 
ENDBRANCH  15  16
ENDBRANCH  13  15
ENDBRANCH   7  11
ENDBRANCH   6   7
ENDBRANCH   3   6
ENDBRANCH   1   2
BRANCH   1  23
ATOM     23  C   UNL     1      -4.892  -1.189   0.834  1.00  0.00     0.042 C 
BRANCH  23  24
ATOM     24  C   UNL     1      -6.120  -1.524   1.672  1.00  0.00     0.118 C 
BRANCH  24  25
ATOM     25  N   UNL     1      -7.247  -1.975   0.870  1.00  0.00    -0.352 N 
ATOM     26  C   UNL     1      -7.975  -3.135   0.910  1.00  0.00     0.251 C 
ATOM     27  H   UNL     1      -7.537  -1.336   0.180  1.00  0.00     0.163 HD
ATOM     28  O   UNL     1      -8.768  -3.359  -0.007  1.00  0.00    -0.269 OA
BRANCH  26  29
ATOM     29  C   UNL     1      -7.831  -4.113   2.011  1.00  0.00     0.039 A 
ATOM     30  C   UNL     1      -7.965  -5.474   1.712  1.00  0.00     0.014 A 
ATOM     31  C   UNL     1      -7.647  -3.715   3.338  1.00  0.00     0.014 A 
ATOM     32  C   UNL     1      -7.877  -6.428   2.729  1.00  0.00     0.010 A 
ATOM     33  C   UNL     1      -7.485  -4.670   4.342  1.00  0.00     0.010 A 
ATOM     34  C   UNL     1      -7.614  -6.036   4.051  1.00  0.00    -0.014 A 
BRANCH  34  35
ATOM     35  C   UNL     1      -7.494  -7.044   5.136  1.00  0.00     0.031 A 
ATOM     36  C   UNL     1      -8.497  -7.077   6.259  1.00  0.00     0.074 A 
ATOM     37  C   UNL     1      -6.459  -7.907   5.130  1.00  0.00     0.049 A 
ATOM     38  N   UNL     1      -8.543  -7.864   7.303  1.00  0.00    -0.248 NA
ATOM     39  C   UNL     1      -9.578  -6.080   6.215  1.00  0.00     0.031 C 
ATOM     40  C   UNL     1      -5.397  -7.944   4.122  1.00  0.00     0.029 A 
ATOM     41  N   UNL     1      -6.128  -8.918   5.997  1.00  0.00    -0.354 N 
ATOM     42  C   UNL     1      -9.644  -7.451   8.044  1.00  0.00     0.074 A 
ATOM     43  C   UNL     1     -10.208  -6.309   7.357  1.00  0.00     0.031 C 
ATOM     44  C   UNL     1      -4.549  -8.944   4.414  1.00  0.00     0.029 A 
ATOM     45  C   UNL     1      -4.987  -9.598   5.643  1.00  0.00     0.049 A 
ATOM     46  H   UNL     1      -6.658  -9.135   6.798  1.00  0.00     0.167 HD
ATOM     47  C   UNL     1     -10.153  -7.987   9.180  1.00  0.00     0.037 A 
ATOM     48  C   UNL     1      -4.364 -10.633   6.240  1.00  0.00     0.037 A 
ATOM     49  C   UNL     1      -9.601  -9.139   9.845  1.00  0.00     0.049 A 
ATOM     50  C   UNL     1      -4.954 -11.219   7.493  1.00  0.00     0.074 A 
ATOM     51  C   UNL     1     -10.071  -9.790  10.973  1.00  0.00     0.029 A 
ATOM     52  N   UNL     1      -8.457  -9.813   9.443  1.00  0.00    -0.354 N 
ATOM     53  N   UNL     1      -6.030 -10.851   8.148  1.00  0.00    -0.248 NA
ATOM     54  C   UNL     1      -4.253 -12.368   8.083  1.00  0.00     0.031 C 
ATOM     55  C   UNL     1      -9.191 -10.836  11.273  1.00  0.00     0.029 A 
ATOM     56  C   UNL     1      -8.198 -10.864  10.306  1.00  0.00     0.049 A 
ATOM     57  H   UNL     1      -7.910  -9.578   8.658  1.00  0.00     0.167 HD
ATOM     58  C   UNL     1      -6.151 -11.741   9.209  1.00  0.00     0.074 A 
ATOM     59  C   UNL     1      -5.044 -12.669   9.104  1.00  0.00     0.031 C 
ATOM     60  C   UNL     1      -7.096 -11.787  10.181  1.00  0.00     0.037 A 
BRANCH  47  61
ATOM     61  C   UNL     1     -11.374  -7.334   9.770  1.00  0.00     0.058 A 
ATOM     62  C   UNL     1     -12.629  -7.418   9.145  1.00  0.00     0.135 A 
ATOM     63  C   UNL     1     -11.297  -6.636  10.986  1.00  0.00     0.135 A 
ATOM     64  F   UNL     1     -12.759  -8.062   7.974  1.00  0.00    -0.206 F 
ATOM     65  C   UNL     1     -13.755  -6.803   9.683  1.00  0.00     0.059 A 
ATOM     66  C   UNL     1     -12.416  -6.036  11.558  1.00  0.00     0.059 A 
ATOM     67  F   UNL     1     -10.124  -6.526  11.630  1.00  0.00    -0.206 F 
ATOM     68  C   UNL     1     -13.637  -6.110  10.889  1.00  0.00     0.060 A 
BRANCH  68  69
ATOM     69  S   UNL     1     -15.104  -5.309  11.571  1.00  0.00     0.124 S 
ATOM     70  O   UNL     1     -15.241  -4.153  10.689  1.00  0.00    -0.237 OA
ATOM     71  O   UNL     1     -16.125  -6.342  11.421  1.00  0.00    -0.237 OA
ATOM     72  O   UNL     1     -14.720  -5.008  12.945  1.00  0.00    -0.744 OA
ENDBRANCH  68  69
ENDBRANCH  47  61
BRANCH  48  73
ATOM     73  C   UNL     1      -3.133 -11.204   5.633  1.00  0.00     0.058 A 
ATOM     74  C   UNL     1      -3.157 -12.460   5.007  1.00  0.00     0.135 A 
ATOM     75  C   UNL     1      -1.919 -10.500   5.641  1.00  0.00     0.135 A 
ATOM     76  F   UNL     1      -4.293 -13.173   4.978  1.00  0.00    -0.206 F 
ATOM     77  C   UNL     1      -2.018 -13.004   4.422  1.00  0.00     0.059 A 
ATOM     78  C   UNL     1      -0.773 -11.013   5.042  1.00  0.00     0.059 A 
ATOM     79  F   UNL     1      -1.849  -9.288   6.212  1.00  0.00    -0.206 F 
ATOM     80  C   UNL     1      -0.830 -12.271   4.442  1.00  0.00     0.060 A 
BRANCH  80  81
ATOM     81  S   UNL     1       0.628 -12.962   3.631  1.00  0.00     0.124 S 
ATOM     82  O   UNL     1       1.024 -14.001   4.575  1.00  0.00    -0.237 OA
ATOM     83  O   UNL     1       0.080 -13.429   2.360  1.00  0.00    -0.237 OA
ATOM     84  O   UNL     1       1.530 -11.820   3.532  1.00  0.00    -0.744 OA
ENDBRANCH  80  81
ENDBRANCH  48  73
BRANCH  60  85
ATOM     85  C   UNL     1      -7.000 -12.899  11.187  1.00  0.00     0.058 A 
ATOM     86  C   UNL     1      -6.027 -12.900  12.198  1.00  0.00     0.135 A 
ATOM     87  C   UNL     1      -7.928 -13.954  11.168  1.00  0.00     0.135 A 
ATOM     88  F   UNL     1      -5.113 -11.919  12.256  1.00  0.00    -0.206 F 
ATOM     89  C   UNL     1      -5.963 -13.919  13.143  1.00  0.00     0.059 A 
ATOM     90  C   UNL     1      -7.899 -14.969  12.117  1.00  0.00     0.059 A 
ATOM     91  F   UNL     1      -8.886 -13.995  10.227  1.00  0.00    -0.206 F 
ATOM     92  C   UNL     1      -6.905 -14.950  13.095  1.00  0.00     0.060 A 
BRANCH  92  93
ATOM     93  S   UNL     1      -6.833 -16.248  14.347  1.00  0.00     0.124 S 
ATOM     94  O   UNL     1      -5.694 -17.036  13.888  1.00  0.00    -0.237 OA
ATOM     95  O   UNL     1      -6.626 -15.489  15.576  1.00  0.00    -0.237 OA
ATOM     96  O   UNL     1      -8.134 -16.901  14.233  1.00  0.00    -0.744 OA
ENDBRANCH  92  93
ENDBRANCH  60  85
ENDBRANCH  34  35
ENDBRANCH  26  29
ENDBRANCH  24  25
ENDBRANCH  23  24
ENDBRANCH   1  23
TORSDOF 19
