REMARK SMILES O=C(NCCCNC(=O)c1ccc(S(=O)(=O)NCc2ccn[nH]2)c(F)c1)c1ccc(-c2c3nc(c(-c4c(F)cc(S(=O)(=O)[O-])cc4F)c4ccc([nH]4)c(-c4c(F)cc(S(=O)(=O)[O-])cc4F)c4nc(c(-c5c(F)cc(S(=O)(=O)[O-])cc5F)c5ccc2[nH]5)C=C4)C=C3)cc1
REMARK SMILES IDX 5 1 4 2 3 3 1 4 2 5 27 7 28 8 92 9 29 10 91 11 30 12 31 13
REMARK SMILES IDX 32 14 85 15 33 16 90 17 84 18 86 19 34 20 89 21 83 22 82 23
REMARK SMILES IDX 35 25 69 26 48 27 68 28 49 29 52 30 67 31 87 32 50 33 51 34
REMARK SMILES IDX 66 36 88 37 53 38 36 39 37 40 46 41 38 42 39 43 45 44 47 45
REMARK SMILES IDX 40 46 41 47 42 48 43 49 44 50 70 51 71 52 80 53 72 54 73 55
REMARK SMILES IDX 79 56 81 57 74 58 75 59 76 60 77 61 78 62 54 63 55 64 64 65
REMARK SMILES IDX 56 66 57 67 63 68 65 69 58 70 59 71 60 72 61 73 62 74 6 75
REMARK SMILES IDX 7 76 8 77 9 79 10 80 11 81 26 82 12 83 24 84 13 85 25 86
REMARK SMILES IDX 14 87 15 88 16 89 17 90 18 92 19 93 20 94 23 95 21 96 22 97
REMARK H PARENT 3 6 86 24 52 35 7 78 17 91 23 98
REMARK Flexibility Score: inf
ROOT
ATOM      1  C   UNL     1       4.937  -0.667   2.332  1.00  0.00     0.042 C 
ENDROOT
BRANCH   1   2
ATOM      2  C   UNL     1       4.545  -1.040   0.908  1.00  0.00     0.118 C 
BRANCH   2   3
ATOM      3  N   UNL     1       3.107  -1.023   0.694  1.00  0.00    -0.352 N 
ATOM      4  O   UNL     1       1.101  -0.237   0.067  1.00  0.00    -0.269 OA
ATOM      5  C   UNL     1       2.323  -0.173  -0.049  1.00  0.00     0.251 C 
ATOM      6  H   UNL     1       2.613  -1.737   1.157  1.00  0.00     0.163 HD
BRANCH   5   7
ATOM      7  C   UNL     1       2.927   0.824  -0.962  1.00  0.00     0.039 A 
ATOM      8  C   UNL     1       4.004   0.499  -1.790  1.00  0.00     0.014 A 
ATOM      9  C   UNL     1       2.360   2.101  -1.030  1.00  0.00     0.014 A 
ATOM     10  C   UNL     1       4.596   1.480  -2.583  1.00  0.00     0.010 A 
ATOM     11  C   UNL     1       2.907   3.063  -1.882  1.00  0.00     0.010 A 
ATOM     12  C   UNL     1       4.048   2.770  -2.646  1.00  0.00    -0.014 A 
BRANCH  12  13
ATOM     13  C   UNL     1       4.634   3.793  -3.547  1.00  0.00     0.031 A 
ATOM     14  C   UNL     1       5.265   5.036  -2.988  1.00  0.00     0.074 A 
ATOM     15  C   UNL     1       4.576   3.607  -4.880  1.00  0.00     0.049 A 
ATOM     16  N   UNL     1       5.753   6.070  -3.624  1.00  0.00    -0.248 NA
ATOM     17  C   UNL     1       5.356   5.135  -1.523  1.00  0.00     0.031 C 
ATOM     18  C   UNL     1       3.994   2.436  -5.540  1.00  0.00     0.029 A 
ATOM     19  N   UNL     1       5.003   4.396  -5.917  1.00  0.00    -0.354 N 
ATOM     20  C   UNL     1       6.182   6.954  -2.643  1.00  0.00     0.074 A 
ATOM     21  C   UNL     1       5.886   6.341  -1.365  1.00  0.00     0.031 C 
ATOM     22  C   UNL     1       4.120   2.574  -6.867  1.00  0.00     0.029 A 
ATOM     23  C   UNL     1       4.732   3.867  -7.156  1.00  0.00     0.049 A 
ATOM     24  H   UNL     1       5.461   5.258  -5.787  1.00  0.00     0.167 HD
ATOM     25  C   UNL     1       6.772   8.164  -2.797  1.00  0.00     0.037 A 
ATOM     26  C   UNL     1       4.924   4.374  -8.390  1.00  0.00     0.037 A 
ATOM     27  C   UNL     1       7.080   8.756  -4.072  1.00  0.00     0.049 A 
ATOM     28  C   UNL     1       5.540   5.733  -8.539  1.00  0.00     0.074 A 
ATOM     29  C   UNL     1       7.719   9.956  -4.329  1.00  0.00     0.029 A 
ATOM     30  N   UNL     1       6.763   8.199  -5.303  1.00  0.00    -0.354 N 
ATOM     31  N   UNL     1       5.961   6.547  -7.601  1.00  0.00    -0.248 NA
ATOM     32  C   UNL     1       5.700   6.250  -9.904  1.00  0.00     0.031 C 
ATOM     33  C   UNL     1       7.751  10.145  -5.715  1.00  0.00     0.029 A 
ATOM     34  C   UNL     1       7.170   9.043  -6.323  1.00  0.00     0.049 A 
ATOM     35  H   UNL     1       6.316   7.332  -5.433  1.00  0.00     0.167 HD
ATOM     36  C   UNL     1       6.446   7.669  -8.261  1.00  0.00     0.074 A 
ATOM     37  C   UNL     1       6.270   7.428  -9.679  1.00  0.00     0.031 C 
ATOM     38  C   UNL     1       6.990   8.792  -7.733  1.00  0.00     0.037 A 
BRANCH  25  39
ATOM     39  C   UNL     1       7.101   8.942  -1.554  1.00  0.00     0.058 A 
ATOM     40  C   UNL     1       6.358  10.084  -1.215  1.00  0.00     0.135 A 
ATOM     41  C   UNL     1       8.166   8.581  -0.715  1.00  0.00     0.135 A 
ATOM     42  F   UNL     1       5.327  10.472  -1.982  1.00  0.00    -0.206 F 
ATOM     43  C   UNL     1       6.657  10.839  -0.086  1.00  0.00     0.059 A 
ATOM     44  C   UNL     1       8.470   9.309   0.432  1.00  0.00     0.059 A 
ATOM     45  F   UNL     1       8.897   7.487  -0.983  1.00  0.00    -0.206 F 
ATOM     46  C   UNL     1       7.713  10.442   0.735  1.00  0.00     0.060 A 
BRANCH  46  47
ATOM     47  S   UNL     1       8.041  11.383   2.241  1.00  0.00     0.124 S 
ATOM     48  O   UNL     1       8.690  12.577   1.713  1.00  0.00    -0.237 OA
ATOM     49  O   UNL     1       6.700  11.573   2.785  1.00  0.00    -0.237 OA
ATOM     50  O   UNL     1       8.898  10.488   3.014  1.00  0.00    -0.744 OA
ENDBRANCH  46  47
ENDBRANCH  25  39
BRANCH  26  51
ATOM     51  C   UNL     1       4.515   3.562  -9.564  1.00  0.00     0.058 A 
ATOM     52  C   UNL     1       3.159   3.348  -9.858  1.00  0.00     0.135 A 
ATOM     53  C   UNL     1       5.470   2.884 -10.333  1.00  0.00     0.135 A 
ATOM     54  F   UNL     1       2.209   3.968  -9.141  1.00  0.00    -0.206 F 
ATOM     55  C   UNL     1       2.762   2.446 -10.838  1.00  0.00     0.059 A 
ATOM     56  C   UNL     1       5.097   1.991 -11.334  1.00  0.00     0.059 A 
ATOM     57  F   UNL     1       6.777   3.067 -10.093  1.00  0.00    -0.206 F 
ATOM     58  C   UNL     1       3.740   1.758 -11.558  1.00  0.00     0.060 A 
BRANCH  58  59
ATOM     59  S   UNL     1       3.207   0.523 -12.762  1.00  0.00     0.124 S 
ATOM     60  O   UNL     1       2.679  -0.523 -11.892  1.00  0.00    -0.237 OA
ATOM     61  O   UNL     1       2.218   1.261 -13.541  1.00  0.00    -0.237 OA
ATOM     62  O   UNL     1       4.438   0.188 -13.471  1.00  0.00    -0.744 OA
ENDBRANCH  58  59
ENDBRANCH  26  51
BRANCH  38  63
ATOM     63  C   UNL     1       7.455   9.862  -8.678  1.00  0.00     0.058 A 
ATOM     64  C   UNL     1       8.826  10.076  -8.886  1.00  0.00     0.135 A 
ATOM     65  C   UNL     1       6.550  10.756  -9.269  1.00  0.00     0.135 A 
ATOM     66  F   UNL     1       9.731   9.246  -8.341  1.00  0.00    -0.206 F 
ATOM     67  C   UNL     1       9.288  11.167  -9.613  1.00  0.00     0.059 A 
ATOM     68  C   UNL     1       6.989  11.845 -10.017  1.00  0.00     0.059 A 
ATOM     69  F   UNL     1       5.228  10.582  -9.111  1.00  0.00    -0.206 F 
ATOM     70  C   UNL     1       8.361  12.056 -10.161  1.00  0.00     0.060 A 
BRANCH  70  71
ATOM     71  S   UNL     1       8.979  13.497 -11.056  1.00  0.00     0.124 S 
ATOM     72  O   UNL     1       9.531  14.305  -9.974  1.00  0.00    -0.237 OA
ATOM     73  O   UNL     1       9.954  12.901 -11.964  1.00  0.00    -0.237 OA
ATOM     74  O   UNL     1       7.783  14.036 -11.697  1.00  0.00    -0.744 OA
ENDBRANCH  70  71
ENDBRANCH  38  63
ENDBRANCH  12  13
ENDBRANCH   5   7
ENDBRANCH   2   3
ENDBRANCH   1   2
BRANCH   1  75
ATOM     75  C   UNL     1       4.415  -1.609   3.411  1.00  0.00     0.118 C 
BRANCH  75  76
ATOM     76  N   UNL     1       4.885  -2.979   3.249  1.00  0.00    -0.352 N 
ATOM     77  C   UNL     1       5.606  -3.790   4.086  1.00  0.00     0.251 C 
ATOM     78  H   UNL     1       4.643  -3.394   2.389  1.00  0.00     0.163 HD
ATOM     79  O   UNL     1       6.024  -4.870   3.676  1.00  0.00    -0.269 OA
BRANCH  77  80
ATOM     80  C   UNL     1       5.913  -3.388   5.476  1.00  0.00     0.042 A 
ATOM     81  C   UNL     1       4.957  -2.786   6.301  1.00  0.00     0.015 A 
ATOM     82  C   UNL     1       7.182  -3.686   5.987  1.00  0.00     0.054 A 
ATOM     83  C   UNL     1       5.311  -2.363   7.582  1.00  0.00     0.026 A 
ATOM     84  C   UNL     1       7.514  -3.308   7.286  1.00  0.00     0.144 A 
ATOM     85  C   UNL     1       6.604  -2.609   8.064  1.00  0.00     0.118 A 
ATOM     86  F   UNL     1       8.738  -3.607   7.741  1.00  0.00    -0.205 F 
BRANCH  85  87
ATOM     87  S   UNL     1       7.037  -1.947   9.637  1.00  0.00     0.243 S 
ATOM     88  O   UNL     1       6.410  -0.639   9.720  1.00  0.00    -0.207 OA
ATOM     89  O   UNL     1       6.772  -2.969  10.618  1.00  0.00    -0.207 OA
BRANCH  87  90
ATOM     90  N   UNL     1       8.678  -1.665   9.665  1.00  0.00    -0.205 NA
ATOM     91  H   UNL     1       9.122  -2.583   9.684  1.00  0.00     0.141 HD
BRANCH  90  92
ATOM     92  C   UNL     1       9.367  -0.908   8.633  1.00  0.00     0.154 C 
BRANCH  92  93
ATOM     93  C   UNL     1       9.471   0.527   8.961  1.00  0.00     0.050 A 
ATOM     94  C   UNL     1      10.497   1.429   8.763  1.00  0.00     0.046 A 
ATOM     95  N   UNL     1       8.425   1.268   9.447  1.00  0.00    -0.281 N 
ATOM     96  C   UNL     1       9.958   2.677   9.121  1.00  0.00     0.135 A 
ATOM     97  N   UNL     1       8.700   2.579   9.552  1.00  0.00    -0.184 NA
ATOM     98  H   UNL     1       7.556   0.877   9.695  1.00  0.00     0.190 HD
ENDBRANCH  92  93
ENDBRANCH  90  92
ENDBRANCH  87  90
ENDBRANCH  85  87
ENDBRANCH  77  80
ENDBRANCH  75  76
ENDBRANCH   1  75
TORSDOF 17
