REMARK SMILES Nc1ncccc1C[N@@H+]1CC2(CC[NH2+]CC2)C[C@H]1C(=O)NCCCNC(=O)c1ccc(-c2c3nc(c(-c4c(F)cc(S(=O)(=O)[O-])cc4F)c4ccc([nH]4)c(-c4c(F)cc(S(=O)(=O)[O-])cc4F)c4nc(c(-c5c(F)cc(S(=O)(=O)[O-])cc5F)c5ccc2[nH]5)C=C4)C=C3)cc1
REMARK SMILES IDX 23 1 22 2 21 3 19 4 20 5 18 7 9 8 10 9 11 11 17 12 12 13
REMARK SMILES IDX 16 14 13 15 15 16 14 17 8 20 7 21 2 22 3 23 4 24 6 25 5 26
REMARK SMILES IDX 1 27 24 30 25 31 26 32 27 34 28 35 29 36 93 37 30 38 92 39
REMARK SMILES IDX 31 40 32 41 33 42 86 43 34 44 91 45 85 46 87 47 35 48 90 49
REMARK SMILES IDX 84 50 83 51 36 53 70 54 49 55 69 56 50 57 53 58 68 59 88 60
REMARK SMILES IDX 51 61 52 62 67 64 89 65 54 66 37 67 38 68 47 69 39 70 40 71
REMARK SMILES IDX 46 72 48 73 41 74 42 75 43 76 44 77 45 78 71 79 72 80 81 81
REMARK SMILES IDX 73 82 74 83 80 84 82 85 75 86 76 87 77 88 78 89 79 90 55 91
REMARK SMILES IDX 56 92 65 93 57 94 58 95 64 96 66 97 59 98 60 99 61 100
REMARK SMILES IDX 62 101 63 102
REMARK H PARENT 21 6 9 10 14 18 14 19 1 28 1 29 25 33 87 52 53 63
REMARK Flexibility Score: inf
ROOT
ATOM      1  C   UNL     1      -1.409  -5.693   3.664  1.00  0.00     0.042 C 
ENDROOT
BRANCH   1   2
ATOM      2  C   UNL     1      -1.214  -4.259   4.104  1.00  0.00     0.118 C 
BRANCH   2   3
ATOM      3  N   UNL     1       0.130  -3.798   4.253  1.00  0.00    -0.351 N 
ATOM      4  C   UNL     1       0.718  -2.726   3.646  1.00  0.00     0.278 C 
ATOM      5  O   UNL     1       1.820  -2.397   4.111  1.00  0.00    -0.268 OA
ATOM      6  H   UNL     1       0.700  -4.315   4.866  1.00  0.00     0.163 HD
BRANCH   4   7
ATOM      7  C   UNL     1       0.127  -1.946   2.416  1.00  0.00     0.275 C 
ATOM      8  N   UNL     1       0.016  -2.827   1.242  1.00  0.00    -0.320 N 
ATOM      9  C   UNL     1      -1.413  -3.034   0.948  1.00  0.00     0.270 C 
ATOM     10  H   UNL     1       0.396  -3.752   1.441  1.00  0.00     0.349 HD
ATOM     11  C   UNL     1      -2.262  -1.932   1.661  1.00  0.00     0.036 C 
ATOM     12  C   UNL     1      -1.193  -1.157   2.474  1.00  0.00     0.089 C 
ATOM     13  C   UNL     1      -3.427  -2.300   2.637  1.00  0.00     0.074 C 
ATOM     14  C   UNL     1      -3.041  -1.153   0.568  1.00  0.00     0.074 C 
ATOM     15  C   UNL     1      -4.479  -3.200   2.008  1.00  0.00     0.261 C 
ATOM     16  C   UNL     1      -4.128  -2.040  -0.081  1.00  0.00     0.261 C 
ATOM     17  N   UNL     1      -5.114  -2.520   0.884  1.00  0.00    -0.346 N 
ATOM     18  H   UNL     1      -5.647  -1.725   1.236  1.00  0.00     0.346 HD
ATOM     19  H   UNL     1      -5.725  -3.187   0.411  1.00  0.00     0.346 HD
BRANCH   8  20
ATOM     20  C   UNL     1       0.900  -2.417   0.117  1.00  0.00     0.303 C 
BRANCH  20  21
ATOM     21  C   UNL     1       0.779  -0.984  -0.380  1.00  0.00     0.048 A 
ATOM     22  C   UNL     1       1.583   0.064   0.080  1.00  0.00     0.132 A 
ATOM     23  N   UNL     1       1.256   1.363  -0.080  1.00  0.00    -0.239 NA
ATOM     24  C   UNL     1       0.153   1.648  -0.799  1.00  0.00     0.113 A 
ATOM     25  C   UNL     1      -0.246  -0.643  -1.266  1.00  0.00     0.015 A 
ATOM     26  C   UNL     1      -0.589   0.692  -1.456  1.00  0.00     0.021 A 
BRANCH  22  27
ATOM     27  N   UNL     1       2.758  -0.140   0.772  1.00  0.00    -0.383 N 
ATOM     28  H   UNL     1       3.291   0.630   1.076  1.00  0.00     0.158 HD
ATOM     29  H   UNL     1       3.064  -1.056   0.963  1.00  0.00     0.158 HD
ENDBRANCH  22  27
ENDBRANCH  20  21
ENDBRANCH   8  20
ENDBRANCH   4   7
ENDBRANCH   2   3
ENDBRANCH   1   2
BRANCH   1  30
ATOM     30  C   UNL     1      -1.795  -6.620   4.802  1.00  0.00     0.118 C 
BRANCH  30  31
ATOM     31  N   UNL     1      -3.071  -6.265   5.426  1.00  0.00    -0.352 N 
ATOM     32  C   UNL     1      -4.231  -6.990   5.589  1.00  0.00     0.251 C 
ATOM     33  H   UNL     1      -3.106  -5.352   5.792  1.00  0.00     0.163 HD
ATOM     34  O   UNL     1      -5.231  -6.435   6.021  1.00  0.00    -0.269 OA
BRANCH  32  35
ATOM     35  C   UNL     1      -4.273  -8.423   5.219  1.00  0.00     0.039 A 
ATOM     36  C   UNL     1      -5.424  -8.941   4.617  1.00  0.00     0.014 A 
ATOM     37  C   UNL     1      -3.179  -9.254   5.455  1.00  0.00     0.014 A 
ATOM     38  C   UNL     1      -5.435 -10.264   4.170  1.00  0.00     0.010 A 
ATOM     39  C   UNL     1      -3.145 -10.525   4.902  1.00  0.00     0.010 A 
ATOM     40  C   UNL     1      -4.276 -11.050   4.262  1.00  0.00    -0.014 A 
BRANCH  40  41
ATOM     41  C   UNL     1      -4.210 -12.426   3.710  1.00  0.00     0.031 A 
ATOM     42  C   UNL     1      -3.900 -13.584   4.620  1.00  0.00     0.074 A 
ATOM     43  C   UNL     1      -4.331 -12.617   2.381  1.00  0.00     0.049 A 
ATOM     44  N   UNL     1      -3.691 -14.839   4.320  1.00  0.00    -0.248 NA
ATOM     45  C   UNL     1      -3.765 -13.281   6.055  1.00  0.00     0.031 C 
ATOM     46  C   UNL     1      -4.574 -11.564   1.392  1.00  0.00     0.029 A 
ATOM     47  N   UNL     1      -4.252 -13.762   1.631  1.00  0.00    -0.354 N 
ATOM     48  C   UNL     1      -3.376 -15.467   5.520  1.00  0.00     0.074 A 
ATOM     49  C   UNL     1      -3.356 -14.443   6.540  1.00  0.00     0.031 C 
ATOM     50  C   UNL     1      -4.661 -12.116   0.172  1.00  0.00     0.029 A 
ATOM     51  C   UNL     1      -4.431 -13.553   0.283  1.00  0.00     0.049 A 
ATOM     52  H   UNL     1      -4.083 -14.650   2.020  1.00  0.00     0.167 HD
ATOM     53  C   UNL     1      -3.151 -16.781   5.755  1.00  0.00     0.037 A 
ATOM     54  C   UNL     1      -4.406 -14.421  -0.746  1.00  0.00     0.037 A 
ATOM     55  C   UNL     1      -3.203 -17.794   4.734  1.00  0.00     0.049 A 
ATOM     56  C   UNL     1      -4.152 -15.875  -0.465  1.00  0.00     0.074 A 
ATOM     57  C   UNL     1      -3.069 -19.164   4.872  1.00  0.00     0.029 A 
ATOM     58  N   UNL     1      -3.399 -17.545   3.383  1.00  0.00    -0.354 N 
ATOM     59  N   UNL     1      -3.931 -16.466   0.686  1.00  0.00    -0.248 NA
ATOM     60  C   UNL     1      -4.142 -16.782  -1.620  1.00  0.00     0.031 C 
ATOM     61  C   UNL     1      -3.130 -19.737   3.597  1.00  0.00     0.029 A 
ATOM     62  C   UNL     1      -3.356 -18.732   2.670  1.00  0.00     0.049 A 
ATOM     63  H   UNL     1      -3.546 -16.655   2.989  1.00  0.00     0.167 HD
ATOM     64  C   UNL     1      -3.775 -17.817   0.398  1.00  0.00     0.074 A 
ATOM     65  C   UNL     1      -3.944 -17.956  -1.036  1.00  0.00     0.031 C 
ATOM     66  C   UNL     1      -3.517 -18.848   1.241  1.00  0.00     0.037 A 
BRANCH  53  67
ATOM     67  C   UNL     1      -2.824 -17.186   7.169  1.00  0.00     0.058 A 
ATOM     68  C   UNL     1      -3.768 -17.093   8.205  1.00  0.00     0.135 A 
ATOM     69  C   UNL     1      -1.545 -17.667   7.495  1.00  0.00     0.135 A 
ATOM     70  F   UNL     1      -5.003 -16.627   7.956  1.00  0.00    -0.206 F 
ATOM     71  C   UNL     1      -3.442 -17.409   9.520  1.00  0.00     0.059 A 
ATOM     72  C   UNL     1      -1.207 -18.022   8.798  1.00  0.00     0.059 A 
ATOM     73  F   UNL     1      -0.602 -17.780   6.547  1.00  0.00    -0.206 F 
ATOM     74  C   UNL     1      -2.156 -17.867   9.808  1.00  0.00     0.060 A 
BRANCH  74  75
ATOM     75  S   UNL     1      -1.740 -18.245  11.523  1.00  0.00     0.124 S 
ATOM     76  O   UNL     1      -1.642 -16.908  12.099  1.00  0.00    -0.237 OA
ATOM     77  O   UNL     1      -2.886 -19.039  11.955  1.00  0.00    -0.237 OA
ATOM     78  O   UNL     1      -0.481 -18.975  11.415  1.00  0.00    -0.744 OA
ENDBRANCH  74  75
ENDBRANCH  53  67
BRANCH  54  79
ATOM     79  C   UNL     1      -4.669 -13.934  -2.127  1.00  0.00     0.058 A 
ATOM     80  C   UNL     1      -5.873 -14.242  -2.777  1.00  0.00     0.135 A 
ATOM     81  C   UNL     1      -3.752 -13.114  -2.804  1.00  0.00     0.135 A 
ATOM     82  F   UNL     1      -6.777 -15.029  -2.174  1.00  0.00    -0.206 F 
ATOM     83  C   UNL     1      -6.161 -13.757  -4.048  1.00  0.00     0.059 A 
ATOM     84  C   UNL     1      -4.028 -12.596  -4.066  1.00  0.00     0.059 A 
ATOM     85  F   UNL     1      -2.592 -12.777  -2.220  1.00  0.00    -0.206 F 
ATOM     86  C   UNL     1      -5.235 -12.926  -4.681  1.00  0.00     0.060 A 
BRANCH  86  87
ATOM     87  S   UNL     1      -5.657 -12.237  -6.297  1.00  0.00     0.124 S 
ATOM     88  O   UNL     1      -5.566 -13.415  -7.152  1.00  0.00    -0.237 OA
ATOM     89  O   UNL     1      -7.001 -11.717  -6.066  1.00  0.00    -0.237 OA
ATOM     90  O   UNL     1      -4.629 -11.223  -6.509  1.00  0.00    -0.744 OA
ENDBRANCH  86  87
ENDBRANCH  54  79
BRANCH  66  91
ATOM     91  C   UNL     1      -3.413 -20.221   0.637  1.00  0.00     0.058 A 
ATOM     92  C   UNL     1      -2.309 -20.601  -0.141  1.00  0.00     0.135 A 
ATOM     93  C   UNL     1      -4.403 -21.186   0.887  1.00  0.00     0.135 A 
ATOM     94  F   UNL     1      -1.339 -19.715  -0.416  1.00  0.00    -0.206 F 
ATOM     95  C   UNL     1      -2.201 -21.883  -0.671  1.00  0.00     0.059 A 
ATOM     96  C   UNL     1      -4.301 -22.482   0.392  1.00  0.00     0.059 A 
ATOM     97  F   UNL     1      -5.475 -20.877   1.634  1.00  0.00    -0.206 F 
ATOM     98  C   UNL     1      -3.200 -22.817  -0.395  1.00  0.00     0.060 A 
BRANCH  98  99
ATOM     99  S   UNL     1      -3.028 -24.487  -1.058  1.00  0.00     0.124 S 
ATOM    100  O   UNL     1      -3.304 -24.271  -2.474  1.00  0.00    -0.237 OA
ATOM    101  O   UNL     1      -1.645 -24.814  -0.724  1.00  0.00    -0.237 OA
ATOM    102  O   UNL     1      -4.039 -25.248  -0.330  1.00  0.00    -0.744 OA
ENDBRANCH  98  99
ENDBRANCH  66  91
ENDBRANCH  40  41
ENDBRANCH  32  35
ENDBRANCH  30  31
ENDBRANCH   1  30
TORSDOF 16
