REMARK SMILES O=C(NCCCNC(=O)c1cc(OC[C@@H]2Cc3cc(F)ccc3O2)cs1)c1ccc(-c2c3nc(c(-c4c(F)cc(S(=O)(=O)[O-])cc4F)c4ccc([nH]4)c(-c4c(F)cc(S(=O)(=O)[O-])cc4F)c4nc(c(-c5c(F)cc(S(=O)(=O)[O-])cc5F)c5ccc2[nH]5)C=C4)C=C3)cc1
REMARK SMILES IDX 5 1 4 2 3 3 1 4 2 5 27 7 28 8 92 9 29 10 91 11 30 12 31 13
REMARK SMILES IDX 32 14 85 15 33 16 90 17 84 18 86 19 34 20 89 21 83 22 82 23
REMARK SMILES IDX 35 25 69 26 48 27 68 28 49 29 52 30 67 31 87 32 50 33 51 34
REMARK SMILES IDX 66 36 88 37 53 38 36 39 37 40 46 41 38 42 39 43 45 44 47 45
REMARK SMILES IDX 40 46 41 47 42 48 43 49 44 50 70 51 71 52 80 53 72 54 73 55
REMARK SMILES IDX 79 56 81 57 74 58 75 59 76 60 77 61 78 62 54 63 55 64 64 65
REMARK SMILES IDX 56 66 57 67 63 68 65 69 58 70 59 71 60 72 61 73 62 74 6 75
REMARK SMILES IDX 7 76 8 77 9 79 10 80 11 81 26 82 12 83 25 84 13 85 14 86
REMARK SMILES IDX 15 87 16 88 24 89 17 90 23 91 18 92 22 93 19 94 21 95 20 96
REMARK H PARENT 3 6 86 24 52 35 7 78
REMARK Flexibility Score: inf
ROOT
ATOM      1  C   UNL     1       4.804   1.403  -2.235  1.00  0.00     0.042 C 
ENDROOT
BRANCH   1   2
ATOM      2  C   UNL     1       4.468   1.271  -0.756  1.00  0.00     0.118 C 
BRANCH   2   3
ATOM      3  N   UNL     1       3.039   1.098  -0.528  1.00  0.00    -0.352 N 
ATOM      4  O   UNL     1       1.112   0.110   0.021  1.00  0.00    -0.269 OA
ATOM      5  C   UNL     1       2.337   0.120   0.131  1.00  0.00     0.251 C 
ATOM      6  H   UNL     1       2.478   1.808  -0.916  1.00  0.00     0.163 HD
BRANCH   5   7
ATOM      7  C   UNL     1       3.016  -0.909   0.953  1.00  0.00     0.039 A 
ATOM      8  C   UNL     1       2.435  -2.178   1.047  1.00  0.00     0.014 A 
ATOM      9  C   UNL     1       4.172  -0.628   1.684  1.00  0.00     0.014 A 
ATOM     10  C   UNL     1       3.028  -3.163   1.842  1.00  0.00     0.010 A 
ATOM     11  C   UNL     1       4.818  -1.638   2.393  1.00  0.00     0.010 A 
ATOM     12  C   UNL     1       4.238  -2.909   2.507  1.00  0.00    -0.014 A 
BRANCH  12  13
ATOM     13  C   UNL     1       4.871  -3.937   3.374  1.00  0.00     0.031 A 
ATOM     14  C   UNL     1       5.048  -3.671   4.848  1.00  0.00     0.074 A 
ATOM     15  C   UNL     1       5.304  -5.096   2.839  1.00  0.00     0.049 A 
ATOM     16  N   UNL     1       5.607  -4.424   5.761  1.00  0.00    -0.248 NA
ATOM     17  C   UNL     1       4.560  -2.379   5.363  1.00  0.00     0.031 C 
ATOM     18  C   UNL     1       5.232  -5.453   1.420  1.00  0.00     0.029 A 
ATOM     19  N   UNL     1       5.887  -6.194   3.424  1.00  0.00    -0.354 N 
ATOM     20  C   UNL     1       5.549  -3.695   6.943  1.00  0.00     0.074 A 
ATOM     21  C   UNL     1       4.961  -2.414   6.625  1.00  0.00     0.031 C 
ATOM     22  C   UNL     1       5.709  -6.697   1.252  1.00  0.00     0.029 A 
ATOM     23  C   UNL     1       6.154  -7.216   2.542  1.00  0.00     0.049 A 
ATOM     24  H   UNL     1       6.094  -6.244   4.385  1.00  0.00     0.167 HD
ATOM     25  C   UNL     1       5.915  -4.072   8.190  1.00  0.00     0.037 A 
ATOM     26  C   UNL     1       6.691  -8.435   2.751  1.00  0.00     0.037 A 
ATOM     27  C   UNL     1       6.443  -5.370   8.513  1.00  0.00     0.049 A 
ATOM     28  C   UNL     1       7.081  -8.835   4.150  1.00  0.00     0.074 A 
ATOM     29  C   UNL     1       6.789  -5.868   9.756  1.00  0.00     0.029 A 
ATOM     30  N   UNL     1       6.682  -6.378   7.593  1.00  0.00    -0.354 N 
ATOM     31  N   UNL     1       6.970  -8.148   5.262  1.00  0.00    -0.248 NA
ATOM     32  C   UNL     1       7.667 -10.172   4.327  1.00  0.00     0.031 C 
ATOM     33  C   UNL     1       7.271  -7.168   9.584  1.00  0.00     0.029 A 
ATOM     34  C   UNL     1       7.183  -7.493   8.240  1.00  0.00     0.049 A 
ATOM     35  H   UNL     1       6.520  -6.311   6.624  1.00  0.00     0.167 HD
ATOM     36  C   UNL     1       7.442  -8.979   6.271  1.00  0.00     0.074 A 
ATOM     37  C   UNL     1       7.838 -10.221   5.642  1.00  0.00     0.031 C 
ATOM     38  C   UNL     1       7.541  -8.733   7.599  1.00  0.00     0.037 A 
BRANCH  25  39
ATOM     39  C   UNL     1       5.722  -3.094   9.314  1.00  0.00     0.058 A 
ATOM     40  C   UNL     1       4.442  -2.792   9.805  1.00  0.00     0.135 A 
ATOM     41  C   UNL     1       6.827  -2.522   9.966  1.00  0.00     0.135 A 
ATOM     42  F   UNL     1       3.352  -3.297   9.207  1.00  0.00    -0.206 F 
ATOM     43  C   UNL     1       4.263  -1.954  10.899  1.00  0.00     0.059 A 
ATOM     44  C   UNL     1       6.672  -1.701  11.079  1.00  0.00     0.059 A 
ATOM     45  F   UNL     1       8.072  -2.775   9.534  1.00  0.00    -0.206 F 
ATOM     46  C   UNL     1       5.385  -1.420  11.536  1.00  0.00     0.060 A 
BRANCH  46  47
ATOM     47  S   UNL     1       5.130  -0.373  12.984  1.00  0.00     0.124 S 
ATOM     48  O   UNL     1       4.548   0.822  12.381  1.00  0.00    -0.237 OA
ATOM     49  O   UNL     1       4.223  -1.180  13.794  1.00  0.00    -0.237 OA
ATOM     50  O   UNL     1       6.475  -0.208  13.527  1.00  0.00    -0.744 OA
ENDBRANCH  46  47
ENDBRANCH  25  39
BRANCH  26  51
ATOM     51  C   UNL     1       6.854  -9.382   1.616  1.00  0.00     0.058 A 
ATOM     52  C   UNL     1       6.056 -10.532   1.519  1.00  0.00     0.135 A 
ATOM     53  C   UNL     1       7.798  -9.157   0.603  1.00  0.00     0.135 A 
ATOM     54  F   UNL     1       5.141 -10.794   2.465  1.00  0.00    -0.206 F 
ATOM     55  C   UNL     1       6.200 -11.435   0.471  1.00  0.00     0.059 A 
ATOM     56  C   UNL     1       7.945 -10.033  -0.469  1.00  0.00     0.059 A 
ATOM     57  F   UNL     1       8.576  -8.063   0.639  1.00  0.00    -0.206 F 
ATOM     58  C   UNL     1       7.148 -11.176  -0.520  1.00  0.00     0.060 A 
BRANCH  58  59
ATOM     59  S   UNL     1       7.303 -12.340  -1.893  1.00  0.00     0.124 S 
ATOM     60  O   UNL     1       7.928 -13.484  -1.238  1.00  0.00    -0.237 OA
ATOM     61  O   UNL     1       5.913 -12.518  -2.301  1.00  0.00    -0.237 OA
ATOM     62  O   UNL     1       8.143 -11.623  -2.848  1.00  0.00    -0.744 OA
ENDBRANCH  58  59
ENDBRANCH  26  51
BRANCH  38  63
ATOM     63  C   UNL     1       8.063  -9.825   8.488  1.00  0.00     0.058 A 
ATOM     64  C   UNL     1       9.434 -10.109   8.565  1.00  0.00     0.135 A 
ATOM     65  C   UNL     1       7.200 -10.484   9.379  1.00  0.00     0.135 A 
ATOM     66  F   UNL     1      10.296  -9.509   7.730  1.00  0.00    -0.206 F 
ATOM     67  C   UNL     1       9.935 -11.001   9.507  1.00  0.00     0.059 A 
ATOM     68  C   UNL     1       7.682 -11.362  10.344  1.00  0.00     0.059 A 
ATOM     69  F   UNL     1       5.880 -10.237   9.349  1.00  0.00    -0.206 F 
ATOM     70  C   UNL     1       9.053 -11.610  10.403  1.00  0.00     0.060 A 
BRANCH  70  71
ATOM     71  S   UNL     1       9.734 -12.679  11.688  1.00  0.00     0.124 S 
ATOM     72  O   UNL     1      10.156 -13.841  10.912  1.00  0.00    -0.237 OA
ATOM     73  O   UNL     1      10.809 -11.859  12.237  1.00  0.00    -0.237 OA
ATOM     74  O   UNL     1       8.602 -12.900  12.584  1.00  0.00    -0.744 OA
ENDBRANCH  70  71
ENDBRANCH  38  63
ENDBRANCH  12  13
ENDBRANCH   5   7
ENDBRANCH   2   3
ENDBRANCH   1   2
BRANCH   1  75
ATOM     75  C   UNL     1       4.184   2.624  -2.905  1.00  0.00     0.118 C 
BRANCH  75  76
ATOM     76  N   UNL     1       4.903   3.856  -2.640  1.00  0.00    -0.351 N 
ATOM     77  C   UNL     1       5.737   4.598  -3.448  1.00  0.00     0.261 C 
ATOM     78  H   UNL     1       4.774   4.222  -1.734  1.00  0.00     0.163 HD
ATOM     79  O   UNL     1       6.294   5.569  -2.927  1.00  0.00    -0.268 OA
BRANCH  77  80
ATOM     80  C   UNL     1       5.942   4.204  -4.830  1.00  0.00     0.096 A 
ATOM     81  C   UNL     1       5.032   3.809  -5.797  1.00  0.00     0.072 A 
ATOM     82  S   UNL     1       7.535   4.237  -5.466  1.00  0.00    -0.135 S 
ATOM     83  C   UNL     1       5.675   3.289  -6.957  1.00  0.00     0.131 A 
ATOM     84  C   UNL     1       7.030   3.525  -6.935  1.00  0.00     0.112 A 
BRANCH  83  85
ATOM     85  O   UNL     1       5.150   2.585  -7.993  1.00  0.00    -0.489 OA
BRANCH  85  86
ATOM     86  C   UNL     1       3.852   2.021  -7.784  1.00  0.00     0.275 C 
BRANCH  86  87
ATOM     87  C   UNL     1       3.769   0.782  -6.858  1.00  0.00     0.215 C 
ATOM     88  C   UNL     1       5.011   0.437  -6.024  1.00  0.00     0.088 C 
ATOM     89  O   UNL     1       3.393  -0.400  -7.637  1.00  0.00    -0.486 OA
ATOM     90  C   UNL     1       5.009  -1.032  -6.121  1.00  0.00     0.001 A 
ATOM     91  C   UNL     1       4.067  -1.437  -7.049  1.00  0.00     0.123 A 
ATOM     92  C   UNL     1       5.834  -1.937  -5.479  1.00  0.00     0.047 A 
ATOM     93  C   UNL     1       3.887  -2.772  -7.351  1.00  0.00     0.050 A 
ATOM     94  C   UNL     1       5.670  -3.281  -5.784  1.00  0.00     0.123 A 
ATOM     95  C   UNL     1       4.702  -3.707  -6.702  1.00  0.00     0.043 A 
ATOM     96  F   UNL     1       6.465  -4.185  -5.197  1.00  0.00    -0.207 F 
ENDBRANCH  86  87
ENDBRANCH  85  86
ENDBRANCH  83  85
ENDBRANCH  77  80
ENDBRANCH  75  76
ENDBRANCH   1  75
TORSDOF 16
