REMARK SMILES O=C(NCCCNC(=O)[C@@H]1CCCC[C@@H]1Sc1ccncc1)c1ccc(-c2c3nc(c(-c4c(F)cc(S(=O)(=O)[O-])cc4F)c4ccc([nH]4)c(-c4c(F)cc(S(=O)(=O)[O-])cc4F)c4nc(c(-c5c(F)cc(S(=O)(=O)[O-])cc5F)c5ccc2[nH]5)C=C4)C=C3)cc1
REMARK SMILES IDX 4 1 3 2 1 3 2 4 23 6 24 7 88 8 25 9 87 10 26 11 27 12 28 13
REMARK SMILES IDX 81 14 29 15 86 16 80 17 82 18 30 19 85 20 79 21 78 22 31 24
REMARK SMILES IDX 65 25 44 26 64 27 45 28 48 29 63 30 83 31 46 32 47 33 62 35
REMARK SMILES IDX 84 36 49 37 32 38 33 39 42 40 34 41 35 42 41 43 43 44 36 45
REMARK SMILES IDX 37 46 38 47 39 48 40 49 66 50 67 51 76 52 68 53 69 54 75 55
REMARK SMILES IDX 77 56 70 57 71 58 72 59 73 60 74 61 50 62 51 63 60 64 52 65
REMARK SMILES IDX 53 66 59 67 61 68 54 69 55 70 56 71 57 72 58 73 5 74 6 75
REMARK SMILES IDX 7 76 8 77 9 79 10 80 11 81 15 82 12 83 14 84 13 85 16 86
REMARK SMILES IDX 17 87 18 88 22 89 19 90 21 91 20 92
REMARK H PARENT 3 5 82 23 48 34 7 78
REMARK Flexibility Score: inf
ROOT
ATOM      1  C   UNL     1       4.500  -0.963  -0.789  1.00  0.00     0.118 C 
ENDROOT
BRANCH   1   2
ATOM      2  N   UNL     1       3.066  -0.697  -0.815  1.00  0.00    -0.352 N 
ATOM      3  O   UNL     1       1.109   0.237  -0.218  1.00  0.00    -0.269 OA
ATOM      4  C   UNL     1       2.330   0.328  -0.262  1.00  0.00     0.251 C 
ATOM      5  H   UNL     1       2.535  -1.362  -1.311  1.00  0.00     0.163 HD
BRANCH   4   6
ATOM      6  C   UNL     1       3.007   1.520   0.296  1.00  0.00     0.039 A 
ATOM      7  C   UNL     1       4.115   2.070  -0.344  1.00  0.00     0.014 A 
ATOM      8  C   UNL     1       2.514   2.116   1.461  1.00  0.00     0.014 A 
ATOM      9  C   UNL     1       4.850   3.068   0.279  1.00  0.00     0.010 A 
ATOM     10  C   UNL     1       3.180   3.214   2.018  1.00  0.00     0.010 A 
ATOM     11  C   UNL     1       4.380   3.673   1.454  1.00  0.00    -0.014 A 
BRANCH  11  12
ATOM     12  C   UNL     1       5.142   4.816   2.023  1.00  0.00     0.031 A 
ATOM     13  C   UNL     1       5.740   4.747   3.401  1.00  0.00     0.074 A 
ATOM     14  C   UNL     1       5.337   5.904   1.251  1.00  0.00     0.049 A 
ATOM     15  N   UNL     1       6.469   5.637   4.026  1.00  0.00    -0.248 NA
ATOM     16  C   UNL     1       5.481   3.530   4.186  1.00  0.00     0.031 C 
ATOM     17  C   UNL     1       4.797   6.084  -0.101  1.00  0.00     0.029 A 
ATOM     18  N   UNL     1       6.066   7.044   1.467  1.00  0.00    -0.354 N 
ATOM     19  C   UNL     1       6.726   5.106   5.285  1.00  0.00     0.074 A 
ATOM     20  C   UNL     1       6.060   3.823   5.343  1.00  0.00     0.031 C 
ATOM     21  C   UNL     1       5.276   7.222  -0.620  1.00  0.00     0.029 A 
ATOM     22  C   UNL     1       6.088   7.894   0.386  1.00  0.00     0.049 A 
ATOM     23  H   UNL     1       6.529   7.237   2.314  1.00  0.00     0.167 HD
ATOM     24  C   UNL     1       7.454   5.642   6.296  1.00  0.00     0.037 A 
ATOM     25  C   UNL     1       6.685   9.089   0.222  1.00  0.00     0.037 A 
ATOM     26  C   UNL     1       8.131   6.911   6.216  1.00  0.00     0.049 A 
ATOM     27  C   UNL     1       7.481   9.660   1.357  1.00  0.00     0.074 A 
ATOM     28  C   UNL     1       8.921   7.529   7.171  1.00  0.00     0.029 A 
ATOM     29  N   UNL     1       8.099   7.760   5.118  1.00  0.00    -0.354 N 
ATOM     30  N   UNL     1       7.724   9.137   2.535  1.00  0.00    -0.248 NA
ATOM     31  C   UNL     1       8.076  10.984   1.146  1.00  0.00     0.031 C 
ATOM     32  C   UNL     1       9.329   8.769   6.667  1.00  0.00     0.029 A 
ATOM     33  C   UNL     1       8.837   8.904   5.378  1.00  0.00     0.049 A 
ATOM     34  H   UNL     1       7.621   7.577   4.277  1.00  0.00     0.167 HD
ATOM     35  C   UNL     1       8.518  10.060   3.202  1.00  0.00     0.074 A 
ATOM     36  C   UNL     1       8.724  11.168   2.288  1.00  0.00     0.031 C 
ATOM     37  C   UNL     1       9.032   9.996   4.455  1.00  0.00     0.037 A 
BRANCH  24  38
ATOM     38  C   UNL     1       7.521   4.871   7.589  1.00  0.00     0.058 A 
ATOM     39  C   UNL     1       8.244   3.672   7.706  1.00  0.00     0.135 A 
ATOM     40  C   UNL     1       6.857   5.346   8.732  1.00  0.00     0.135 A 
ATOM     41  F   UNL     1       8.887   3.164   6.643  1.00  0.00    -0.206 F 
ATOM     42  C   UNL     1       8.270   2.951   8.897  1.00  0.00     0.059 A 
ATOM     43  C   UNL     1       6.892   4.655   9.941  1.00  0.00     0.059 A 
ATOM     44  F   UNL     1       6.155   6.488   8.680  1.00  0.00    -0.206 F 
ATOM     45  C   UNL     1       7.583   3.447  10.007  1.00  0.00     0.060 A 
BRANCH  45  46
ATOM     46  S   UNL     1       7.597   2.483  11.534  1.00  0.00     0.124 S 
ATOM     47  O   UNL     1       6.682   1.396  11.198  1.00  0.00    -0.237 OA
ATOM     48  O   UNL     1       9.002   2.111  11.658  1.00  0.00    -0.237 OA
ATOM     49  O   UNL     1       7.110   3.427  12.536  1.00  0.00    -0.744 OA
ENDBRANCH  45  46
ENDBRANCH  24  38
BRANCH  25  50
ATOM     50  C   UNL     1       6.551   9.803  -1.074  1.00  0.00     0.058 A 
ATOM     51  C   UNL     1       7.643   9.925  -1.946  1.00  0.00     0.135 A 
ATOM     52  C   UNL     1       5.317  10.326  -1.493  1.00  0.00     0.135 A 
ATOM     53  F   UNL     1       8.844   9.445  -1.589  1.00  0.00    -0.206 F 
ATOM     54  C   UNL     1       7.517  10.540  -3.187  1.00  0.00     0.059 A 
ATOM     55  C   UNL     1       5.160  10.920  -2.740  1.00  0.00     0.059 A 
ATOM     56  F   UNL     1       4.238  10.216  -0.703  1.00  0.00    -0.206 F 
ATOM     57  C   UNL     1       6.269  11.028  -3.578  1.00  0.00     0.060 A 
BRANCH  57  58
ATOM     58  S   UNL     1       6.098  11.756  -5.222  1.00  0.00     0.124 S 
ATOM     59  O   UNL     1       6.762  13.041  -5.043  1.00  0.00    -0.237 OA
ATOM     60  O   UNL     1       6.796  10.786  -6.061  1.00  0.00    -0.237 OA
ATOM     61  O   UNL     1       4.652  11.812  -5.415  1.00  0.00    -0.744 OA
ENDBRANCH  57  58
ENDBRANCH  25  50
BRANCH  37  62
ATOM     62  C   UNL     1       9.899  11.141   4.895  1.00  0.00     0.058 A 
ATOM     63  C   UNL     1       9.361  12.397   5.213  1.00  0.00     0.135 A 
ATOM     64  C   UNL     1      11.286  10.968   5.024  1.00  0.00     0.135 A 
ATOM     65  F   UNL     1       8.041  12.616   5.097  1.00  0.00    -0.206 F 
ATOM     66  C   UNL     1      10.172  13.452   5.618  1.00  0.00     0.059 A 
ATOM     67  C   UNL     1      12.113  12.000   5.452  1.00  0.00     0.059 A 
ATOM     68  F   UNL     1      11.849   9.783   4.739  1.00  0.00    -0.206 F 
ATOM     69  C   UNL     1      11.548  13.244   5.733  1.00  0.00     0.060 A 
BRANCH  69  70
ATOM     70  S   UNL     1      12.590  14.613   6.278  1.00  0.00     0.124 S 
ATOM     71  O   UNL     1      12.648  15.435   5.074  1.00  0.00    -0.237 OA
ATOM     72  O   UNL     1      11.823  15.168   7.389  1.00  0.00    -0.237 OA
ATOM     73  O   UNL     1      13.840  13.958   6.653  1.00  0.00    -0.744 OA
ENDBRANCH  69  70
ENDBRANCH  37  62
ENDBRANCH  11  12
ENDBRANCH   4   6
ENDBRANCH   1   2
BRANCH   1  74
ATOM     74  C   UNL     1       4.884  -1.972   0.279  1.00  0.00     0.042 C 
BRANCH  74  75
ATOM     75  C   UNL     1       4.401  -3.378  -0.024  1.00  0.00     0.117 C 
BRANCH  75  76
ATOM     76  N   UNL     1       5.096  -3.982  -1.144  1.00  0.00    -0.356 N 
ATOM     77  C   UNL     1       5.665  -5.194  -1.350  1.00  0.00     0.224 C 
ATOM     78  H   UNL     1       5.170  -3.383  -1.921  1.00  0.00     0.163 HD
ATOM     79  O   UNL     1       6.074  -5.379  -2.504  1.00  0.00    -0.275 OA
BRANCH  77  80
ATOM     80  C   UNL     1       5.926  -6.241  -0.248  1.00  0.00     0.092 C 
ATOM     81  C   UNL     1       6.377  -7.555  -0.938  1.00  0.00     0.014 C 
ATOM     82  C   UNL     1       4.817  -6.511   0.792  1.00  0.00     0.064 C 
ATOM     83  C   UNL     1       6.706  -8.682   0.033  1.00  0.00     0.001 C 
ATOM     84  C   UNL     1       5.185  -7.668   1.736  1.00  0.00     0.015 C 
ATOM     85  C   UNL     1       5.571  -8.945   1.008  1.00  0.00     0.001 C 
BRANCH  82  86
ATOM     86  S   UNL     1       3.183  -6.820  -0.005  1.00  0.00    -0.122 SA
BRANCH  86  87
ATOM     87  C   UNL     1       1.967  -6.189   1.146  1.00  0.00     0.011 A 
ATOM     88  C   UNL     1       2.220  -5.692   2.423  1.00  0.00     0.035 A 
ATOM     89  C   UNL     1       0.642  -6.211   0.701  1.00  0.00     0.035 A 
ATOM     90  C   UNL     1       1.151  -5.252   3.191  1.00  0.00     0.112 A 
ATOM     91  C   UNL     1      -0.359  -5.755   1.542  1.00  0.00     0.112 A 
ATOM     92  N   UNL     1      -0.133  -5.279   2.781  1.00  0.00    -0.265 NA
ENDBRANCH  86  87
ENDBRANCH  82  86
ENDBRANCH  77  80
ENDBRANCH  75  76
ENDBRANCH  74  75
ENDBRANCH   1  74
TORSDOF 15
