REMARK SMILES O=C(NC1(C(=O)NCCCNC(=O)c2ccc(-c3c4nc(c(-c5c(F)cc(S(=O)(=O)[O-])cc5F)c5ccc([nH]5)c(-c5c(F)cc(S(=O)(=O)[O-])cc5F)c5nc(c(-c6c(F)cc(S(=O)(=O)[O-])cc6F)c6ccc3[nH]6)C=C5)C=C4)cc2)Cc2ccccc2C1)OCC1c2ccccc2-c2ccccc21
REMARK SMILES IDX 8 1 7 2 5 3 6 4 4 6 80 7 87 8 81 9 86 10 82 11 85 12 83 13
REMARK SMILES IDX 84 14 3 15 1 16 2 17 88 19 89 20 90 21 91 22 102 23 92 24
REMARK SMILES IDX 96 25 97 26 101 27 93 28 95 29 98 30 100 31 94 32 99 33 9 34
REMARK SMILES IDX 10 35 11 36 12 37 13 39 14 40 15 41 79 42 16 43 78 44 17 45
REMARK SMILES IDX 18 46 19 47 72 48 20 49 77 50 71 51 73 52 21 53 76 54 70 55
REMARK SMILES IDX 69 56 22 58 56 59 35 60 55 61 36 62 39 63 54 64 74 65 37 66
REMARK SMILES IDX 38 67 53 69 75 70 40 71 23 72 24 73 33 74 25 75 26 76 32 77
REMARK SMILES IDX 34 78 27 79 28 80 29 81 30 82 31 83 57 84 58 85 67 86 59 87
REMARK SMILES IDX 60 88 66 89 68 90 61 91 62 92 63 93 64 94 65 95 41 96 42 97
REMARK SMILES IDX 51 98 43 99 44 100 50 101 52 102 45 103 46 104 47 105 48 106
REMARK SMILES IDX 49 107
REMARK H PARENT 7 5 3 18 11 38 73 57 39 68
REMARK Flexibility Score: inf
ROOT
ATOM      1  C   UNL     1       8.021   2.502  -0.061  1.00  0.00     0.117 C 
ENDROOT
BRANCH   1   2
ATOM      2  N   UNL     1       6.341   2.560  -0.020  1.00  0.00    -0.354 N 
ATOM      3  C   UNL     1       4.725   1.823  -0.836  1.00  0.00     0.246 C 
ATOM      4  O   UNL     1       3.567   2.405  -0.931  1.00  0.00    -0.272 OA
ATOM      5  H   UNL     1       6.071   3.205   0.673  1.00  0.00     0.163 HD
BRANCH   3   6
ATOM      6  C   UNL     1       4.328   0.241  -1.712  1.00  0.00     0.130 C 
ATOM      7  C   UNL     1       4.681  -1.282  -1.729  1.00  0.00     0.075 C 
ATOM      8  C   UNL     1       4.448   0.516  -3.286  1.00  0.00     0.075 C 
ATOM      9  C   UNL     1       5.785  -1.367  -2.718  1.00  0.00    -0.042 A 
ATOM     10  C   UNL     1       5.673  -0.322  -3.633  1.00  0.00    -0.042 A 
ATOM     11  C   UNL     1       6.895  -2.189  -2.634  1.00  0.00     0.004 A 
ATOM     12  C   UNL     1       6.732  -0.058  -4.487  1.00  0.00     0.004 A 
ATOM     13  C   UNL     1       7.995  -1.862  -3.414  1.00  0.00     0.000 A 
ATOM     14  C   UNL     1       7.916  -0.802  -4.330  1.00  0.00     0.000 A 
BRANCH   6  15
ATOM     15  N   UNL     1       2.840   0.220  -1.261  1.00  0.00    -0.306 N 
ATOM     16  O   UNL     1       1.367   0.470   0.468  1.00  0.00    -0.225 OA
ATOM     17  C   UNL     1       2.353  -0.088   0.001  1.00  0.00     0.408 C 
ATOM     18  H   UNL     1       2.171   0.451  -1.945  1.00  0.00     0.168 HD
BRANCH  17  19
ATOM     19  O   UNL     1       3.000  -1.080   0.677  1.00  0.00    -0.449 OA
BRANCH  19  20
ATOM     20  C   UNL     1       3.715  -0.706   1.929  1.00  0.00     0.248 C 
BRANCH  20  21
ATOM     21  C   UNL     1       5.163  -0.310   1.550  1.00  0.00     0.088 C 
ATOM     22  C   UNL     1       6.478  -1.088   1.246  1.00  0.00    -0.029 A 
ATOM     23  C   UNL     1       5.406   1.079   1.005  1.00  0.00    -0.029 A 
ATOM     24  C   UNL     1       6.958  -2.246   1.834  1.00  0.00     0.005 A 
ATOM     25  C   UNL     1       7.191  -0.510   0.120  1.00  0.00    -0.014 A 
ATOM     26  C   UNL     1       6.432   0.635  -0.427  1.00  0.00    -0.014 A 
ATOM     27  C   UNL     1       4.618   2.686   1.146  1.00  0.00     0.005 A 
ATOM     28  C   UNL     1       8.225  -2.711   1.445  1.00  0.00     0.000 A 
ATOM     29  C   UNL     1       8.474  -0.935  -0.192  1.00  0.00     0.009 A 
ATOM     30  C   UNL     1       6.545   1.798  -1.843  1.00  0.00     0.009 A 
ATOM     31  C   UNL     1       4.825   3.921  -0.198  1.00  0.00     0.000 A 
ATOM     32  C   UNL     1       9.001  -2.025   0.496  1.00  0.00     0.001 A 
ATOM     33  C   UNL     1       5.730   3.446  -1.716  1.00  0.00     0.001 A 
ENDBRANCH  20  21
ENDBRANCH  19  20
ENDBRANCH  17  19
ENDBRANCH   6  15
ENDBRANCH   3   6
ENDBRANCH   1   2
BRANCH   1  34
ATOM     34  C   UNL     1       8.706   3.444  -1.070  1.00  0.00     0.042 C 
BRANCH  34  35
ATOM     35  C   UNL     1       9.195   4.692  -0.387  1.00  0.00     0.118 C 
BRANCH  35  36
ATOM     36  N   UNL     1      10.314   4.367   0.495  1.00  0.00    -0.352 N 
ATOM     37  C   UNL     1      11.609   4.018   0.166  1.00  0.00     0.251 C 
ATOM     38  H   UNL     1      10.117   4.402   1.459  1.00  0.00     0.163 HD
ATOM     39  O   UNL     1      12.269   3.341   0.948  1.00  0.00    -0.269 OA
BRANCH  37  40
ATOM     40  C   UNL     1      12.180   4.435  -1.135  1.00  0.00     0.039 A 
ATOM     41  C   UNL     1      13.158   3.670  -1.778  1.00  0.00     0.014 A 
ATOM     42  C   UNL     1      11.749   5.621  -1.717  1.00  0.00     0.014 A 
ATOM     43  C   UNL     1      13.649   4.081  -3.023  1.00  0.00     0.010 A 
ATOM     44  C   UNL     1      12.079   5.914  -3.024  1.00  0.00     0.010 A 
ATOM     45  C   UNL     1      13.083   5.189  -3.672  1.00  0.00    -0.014 A 
BRANCH  45  46
ATOM     46  C   UNL     1      13.553   5.707  -4.982  1.00  0.00     0.031 A 
ATOM     47  C   UNL     1      13.963   7.158  -5.086  1.00  0.00     0.074 A 
ATOM     48  C   UNL     1      13.486   4.934  -6.081  1.00  0.00     0.049 A 
ATOM     49  N   UNL     1      14.189   7.882  -6.150  1.00  0.00    -0.248 NA
ATOM     50  C   UNL     1      14.062   7.913  -3.822  1.00  0.00     0.031 C 
ATOM     51  C   UNL     1      13.047   3.538  -6.112  1.00  0.00     0.029 A 
ATOM     52  N   UNL     1      13.759   5.226  -7.393  1.00  0.00    -0.354 N 
ATOM     53  C   UNL     1      14.412   9.173  -5.683  1.00  0.00     0.074 A 
ATOM     54  C   UNL     1      14.195   9.155  -4.257  1.00  0.00     0.031 C 
ATOM     55  C   UNL     1      13.098   3.089  -7.376  1.00  0.00     0.029 A 
ATOM     56  C   UNL     1      13.514   4.180  -8.252  1.00  0.00     0.049 A 
ATOM     57  H   UNL     1      14.099   6.100  -7.692  1.00  0.00     0.167 HD
ATOM     58  C   UNL     1      14.802  10.270  -6.374  1.00  0.00     0.037 A 
ATOM     59  C   UNL     1      13.589   4.118  -9.595  1.00  0.00     0.037 A 
ATOM     60  C   UNL     1      15.052  10.257  -7.789  1.00  0.00     0.049 A 
ATOM     61  C   UNL     1      14.029   5.340 -10.354  1.00  0.00     0.074 A 
ATOM     62  C   UNL     1      15.519  11.281  -8.590  1.00  0.00     0.029 A 
ATOM     63  N   UNL     1      14.849   9.159  -8.614  1.00  0.00    -0.354 N 
ATOM     64  N   UNL     1      14.306   6.538  -9.893  1.00  0.00    -0.248 NA
ATOM     65  C   UNL     1      14.174   5.208 -11.809  1.00  0.00     0.031 C 
ATOM     66  C   UNL     1      15.534  10.823  -9.910  1.00  0.00     0.029 A 
ATOM     67  C   UNL     1      15.153   9.489  -9.922  1.00  0.00     0.049 A 
ATOM     68  H   UNL     1      14.535   8.275  -8.313  1.00  0.00     0.167 HD
ATOM     69  C   UNL     1      14.688   7.293 -10.995  1.00  0.00     0.074 A 
ATOM     70  C   UNL     1      14.607   6.416 -12.146  1.00  0.00     0.031 C 
ATOM     71  C   UNL     1      15.079   8.591 -11.050  1.00  0.00     0.037 A 
BRANCH  58  72
ATOM     72  C   UNL     1      14.977  11.555  -5.606  1.00  0.00     0.058 A 
ATOM     73  C   UNL     1      15.953  11.698  -4.603  1.00  0.00     0.135 A 
ATOM     74  C   UNL     1      14.148  12.658  -5.864  1.00  0.00     0.135 A 
ATOM     75  F   UNL     1      16.769  10.675  -4.301  1.00  0.00    -0.206 F 
ATOM     76  C   UNL     1      16.057  12.859  -3.845  1.00  0.00     0.059 A 
ATOM     77  C   UNL     1      14.264  13.847  -5.148  1.00  0.00     0.059 A 
ATOM     78  F   UNL     1      13.200  12.586  -6.811  1.00  0.00    -0.206 F 
ATOM     79  C   UNL     1      15.204  13.927  -4.122  1.00  0.00     0.060 A 
BRANCH  79  80
ATOM     80  S   UNL     1      15.333  15.414  -3.109  1.00  0.00     0.124 S 
ATOM     81  O   UNL     1      14.793  14.945  -1.836  1.00  0.00    -0.237 OA
ATOM     82  O   UNL     1      16.768  15.680  -3.129  1.00  0.00    -0.237 OA
ATOM     83  O   UNL     1      14.508  16.385  -3.820  1.00  0.00    -0.744 OA
ENDBRANCH  79  80
ENDBRANCH  58  72
BRANCH  59  84
ATOM     84  C   UNL     1      13.248   2.846 -10.287  1.00  0.00     0.058 A 
ATOM     85  C   UNL     1      14.240   2.058 -10.889  1.00  0.00     0.135 A 
ATOM     86  C   UNL     1      11.931   2.359 -10.301  1.00  0.00     0.135 A 
ATOM     87  F   UNL     1      15.514   2.480 -10.906  1.00  0.00    -0.206 F 
ATOM     88  C   UNL     1      13.940   0.836 -11.482  1.00  0.00     0.059 A 
ATOM     89  C   UNL     1      11.611   1.127 -10.861  1.00  0.00     0.059 A 
ATOM     90  F   UNL     1      10.948   3.064  -9.720  1.00  0.00    -0.206 F 
ATOM     91  C   UNL     1      12.623   0.373 -11.452  1.00  0.00     0.060 A 
BRANCH  91  92
ATOM     92  S   UNL     1      12.262  -1.252 -12.151  1.00  0.00     0.124 S 
ATOM     93  O   UNL     1      12.456  -1.010 -13.576  1.00  0.00    -0.237 OA
ATOM     94  O   UNL     1      13.265  -2.090 -11.502  1.00  0.00    -0.237 OA
ATOM     95  O   UNL     1      10.884  -1.499 -11.734  1.00  0.00    -0.744 OA
ENDBRANCH  91  92
ENDBRANCH  59  84
BRANCH  71  96
ATOM     96  C   UNL     1      15.501   9.144 -12.382  1.00  0.00     0.058 A 
ATOM     97  C   UNL     1      14.573   9.440 -13.391  1.00  0.00     0.135 A 
ATOM     98  C   UNL     1      16.844   9.496 -12.598  1.00  0.00     0.135 A 
ATOM     99  F   UNL     1      13.280   9.116 -13.237  1.00  0.00    -0.206 F 
ATOM    100  C   UNL     1      14.962  10.070 -14.568  1.00  0.00     0.059 A 
ATOM    101  C   UNL     1      17.249  10.155 -13.752  1.00  0.00     0.059 A 
ATOM    102  F   UNL     1      17.769   9.241 -11.658  1.00  0.00    -0.206 F 
ATOM    103  C   UNL     1      16.300  10.437 -14.732  1.00  0.00     0.060 A 
BRANCH 103 104
ATOM    104  S   UNL     1      16.771  11.334 -16.226  1.00  0.00     0.124 S 
ATOM    105  O   UNL     1      16.633  10.300 -17.246  1.00  0.00    -0.237 OA
ATOM    106  O   UNL     1      15.781  12.405 -16.268  1.00  0.00    -0.237 OA
ATOM    107  O   UNL     1      18.139  11.762 -15.949  1.00  0.00    -0.744 OA
ENDBRANCH 103 104
ENDBRANCH  71  96
ENDBRANCH  45  46
ENDBRANCH  37  40
ENDBRANCH  35  36
ENDBRANCH  34  35
ENDBRANCH   1  34
TORSDOF 17
