REMARK SMILES O=C(NCCCNC(=O)c1ccc(N2C(=O)[C@@H]3N=NC(c4ccccc4)=C3[C@H]2c2cccc(Br)c2)cc1)c1ccc(-c2c3nc(c(-c4c(F)cc(S(=O)(=O)[O-])cc4F)c4ccc([nH]4)c(-c4c(F)cc(S(=O)(=O)[O-])cc4F)c4nc(c(-c5c(F)cc(S(=O)(=O)[O-])cc5F)c5ccc2[nH]5)C=C4)C=C3)cc1
REMARK SMILES IDX 4 1 3 2 1 3 2 4 38 6 39 7 103 8 40 9 102 10 41 11 42 12
REMARK SMILES IDX 43 13 96 14 44 15 101 16 95 17 97 18 45 19 100 20 94 21
REMARK SMILES IDX 93 22 46 24 80 25 59 26 79 27 60 28 63 29 78 30 98 31 61 32
REMARK SMILES IDX 62 33 77 35 99 36 64 37 47 38 48 39 57 40 49 41 50 42 56 43
REMARK SMILES IDX 58 44 51 45 52 46 53 47 54 48 55 49 81 50 82 51 91 52 83 53
REMARK SMILES IDX 84 54 90 55 92 56 85 57 86 58 87 59 88 60 89 61 65 62 66 63
REMARK SMILES IDX 75 64 67 65 68 66 74 67 76 68 69 69 70 70 71 71 72 72 73 73
REMARK SMILES IDX 5 74 6 75 7 76 8 77 9 79 10 80 11 81 37 82 12 83 36 84 13 85
REMARK SMILES IDX 14 86 15 87 28 88 17 89 16 90 27 91 18 92 20 93 19 94 29 95
REMARK SMILES IDX 30 96 35 97 31 98 33 99 32 100 34 101 21 102 22 103 26 104
REMARK SMILES IDX 23 105 25 106 24 107
REMARK H PARENT 3 5 97 23 63 34 7 78
REMARK Flexibility Score: inf
ROOT
ATOM      1  C   UNL     1       4.611  -1.102   0.046  1.00  0.00     0.118 C 
ENDROOT
BRANCH   1   2
ATOM      2  N   UNL     1       3.203  -0.996  -0.283  1.00  0.00    -0.352 N 
ATOM      3  O   UNL     1       1.192  -0.189  -0.700  1.00  0.00    -0.269 OA
ATOM      4  C   UNL     1       2.223  -0.075  -0.031  1.00  0.00     0.251 C 
ATOM      5  H   UNL     1       2.878  -1.762  -0.809  1.00  0.00     0.163 HD
BRANCH   4   6
ATOM      6  C   UNL     1       2.276   0.967   1.030  1.00  0.00     0.039 A 
ATOM      7  C   UNL     1       3.428   1.429   1.668  1.00  0.00     0.014 A 
ATOM      8  C   UNL     1       1.031   1.496   1.422  1.00  0.00     0.014 A 
ATOM      9  C   UNL     1       3.330   2.325   2.734  1.00  0.00     0.010 A 
ATOM     10  C   UNL     1       0.928   2.395   2.477  1.00  0.00     0.010 A 
ATOM     11  C   UNL     1       2.078   2.787   3.155  1.00  0.00    -0.014 A 
BRANCH  11  12
ATOM     12  C   UNL     1       2.022   3.870   4.140  1.00  0.00     0.031 A 
ATOM     13  C   UNL     1       2.556   5.160   3.616  1.00  0.00     0.074 A 
ATOM     14  C   UNL     1       1.381   3.785   5.326  1.00  0.00     0.049 A 
ATOM     15  N   UNL     1       3.576   5.835   4.035  1.00  0.00    -0.248 NA
ATOM     16  C   UNL     1       1.972   5.687   2.368  1.00  0.00     0.031 C 
ATOM     17  C   UNL     1       0.572   2.664   5.811  1.00  0.00     0.029 A 
ATOM     18  N   UNL     1       1.215   4.722   6.309  1.00  0.00    -0.354 N 
ATOM     19  C   UNL     1       3.596   6.998   3.266  1.00  0.00     0.074 A 
ATOM     20  C   UNL     1       2.744   6.748   2.136  1.00  0.00     0.031 C 
ATOM     21  C   UNL     1      -0.171   3.070   6.865  1.00  0.00     0.029 A 
ATOM     22  C   UNL     1       0.181   4.440   7.203  1.00  0.00     0.049 A 
ATOM     23  H   UNL     1       1.777   5.528   6.380  1.00  0.00     0.167 HD
ATOM     24  C   UNL     1       4.061   8.171   3.780  1.00  0.00     0.037 A 
ATOM     25  C   UNL     1      -0.391   5.283   8.107  1.00  0.00     0.037 A 
ATOM     26  C   UNL     1       4.915   7.934   4.918  1.00  0.00     0.049 A 
ATOM     27  C   UNL     1       0.559   6.402   8.330  1.00  0.00     0.074 A 
ATOM     28  C   UNL     1       6.059   7.193   5.149  1.00  0.00     0.029 A 
ATOM     29  N   UNL     1       4.415   8.239   6.159  1.00  0.00    -0.354 N 
ATOM     30  N   UNL     1       1.711   6.275   8.925  1.00  0.00    -0.248 NA
ATOM     31  C   UNL     1       0.409   7.592   7.508  1.00  0.00     0.031 C 
ATOM     32  C   UNL     1       5.916   6.693   6.477  1.00  0.00     0.029 A 
ATOM     33  C   UNL     1       4.734   7.212   7.003  1.00  0.00     0.049 A 
ATOM     34  H   UNL     1       3.915   9.053   6.398  1.00  0.00     0.167 HD
ATOM     35  C   UNL     1       2.567   7.095   8.206  1.00  0.00     0.074 A 
ATOM     36  C   UNL     1       1.690   7.957   7.417  1.00  0.00     0.031 C 
ATOM     37  C   UNL     1       3.896   6.801   8.106  1.00  0.00     0.037 A 
BRANCH  24  38
ATOM     38  C   UNL     1       3.388   9.515   3.547  1.00  0.00     0.058 A 
ATOM     39  C   UNL     1       3.972  10.674   4.104  1.00  0.00     0.135 A 
ATOM     40  C   UNL     1       2.059   9.675   3.089  1.00  0.00     0.135 A 
ATOM     41  F   UNL     1       5.232  10.649   4.567  1.00  0.00    -0.206 F 
ATOM     42  C   UNL     1       3.257  11.857   4.296  1.00  0.00     0.059 A 
ATOM     43  C   UNL     1       1.348  10.861   3.221  1.00  0.00     0.059 A 
ATOM     44  F   UNL     1       1.341   8.671   2.576  1.00  0.00    -0.206 F 
ATOM     45  C   UNL     1       1.937  11.932   3.868  1.00  0.00     0.060 A 
BRANCH  45  46
ATOM     46  S   UNL     1       0.976  13.416   4.202  1.00  0.00     0.124 S 
ATOM     47  O   UNL     1       0.821  13.338   5.650  1.00  0.00    -0.237 OA
ATOM     48  O   UNL     1       1.862  14.464   3.706  1.00  0.00    -0.237 OA
ATOM     49  O   UNL     1      -0.240  13.210   3.421  1.00  0.00    -0.744 OA
ENDBRANCH  45  46
ENDBRANCH  24  38
BRANCH  25  50
ATOM     50  C   UNL     1      -1.813   5.365   8.557  1.00  0.00     0.058 A 
ATOM     51  C   UNL     1      -2.198   6.191   9.635  1.00  0.00     0.135 A 
ATOM     52  C   UNL     1      -2.866   4.869   7.764  1.00  0.00     0.135 A 
ATOM     53  F   UNL     1      -1.268   6.728  10.441  1.00  0.00    -0.206 F 
ATOM     54  C   UNL     1      -3.533   6.549   9.871  1.00  0.00     0.059 A 
ATOM     55  C   UNL     1      -4.203   5.200   7.989  1.00  0.00     0.059 A 
ATOM     56  F   UNL     1      -2.624   4.119   6.680  1.00  0.00    -0.206 F 
ATOM     57  C   UNL     1      -4.529   6.064   9.026  1.00  0.00     0.060 A 
BRANCH  57  58
ATOM     58  S   UNL     1      -6.229   6.661   9.204  1.00  0.00     0.124 S 
ATOM     59  O   UNL     1      -6.641   6.034  10.454  1.00  0.00    -0.237 OA
ATOM     60  O   UNL     1      -6.048   8.108   9.245  1.00  0.00    -0.237 OA
ATOM     61  O   UNL     1      -6.893   6.154   8.005  1.00  0.00    -0.744 OA
ENDBRANCH  57  58
ENDBRANCH  25  50
BRANCH  37  62
ATOM     62  C   UNL     1       4.490   5.829   9.089  1.00  0.00     0.058 A 
ATOM     63  C   UNL     1       4.110   4.483   9.231  1.00  0.00     0.135 A 
ATOM     64  C   UNL     1       5.585   6.270   9.849  1.00  0.00     0.135 A 
ATOM     65  F   UNL     1       3.146   3.950   8.466  1.00  0.00    -0.206 F 
ATOM     66  C   UNL     1       4.757   3.632  10.130  1.00  0.00     0.059 A 
ATOM     67  C   UNL     1       6.266   5.431  10.722  1.00  0.00     0.059 A 
ATOM     68  F   UNL     1       6.035   7.529   9.715  1.00  0.00    -0.206 F 
ATOM     69  C   UNL     1       5.833   4.117  10.873  1.00  0.00     0.060 A 
BRANCH  69  70
ATOM     70  S   UNL     1       6.700   3.006  12.002  1.00  0.00     0.124 S 
ATOM     71  O   UNL     1       5.717   2.818  13.064  1.00  0.00    -0.237 OA
ATOM     72  O   UNL     1       6.959   1.840  11.163  1.00  0.00    -0.237 OA
ATOM     73  O   UNL     1       7.890   3.765  12.382  1.00  0.00    -0.744 OA
ENDBRANCH  69  70
ENDBRANCH  37  62
ENDBRANCH  11  12
ENDBRANCH   4   6
ENDBRANCH   1   2
BRANCH   1  74
ATOM     74  C   UNL     1       4.938  -1.677   1.424  1.00  0.00     0.042 C 
BRANCH  74  75
ATOM     75  C   UNL     1       4.404  -3.083   1.706  1.00  0.00     0.118 C 
BRANCH  75  76
ATOM     76  N   UNL     1       4.965  -4.099   0.831  1.00  0.00    -0.352 N 
ATOM     77  C   UNL     1       5.654  -5.249   1.124  1.00  0.00     0.251 C 
ATOM     78  H   UNL     1       4.829  -3.936  -0.130  1.00  0.00     0.163 HD
ATOM     79  O   UNL     1       6.144  -5.903   0.203  1.00  0.00    -0.269 OA
BRANCH  77  80
ATOM     80  C   UNL     1       5.858  -5.713   2.520  1.00  0.00     0.039 A 
ATOM     81  C   UNL     1       7.152  -6.081   2.888  1.00  0.00     0.016 A 
ATOM     82  C   UNL     1       4.814  -5.869   3.443  1.00  0.00     0.016 A 
ATOM     83  C   UNL     1       7.408  -6.526   4.188  1.00  0.00     0.027 A 
ATOM     84  C   UNL     1       5.073  -6.331   4.754  1.00  0.00     0.027 A 
ATOM     85  C   UNL     1       6.378  -6.638   5.143  1.00  0.00     0.045 A 
BRANCH  85  86
ATOM     86  N   UNL     1       6.707  -6.966   6.504  1.00  0.00    -0.299 N 
ATOM     87  C   UNL     1       7.896  -6.328   7.005  1.00  0.00     0.259 C 
ATOM     88  C   UNL     1       6.646  -8.376   6.968  1.00  0.00     0.152 C 
ATOM     89  C   UNL     1       8.670  -7.338   7.791  1.00  0.00     0.248 C 
ATOM     90  O   UNL     1       8.270  -5.184   6.759  1.00  0.00    -0.271 OA
ATOM     91  C   UNL     1       8.100  -8.550   7.160  1.00  0.00     0.021 C 
ATOM     92  N   UNL     1      10.098  -7.477   7.464  1.00  0.00    -0.170 NA
ATOM     93  C   UNL     1       9.126  -9.310   6.794  1.00  0.00     0.097 C 
ATOM     94  N   UNL     1      10.315  -8.650   7.032  1.00  0.00    -0.154 NA
BRANCH  88  95
ATOM     95  C   UNL     1       5.923  -8.647   8.310  1.00  0.00    -0.020 A 
ATOM     96  C   UNL     1       6.590  -9.328   9.368  1.00  0.00     0.006 A 
ATOM     97  C   UNL     1       4.573  -8.334   8.522  1.00  0.00     0.022 A 
ATOM     98  C   UNL     1       5.972  -9.647  10.577  1.00  0.00     0.002 A 
ATOM     99  C   UNL     1       3.944  -8.688   9.733  1.00  0.00     0.018 A 
ATOM    100  C   UNL     1       4.637  -9.333  10.758  1.00  0.00     0.016 A 
ATOM    101  Br  UNL     1       2.102  -8.329   9.986  1.00  0.00    -0.051 Br
ENDBRANCH  88  95
BRANCH  93 102
ATOM    102  C   UNL     1       9.148 -10.584   6.085  1.00  0.00     0.002 A 
ATOM    103  C   UNL     1       9.037 -11.790   6.791  1.00  0.00     0.010 A 
ATOM    104  C   UNL     1       9.518 -10.610   4.735  1.00  0.00     0.010 A 
ATOM    105  C   UNL     1       9.388 -12.996   6.176  1.00  0.00     0.001 A 
ATOM    106  C   UNL     1       9.864 -11.816   4.124  1.00  0.00     0.001 A 
ATOM    107  C   UNL     1       9.827 -13.003   4.853  1.00  0.00     0.000 A 
ENDBRANCH  93 102
ENDBRANCH  85  86
ENDBRANCH  77  80
ENDBRANCH  75  76
ENDBRANCH  74  75
ENDBRANCH   1  74
TORSDOF 16
