REMARK SMILES O=C(C[C@H]1C[C@H]2CC[C@@H](C1)[N@H+]2C[C@@H]1CNC(=O)O1)NCCCNC(=O)c1ccc(-c2c3nc(c(-c4c(F)cc(S(=O)(=O)[O-])cc4F)c4ccc([nH]4)c(-c4c(F)cc(S(=O)(=O)[O-])cc4F)c4nc(c(-c5c(F)cc(S(=O)(=O)[O-])cc5F)c5ccc2[nH]5)C=C4)C=C3)cc1
REMARK SMILES IDX 21 1 20 2 19 3 1 4 2 5 3 7 4 8 5 9 10 10 6 11 9 12 7 13
REMARK SMILES IDX 11 14 8 15 12 17 13 18 14 19 18 20 15 21 16 22 17 24 22 25
REMARK SMILES IDX 23 26 24 27 25 29 26 30 27 31 91 32 28 33 90 34 29 35 30 36
REMARK SMILES IDX 31 37 84 38 32 39 89 40 83 41 85 42 33 43 88 44 82 45 81 46
REMARK SMILES IDX 34 48 68 49 47 50 67 51 48 52 51 53 66 54 86 55 49 56 50 57
REMARK SMILES IDX 65 59 87 60 52 61 35 62 36 63 45 64 37 65 38 66 44 67 46 68
REMARK SMILES IDX 39 69 40 70 41 71 42 72 43 73 69 74 70 75 79 76 71 77 72 78
REMARK SMILES IDX 78 79 80 80 73 81 74 82 75 83 76 84 77 85 53 86 54 87 63 88
REMARK SMILES IDX 55 89 56 90 62 91 64 92 57 93 58 94 59 95 60 96 61 97
REMARK H PARENT 19 6 11 16 15 23 23 28 85 47 51 58
REMARK Flexibility Score: inf
ROOT
ATOM      1  C   UNL     1       2.317   2.739   2.547  1.00  0.00     0.042 C 
ENDROOT
BRANCH   1   2
ATOM      2  C   UNL     1       1.903   2.186   1.190  1.00  0.00     0.117 C 
BRANCH   2   3
ATOM      3  N   UNL     1       2.318   0.807   1.048  1.00  0.00    -0.356 N 
ATOM      4  O   UNL     1       0.684   0.143  -0.418  1.00  0.00    -0.275 OA
ATOM      5  C   UNL     1       1.725  -0.082   0.186  1.00  0.00     0.220 C 
ATOM      6  H   UNL     1       3.068   0.488   1.600  1.00  0.00     0.163 HD
BRANCH   5   7
ATOM      7  C   UNL     1       2.547  -1.345  -0.028  1.00  0.00     0.104 C 
BRANCH   7   8
ATOM      8  C   UNL     1       3.652  -1.065  -1.068  1.00  0.00     0.010 C 
ATOM      9  C   UNL     1       4.852  -0.284  -0.466  1.00  0.00     0.069 C 
ATOM     10  C   UNL     1       4.024  -2.321  -1.892  1.00  0.00     0.069 C 
ATOM     11  C   UNL     1       6.196  -1.001  -0.480  1.00  0.00     0.184 C 
ATOM     12  C   UNL     1       5.470  -2.791  -1.746  1.00  0.00     0.184 C 
ATOM     13  C   UNL     1       6.158  -2.182   0.503  1.00  0.00     0.071 C 
ATOM     14  N   UNL     1       6.411  -1.687  -1.730  1.00  0.00    -0.327 N 
ATOM     15  C   UNL     1       5.669  -3.365  -0.333  1.00  0.00     0.071 C 
ATOM     16  H   UNL     1       7.364  -2.045  -1.796  1.00  0.00     0.348 HD
BRANCH  14  17
ATOM     17  C   UNL     1       6.892  -1.017  -2.926  1.00  0.00     0.310 C 
BRANCH  17  18
ATOM     18  C   UNL     1       6.140  -0.082  -3.913  1.00  0.00     0.252 C 
ATOM     19  C   UNL     1       5.675   1.284  -3.452  1.00  0.00     0.170 C 
ATOM     20  O   UNL     1       4.995  -0.695  -4.524  1.00  0.00    -0.438 OA
ATOM     21  N   UNL     1       4.266   1.214  -3.615  1.00  0.00    -0.318 N 
ATOM     22  C   UNL     1       3.905   0.101  -4.317  1.00  0.00     0.407 C 
ATOM     23  H   UNL     1       3.632   1.881  -3.267  1.00  0.00     0.167 HD
ATOM     24  O   UNL     1       2.778  -0.159  -4.692  1.00  0.00    -0.225 OA
ENDBRANCH  17  18
ENDBRANCH  14  17
ENDBRANCH   7   8
ENDBRANCH   5   7
ENDBRANCH   2   3
ENDBRANCH   1   2
BRANCH   1  25
ATOM     25  C   UNL     1       3.828   2.861   2.741  1.00  0.00     0.118 C 
BRANCH  25  26
ATOM     26  N   UNL     1       4.408   4.006   2.059  1.00  0.00    -0.352 N 
ATOM     27  C   UNL     1       5.150   5.043   2.577  1.00  0.00     0.251 C 
ATOM     28  H   UNL     1       4.248   4.045   1.088  1.00  0.00     0.163 HD
ATOM     29  O   UNL     1       5.443   5.996   1.860  1.00  0.00    -0.269 OA
BRANCH  27  30
ATOM     30  C   UNL     1       5.566   5.030   4.000  1.00  0.00     0.039 A 
ATOM     31  C   UNL     1       5.389   6.187   4.763  1.00  0.00     0.014 A 
ATOM     32  C   UNL     1       6.123   3.889   4.585  1.00  0.00     0.014 A 
ATOM     33  C   UNL     1       5.702   6.176   6.125  1.00  0.00     0.010 A 
ATOM     34  C   UNL     1       6.361   3.857   5.960  1.00  0.00     0.010 A 
ATOM     35  C   UNL     1       6.151   4.999   6.748  1.00  0.00    -0.014 A 
BRANCH  35  36
ATOM     36  C   UNL     1       6.386   4.946   8.218  1.00  0.00     0.031 A 
ATOM     37  C   UNL     1       7.760   4.661   8.765  1.00  0.00     0.074 A 
ATOM     38  C   UNL     1       5.348   5.102   9.066  1.00  0.00     0.049 A 
ATOM     39  N   UNL     1       8.142   4.525  10.009  1.00  0.00    -0.248 NA
ATOM     40  C   UNL     1       8.842   4.481   7.785  1.00  0.00     0.031 C 
ATOM     41  C   UNL     1       3.959   5.340   8.666  1.00  0.00     0.029 A 
ATOM     42  N   UNL     1       5.295   5.075  10.438  1.00  0.00    -0.354 N 
ATOM     43  C   UNL     1       9.502   4.238   9.963  1.00  0.00     0.074 A 
ATOM     44  C   UNL     1       9.866   4.163   8.564  1.00  0.00     0.031 C 
ATOM     45  C   UNL     1       3.198   5.462   9.765  1.00  0.00     0.029 A 
ATOM     46  C   UNL     1       4.031   5.266  10.948  1.00  0.00     0.049 A 
ATOM     47  H   UNL     1       6.087   4.932  11.005  1.00  0.00     0.167 HD
ATOM     48  C   UNL     1      10.372   4.074  10.989  1.00  0.00     0.037 A 
ATOM     49  C   UNL     1       3.587   5.271  12.221  1.00  0.00     0.037 A 
ATOM     50  C   UNL     1      10.007   4.164  12.380  1.00  0.00     0.049 A 
ATOM     51  C   UNL     1       4.569   5.064  13.343  1.00  0.00     0.074 A 
ATOM     52  C   UNL     1      10.828   4.065  13.491  1.00  0.00     0.029 A 
ATOM     53  N   UNL     1       8.719   4.364  12.854  1.00  0.00    -0.354 N 
ATOM     54  N   UNL     1       5.863   4.859  13.280  1.00  0.00    -0.248 NA
ATOM     55  C   UNL     1       4.032   5.096  14.711  1.00  0.00     0.031 C 
ATOM     56  C   UNL     1      10.028   4.146  14.636  1.00  0.00     0.029 A 
ATOM     57  C   UNL     1       8.718   4.363  14.241  1.00  0.00     0.049 A 
ATOM     58  H   UNL     1       7.922   4.489  12.290  1.00  0.00     0.167 HD
ATOM     59  C   UNL     1       6.299   4.770  14.598  1.00  0.00     0.074 A 
ATOM     60  C   UNL     1       5.133   4.955  15.436  1.00  0.00     0.031 C 
ATOM     61  C   UNL     1       7.553   4.555  15.069  1.00  0.00     0.037 A 
BRANCH  48  62
ATOM     62  C   UNL     1      11.810   3.779  10.649  1.00  0.00     0.058 A 
ATOM     63  C   UNL     1      12.641   4.739  10.051  1.00  0.00     0.135 A 
ATOM     64  C   UNL     1      12.377   2.534  10.967  1.00  0.00     0.135 A 
ATOM     65  F   UNL     1      12.151   5.942   9.712  1.00  0.00    -0.206 F 
ATOM     66  C   UNL     1      13.972   4.467   9.751  1.00  0.00     0.059 A 
ATOM     67  C   UNL     1      13.715   2.250  10.707  1.00  0.00     0.059 A 
ATOM     68  F   UNL     1      11.631   1.577  11.542  1.00  0.00    -0.206 F 
ATOM     69  C   UNL     1      14.501   3.219  10.085  1.00  0.00     0.060 A 
BRANCH  69  70
ATOM     70  S   UNL     1      16.230   2.884   9.691  1.00  0.00     0.124 S 
ATOM     71  O   UNL     1      16.183   2.786   8.235  1.00  0.00    -0.237 OA
ATOM     72  O   UNL     1      16.904   4.064  10.225  1.00  0.00    -0.237 OA
ATOM     73  O   UNL     1      16.505   1.635  10.395  1.00  0.00    -0.744 OA
ENDBRANCH  69  70
ENDBRANCH  48  62
BRANCH  49  74
ATOM     74  C   UNL     1       2.142   5.493  12.505  1.00  0.00     0.058 A 
ATOM     75  C   UNL     1       1.699   6.666  13.134  1.00  0.00     0.135 A 
ATOM     76  C   UNL     1       1.175   4.539  12.149  1.00  0.00     0.135 A 
ATOM     77  F   UNL     1       2.584   7.605  13.501  1.00  0.00    -0.206 F 
ATOM     78  C   UNL     1       0.353   6.879  13.417  1.00  0.00     0.059 A 
ATOM     79  C   UNL     1      -0.180   4.742  12.395  1.00  0.00     0.059 A 
ATOM     80  F   UNL     1       1.542   3.405  11.532  1.00  0.00    -0.206 F 
ATOM     81  C   UNL     1      -0.580   5.912  13.040  1.00  0.00     0.060 A 
BRANCH  81  82
ATOM     82  S   UNL     1      -2.328   6.220  13.371  1.00  0.00     0.124 S 
ATOM     83  O   UNL     1      -2.381   6.079  14.821  1.00  0.00    -0.237 OA
ATOM     84  O   UNL     1      -2.502   7.574  12.853  1.00  0.00    -0.237 OA
ATOM     85  O   UNL     1      -3.003   5.174  12.609  1.00  0.00    -0.744 OA
ENDBRANCH  81  82
ENDBRANCH  49  74
BRANCH  61  86
ATOM     86  C   UNL     1       7.745   4.550  16.563  1.00  0.00     0.058 A 
ATOM     87  C   UNL     1       7.264   3.507  17.370  1.00  0.00     0.135 A 
ATOM     88  C   UNL     1       8.467   5.580  17.188  1.00  0.00     0.135 A 
ATOM     89  F   UNL     1       6.561   2.500  16.827  1.00  0.00    -0.206 F 
ATOM     90  C   UNL     1       7.468   3.500  18.747  1.00  0.00     0.059 A 
ATOM     91  C   UNL     1       8.712   5.576  18.558  1.00  0.00     0.059 A 
ATOM     92  F   UNL     1       8.959   6.598  16.463  1.00  0.00    -0.206 F 
ATOM     93  C   UNL     1       8.197   4.537  19.331  1.00  0.00     0.060 A 
BRANCH  93  94
ATOM     94  S   UNL     1       8.484   4.496  21.113  1.00  0.00     0.124 S 
ATOM     95  O   UNL     1       7.156   4.804  21.632  1.00  0.00    -0.237 OA
ATOM     96  O   UNL     1       8.946   3.127  21.322  1.00  0.00    -0.237 OA
ATOM     97  O   UNL     1       9.494   5.530  21.320  1.00  0.00    -0.744 OA
ENDBRANCH  93  94
ENDBRANCH  61  86
ENDBRANCH  35  36
ENDBRANCH  27  30
ENDBRANCH  25  26
ENDBRANCH   1  25
TORSDOF 16
