REMARK SMILES CC(C)(C)OC(=O)N1C[C@@H](Oc2cccnc2)C[C@H]1C(=O)NCCCNC(=O)c1ccc(-c2c3nc(c(-c4c(F)cc(S(=O)(=O)[O-])cc4F)c4ccc([nH]4)c(-c4c(F)cc(S(=O)(=O)[O-])cc4F)c4nc(c(-c5c(F)cc(S(=O)(=O)[O-])cc5F)c5ccc2[nH]5)C=C4)C=C3)cc1
REMARK SMILES IDX 24 1 23 2 22 3 20 4 21 5 19 7 8 8 9 9 10 10 18 11 6 12 7 13
REMARK SMILES IDX 5 14 2 15 1 16 3 17 4 18 11 19 12 20 13 21 17 22 14 23 16 24
REMARK SMILES IDX 15 25 25 26 26 27 27 28 28 30 29 31 30 32 94 33 31 34 93 35
REMARK SMILES IDX 32 36 33 37 34 38 87 39 35 40 92 41 86 42 88 43 36 44 91 45
REMARK SMILES IDX 85 46 84 47 37 49 71 50 50 51 70 52 51 53 54 54 69 55 89 56
REMARK SMILES IDX 52 57 53 58 68 60 90 61 55 62 38 63 39 64 48 65 40 66 41 67
REMARK SMILES IDX 47 68 49 69 42 70 43 71 44 72 45 73 46 74 72 75 73 76 82 77
REMARK SMILES IDX 74 78 75 79 81 80 83 81 76 82 77 83 78 84 79 85 80 86 56 87
REMARK SMILES IDX 57 88 66 89 58 90 59 91 65 92 67 93 60 94 61 95 62 96 63 97
REMARK SMILES IDX 64 98
REMARK H PARENT 22 6 26 29 88 48 54 59
REMARK Flexibility Score: inf
ROOT
ATOM      1  C   UNL     1       0.826  -5.719   0.188  1.00  0.00     0.042 C 
ENDROOT
BRANCH   1   2
ATOM      2  C   UNL     1       1.616  -6.074  -1.062  1.00  0.00     0.117 C 
BRANCH   2   3
ATOM      3  N   UNL     1       0.786  -6.673  -2.091  1.00  0.00    -0.354 N 
ATOM      4  C   UNL     1       0.170  -6.171  -3.195  1.00  0.00     0.243 C 
ATOM      5  O   UNL     1      -0.497  -6.983  -3.850  1.00  0.00    -0.273 OA
ATOM      6  H   UNL     1       0.640  -7.638  -1.965  1.00  0.00     0.163 HD
BRANCH   4   7
ATOM      7  C   UNL     1       0.383  -4.745  -3.761  1.00  0.00     0.181 C 
ATOM      8  N   UNL     1       0.997  -3.718  -2.938  1.00  0.00    -0.292 N 
ATOM      9  C   UNL     1       2.331  -3.360  -3.390  1.00  0.00     0.169 C 
ATOM     10  C   UNL     1       2.385  -3.827  -4.841  1.00  0.00     0.195 C 
ATOM     11  C   UNL     1       1.240  -4.827  -5.037  1.00  0.00     0.082 C 
BRANCH   8  12
ATOM     12  C   UNL     1       0.271  -3.104  -1.943  1.00  0.00     0.411 C 
ATOM     13  O   UNL     1      -0.861  -3.464  -1.649  1.00  0.00    -0.224 OA
BRANCH  12  14
ATOM     14  O   UNL     1       0.957  -2.105  -1.343  1.00  0.00    -0.444 OA
BRANCH  14  15
ATOM     15  C   UNL     1       0.453  -1.384  -0.177  1.00  0.00     0.106 C 
ATOM     16  C   UNL     1       1.143  -0.015  -0.240  1.00  0.00     0.056 C 
ATOM     17  C   UNL     1       0.909  -2.117   1.087  1.00  0.00     0.056 C 
ATOM     18  C   UNL     1      -1.065  -1.157  -0.144  1.00  0.00     0.056 C 
ENDBRANCH  14  15
ENDBRANCH  12  14
ENDBRANCH   8  12
BRANCH  10  19
ATOM     19  O   UNL     1       3.674  -4.200  -5.325  1.00  0.00    -0.487 OA
BRANCH  19  20
ATOM     20  C   UNL     1       4.279  -5.385  -5.053  1.00  0.00     0.138 A 
ATOM     21  C   UNL     1       3.894  -6.342  -4.126  1.00  0.00     0.050 A 
ATOM     22  C   UNL     1       5.422  -5.668  -5.798  1.00  0.00     0.157 A 
ATOM     23  C   UNL     1       4.613  -7.534  -4.006  1.00  0.00     0.024 A 
ATOM     24  N   UNL     1       6.154  -6.807  -5.702  1.00  0.00    -0.261 NA
ATOM     25  C   UNL     1       5.724  -7.721  -4.810  1.00  0.00     0.111 A 
ENDBRANCH  19  20
ENDBRANCH  10  19
ENDBRANCH   4   7
ENDBRANCH   2   3
ENDBRANCH   1   2
BRANCH   1  26
ATOM     26  C   UNL     1       0.525  -6.920   1.071  1.00  0.00     0.118 C 
BRANCH  26  27
ATOM     27  N   UNL     1       1.725  -7.391   1.752  1.00  0.00    -0.352 N 
ATOM     28  C   UNL     1       2.092  -7.291   3.071  1.00  0.00     0.251 C 
ATOM     29  H   UNL     1       2.375  -7.853   1.174  1.00  0.00     0.163 HD
ATOM     30  O   UNL     1       3.268  -7.477   3.374  1.00  0.00    -0.269 OA
BRANCH  28  31
ATOM     31  C   UNL     1       1.098  -6.967   4.121  1.00  0.00     0.039 A 
ATOM     32  C   UNL     1       1.497  -6.200   5.220  1.00  0.00     0.014 A 
ATOM     33  C   UNL     1      -0.205  -7.469   4.066  1.00  0.00     0.014 A 
ATOM     34  C   UNL     1       0.582  -5.902   6.234  1.00  0.00     0.010 A 
ATOM     35  C   UNL     1      -1.139  -7.097   5.029  1.00  0.00     0.010 A 
ATOM     36  C   UNL     1      -0.753  -6.326   6.134  1.00  0.00    -0.014 A 
BRANCH  36  37
ATOM     37  C   UNL     1      -1.756  -6.002   7.182  1.00  0.00     0.031 A 
ATOM     38  C   UNL     1      -2.424  -7.110   7.955  1.00  0.00     0.074 A 
ATOM     39  C   UNL     1      -2.117  -4.721   7.390  1.00  0.00     0.049 A 
ATOM     40  N   UNL     1      -3.391  -7.040   8.833  1.00  0.00    -0.248 NA
ATOM     41  C   UNL     1      -1.965  -8.482   7.680  1.00  0.00     0.031 C 
ATOM     42  C   UNL     1      -1.579  -3.562   6.673  1.00  0.00     0.029 A 
ATOM     43  N   UNL     1      -3.034  -4.177   8.254  1.00  0.00    -0.354 N 
ATOM     44  C   UNL     1      -3.672  -8.354   9.195  1.00  0.00     0.074 A 
ATOM     45  C   UNL     1      -2.808  -9.203   8.405  1.00  0.00     0.031 C 
ATOM     46  C   UNL     1      -2.160  -2.446   7.139  1.00  0.00     0.029 A 
ATOM     47  C   UNL     1      -3.140  -2.809   8.158  1.00  0.00     0.049 A 
ATOM     48  H   UNL     1      -3.567  -4.715   8.883  1.00  0.00     0.167 HD
ATOM     49  C   UNL     1      -4.552  -8.809  10.118  1.00  0.00     0.037 A 
ATOM     50  C   UNL     1      -3.944  -1.946   8.809  1.00  0.00     0.037 A 
ATOM     51  C   UNL     1      -5.383  -7.956  10.928  1.00  0.00     0.049 A 
ATOM     52  C   UNL     1      -4.904  -2.474   9.841  1.00  0.00     0.074 A 
ATOM     53  C   UNL     1      -6.261  -8.314  11.935  1.00  0.00     0.029 A 
ATOM     54  N   UNL     1      -5.436  -6.574  10.824  1.00  0.00    -0.354 N 
ATOM     55  N   UNL     1      -5.114  -3.715  10.211  1.00  0.00    -0.248 NA
ATOM     56  C   UNL     1      -5.730  -1.486  10.547  1.00  0.00     0.031 C 
ATOM     57  C   UNL     1      -6.874  -7.152  12.415  1.00  0.00     0.029 A 
ATOM     58  C   UNL     1      -6.343  -6.065  11.738  1.00  0.00     0.049 A 
ATOM     59  H   UNL     1      -4.907  -6.034  10.193  1.00  0.00     0.167 HD
ATOM     60  C   UNL     1      -6.078  -3.654  11.211  1.00  0.00     0.074 A 
ATOM     61  C   UNL     1      -6.400  -2.254  11.396  1.00  0.00     0.031 C 
ATOM     62  C   UNL     1      -6.645  -4.666  11.914  1.00  0.00     0.037 A 
BRANCH  49  63
ATOM     63  C   UNL     1      -4.657 -10.299  10.309  1.00  0.00     0.058 A 
ATOM     64  C   UNL     1      -3.623 -11.041  10.902  1.00  0.00     0.135 A 
ATOM     65  C   UNL     1      -5.817 -10.990   9.923  1.00  0.00     0.135 A 
ATOM     66  F   UNL     1      -2.485 -10.435  11.277  1.00  0.00    -0.206 F 
ATOM     67  C   UNL     1      -3.721 -12.418  11.077  1.00  0.00     0.059 A 
ATOM     68  C   UNL     1      -5.949 -12.363  10.114  1.00  0.00     0.059 A 
ATOM     69  F   UNL     1      -6.838 -10.331   9.352  1.00  0.00    -0.206 F 
ATOM     70  C   UNL     1      -4.888 -13.070  10.678  1.00  0.00     0.060 A 
BRANCH  70  71
ATOM     71  S   UNL     1      -5.000 -14.857  10.913  1.00  0.00     0.124 S 
ATOM     72  O   UNL     1      -4.112 -15.344   9.862  1.00  0.00    -0.237 OA
ATOM     73  O   UNL     1      -4.516 -15.024  12.279  1.00  0.00    -0.237 OA
ATOM     74  O   UNL     1      -6.419 -15.138  10.715  1.00  0.00    -0.744 OA
ENDBRANCH  70  71
ENDBRANCH  49  63
BRANCH  50  75
ATOM     75  C   UNL     1      -3.856  -0.490   8.521  1.00  0.00     0.058 A 
ATOM     76  C   UNL     1      -3.303   0.397   9.457  1.00  0.00     0.135 A 
ATOM     77  C   UNL     1      -4.301   0.042   7.301  1.00  0.00     0.135 A 
ATOM     78  F   UNL     1      -2.868  -0.063  10.640  1.00  0.00    -0.206 F 
ATOM     79  C   UNL     1      -3.206   1.761   9.201  1.00  0.00     0.059 A 
ATOM     80  C   UNL     1      -4.193   1.399   7.011  1.00  0.00     0.059 A 
ATOM     81  F   UNL     1      -4.821  -0.767   6.365  1.00  0.00    -0.206 F 
ATOM     82  C   UNL     1      -3.652   2.252   7.972  1.00  0.00     0.060 A 
BRANCH  82  83
ATOM     83  S   UNL     1      -3.471   4.015   7.627  1.00  0.00     0.124 S 
ATOM     84  O   UNL     1      -4.523   4.587   8.460  1.00  0.00    -0.237 OA
ATOM     85  O   UNL     1      -2.101   4.274   8.060  1.00  0.00    -0.237 OA
ATOM     86  O   UNL     1      -3.689   4.098   6.186  1.00  0.00    -0.744 OA
ENDBRANCH  82  83
ENDBRANCH  50  75
BRANCH  62  87
ATOM     87  C   UNL     1      -7.646  -4.297  12.973  1.00  0.00     0.058 A 
ATOM     88  C   UNL     1      -8.937  -3.856  12.645  1.00  0.00     0.135 A 
ATOM     89  C   UNL     1      -7.325  -4.437  14.333  1.00  0.00     0.135 A 
ATOM     90  F   UNL     1      -9.292  -3.699  11.360  1.00  0.00    -0.206 F 
ATOM     91  C   UNL     1      -9.870  -3.546  13.630  1.00  0.00     0.059 A 
ATOM     92  C   UNL     1      -8.249  -4.158  15.333  1.00  0.00     0.059 A 
ATOM     93  F   UNL     1      -6.106  -4.864  14.699  1.00  0.00    -0.206 F 
ATOM     94  C   UNL     1      -9.516  -3.702  14.972  1.00  0.00     0.060 A 
BRANCH  94  95
ATOM     95  S   UNL     1     -10.746  -3.330  16.240  1.00  0.00     0.124 S 
ATOM     96  O   UNL     1     -10.757  -1.871  16.219  1.00  0.00    -0.237 OA
ATOM     97  O   UNL     1     -11.943  -3.981  15.716  1.00  0.00    -0.237 OA
ATOM     98  O   UNL     1     -10.187  -3.937  17.444  1.00  0.00    -0.744 OA
ENDBRANCH  94  95
ENDBRANCH  62  87
ENDBRANCH  36  37
ENDBRANCH  28  31
ENDBRANCH  26  27
ENDBRANCH   1  26
TORSDOF 18
