REMARK SMILES Cc1cc(C(=O)N2CCC[C@@H]2C)sc1/C=C/C(=O)NCCCNC(=O)c1ccc(-c2c3nc(c(-c4c(F)cc(S(=O)(=O)[O-])cc4F)c4ccc([nH]4)c(-c4c(F)cc(S(=O)(=O)[O-])cc4F)c4nc(c(-c5c(F)cc(S(=O)(=O)[O-])cc5F)c5ccc2[nH]5)C=C4)C=C3)cc1
REMARK SMILES IDX 21 1 20 2 19 3 17 4 18 5 16 7 15 8 14 9 1 10 2 11 3 12 4 13
REMARK SMILES IDX 13 14 5 15 6 16 7 17 8 18 11 19 9 20 10 21 12 22 22 23 23 24
REMARK SMILES IDX 24 25 25 27 26 28 27 29 91 30 28 31 90 32 29 33 30 34 31 35
REMARK SMILES IDX 84 36 32 37 89 38 83 39 85 40 33 41 88 42 82 43 81 44 34 46
REMARK SMILES IDX 68 47 47 48 67 49 48 50 51 51 66 52 86 53 49 54 50 55 65 57
REMARK SMILES IDX 87 58 52 59 35 60 36 61 45 62 37 63 38 64 44 65 46 66 39 67
REMARK SMILES IDX 40 68 41 69 42 70 43 71 69 72 70 73 79 74 71 75 72 76 78 77
REMARK SMILES IDX 80 78 73 79 74 80 75 81 76 82 77 83 53 84 54 85 63 86 55 87
REMARK SMILES IDX 56 88 62 89 64 90 57 91 58 92 59 93 60 94 61 95
REMARK H PARENT 19 6 23 26 85 45 51 56
REMARK Flexibility Score: inf
ROOT
ATOM      1  C   UNL     1       3.153  -4.636   0.680  1.00  0.00     0.042 C 
ENDROOT
BRANCH   1   2
ATOM      2  C   UNL     1       2.209  -4.683  -0.519  1.00  0.00     0.118 C 
BRANCH   2   3
ATOM      3  N   UNL     1       0.931  -5.280  -0.171  1.00  0.00    -0.352 N 
ATOM      4  C   UNL     1      -0.297  -4.712  -0.043  1.00  0.00     0.244 C 
ATOM      5  O   UNL     1      -1.286  -5.420   0.132  1.00  0.00    -0.270 OA
ATOM      6  H   UNL     1       0.960  -6.249  -0.000  1.00  0.00     0.163 HD
BRANCH   4   7
ATOM      7  C   UNL     1      -0.469  -3.256  -0.217  1.00  0.00     0.072 C 
ATOM      8  C   UNL     1       0.255  -2.336   0.439  1.00  0.00     0.025 C 
BRANCH   8   9
ATOM      9  C   UNL     1       0.063  -0.933   0.257  1.00  0.00     0.031 A 
ATOM     10  C   UNL     1       2.502  -0.105   0.262  1.00  0.00     0.046 C 
ATOM     11  C   UNL     1       1.016   0.079   0.222  1.00  0.00    -0.032 A 
ATOM     12  C   UNL     1       0.401   1.373   0.095  1.00  0.00     0.029 A 
ATOM     13  C   UNL     1      -0.977   1.328  -0.009  1.00  0.00     0.093 A 
ATOM     14  S   UNL     1      -1.512  -0.285   0.042  1.00  0.00    -0.130 S 
BRANCH  13  15
ATOM     15  C   UNL     1      -1.852   2.446  -0.353  1.00  0.00     0.264 C 
ATOM     16  O   UNL     1      -1.400   3.431  -0.945  1.00  0.00    -0.268 OA
BRANCH  15  17
ATOM     17  N   UNL     1      -3.219   2.386  -0.107  1.00  0.00    -0.335 N 
ATOM     18  C   UNL     1      -4.126   3.091  -0.988  1.00  0.00     0.120 C 
ATOM     19  C   UNL     1      -3.964   1.722   0.969  1.00  0.00     0.082 C 
ATOM     20  C   UNL     1      -5.370   2.225  -0.941  1.00  0.00     0.024 C 
ATOM     21  C   UNL     1      -5.437   1.808   0.525  1.00  0.00     0.026 C 
ATOM     22  C   UNL     1      -3.754   2.424   2.308  1.00  0.00     0.031 C 
ENDBRANCH  15  17
ENDBRANCH  13  15
ENDBRANCH   8   9
ENDBRANCH   4   7
ENDBRANCH   2   3
ENDBRANCH   1   2
BRANCH   1  23
ATOM     23  C   UNL     1       3.721  -6.001   1.059  1.00  0.00     0.118 C 
BRANCH  23  24
ATOM     24  N   UNL     1       4.639  -6.509   0.049  1.00  0.00    -0.352 N 
ATOM     25  C   UNL     1       5.959  -6.870   0.155  1.00  0.00     0.251 C 
ATOM     26  H   UNL     1       4.252  -6.608  -0.850  1.00  0.00     0.163 HD
ATOM     27  O   UNL     1       6.609  -7.056  -0.870  1.00  0.00    -0.269 OA
BRANCH  25  28
ATOM     28  C   UNL     1       6.601  -7.028   1.479  1.00  0.00     0.039 A 
ATOM     29  C   UNL     1       7.920  -6.592   1.641  1.00  0.00     0.014 A 
ATOM     30  C   UNL     1       5.939  -7.650   2.541  1.00  0.00     0.014 A 
ATOM     31  C   UNL     1       8.556  -6.736   2.877  1.00  0.00     0.010 A 
ATOM     32  C   UNL     1       6.550  -7.733   3.792  1.00  0.00     0.010 A 
ATOM     33  C   UNL     1       7.867  -7.285   3.970  1.00  0.00    -0.014 A 
BRANCH  33  34
ATOM     34  C   UNL     1       8.510  -7.401   5.304  1.00  0.00     0.031 A 
ATOM     35  C   UNL     1       8.771  -8.756   5.905  1.00  0.00     0.074 A 
ATOM     36  C   UNL     1       8.803  -6.285   6.000  1.00  0.00     0.049 A 
ATOM     37  N   UNL     1       9.252  -9.058   7.084  1.00  0.00    -0.248 NA
ATOM     38  C   UNL     1       8.421  -9.925   5.083  1.00  0.00     0.031 C 
ATOM     39  C   UNL     1       8.556  -4.915   5.544  1.00  0.00     0.029 A 
ATOM     40  N   UNL     1       9.362  -6.124   7.243  1.00  0.00    -0.354 N 
ATOM     41  C   UNL     1       9.249 -10.446   7.152  1.00  0.00     0.074 A 
ATOM     42  C   UNL     1       8.674 -10.927   5.913  1.00  0.00     0.031 C 
ATOM     43  C   UNL     1       8.975  -4.055   6.486  1.00  0.00     0.029 A 
ATOM     44  C   UNL     1       9.489  -4.810   7.625  1.00  0.00     0.049 A 
ATOM     45  H   UNL     1       9.646  -6.879   7.808  1.00  0.00     0.167 HD
ATOM     46  C   UNL     1       9.702 -11.248   8.146  1.00  0.00     0.037 A 
ATOM     47  C   UNL     1       9.959  -4.272   8.767  1.00  0.00     0.037 A 
ATOM     48  C   UNL     1      10.297 -10.764   9.364  1.00  0.00     0.049 A 
ATOM     49  C   UNL     1      10.471  -5.181   9.850  1.00  0.00     0.074 A 
ATOM     50  C   UNL     1      10.835 -11.495  10.410  1.00  0.00     0.029 A 
ATOM     51  N   UNL     1      10.438  -9.426   9.700  1.00  0.00    -0.354 N 
ATOM     52  N   UNL     1      10.507  -6.492   9.875  1.00  0.00    -0.248 NA
ATOM     53  C   UNL     1      11.014  -4.540  11.055  1.00  0.00     0.031 C 
ATOM     54  C   UNL     1      11.270 -10.599  11.393  1.00  0.00     0.029 A 
ATOM     55  C   UNL     1      11.041  -9.309  10.941  1.00  0.00     0.049 A 
ATOM     56  H   UNL     1      10.150  -8.670   9.139  1.00  0.00     0.167 HD
ATOM     57  C   UNL     1      11.096  -6.832  11.088  1.00  0.00     0.074 A 
ATOM     58  C   UNL     1      11.412  -5.589  11.762  1.00  0.00     0.031 C 
ATOM     59  C   UNL     1      11.353  -8.063  11.596  1.00  0.00     0.037 A 
BRANCH  46  60
ATOM     60  C   UNL     1       9.575 -12.735   7.952  1.00  0.00     0.058 A 
ATOM     61  C   UNL     1      10.372 -13.425   7.025  1.00  0.00     0.135 A 
ATOM     62  C   UNL     1       8.669 -13.483   8.720  1.00  0.00     0.135 A 
ATOM     63  F   UNL     1      11.245 -12.758   6.254  1.00  0.00    -0.206 F 
ATOM     64  C   UNL     1      10.252 -14.799   6.842  1.00  0.00     0.059 A 
ATOM     65  C   UNL     1       8.551 -14.862   8.574  1.00  0.00     0.059 A 
ATOM     66  F   UNL     1       7.883 -12.874   9.623  1.00  0.00    -0.206 F 
ATOM     67  C   UNL     1       9.336 -15.509   7.620  1.00  0.00     0.060 A 
BRANCH  67  68
ATOM     68  S   UNL     1       9.189 -17.291   7.370  1.00  0.00     0.124 S 
ATOM     69  O   UNL     1       8.456 -17.347   6.109  1.00  0.00    -0.237 OA
ATOM     70  O   UNL     1      10.584 -17.716   7.310  1.00  0.00    -0.237 OA
ATOM     71  O   UNL     1       8.450 -17.739   8.546  1.00  0.00    -0.744 OA
ENDBRANCH  67  68
ENDBRANCH  46  60
BRANCH  47  72
ATOM     72  C   UNL     1       9.989  -2.795   8.930  1.00  0.00     0.058 A 
ATOM     73  C   UNL     1      11.201  -2.091   8.889  1.00  0.00     0.135 A 
ATOM     74  C   UNL     1       8.807  -2.057   9.100  1.00  0.00     0.135 A 
ATOM     75  F   UNL     1      12.357  -2.754   8.732  1.00  0.00    -0.206 F 
ATOM     76  C   UNL     1      11.244  -0.707   9.021  1.00  0.00     0.059 A 
ATOM     77  C   UNL     1       8.823  -0.670   9.213  1.00  0.00     0.059 A 
ATOM     78  F   UNL     1       7.621  -2.683   9.128  1.00  0.00    -0.206 F 
ATOM     79  C   UNL     1      10.048  -0.005   9.180  1.00  0.00     0.060 A 
BRANCH  79  80
ATOM     80  S   UNL     1      10.108   1.797   9.289  1.00  0.00     0.124 S 
ATOM     81  O   UNL     1      10.605   1.992  10.646  1.00  0.00    -0.237 OA
ATOM     82  O   UNL     1      11.033   2.140   8.214  1.00  0.00    -0.237 OA
ATOM     83  O   UNL     1       8.721   2.192   9.060  1.00  0.00    -0.744 OA
ENDBRANCH  79  80
ENDBRANCH  47  72
BRANCH  59  84
ATOM     84  C   UNL     1      12.034  -8.127  12.934  1.00  0.00     0.058 A 
ATOM     85  C   UNL     1      11.349  -7.833  14.123  1.00  0.00     0.135 A 
ATOM     86  C   UNL     1      13.375  -8.532  13.030  1.00  0.00     0.135 A 
ATOM     87  F   UNL     1      10.068  -7.434  14.085  1.00  0.00    -0.206 F 
ATOM     88  C   UNL     1      11.977  -7.917  15.362  1.00  0.00     0.059 A 
ATOM     89  C   UNL     1      14.016  -8.646  14.259  1.00  0.00     0.059 A 
ATOM     90  F   UNL     1      14.071  -8.834  11.923  1.00  0.00    -0.206 F 
ATOM     91  C   UNL     1      13.312  -8.325  15.419  1.00  0.00     0.060 A 
BRANCH  91  92
ATOM     92  S   UNL     1      14.108  -8.460  17.034  1.00  0.00     0.124 S 
ATOM     93  O   UNL     1      14.354  -7.059  17.358  1.00  0.00    -0.237 OA
ATOM     94  O   UNL     1      13.085  -9.126  17.834  1.00  0.00    -0.237 OA
ATOM     95  O   UNL     1      15.298  -9.261  16.759  1.00  0.00    -0.744 OA
ENDBRANCH  91  92
ENDBRANCH  59  84
ENDBRANCH  33  34
ENDBRANCH  25  28
ENDBRANCH  23  24
ENDBRANCH   1  23
TORSDOF 16
