REMARK SMILES O=C(NCc1ccc(C(=O)NCCCNC(=O)c2ccc(-c3c4nc(c(-c5c(F)cc(S(=O)(=O)[O-])cc5F)c5ccc([nH]5)c(-c5c(F)cc(S(=O)(=O)[O-])cc5F)c5nc(c(-c6c(F)cc(S(=O)(=O)[O-])cc6F)c6ccc3[nH]6)C=C5)C=C4)cc2)cc1)Nc1ccccc1Br
REMARK SMILES IDX 13 1 12 2 11 3 9 4 10 5 8 7 5 8 6 9 85 10 7 11 84 12 4 13
REMARK SMILES IDX 3 14 1 15 2 16 86 17 87 20 88 21 92 22 89 23 91 24 93 25
REMARK SMILES IDX 90 26 14 27 15 28 16 29 17 31 18 32 19 33 83 34 20 35 82 36
REMARK SMILES IDX 21 37 22 38 23 39 76 40 24 41 81 42 75 43 77 44 25 45 80 46
REMARK SMILES IDX 74 47 73 48 26 50 60 51 39 52 59 53 40 54 43 55 58 56 78 57
REMARK SMILES IDX 41 58 42 59 57 61 79 62 44 63 27 64 28 65 37 66 29 67 30 68
REMARK SMILES IDX 36 69 38 70 31 71 32 72 33 73 34 74 35 75 61 76 62 77 71 78
REMARK SMILES IDX 63 79 64 80 70 81 72 82 65 83 66 84 67 85 68 86 69 87 45 88
REMARK SMILES IDX 46 89 55 90 47 91 48 92 54 93 56 94 49 95 50 96 51 97 52 98
REMARK SMILES IDX 53 99
REMARK H PARENT 11 6 3 18 86 19 15 30 77 49 43 60
REMARK Flexibility Score: inf
ROOT
ATOM      1  C   UNL     1       7.457   3.955  -6.465  1.00  0.00     0.042 C 
ENDROOT
BRANCH   1   2
ATOM      2  C   UNL     1       6.258   3.036  -6.697  1.00  0.00     0.118 C 
BRANCH   2   3
ATOM      3  N   UNL     1       6.665   1.647  -6.802  1.00  0.00    -0.352 N 
ATOM      4  C   UNL     1       6.568   0.596  -5.926  1.00  0.00     0.251 C 
ATOM      5  O   UNL     1       6.902  -0.519  -6.325  1.00  0.00    -0.269 OA
ATOM      6  H   UNL     1       7.088   1.416  -7.660  1.00  0.00     0.163 HD
BRANCH   4   7
ATOM      7  C   UNL     1       6.040   0.738  -4.542  1.00  0.00     0.039 A 
ATOM      8  C   UNL     1       5.026   0.826  -1.909  1.00  0.00    -0.029 A 
ATOM      9  C   UNL     1       4.859  -0.320  -2.696  1.00  0.00     0.006 A 
ATOM     10  C   UNL     1       5.718   1.919  -2.444  1.00  0.00     0.006 A 
ATOM     11  C   UNL     1       5.364  -0.363  -3.998  1.00  0.00     0.014 A 
ATOM     12  C   UNL     1       6.239   1.865  -3.741  1.00  0.00     0.014 A 
BRANCH   8  13
ATOM     13  C   UNL     1       4.505   0.866  -0.498  1.00  0.00     0.153 C 
BRANCH  13  14
ATOM     14  N   UNL     1       3.058   0.874  -0.468  1.00  0.00    -0.334 N 
ATOM     15  O   UNL     1       0.981   0.202  -0.046  1.00  0.00    -0.248 OA
ATOM     16  C   UNL     1       2.182  -0.011   0.081  1.00  0.00     0.319 C 
ATOM     17  N   UNL     1       2.738  -1.041   0.784  1.00  0.00    -0.307 N 
ATOM     18  H   UNL     1       2.640   1.644  -0.917  1.00  0.00     0.165 HD
ATOM     19  H   UNL     1       3.696  -0.960   0.998  1.00  0.00     0.171 HD
BRANCH  17  20
ATOM     20  C   UNL     1       2.088  -2.210   1.239  1.00  0.00     0.057 A 
ATOM     21  C   UNL     1       2.576  -2.729   2.451  1.00  0.00     0.027 A 
ATOM     22  C   UNL     1       1.058  -2.906   0.582  1.00  0.00     0.041 A 
ATOM     23  C   UNL     1       2.008  -3.862   3.038  1.00  0.00     0.002 A 
ATOM     24  C   UNL     1       0.482  -4.036   1.185  1.00  0.00     0.018 A 
ATOM     25  Br  UNL     1       0.511  -2.580  -1.212  1.00  0.00    -0.049 Br
ATOM     26  C   UNL     1       0.948  -4.505   2.413  1.00  0.00     0.001 A 
ENDBRANCH  17  20
ENDBRANCH  13  14
ENDBRANCH   8  13
ENDBRANCH   4   7
ENDBRANCH   2   3
ENDBRANCH   1   2
BRANCH   1  27
ATOM     27  C   UNL     1       8.331   4.148  -7.703  1.00  0.00     0.118 C 
BRANCH  27  28
ATOM     28  N   UNL     1       7.664   4.946  -8.721  1.00  0.00    -0.352 N 
ATOM     29  C   UNL     1       8.055   6.118  -9.319  1.00  0.00     0.251 C 
ATOM     30  H   UNL     1       6.798   4.590  -9.028  1.00  0.00     0.163 HD
ATOM     31  O   UNL     1       7.241   6.745  -9.992  1.00  0.00    -0.269 OA
BRANCH  29  32
ATOM     32  C   UNL     1       9.434   6.634  -9.156  1.00  0.00     0.039 A 
ATOM     33  C   UNL     1       9.620   8.011  -8.995  1.00  0.00     0.014 A 
ATOM     34  C   UNL     1      10.543   5.785  -9.216  1.00  0.00     0.014 A 
ATOM     35  C   UNL     1      10.909   8.529  -8.848  1.00  0.00     0.010 A 
ATOM     36  C   UNL     1      11.824   6.295  -9.008  1.00  0.00     0.010 A 
ATOM     37  C   UNL     1      12.021   7.672  -8.828  1.00  0.00    -0.014 A 
BRANCH  37  38
ATOM     38  C   UNL     1      13.396   8.200  -8.629  1.00  0.00     0.031 A 
ATOM     39  C   UNL     1      14.416   8.090  -9.731  1.00  0.00     0.074 A 
ATOM     40  C   UNL     1      13.741   8.726  -7.437  1.00  0.00     0.049 A 
ATOM     41  N   UNL     1      15.685   8.409  -9.717  1.00  0.00    -0.248 NA
ATOM     42  C   UNL     1      13.954   7.526 -11.010  1.00  0.00     0.031 C 
ATOM     43  C   UNL     1      12.853   8.853  -6.279  1.00  0.00     0.029 A 
ATOM     44  N   UNL     1      14.934   9.241  -6.996  1.00  0.00    -0.354 N 
ATOM     45  C   UNL     1      16.175   8.075 -10.974  1.00  0.00     0.074 A 
ATOM     46  C   UNL     1      15.078   7.487 -11.712  1.00  0.00     0.031 C 
ATOM     47  C   UNL     1      13.529   9.418  -5.265  1.00  0.00     0.029 A 
ATOM     48  C   UNL     1      14.904   9.663  -5.687  1.00  0.00     0.049 A 
ATOM     49  H   UNL     1      15.737   9.303  -7.563  1.00  0.00     0.167 HD
ATOM     50  C   UNL     1      17.420   8.261 -11.475  1.00  0.00     0.037 A 
ATOM     51  C   UNL     1      15.878  10.177  -4.910  1.00  0.00     0.037 A 
ATOM     52  C   UNL     1      18.500   8.874 -10.746  1.00  0.00     0.049 A 
ATOM     53  C   UNL     1      17.251  10.377  -5.493  1.00  0.00     0.074 A 
ATOM     54  C   UNL     1      19.787   9.145 -11.181  1.00  0.00     0.029 A 
ATOM     55  N   UNL     1      18.420   9.318  -9.435  1.00  0.00    -0.354 N 
ATOM     56  N   UNL     1      17.684  10.094  -6.699  1.00  0.00    -0.248 NA
ATOM     57  C   UNL     1      18.267  10.971  -4.613  1.00  0.00     0.031 C 
ATOM     58  C   UNL     1      20.493   9.726 -10.122  1.00  0.00     0.029 A 
ATOM     59  C   UNL     1      19.635   9.852  -9.041  1.00  0.00     0.049 A 
ATOM     60  H   UNL     1      17.617   9.261  -8.867  1.00  0.00     0.167 HD
ATOM     61  C   UNL     1      19.013  10.502  -6.730  1.00  0.00     0.074 A 
ATOM     62  C   UNL     1      19.310  11.061  -5.428  1.00  0.00     0.031 C 
ATOM     63  C   UNL     1      19.907  10.420  -7.745  1.00  0.00     0.037 A 
BRANCH  50  64
ATOM     64  C   UNL     1      17.683   7.812 -12.886  1.00  0.00     0.058 A 
ATOM     65  C   UNL     1      17.158   8.510 -13.986  1.00  0.00     0.135 A 
ATOM     66  C   UNL     1      18.514   6.711 -13.146  1.00  0.00     0.135 A 
ATOM     67  F   UNL     1      16.344   9.561 -13.794  1.00  0.00    -0.206 F 
ATOM     68  C   UNL     1      17.432   8.121 -15.293  1.00  0.00     0.059 A 
ATOM     69  C   UNL     1      18.822   6.319 -14.446  1.00  0.00     0.059 A 
ATOM     70  F   UNL     1      19.041   6.008 -12.132  1.00  0.00    -0.206 F 
ATOM     71  C   UNL     1      18.267   7.025 -15.513  1.00  0.00     0.060 A 
BRANCH  71  72
ATOM     72  S   UNL     1      18.633   6.549 -17.216  1.00  0.00     0.124 S 
ATOM     73  O   UNL     1      17.372   5.938 -17.624  1.00  0.00    -0.237 OA
ATOM     74  O   UNL     1      18.947   7.831 -17.838  1.00  0.00    -0.237 OA
ATOM     75  O   UNL     1      19.759   5.630 -17.078  1.00  0.00    -0.744 OA
ENDBRANCH  71  72
ENDBRANCH  50  64
BRANCH  51  76
ATOM     76  C   UNL     1      15.592  10.549  -3.499  1.00  0.00     0.058 A 
ATOM     77  C   UNL     1      15.555  11.893  -3.101  1.00  0.00     0.135 A 
ATOM     78  C   UNL     1      15.362   9.570  -2.521  1.00  0.00     0.135 A 
ATOM     79  F   UNL     1      15.772  12.865  -4.000  1.00  0.00    -0.206 F 
ATOM     80  C   UNL     1      15.328  12.255  -1.777  1.00  0.00     0.059 A 
ATOM     81  C   UNL     1      15.108   9.907  -1.195  1.00  0.00     0.059 A 
ATOM     82  F   UNL     1      15.368   8.270  -2.854  1.00  0.00    -0.206 F 
ATOM     83  C   UNL     1      15.109  11.253  -0.830  1.00  0.00     0.060 A 
BRANCH  83  84
ATOM     84  S   UNL     1      14.789  11.729   0.882  1.00  0.00     0.124 S 
ATOM     85  O   UNL     1      16.127  12.081   1.343  1.00  0.00    -0.237 OA
ATOM     86  O   UNL     1      13.854  12.839   0.726  1.00  0.00    -0.237 OA
ATOM     87  O   UNL     1      14.217  10.518   1.464  1.00  0.00    -0.744 OA
ENDBRANCH  83  84
ENDBRANCH  51  76
BRANCH  63  88
ATOM     88  C   UNL     1      21.279  10.982  -7.503  1.00  0.00     0.058 A 
ATOM     89  C   UNL     1      22.216  10.318  -6.697  1.00  0.00     0.135 A 
ATOM     90  C   UNL     1      21.677  12.176  -8.126  1.00  0.00     0.135 A 
ATOM     91  F   UNL     1      21.883   9.176  -6.074  1.00  0.00    -0.206 F 
ATOM     92  C   UNL     1      23.494  10.829  -6.499  1.00  0.00     0.059 A 
ATOM     93  C   UNL     1      22.957  12.693  -7.962  1.00  0.00     0.059 A 
ATOM     94  F   UNL     1      20.820  12.845  -8.915  1.00  0.00    -0.206 F 
ATOM     95  C   UNL     1      23.856  12.018  -7.136  1.00  0.00     0.060 A 
BRANCH  95  96
ATOM     96  S   UNL     1      25.529  12.655  -6.900  1.00  0.00     0.124 S 
ATOM     97  O   UNL     1      25.442  13.214  -5.555  1.00  0.00    -0.237 OA
ATOM     98  O   UNL     1      26.345  11.452  -7.034  1.00  0.00    -0.237 OA
ATOM     99  O   UNL     1      25.676  13.629  -7.977  1.00  0.00    -0.744 OA
ENDBRANCH  95  96
ENDBRANCH  63  88
ENDBRANCH  37  38
ENDBRANCH  29  32
ENDBRANCH  27  28
ENDBRANCH   1  27
TORSDOF 16
