REMARK SMILES CN1C(=O)/C(=C\c2ccc(-c3ccccc3C(=O)NCCCNC(=O)c3ccc(-c4c5nc(c(-c6c(F)cc(S(=O)(=O)[O-])cc6F)c6ccc([nH]6)c(-c6c(F)cc(S(=O)(=O)[O-])cc6F)c6nc(c(-c7c(F)cc(S(=O)(=O)[O-])cc7F)c7ccc4[nH]7)C=C6)C=C5)cc3)o2)C(=O)[NH+]=C1S
REMARK SMILES IDX 21 1 20 2 19 3 17 4 18 5 16 7 11 8 12 9 13 10 15 11 14 12
REMARK SMILES IDX 10 13 7 14 8 15 92 16 9 17 6 18 1 19 2 20 3 21 96 22 4 23
REMARK SMILES IDX 5 24 95 25 93 26 94 28 97 29 22 31 23 32 24 33 25 35 26 36
REMARK SMILES IDX 27 37 91 38 28 39 90 40 29 41 30 42 31 43 84 44 32 45 89 46
REMARK SMILES IDX 83 47 85 48 33 49 88 50 82 51 81 52 34 54 68 55 47 56 67 57
REMARK SMILES IDX 48 58 51 59 66 60 86 61 49 62 50 63 65 65 87 66 52 67 35 68
REMARK SMILES IDX 36 69 45 70 37 71 38 72 44 73 46 74 39 75 40 76 41 77 42 78
REMARK SMILES IDX 43 79 69 80 70 81 79 82 71 83 72 84 78 85 80 86 73 87 74 88
REMARK SMILES IDX 75 89 76 90 77 91 53 92 54 93 63 94 55 95 56 96 62 97 64 98
REMARK SMILES IDX 57 99 58 100 59 101 60 102 61 103
REMARK H PARENT 19 6 95 27 97 30 23 34 85 53 51 64
REMARK Flexibility Score: inf
ROOT
ATOM      1  C   UNL     1      -3.655  -1.393  -6.203  1.00  0.00     0.042 C 
ENDROOT
BRANCH   1   2
ATOM      2  C   UNL     1      -2.959  -2.606  -5.639  1.00  0.00     0.118 C 
BRANCH   2   3
ATOM      3  N   UNL     1      -3.402  -3.919  -6.001  1.00  0.00    -0.352 N 
ATOM      4  C   UNL     1      -2.655  -5.079  -6.029  1.00  0.00     0.252 C 
ATOM      5  O   UNL     1      -3.289  -6.130  -6.170  1.00  0.00    -0.269 OA
ATOM      6  H   UNL     1      -4.348  -4.003  -6.260  1.00  0.00     0.163 HD
BRANCH   4   7
ATOM      7  C   UNL     1      -1.143  -5.158  -6.011  1.00  0.00     0.050 A 
ATOM      8  C   UNL     1      -0.190  -4.407  -5.284  1.00  0.00     0.030 A 
ATOM      9  C   UNL     1       1.188  -4.670  -5.473  1.00  0.00     0.013 A 
ATOM     10  C   UNL     1       1.636  -5.682  -6.317  1.00  0.00     0.001 A 
ATOM     11  C   UNL     1      -0.653  -6.187  -6.855  1.00  0.00     0.014 A 
ATOM     12  C   UNL     1       0.711  -6.452  -7.002  1.00  0.00     0.001 A 
BRANCH   8  13
ATOM     13  C   UNL     1      -0.473  -3.370  -4.307  1.00  0.00     0.135 A 
ATOM     14  C   UNL     1      -0.507  -1.220  -3.720  1.00  0.00     0.128 A 
ATOM     15  C   UNL     1      -1.158  -1.954  -2.731  1.00  0.00     0.051 A 
ATOM     16  O   UNL     1      -0.076  -2.111  -4.672  1.00  0.00    -0.457 OA
ATOM     17  C   UNL     1      -1.092  -3.325  -3.080  1.00  0.00     0.051 A 
BRANCH  14  18
ATOM     18  C   UNL     1      -0.329   0.190  -3.814  1.00  0.00     0.071 C 
ATOM     19  C   UNL     1       1.216   0.318   0.697  1.00  0.00     0.301 C 
ATOM     20  N   UNL     1       0.923   1.036  -0.536  1.00  0.00    -0.189 N 
ATOM     21  C   UNL     1       0.901   0.271  -1.675  1.00  0.00     0.349 C 
ATOM     22  C   UNL     1       0.870   2.398  -0.662  1.00  0.00     0.318 C 
ATOM     23  O   UNL     1       1.433  -0.836  -1.736  1.00  0.00    -0.240 OA
ATOM     24  C   UNL     1       0.243   0.908  -2.829  1.00  0.00     0.157 C 
ATOM     25  N   UNL     1       0.551   3.038  -1.731  1.00  0.00    -0.200 N 
ATOM     26  C   UNL     1       0.137   2.382  -2.856  1.00  0.00     0.347 C 
ATOM     27  H   UNL     1       0.607   4.021  -1.739  1.00  0.00     0.316 HD
ATOM     28  O   UNL     1      -0.349   2.969  -3.818  1.00  0.00    -0.241 OA
BRANCH  22  29
ATOM     29  S   UNL     1       1.315   3.369   0.721  1.00  0.00    -0.055 SA
ATOM     30  H   UNL     1       1.623   2.554   1.766  1.00  0.00     0.116 HD
ENDBRANCH  22  29
ENDBRANCH  14  18
ENDBRANCH   8  13
ENDBRANCH   4   7
ENDBRANCH   2   3
ENDBRANCH   1   2
BRANCH   1  31
ATOM     31  C   UNL     1      -4.914  -0.941  -5.481  1.00  0.00     0.118 C 
BRANCH  31  32
ATOM     32  N   UNL     1      -4.774  -0.712  -4.041  1.00  0.00    -0.352 N 
ATOM     33  C   UNL     1      -4.793   0.417  -3.249  1.00  0.00     0.251 C 
ATOM     34  H   UNL     1      -4.636  -1.542  -3.529  1.00  0.00     0.163 HD
ATOM     35  O   UNL     1      -4.555   0.287  -2.047  1.00  0.00    -0.269 OA
BRANCH  33  36
ATOM     36  C   UNL     1      -5.034   1.773  -3.803  1.00  0.00     0.039 A 
ATOM     37  C   UNL     1      -4.457   2.885  -3.177  1.00  0.00     0.014 A 
ATOM     38  C   UNL     1      -5.813   1.977  -4.935  1.00  0.00     0.014 A 
ATOM     39  C   UNL     1      -4.569   4.156  -3.756  1.00  0.00     0.010 A 
ATOM     40  C   UNL     1      -5.775   3.195  -5.601  1.00  0.00     0.010 A 
ATOM     41  C   UNL     1      -5.171   4.311  -5.014  1.00  0.00    -0.014 A 
BRANCH  41  42
ATOM     42  C   UNL     1      -5.215   5.617  -5.727  1.00  0.00     0.031 A 
ATOM     43  C   UNL     1      -6.540   6.178  -6.192  1.00  0.00     0.074 A 
ATOM     44  C   UNL     1      -4.066   6.252  -6.038  1.00  0.00     0.049 A 
ATOM     45  N   UNL     1      -6.781   7.229  -6.933  1.00  0.00    -0.248 NA
ATOM     46  C   UNL     1      -7.754   5.433  -5.814  1.00  0.00     0.031 C 
ATOM     47  C   UNL     1      -2.716   5.781  -5.710  1.00  0.00     0.029 A 
ATOM     48  N   UNL     1      -3.846   7.429  -6.710  1.00  0.00    -0.354 N 
ATOM     49  C   UNL     1      -8.159   7.250  -7.127  1.00  0.00     0.074 A 
ATOM     50  C   UNL     1      -8.694   6.066  -6.498  1.00  0.00     0.031 C 
ATOM     51  C   UNL     1      -1.817   6.679  -6.143  1.00  0.00     0.029 A 
ATOM     52  C   UNL     1      -2.515   7.762  -6.824  1.00  0.00     0.049 A 
ATOM     53  H   UNL     1      -4.572   7.984  -7.076  1.00  0.00     0.167 HD
ATOM     54  C   UNL     1      -8.918   8.191  -7.738  1.00  0.00     0.037 A 
ATOM     55  C   UNL     1      -1.924   8.818  -7.417  1.00  0.00     0.037 A 
ATOM     56  C   UNL     1      -8.383   9.395  -8.315  1.00  0.00     0.049 A 
ATOM     57  C   UNL     1      -2.790   9.858  -8.077  1.00  0.00     0.074 A 
ATOM     58  C   UNL     1      -9.067  10.447  -8.897  1.00  0.00     0.029 A 
ATOM     59  N   UNL     1      -7.034   9.711  -8.375  1.00  0.00    -0.354 N 
ATOM     60  N   UNL     1      -4.097   9.894  -8.191  1.00  0.00    -0.248 NA
ATOM     61  C   UNL     1      -2.103  11.006  -8.684  1.00  0.00     0.031 C 
ATOM     62  C   UNL     1      -8.129  11.378  -9.351  1.00  0.00     0.029 A 
ATOM     63  C   UNL     1      -6.863  10.934  -9.001  1.00  0.00     0.049 A 
ATOM     64  H   UNL     1      -6.305   9.149  -8.024  1.00  0.00     0.167 HD
ATOM     65  C   UNL     1      -4.390  11.082  -8.852  1.00  0.00     0.074 A 
ATOM     66  C   UNL     1      -3.125  11.742  -9.100  1.00  0.00     0.031 C 
ATOM     67  C   UNL     1      -5.595  11.582  -9.222  1.00  0.00     0.037 A 
BRANCH  54  68
ATOM     68  C   UNL     1     -10.407   7.971  -7.788  1.00  0.00     0.058 A 
ATOM     69  C   UNL     1     -11.200   8.018  -6.629  1.00  0.00     0.135 A 
ATOM     70  C   UNL     1     -11.059   7.757  -9.014  1.00  0.00     0.135 A 
ATOM     71  F   UNL     1     -10.630   8.202  -5.427  1.00  0.00    -0.206 F 
ATOM     72  C   UNL     1     -12.577   7.834  -6.679  1.00  0.00     0.059 A 
ATOM     73  C   UNL     1     -12.441   7.603  -9.091  1.00  0.00     0.059 A 
ATOM     74  F   UNL     1     -10.354   7.699 -10.154  1.00  0.00    -0.206 F 
ATOM     75  C   UNL     1     -13.190   7.631  -7.916  1.00  0.00     0.060 A 
BRANCH  75  76
ATOM     76  S   UNL     1     -14.982   7.419  -7.961  1.00  0.00     0.124 S 
ATOM     77  O   UNL     1     -15.134   6.095  -7.365  1.00  0.00    -0.237 OA
ATOM     78  O   UNL     1     -15.448   8.537  -7.147  1.00  0.00    -0.237 OA
ATOM     79  O   UNL     1     -15.300   7.507  -9.383  1.00  0.00    -0.744 OA
ENDBRANCH  75  76
ENDBRANCH  54  68
BRANCH  55  80
ATOM     80  C   UNL     1      -0.442   8.963  -7.391  1.00  0.00     0.058 A 
ATOM     81  C   UNL     1       0.171   9.987  -6.652  1.00  0.00     0.135 A 
ATOM     82  C   UNL     1       0.393   8.089  -8.105  1.00  0.00     0.135 A 
ATOM     83  F   UNL     1      -0.582  10.853  -5.955  1.00  0.00    -0.206 F 
ATOM     84  C   UNL     1       1.551  10.160  -6.646  1.00  0.00     0.059 A 
ATOM     85  C   UNL     1       1.779   8.222  -8.089  1.00  0.00     0.059 A 
ATOM     86  F   UNL     1      -0.138   7.081  -8.816  1.00  0.00    -0.206 F 
ATOM     87  C   UNL     1       2.348   9.271  -7.369  1.00  0.00     0.060 A 
BRANCH  87  88
ATOM     88  S   UNL     1       4.140   9.495  -7.339  1.00  0.00     0.124 S 
ATOM     89  O   UNL     1       4.301  10.693  -8.155  1.00  0.00    -0.237 OA
ATOM     90  O   UNL     1       4.406   9.654  -5.913  1.00  0.00    -0.237 OA
ATOM     91  O   UNL     1       4.644   8.258  -7.929  1.00  0.00    -0.744 OA
ENDBRANCH  87  88
ENDBRANCH  55  80
BRANCH  67  92
ATOM     92  C   UNL     1      -5.611  12.927  -9.893  1.00  0.00     0.058 A 
ATOM     93  C   UNL     1      -5.149  13.105 -11.206  1.00  0.00     0.135 A 
ATOM     94  C   UNL     1      -6.153  14.041  -9.230  1.00  0.00     0.135 A 
ATOM     95  F   UNL     1      -4.617  12.074 -11.881  1.00  0.00    -0.206 F 
ATOM     96  C   UNL     1      -5.198  14.347 -11.829  1.00  0.00     0.059 A 
ATOM     97  C   UNL     1      -6.243  15.284  -9.847  1.00  0.00     0.059 A 
ATOM     98  F   UNL     1      -6.622  13.922  -7.978  1.00  0.00    -0.206 F 
ATOM     99  C   UNL     1      -5.751  15.430 -11.143  1.00  0.00     0.060 A 
BRANCH  99 100
ATOM    100  S   UNL     1      -5.842  17.027 -11.979  1.00  0.00     0.124 S 
ATOM    101  O   UNL     1      -4.442  17.439 -11.980  1.00  0.00    -0.237 OA
ATOM    102  O   UNL     1      -6.399  16.666 -13.279  1.00  0.00    -0.237 OA
ATOM    103  O   UNL     1      -6.726  17.811 -11.121  1.00  0.00    -0.744 OA
ENDBRANCH  99 100
ENDBRANCH  67  92
ENDBRANCH  41  42
ENDBRANCH  33  36
ENDBRANCH  31  32
ENDBRANCH   1  31
TORSDOF 16
