REMARK SMILES CC(C)Nc1cc2ccccc2cc1C(=O)NCCCNC(=O)c1ccc(-c2c3nc(c(-c4c(F)cc(S(=O)(=O)[O-])cc4F)c4ccc([nH]4)c(-c4c(F)cc(S(=O)(=O)[O-])cc4F)c4nc(c(-c5c(F)cc(S(=O)(=O)[O-])cc5F)c5ccc2[nH]5)C=C4)C=C3)cc1
REMARK SMILES IDX 19 1 18 2 17 3 15 4 16 5 14 7 5 8 6 9 7 10 13 11 8 12 12 13
REMARK SMILES IDX 9 14 11 15 10 16 4 17 2 19 1 20 3 21 20 22 21 23 22 24 23 26
REMARK SMILES IDX 24 27 25 28 89 29 26 30 88 31 27 32 28 33 29 34 82 35 30 36
REMARK SMILES IDX 87 37 81 38 83 39 31 40 86 41 80 42 79 43 32 45 66 46 45 47
REMARK SMILES IDX 65 48 46 49 49 50 64 51 84 52 47 53 48 54 63 56 85 57 50 58
REMARK SMILES IDX 33 59 34 60 43 61 35 62 36 63 42 64 44 65 37 66 38 67 39 68
REMARK SMILES IDX 40 69 41 70 67 71 68 72 77 73 69 74 70 75 76 76 78 77 71 78
REMARK SMILES IDX 72 79 73 80 74 81 75 82 51 83 52 84 61 85 53 86 54 87 60 88
REMARK SMILES IDX 62 89 55 90 56 91 57 92 58 93 59 94
REMARK H PARENT 17 6 4 18 21 25 83 44 49 55
REMARK Flexibility Score: inf
ROOT
ATOM      1  C   UNL     1      -0.067  -3.410   2.896  1.00  0.00     0.042 C 
ENDROOT
BRANCH   1   2
ATOM      2  C   UNL     1      -0.412  -2.994   1.473  1.00  0.00     0.118 C 
BRANCH   2   3
ATOM      3  N   UNL     1       0.238  -3.783   0.442  1.00  0.00    -0.352 N 
ATOM      4  C   UNL     1       0.012  -3.765  -0.912  1.00  0.00     0.253 C 
ATOM      5  O   UNL     1       0.744  -4.424  -1.653  1.00  0.00    -0.269 OA
ATOM      6  H   UNL     1       0.929  -4.412   0.753  1.00  0.00     0.163 HD
BRANCH   4   7
ATOM      7  C   UNL     1      -1.168  -3.081  -1.484  1.00  0.00     0.063 A 
ATOM      8  C   UNL     1      -1.487  -1.726  -1.301  1.00  0.00     0.048 A 
ATOM      9  C   UNL     1      -2.709  -1.271  -1.831  1.00  0.00     0.035 A 
ATOM     10  C   UNL     1      -3.585  -2.115  -2.542  1.00  0.00    -0.016 A 
ATOM     11  C   UNL     1      -2.021  -3.929  -2.218  1.00  0.00     0.024 A 
ATOM     12  C   UNL     1      -4.805  -1.648  -3.059  1.00  0.00     0.009 A 
ATOM     13  C   UNL     1      -3.226  -3.461  -2.751  1.00  0.00    -0.017 A 
ATOM     14  C   UNL     1      -5.652  -2.498  -3.773  1.00  0.00     0.001 A 
ATOM     15  C   UNL     1      -4.083  -4.305  -3.476  1.00  0.00     0.009 A 
ATOM     16  C   UNL     1      -5.290  -3.825  -3.985  1.00  0.00     0.001 A 
BRANCH   8  17
ATOM     17  N   UNL     1      -0.656  -0.779  -0.707  1.00  0.00    -0.382 N 
ATOM     18  H   UNL     1      -0.928  -0.358   0.140  1.00  0.00     0.160 HD
BRANCH  17  19
ATOM     19  C   UNL     1       0.617  -0.402  -1.323  1.00  0.00     0.073 C 
ATOM     20  C   UNL     1       0.604   1.111  -1.555  1.00  0.00     0.030 C 
ATOM     21  C   UNL     1       1.783  -0.754  -0.405  1.00  0.00     0.030 C 
ENDBRANCH  17  19
ENDBRANCH   8  17
ENDBRANCH   4   7
ENDBRANCH   2   3
ENDBRANCH   1   2
BRANCH   1  22
ATOM     22  C   UNL     1       1.418  -3.619   3.182  1.00  0.00     0.118 C 
BRANCH  22  23
ATOM     23  N   UNL     1       2.282  -2.513   2.788  1.00  0.00    -0.352 N 
ATOM     24  C   UNL     1       2.922  -1.520   3.491  1.00  0.00     0.251 C 
ATOM     25  H   UNL     1       2.439  -2.467   1.818  1.00  0.00     0.163 HD
ATOM     26  O   UNL     1       3.531  -0.652   2.866  1.00  0.00    -0.269 OA
BRANCH  24  27
ATOM     27  C   UNL     1       2.854  -1.438   4.968  1.00  0.00     0.039 A 
ATOM     28  C   UNL     1       2.789  -0.175   5.570  1.00  0.00     0.014 A 
ATOM     29  C   UNL     1       2.870  -2.572   5.773  1.00  0.00     0.014 A 
ATOM     30  C   UNL     1       2.623  -0.063   6.955  1.00  0.00     0.010 A 
ATOM     31  C   UNL     1       2.583  -2.467   7.130  1.00  0.00     0.010 A 
ATOM     32  C   UNL     1       2.446  -1.211   7.740  1.00  0.00    -0.014 A 
BRANCH  32  33
ATOM     33  C   UNL     1       2.110  -1.154   9.190  1.00  0.00     0.031 A 
ATOM     34  C   UNL     1       2.961  -1.901  10.184  1.00  0.00     0.074 A 
ATOM     35  C   UNL     1       0.973  -0.556   9.599  1.00  0.00     0.049 A 
ATOM     36  N   UNL     1       2.696  -2.227  11.423  1.00  0.00    -0.248 NA
ATOM     37  C   UNL     1       4.260  -2.397   9.698  1.00  0.00     0.031 C 
ATOM     38  C   UNL     1       0.028   0.163   8.740  1.00  0.00     0.029 A 
ATOM     39  N   UNL     1       0.403  -0.481  10.846  1.00  0.00    -0.354 N 
ATOM     40  C   UNL     1       3.754  -3.029  11.837  1.00  0.00     0.074 A 
ATOM     41  C   UNL     1       4.657  -3.152  10.712  1.00  0.00     0.031 C 
ATOM     42  C   UNL     1      -0.987   0.624   9.487  1.00  0.00     0.029 A 
ATOM     43  C   UNL     1      -0.798   0.188  10.865  1.00  0.00     0.049 A 
ATOM     44  H   UNL     1       0.815  -0.871  11.650  1.00  0.00     0.167 HD
ATOM     45  C   UNL     1       3.958  -3.605  13.047  1.00  0.00     0.037 A 
ATOM     46  C   UNL     1      -1.663   0.408  11.874  1.00  0.00     0.037 A 
ATOM     47  C   UNL     1       3.105  -3.403  14.188  1.00  0.00     0.049 A 
ATOM     48  C   UNL     1      -1.358  -0.144  13.237  1.00  0.00     0.074 A 
ATOM     49  C   UNL     1       3.259  -3.885  15.477  1.00  0.00     0.029 A 
ATOM     50  N   UNL     1       1.955  -2.628  14.185  1.00  0.00    -0.354 N 
ATOM     51  N   UNL     1      -0.359  -0.907  13.609  1.00  0.00    -0.248 NA
ATOM     52  C   UNL     1      -2.297   0.192  14.316  1.00  0.00     0.031 C 
ATOM     53  C   UNL     1       2.199  -3.401  16.254  1.00  0.00     0.029 A 
ATOM     54  C   UNL     1       1.398  -2.603  15.453  1.00  0.00     0.049 A 
ATOM     55  H   UNL     1       1.588  -2.164  13.398  1.00  0.00     0.167 HD
ATOM     56  C   UNL     1      -0.539  -1.130  14.969  1.00  0.00     0.074 A 
ATOM     57  C   UNL     1      -1.737  -0.412  15.355  1.00  0.00     0.031 C 
ATOM     58  C   UNL     1       0.216  -1.866  15.819  1.00  0.00     0.037 A 
BRANCH  45  59
ATOM     59  C   UNL     1       5.153  -4.504  13.192  1.00  0.00     0.058 A 
ATOM     60  C   UNL     1       6.460  -3.994  13.234  1.00  0.00     0.135 A 
ATOM     61  C   UNL     1       4.989  -5.896  13.292  1.00  0.00     0.135 A 
ATOM     62  F   UNL     1       6.673  -2.673  13.126  1.00  0.00    -0.206 F 
ATOM     63  C   UNL     1       7.566  -4.834  13.326  1.00  0.00     0.059 A 
ATOM     64  C   UNL     1       6.080  -6.753  13.411  1.00  0.00     0.059 A 
ATOM     65  F   UNL     1       3.761  -6.436  13.260  1.00  0.00    -0.206 F 
ATOM     66  C   UNL     1       7.365  -6.213  13.405  1.00  0.00     0.060 A 
BRANCH  66  67
ATOM     67  S   UNL     1       8.805  -7.298  13.502  1.00  0.00     0.124 S 
ATOM     68  O   UNL     1       9.207  -7.371  12.101  1.00  0.00    -0.237 OA
ATOM     69  O   UNL     1       9.705  -6.555  14.379  1.00  0.00    -0.237 OA
ATOM     70  O   UNL     1       8.261  -8.529  14.066  1.00  0.00    -0.744 OA
ENDBRANCH  66  67
ENDBRANCH  45  59
BRANCH  46  71
ATOM     71  C   UNL     1      -2.886   1.216  11.634  1.00  0.00     0.058 A 
ATOM     72  C   UNL     1      -2.958   2.543  12.080  1.00  0.00     0.135 A 
ATOM     73  C   UNL     1      -3.984   0.697  10.933  1.00  0.00     0.135 A 
ATOM     74  F   UNL     1      -1.932   3.079  12.759  1.00  0.00    -0.206 F 
ATOM     75  C   UNL     1      -4.081   3.329  11.847  1.00  0.00     0.059 A 
ATOM     76  C   UNL     1      -5.111   1.470  10.671  1.00  0.00     0.059 A 
ATOM     77  F   UNL     1      -3.952  -0.562  10.470  1.00  0.00    -0.206 F 
ATOM     78  C   UNL     1      -5.153   2.784  11.139  1.00  0.00     0.060 A 
BRANCH  78  79
ATOM     79  S   UNL     1      -6.581   3.830  10.781  1.00  0.00     0.124 S 
ATOM     80  O   UNL     1      -7.294   3.799  12.053  1.00  0.00    -0.237 OA
ATOM     81  O   UNL     1      -5.955   5.102  10.431  1.00  0.00    -0.237 OA
ATOM     82  O   UNL     1      -7.231   3.136   9.673  1.00  0.00    -0.744 OA
ENDBRANCH  78  79
ENDBRANCH  46  71
BRANCH  58  83
ATOM     83  C   UNL     1      -0.209  -1.900  17.256  1.00  0.00     0.058 A 
ATOM     84  C   UNL     1      -1.266  -2.713  17.689  1.00  0.00     0.135 A 
ATOM     85  C   UNL     1       0.479  -1.142  18.216  1.00  0.00     0.135 A 
ATOM     86  F   UNL     1      -1.957  -3.450  16.805  1.00  0.00    -0.206 F 
ATOM     87  C   UNL     1      -1.639  -2.764  19.028  1.00  0.00     0.059 A 
ATOM     88  C   UNL     1       0.134  -1.189  19.563  1.00  0.00     0.059 A 
ATOM     89  F   UNL     1       1.502  -0.353  17.849  1.00  0.00    -0.206 F 
ATOM     90  C   UNL     1      -0.934  -1.996  19.957  1.00  0.00     0.060 A 
BRANCH  90  91
ATOM     91  S   UNL     1      -1.399  -2.092  21.699  1.00  0.00     0.124 S 
ATOM     92  O   UNL     1      -2.558  -1.207  21.741  1.00  0.00    -0.237 OA
ATOM     93  O   UNL     1      -1.680  -3.514  21.875  1.00  0.00    -0.237 OA
ATOM     94  O   UNL     1      -0.209  -1.606  22.392  1.00  0.00    -0.744 OA
ENDBRANCH  90  91
ENDBRANCH  58  83
ENDBRANCH  32  33
ENDBRANCH  24  27
ENDBRANCH  22  23
ENDBRANCH   1  22
TORSDOF 15
