REMARK SMILES CCCCCCNC(=O)Oc1cccc(-c2ccc([C@@H](C)C(=O)NCCCNC(=O)c3ccc(-c4c5nc(c(-c6c(F)cc(S(=O)(=O)[O-])cc6F)c6ccc([nH]6)c(-c6c(F)cc(S(=O)(=O)[O-])cc6F)c6nc(c(-c7c(F)cc(S(=O)(=O)[O-])cc7F)c7ccc4[nH]7)C=C6)C=C5)cc3)cc2)c1
REMARK SMILES IDX 20 1 21 2 19 3 16 4 17 5 98 6 18 7 97 8 15 9 11 10 12 11
REMARK SMILES IDX 99 12 13 13 14 14 10 15 8 16 7 17 9 19 6 20 5 21 4 22 3 23
REMARK SMILES IDX 2 24 1 25 22 26 23 27 24 28 25 30 26 31 27 32 28 33 29 34
REMARK SMILES IDX 30 36 31 37 32 38 96 39 33 40 95 41 34 42 35 43 36 44 89 45
REMARK SMILES IDX 37 46 94 47 88 48 90 49 38 50 93 51 87 52 86 53 39 55 73 56
REMARK SMILES IDX 52 57 72 58 53 59 56 60 71 61 91 62 54 63 55 64 70 66 92 67
REMARK SMILES IDX 57 68 40 69 41 70 50 71 42 72 43 73 49 74 51 75 44 76 45 77
REMARK SMILES IDX 46 78 47 79 48 80 74 81 75 82 84 83 76 84 77 85 83 86 85 87
REMARK SMILES IDX 78 88 79 89 80 90 81 91 82 92 58 93 59 94 68 95 60 96 61 97
REMARK SMILES IDX 67 98 69 99 62 100 63 101 64 102 65 103 66 104
REMARK H PARENT 7 18 24 29 28 35 90 54 56 65
REMARK Flexibility Score: inf
ROOT
ATOM      1  C   UNL     1      -4.781  13.423   0.728  1.00  0.00     0.105 C 
ATOM      2  C   UNL     1      -5.973  14.378   0.732  1.00  0.00     0.023 C 
ENDROOT
BRANCH   1   3
ATOM      3  C   UNL     1      -5.042  12.037   1.293  1.00  0.00    -0.036 A 
ATOM      4  C   UNL     1      -5.290   9.413   2.394  1.00  0.00    -0.018 A 
ATOM      5  C   UNL     1      -5.792  10.540   3.060  1.00  0.00     0.009 A 
ATOM      6  C   UNL     1      -4.706   9.626   1.136  1.00  0.00     0.009 A 
ATOM      7  C   UNL     1      -5.703  11.821   2.504  1.00  0.00     0.005 A 
ATOM      8  C   UNL     1      -4.564  10.914   0.604  1.00  0.00     0.005 A 
BRANCH   4   9
ATOM      9  C   UNL     1      -5.355   8.068   3.006  1.00  0.00    -0.015 A 
ATOM     10  C   UNL     1      -4.381   5.877   3.425  1.00  0.00     0.133 A 
ATOM     11  C   UNL     1      -5.470   5.502   4.204  1.00  0.00     0.047 A 
ATOM     12  C   UNL     1      -4.318   7.137   2.827  1.00  0.00     0.056 A 
ATOM     13  C   UNL     1      -6.504   6.409   4.401  1.00  0.00     0.004 A 
ATOM     14  C   UNL     1      -6.449   7.673   3.802  1.00  0.00     0.009 A 
BRANCH  10  15
ATOM     15  O   UNL     1      -3.420   4.889   3.161  1.00  0.00    -0.410 OA
BRANCH  15  16
ATOM     16  C   UNL     1      -2.079   5.194   3.338  1.00  0.00     0.412 C 
ATOM     17  N   UNL     1      -1.249   4.179   2.947  1.00  0.00    -0.321 N 
ATOM     18  H   UNL     1      -0.285   4.315   3.091  1.00  0.00     0.167 HD
ATOM     19  O   UNL     1      -1.626   6.240   3.784  1.00  0.00    -0.224 OA
BRANCH  17  20
ATOM     20  C   UNL     1      -1.646   2.924   2.342  1.00  0.00     0.119 C 
BRANCH  20  21
ATOM     21  C   UNL     1      -1.054   2.761   0.942  1.00  0.00     0.021 C 
BRANCH  21  22
ATOM     22  C   UNL     1       0.476   2.664   0.901  1.00  0.00     0.002 C 
BRANCH  22  23
ATOM     23  C   UNL     1       1.081   1.511   1.710  1.00  0.00    -0.000 C 
BRANCH  23  24
ATOM     24  C   UNL     1       0.599   0.112   1.318  1.00  0.00    -0.003 C 
ATOM     25  C   UNL     1       0.965  -0.271  -0.108  1.00  0.00     0.004 C 
ENDBRANCH  23  24
ENDBRANCH  22  23
ENDBRANCH  21  22
ENDBRANCH  20  21
ENDBRANCH  17  20
ENDBRANCH  15  16
ENDBRANCH  10  15
ENDBRANCH   4   9
ENDBRANCH   1   3
BRANCH   1  26
ATOM     26  C   UNL     1      -3.463  14.046   1.216  1.00  0.00     0.227 C 
ATOM     27  O   UNL     1      -2.489  14.098   0.454  1.00  0.00    -0.274 OA
ATOM     28  N   UNL     1      -3.283  14.575   2.457  1.00  0.00    -0.356 N 
ATOM     29  H   UNL     1      -2.392  14.967   2.601  1.00  0.00     0.163 HD
BRANCH  28  30
ATOM     30  C   UNL     1      -4.162  14.668   3.605  1.00  0.00     0.117 C 
BRANCH  30  31
ATOM     31  C   UNL     1      -3.871  13.601   4.658  1.00  0.00     0.042 C 
BRANCH  31  32
ATOM     32  C   UNL     1      -2.710  13.937   5.585  1.00  0.00     0.118 C 
BRANCH  32  33
ATOM     33  N   UNL     1      -2.992  15.096   6.419  1.00  0.00    -0.352 N 
ATOM     34  C   UNL     1      -3.055  15.238   7.781  1.00  0.00     0.251 C 
ATOM     35  H   UNL     1      -3.169  15.924   5.916  1.00  0.00     0.163 HD
ATOM     36  O   UNL     1      -3.540  16.272   8.236  1.00  0.00    -0.269 OA
BRANCH  34  37
ATOM     37  C   UNL     1      -2.561  14.189   8.705  1.00  0.00     0.039 A 
ATOM     38  C   UNL     1      -3.190  14.054   9.947  1.00  0.00     0.014 A 
ATOM     39  C   UNL     1      -1.450  13.393   8.411  1.00  0.00     0.014 A 
ATOM     40  C   UNL     1      -2.730  13.110  10.867  1.00  0.00     0.010 A 
ATOM     41  C   UNL     1      -1.048  12.388   9.292  1.00  0.00     0.010 A 
ATOM     42  C   UNL     1      -1.670  12.248  10.539  1.00  0.00    -0.014 A 
BRANCH  42  43
ATOM     43  C   UNL     1      -1.220  11.210  11.503  1.00  0.00     0.031 A 
ATOM     44  C   UNL     1       0.167  11.248  12.089  1.00  0.00     0.074 A 
ATOM     45  C   UNL     1      -2.071  10.222  11.846  1.00  0.00     0.049 A 
ATOM     46  N   UNL     1       0.704  10.462  12.989  1.00  0.00    -0.248 NA
ATOM     47  C   UNL     1       1.080  12.287  11.586  1.00  0.00     0.031 C 
ATOM     48  C   UNL     1      -3.415  10.038  11.292  1.00  0.00     0.029 A 
ATOM     49  N   UNL     1      -1.942   9.195  12.746  1.00  0.00    -0.354 N 
ATOM     50  C   UNL     1       2.011  10.908  13.155  1.00  0.00     0.074 A 
ATOM     51  C   UNL     1       2.206  11.993  12.219  1.00  0.00     0.031 C 
ATOM     52  C   UNL     1      -4.002   8.994  11.898  1.00  0.00     0.029 A 
ATOM     53  C   UNL     1      -3.069   8.415  12.858  1.00  0.00     0.049 A 
ATOM     54  H   UNL     1      -1.120   9.033  13.264  1.00  0.00     0.167 HD
ATOM     55  C   UNL     1       2.954  10.470  14.025  1.00  0.00     0.037 A 
ATOM     56  C   UNL     1      -3.327   7.359  13.653  1.00  0.00     0.037 A 
ATOM     57  C   UNL     1       2.746   9.396  14.963  1.00  0.00     0.049 A 
ATOM     58  C   UNL     1      -2.276   6.912  14.631  1.00  0.00     0.074 A 
ATOM     59  C   UNL     1       3.616   8.908  15.923  1.00  0.00     0.029 A 
ATOM     60  N   UNL     1       1.585   8.640  15.058  1.00  0.00    -0.354 N 
ATOM     61  N   UNL     1      -1.071   7.394  14.826  1.00  0.00    -0.248 NA
ATOM     62  C   UNL     1      -2.626   5.789  15.510  1.00  0.00     0.031 C 
ATOM     63  C   UNL     1       2.999   7.829  16.567  1.00  0.00     0.029 A 
ATOM     64  C   UNL     1       1.723   7.679  16.047  1.00  0.00     0.049 A 
ATOM     65  H   UNL     1       0.782   8.767  14.503  1.00  0.00     0.167 HD
ATOM     66  C   UNL     1      -0.527   6.647  15.866  1.00  0.00     0.074 A 
ATOM     67  C   UNL     1      -1.546   5.700  16.273  1.00  0.00     0.031 C 
ATOM     68  C   UNL     1       0.702   6.736  16.433  1.00  0.00     0.037 A 
BRANCH  55  69
ATOM     69  C   UNL     1       4.295  11.157  14.008  1.00  0.00     0.058 A 
ATOM     70  C   UNL     1       4.452  12.482  14.451  1.00  0.00     0.135 A 
ATOM     71  C   UNL     1       5.446  10.474  13.581  1.00  0.00     0.135 A 
ATOM     72  F   UNL     1       3.386  13.190  14.857  1.00  0.00    -0.206 F 
ATOM     73  C   UNL     1       5.692  13.113  14.442  1.00  0.00     0.059 A 
ATOM     74  C   UNL     1       6.702  11.076  13.592  1.00  0.00     0.059 A 
ATOM     75  F   UNL     1       5.358   9.207  13.148  1.00  0.00    -0.206 F 
ATOM     76  C   UNL     1       6.813  12.401  14.011  1.00  0.00     0.060 A 
BRANCH  76  77
ATOM     77  S   UNL     1       8.416  13.231  14.016  1.00  0.00     0.124 S 
ATOM     78  O   UNL     1       8.269  14.156  12.896  1.00  0.00    -0.237 OA
ATOM     79  O   UNL     1       8.447  13.842  15.341  1.00  0.00    -0.237 OA
ATOM     80  O   UNL     1       9.365  12.142  13.809  1.00  0.00    -0.744 OA
ENDBRANCH  76  77
ENDBRANCH  55  69
BRANCH  56  81
ATOM     81  C   UNL     1      -4.651   6.684  13.584  1.00  0.00     0.058 A 
ATOM     82  C   UNL     1      -5.575   6.791  14.635  1.00  0.00     0.135 A 
ATOM     83  C   UNL     1      -5.027   5.935  12.459  1.00  0.00     0.135 A 
ATOM     84  F   UNL     1      -5.262   7.494  15.734  1.00  0.00    -0.206 F 
ATOM     85  C   UNL     1      -6.816   6.164  14.582  1.00  0.00     0.059 A 
ATOM     86  C   UNL     1      -6.273   5.322  12.370  1.00  0.00     0.059 A 
ATOM     87  F   UNL     1      -4.188   5.817  11.418  1.00  0.00    -0.206 F 
ATOM     88  C   UNL     1      -7.157   5.433  13.443  1.00  0.00     0.060 A 
BRANCH  88  89
ATOM     89  S   UNL     1      -8.788   4.663  13.361  1.00  0.00     0.124 S 
ATOM     90  O   UNL     1      -8.634   3.548  14.288  1.00  0.00    -0.237 OA
ATOM     91  O   UNL     1      -9.661   5.746  13.804  1.00  0.00    -0.237 OA
ATOM     92  O   UNL     1      -8.918   4.301  11.953  1.00  0.00    -0.744 OA
ENDBRANCH  88  89
ENDBRANCH  56  81
BRANCH  68  93
ATOM     93  C   UNL     1       0.994   5.800  17.575  1.00  0.00     0.058 A 
ATOM     94  C   UNL     1       1.149   4.418  17.379  1.00  0.00     0.135 A 
ATOM     95  C   UNL     1       1.115   6.293  18.885  1.00  0.00     0.135 A 
ATOM     96  F   UNL     1       1.042   3.894  16.148  1.00  0.00    -0.206 F 
ATOM     97  C   UNL     1       1.356   3.551  18.447  1.00  0.00     0.059 A 
ATOM     98  C   UNL     1       1.355   5.448  19.963  1.00  0.00     0.059 A 
ATOM     99  F   UNL     1       0.994   7.607  19.128  1.00  0.00    -0.206 F 
ATOM    100  C   UNL     1       1.449   4.075  19.737  1.00  0.00     0.060 A 
BRANCH 100 101
ATOM    101  S   UNL     1       1.692   2.940  21.119  1.00  0.00     0.124 S 
ATOM    102  O   UNL     1       0.362   2.357  21.256  1.00  0.00    -0.237 OA
ATOM    103  O   UNL     1       2.728   2.045  20.612  1.00  0.00    -0.237 OA
ATOM    104  O   UNL     1       2.110   3.817  22.209  1.00  0.00    -0.744 OA
ENDBRANCH 100 101
ENDBRANCH  68  93
ENDBRANCH  42  43
ENDBRANCH  34  37
ENDBRANCH  32  33
ENDBRANCH  31  32
ENDBRANCH  30  31
ENDBRANCH  28  30
ENDBRANCH   1  26
TORSDOF 22
