REMARK SMILES C=CCOC(=O)N[C@@H](Cc1ccccc1)C(=O)NCCCNC(=O)c1ccc(-c2c3nc(c(-c4c(F)cc(S(=O)(=O)[O-])cc4F)c4ccc([nH]4)c(-c4c(F)cc(S(=O)(=O)[O-])cc4F)c4nc(c(-c5c(F)cc(S(=O)(=O)[O-])cc5F)c5ccc2[nH]5)C=C4)C=C3)cc1
REMARK SMILES IDX 19 1 18 2 16 3 17 4 8 6 7 7 5 8 6 9 4 11 3 12 2 13 1 14 9 15
REMARK SMILES IDX 10 16 11 17 15 18 12 19 14 20 13 21 20 22 21 23 22 24 23 25
REMARK SMILES IDX 24 27 25 28 26 29 90 30 27 31 89 32 28 33 29 34 30 35 83 36
REMARK SMILES IDX 31 37 88 38 82 39 84 40 32 41 87 42 81 43 80 44 33 46 67 47
REMARK SMILES IDX 46 48 66 49 47 50 50 51 65 52 85 53 48 54 49 55 64 57 86 58
REMARK SMILES IDX 51 59 34 60 35 61 44 62 36 63 37 64 43 65 45 66 38 67 39 68
REMARK SMILES IDX 40 69 41 70 42 71 68 72 69 73 78 74 70 75 71 76 77 77 79 78
REMARK SMILES IDX 72 79 73 80 74 81 75 82 76 83 52 84 53 85 62 86 54 87 55 88
REMARK SMILES IDX 61 89 63 90 56 91 57 92 58 93 59 94 60 95
REMARK H PARENT 18 5 7 10 22 26 84 45 50 56
REMARK Flexibility Score: inf
ROOT
ATOM      1  C   UNL     1      -1.547  -7.186   0.841  1.00  0.00     0.117 C 
ENDROOT
BRANCH   1   2
ATOM      2  N   UNL     1      -1.433  -6.497   2.100  1.00  0.00    -0.354 N 
ATOM      3  C   UNL     1      -2.172  -5.416   2.503  1.00  0.00     0.243 C 
ATOM      4  O   UNL     1      -2.320  -5.259   3.720  1.00  0.00    -0.273 OA
ATOM      5  H   UNL     1      -0.759  -6.835   2.732  1.00  0.00     0.163 HD
BRANCH   3   6
ATOM      6  C   UNL     1      -2.887  -4.473   1.496  1.00  0.00     0.179 C 
BRANCH   6   7
ATOM      7  N   UNL     1      -2.024  -4.040   0.396  1.00  0.00    -0.309 N 
ATOM      8  C   UNL     1      -1.472  -2.812   0.201  1.00  0.00     0.408 C 
ATOM      9  O   UNL     1      -0.892  -2.557  -0.842  1.00  0.00    -0.225 OA
ATOM     10  H   UNL     1      -1.819  -4.720  -0.286  1.00  0.00     0.167 HD
BRANCH   8  11
ATOM     11  O   UNL     1      -1.671  -1.957   1.232  1.00  0.00    -0.445 OA
BRANCH  11  12
ATOM     12  C   UNL     1      -1.246  -0.609   0.995  1.00  0.00     0.262 C 
BRANCH  12  13
ATOM     13  C   UNL     1       0.242  -0.474   1.116  1.00  0.00     0.006 C 
ATOM     14  C   UNL     1       1.026  -0.017   0.129  1.00  0.00     0.007 C 
ENDBRANCH  12  13
ENDBRANCH  11  12
ENDBRANCH   8  11
ENDBRANCH   6   7
BRANCH   6  15
ATOM     15  C   UNL     1      -4.300  -4.924   1.024  1.00  0.00     0.070 C 
BRANCH  15  16
ATOM     16  C   UNL     1      -4.418  -6.121   0.098  1.00  0.00    -0.045 A 
ATOM     17  C   UNL     1      -4.904  -7.344   0.588  1.00  0.00     0.004 A 
ATOM     18  C   UNL     1      -3.963  -6.066  -1.232  1.00  0.00     0.004 A 
ATOM     19  C   UNL     1      -4.832  -8.503  -0.193  1.00  0.00     0.000 A 
ATOM     20  C   UNL     1      -3.854  -7.234  -1.994  1.00  0.00     0.000 A 
ATOM     21  C   UNL     1      -4.272  -8.454  -1.468  1.00  0.00     0.000 A 
ENDBRANCH  15  16
ENDBRANCH   6  15
ENDBRANCH   3   6
ENDBRANCH   1   2
BRANCH   1  22
ATOM     22  C   UNL     1      -0.258  -7.583   0.169  1.00  0.00     0.042 C 
BRANCH  22  23
ATOM     23  C   UNL     1       0.280  -8.914   0.648  1.00  0.00     0.118 C 
BRANCH  23  24
ATOM     24  N   UNL     1      -0.625 -10.036   0.390  1.00  0.00    -0.352 N 
ATOM     25  C   UNL     1      -0.478 -11.158  -0.392  1.00  0.00     0.251 C 
ATOM     26  H   UNL     1      -1.490  -9.977   0.858  1.00  0.00     0.163 HD
ATOM     27  O   UNL     1      -1.440 -11.903  -0.565  1.00  0.00    -0.269 OA
BRANCH  25  28
ATOM     28  C   UNL     1       0.813 -11.444  -1.051  1.00  0.00     0.039 A 
ATOM     29  C   UNL     1       0.823 -11.974  -2.344  1.00  0.00     0.014 A 
ATOM     30  C   UNL     1       2.017 -11.154  -0.412  1.00  0.00     0.014 A 
ATOM     31  C   UNL     1       2.036 -12.108  -3.025  1.00  0.00     0.010 A 
ATOM     32  C   UNL     1       3.196 -11.141  -1.139  1.00  0.00     0.010 A 
ATOM     33  C   UNL     1       3.226 -11.635  -2.449  1.00  0.00    -0.014 A 
BRANCH  33  34
ATOM     34  C   UNL     1       4.520 -11.659  -3.176  1.00  0.00     0.031 A 
ATOM     35  C   UNL     1       5.695 -12.396  -2.589  1.00  0.00     0.074 A 
ATOM     36  C   UNL     1       4.662 -10.949  -4.312  1.00  0.00     0.049 A 
ATOM     37  N   UNL     1       6.928 -12.467  -3.022  1.00  0.00    -0.248 NA
ATOM     38  C   UNL     1       5.465 -13.113  -1.323  1.00  0.00     0.031 C 
ATOM     39  C   UNL     1       3.615 -10.148  -4.950  1.00  0.00     0.029 A 
ATOM     40  N   UNL     1       5.749 -10.784  -5.133  1.00  0.00    -0.354 N 
ATOM     41  C   UNL     1       7.617 -13.215  -2.074  1.00  0.00     0.074 A 
ATOM     42  C   UNL     1       6.689 -13.499  -1.003  1.00  0.00     0.031 C 
ATOM     43  C   UNL     1       4.095  -9.620  -6.087  1.00  0.00     0.029 A 
ATOM     44  C   UNL     1       5.496 -10.000  -6.234  1.00  0.00     0.049 A 
ATOM     45  H   UNL     1       6.628 -11.189  -4.951  1.00  0.00     0.167 HD
ATOM     46  C   UNL     1       8.896 -13.658  -2.106  1.00  0.00     0.037 A 
ATOM     47  C   UNL     1       6.302  -9.632  -7.248  1.00  0.00     0.037 A 
ATOM     48  C   UNL     1       9.806 -13.383  -3.186  1.00  0.00     0.049 A 
ATOM     49  C   UNL     1       7.726 -10.114  -7.258  1.00  0.00     0.074 A 
ATOM     50  C   UNL     1      11.106 -13.825  -3.352  1.00  0.00     0.029 A 
ATOM     51  N   UNL     1       9.512 -12.584  -4.284  1.00  0.00    -0.354 N 
ATOM     52  N   UNL     1       8.345 -10.879  -6.389  1.00  0.00    -0.248 NA
ATOM     53  C   UNL     1       8.562  -9.685  -8.387  1.00  0.00     0.031 C 
ATOM     54  C   UNL     1      11.617 -13.247  -4.519  1.00  0.00     0.029 A 
ATOM     55  C   UNL     1      10.615 -12.496  -5.116  1.00  0.00     0.049 A 
ATOM     56  H   UNL     1       8.646 -12.145  -4.446  1.00  0.00     0.167 HD
ATOM     57  C   UNL     1       9.634 -11.050  -6.883  1.00  0.00     0.074 A 
ATOM     58  C   UNL     1       9.701 -10.313  -8.129  1.00  0.00     0.031 C 
ATOM     59  C   UNL     1      10.665 -11.756  -6.355  1.00  0.00     0.037 A 
BRANCH  46  60
ATOM     60  C   UNL     1       9.372 -14.473  -0.932  1.00  0.00     0.058 A 
ATOM     61  C   UNL     1       8.833 -15.739  -0.641  1.00  0.00     0.135 A 
ATOM     62  C   UNL     1      10.357 -13.973  -0.066  1.00  0.00     0.135 A 
ATOM     63  F   UNL     1       7.879 -16.266  -1.426  1.00  0.00    -0.206 F 
ATOM     64  C   UNL     1       9.203 -16.446   0.499  1.00  0.00     0.059 A 
ATOM     65  C   UNL     1      10.772 -14.681   1.059  1.00  0.00     0.059 A 
ATOM     66  F   UNL     1      10.914 -12.773  -0.294  1.00  0.00    -0.206 F 
ATOM     67  C   UNL     1      10.167 -15.903   1.349  1.00  0.00     0.060 A 
BRANCH  67  68
ATOM     68  S   UNL     1      10.599 -16.808   2.849  1.00  0.00     0.124 S 
ATOM     69  O   UNL     1       9.409 -16.595   3.668  1.00  0.00    -0.237 OA
ATOM     70  O   UNL     1      10.789 -18.166   2.351  1.00  0.00    -0.237 OA
ATOM     71  O   UNL     1      11.809 -16.138   3.314  1.00  0.00    -0.744 OA
ENDBRANCH  67  68
ENDBRANCH  46  60
BRANCH  47  72
ATOM     72  C   UNL     1       5.755  -8.814  -8.364  1.00  0.00     0.058 A 
ATOM     73  C   UNL     1       5.546  -9.384  -9.629  1.00  0.00     0.135 A 
ATOM     74  C   UNL     1       5.382  -7.474  -8.182  1.00  0.00     0.135 A 
ATOM     75  F   UNL     1       5.893 -10.660  -9.854  1.00  0.00    -0.206 F 
ATOM     76  C   UNL     1       4.987  -8.656 -10.674  1.00  0.00     0.059 A 
ATOM     77  C   UNL     1       4.797  -6.732  -9.205  1.00  0.00     0.059 A 
ATOM     78  F   UNL     1       5.546  -6.886  -6.986  1.00  0.00    -0.206 F 
ATOM     79  C   UNL     1       4.606  -7.333 -10.448  1.00  0.00     0.060 A 
BRANCH  79  80
ATOM     80  S   UNL     1       3.805  -6.428 -11.790  1.00  0.00     0.124 S 
ATOM     81  O   UNL     1       4.909  -6.249 -12.726  1.00  0.00    -0.237 OA
ATOM     82  O   UNL     1       2.760  -7.360 -12.204  1.00  0.00    -0.237 OA
ATOM     83  O   UNL     1       3.327  -5.212 -11.139  1.00  0.00    -0.744 OA
ENDBRANCH  79  80
ENDBRANCH  47  72
BRANCH  59  84
ATOM     84  C   UNL     1      11.948 -11.798  -7.139  1.00  0.00     0.058 A 
ATOM     85  C   UNL     1      12.784 -10.677  -7.255  1.00  0.00     0.135 A 
ATOM     86  C   UNL     1      12.374 -12.997  -7.736  1.00  0.00     0.135 A 
ATOM     87  F   UNL     1      12.422  -9.504  -6.711  1.00  0.00    -0.206 F 
ATOM     88  C   UNL     1      13.984 -10.735  -7.956  1.00  0.00     0.059 A 
ATOM     89  C   UNL     1      13.585 -13.087  -8.413  1.00  0.00     0.059 A 
ATOM     90  F   UNL     1      11.618 -14.103  -7.646  1.00  0.00    -0.206 F 
ATOM     91  C   UNL     1      14.379 -11.947  -8.528  1.00  0.00     0.060 A 
BRANCH  91  92
ATOM     92  S   UNL     1      15.957 -12.017  -9.401  1.00  0.00     0.124 S 
ATOM     93  O   UNL     1      15.657 -11.262 -10.612  1.00  0.00    -0.237 OA
ATOM     94  O   UNL     1      16.863 -11.370  -8.457  1.00  0.00    -0.237 OA
ATOM     95  O   UNL     1      16.177 -13.448  -9.591  1.00  0.00    -0.744 OA
ENDBRANCH  91  92
ENDBRANCH  59  84
ENDBRANCH  33  34
ENDBRANCH  25  28
ENDBRANCH  23  24
ENDBRANCH  22  23
ENDBRANCH   1  22
TORSDOF 19
