REMARK SMILES CC[C@](C)([NH2+]CC(=O)NC[C@H]1CCCO1)C(=O)NCCCNC(=O)c1ccc(-c2c3nc(c(-c4c(F)cc(S(=O)(=O)[O-])cc4F)c4ccc([nH]4)c(-c4c(F)cc(S(=O)(=O)[O-])cc4F)c4nc(c(-c5c(F)cc(S(=O)(=O)[O-])cc5F)c5ccc2[nH]5)C=C4)C=C3)cc1
REMARK SMILES IDX 19 1 18 2 16 3 17 4 3 6 4 7 2 8 1 9 5 10 6 13 7 14 8 15 9 16
REMARK SMILES IDX 10 18 11 19 12 20 15 21 13 22 14 23 20 24 21 25 22 26 23 27
REMARK SMILES IDX 24 29 25 30 26 31 90 32 27 33 89 34 28 35 29 36 30 37 83 38
REMARK SMILES IDX 31 39 88 40 82 41 84 42 32 43 87 44 81 45 80 46 33 48 67 49
REMARK SMILES IDX 46 50 66 51 47 52 50 53 65 54 85 55 48 56 49 57 64 59 86 60
REMARK SMILES IDX 51 61 34 62 35 63 44 64 36 65 37 66 43 67 45 68 38 69 39 70
REMARK SMILES IDX 40 71 41 72 42 73 68 74 69 75 78 76 70 77 71 78 77 79 79 80
REMARK SMILES IDX 72 81 73 82 74 83 75 84 76 85 52 86 53 87 62 88 54 89 55 90
REMARK SMILES IDX 61 91 63 92 56 93 57 94 58 95 59 96 60 97
REMARK H PARENT 18 5 5 11 5 12 9 17 22 28 84 47 50 58
REMARK Flexibility Score: inf
ROOT
ATOM      1  C   UNL     1      -1.974   3.305   1.008  1.00  0.00     0.118 C 
ENDROOT
BRANCH   1   2
ATOM      2  N   UNL     1      -0.603   3.206   1.458  1.00  0.00    -0.351 N 
ATOM      3  C   UNL     1       0.416   2.642   0.715  1.00  0.00     0.281 C 
ATOM      4  O   UNL     1       1.310   3.430   0.362  1.00  0.00    -0.268 OA
ATOM      5  H   UNL     1      -0.382   3.562   2.349  1.00  0.00     0.163 HD
BRANCH   3   6
ATOM      6  C   UNL     1       0.593   0.995   0.457  1.00  0.00     0.172 C 
ATOM      7  C   UNL     1       1.909   1.022   1.419  1.00  0.00     0.090 C 
BRANCH   6   8
ATOM      8  C   UNL     1       0.620  -0.056  -1.200  1.00  0.00     0.075 C 
ATOM      9  C   UNL     1       2.008   0.202  -2.866  1.00  0.00     0.011 C 
ENDBRANCH   6   8
BRANCH   6  10
ATOM     10  N   UNL     1      -0.354   0.310   1.327  1.00  0.00    -0.326 N 
ATOM     11  H   UNL     1      -0.409   0.846   2.193  1.00  0.00     0.347 HD
ATOM     12  H   UNL     1       0.019  -0.636   1.407  1.00  0.00     0.347 HD
BRANCH  10  13
ATOM     13  C   UNL     1      -1.713   0.118   0.855  1.00  0.00     0.362 C 
BRANCH  13  14
ATOM     14  C   UNL     1      -2.185   0.524  -0.560  1.00  0.00     0.275 C 
ATOM     15  O   UNL     1      -3.221  -0.027  -0.969  1.00  0.00    -0.269 OA
ATOM     16  N   UNL     1      -1.641   1.440  -1.429  1.00  0.00    -0.349 N 
ATOM     17  H   UNL     1      -2.277   1.607  -2.161  1.00  0.00     0.163 HD
BRANCH  16  18
ATOM     18  C   UNL     1      -0.385   2.293  -1.653  1.00  0.00     0.148 C 
BRANCH  18  19
ATOM     19  C   UNL     1       1.160   1.609  -1.855  1.00  0.00     0.137 C 
ATOM     20  C   UNL     1       2.458   0.161  -1.047  1.00  0.00     0.036 C 
ATOM     21  O   UNL     1       0.130   0.611  -3.103  1.00  0.00    -0.376 OA
ATOM     22  C   UNL     1       1.889  -1.586  -1.864  1.00  0.00     0.031 C 
ATOM     23  C   UNL     1       0.483  -1.169  -3.103  1.00  0.00     0.160 C 
ENDBRANCH  18  19
ENDBRANCH  16  18
ENDBRANCH  13  14
ENDBRANCH  10  13
ENDBRANCH   6  10
ENDBRANCH   3   6
ENDBRANCH   1   2
BRANCH   1  24
ATOM     24  C   UNL     1      -3.043   3.096   2.046  1.00  0.00     0.042 C 
BRANCH  24  25
ATOM     25  C   UNL     1      -3.952   4.294   2.100  1.00  0.00     0.118 C 
BRANCH  25  26
ATOM     26  N   UNL     1      -4.697   4.517   0.856  1.00  0.00    -0.352 N 
ATOM     27  C   UNL     1      -6.047   4.712   0.672  1.00  0.00     0.251 C 
ATOM     28  H   UNL     1      -4.153   4.528   0.035  1.00  0.00     0.163 HD
ATOM     29  O   UNL     1      -6.519   4.769  -0.459  1.00  0.00    -0.269 OA
BRANCH  27  30
ATOM     30  C   UNL     1      -6.916   4.816   1.859  1.00  0.00     0.039 A 
ATOM     31  C   UNL     1      -8.170   4.208   1.862  1.00  0.00     0.014 A 
ATOM     32  C   UNL     1      -6.439   5.452   3.004  1.00  0.00     0.014 A 
ATOM     33  C   UNL     1      -8.912   4.205   3.041  1.00  0.00     0.010 A 
ATOM     34  C   UNL     1      -7.067   5.242   4.213  1.00  0.00     0.010 A 
ATOM     35  C   UNL     1      -8.350   4.698   4.232  1.00  0.00    -0.014 A 
BRANCH  35  36
ATOM     36  C   UNL     1      -9.126   4.768   5.489  1.00  0.00     0.031 A 
ATOM     37  C   UNL     1      -9.330   6.109   6.152  1.00  0.00     0.074 A 
ATOM     38  C   UNL     1      -9.624   3.640   6.027  1.00  0.00     0.049 A 
ATOM     39  N   UNL     1      -9.995   6.396   7.240  1.00  0.00    -0.248 NA
ATOM     40  C   UNL     1      -8.669   7.280   5.543  1.00  0.00     0.031 C 
ATOM     41  C   UNL     1      -9.418   2.286   5.506  1.00  0.00     0.029 A 
ATOM     42  N   UNL     1     -10.422   3.455   7.124  1.00  0.00    -0.354 N 
ATOM     43  C   UNL     1      -9.821   7.761   7.437  1.00  0.00     0.074 A 
ATOM     44  C   UNL     1      -8.905   8.230   6.429  1.00  0.00     0.031 C 
ATOM     45  C   UNL     1     -10.129   1.419   6.242  1.00  0.00     0.029 A 
ATOM     46  C   UNL     1     -10.800   2.147   7.313  1.00  0.00     0.049 A 
ATOM     47  H   UNL     1     -10.700   4.188   7.719  1.00  0.00     0.167 HD
ATOM     48  C   UNL     1     -10.413   8.567   8.346  1.00  0.00     0.037 A 
ATOM     49  C   UNL     1     -11.606   1.606   8.245  1.00  0.00     0.037 A 
ATOM     50  C   UNL     1     -11.348   8.089   9.325  1.00  0.00     0.049 A 
ATOM     51  C   UNL     1     -12.255   2.521   9.248  1.00  0.00     0.074 A 
ATOM     52  C   UNL     1     -12.049   8.813  10.270  1.00  0.00     0.029 A 
ATOM     53  N   UNL     1     -11.710   6.758   9.484  1.00  0.00    -0.354 N 
ATOM     54  N   UNL     1     -12.136   3.823   9.379  1.00  0.00    -0.248 NA
ATOM     55  C   UNL     1     -13.162   1.899  10.217  1.00  0.00     0.031 C 
ATOM     56  C   UNL     1     -12.781   7.911  11.048  1.00  0.00     0.029 A 
ATOM     57  C   UNL     1     -12.605   6.636  10.531  1.00  0.00     0.049 A 
ATOM     58  H   UNL     1     -11.378   6.013   8.933  1.00  0.00     0.167 HD
ATOM     59  C   UNL     1     -12.985   4.180  10.420  1.00  0.00     0.074 A 
ATOM     60  C   UNL     1     -13.620   2.957  10.870  1.00  0.00     0.031 C 
ATOM     61  C   UNL     1     -13.226   5.405  10.954  1.00  0.00     0.037 A 
BRANCH  48  62
ATOM     62  C   UNL     1     -10.067  10.032   8.315  1.00  0.00     0.058 A 
ATOM     63  C   UNL     1     -10.422  10.862   7.237  1.00  0.00     0.135 A 
ATOM     64  C   UNL     1      -9.383  10.621   9.390  1.00  0.00     0.135 A 
ATOM     65  F   UNL     1     -11.053  10.351   6.167  1.00  0.00    -0.206 F 
ATOM     66  C   UNL     1     -10.088  12.212   7.214  1.00  0.00     0.059 A 
ATOM     67  C   UNL     1      -9.072  11.977   9.406  1.00  0.00     0.059 A 
ATOM     68  F   UNL     1      -9.006   9.876  10.441  1.00  0.00    -0.206 F 
ATOM     69  C   UNL     1      -9.418  12.762   8.307  1.00  0.00     0.060 A 
BRANCH  69  70
ATOM     70  S   UNL     1      -9.015  14.520   8.273  1.00  0.00     0.124 S 
ATOM     71  O   UNL     1      -7.987  14.564   7.237  1.00  0.00    -0.237 OA
ATOM     72  O   UNL     1     -10.296  15.124   7.921  1.00  0.00    -0.237 OA
ATOM     73  O   UNL     1      -8.548  14.790   9.629  1.00  0.00    -0.744 OA
ENDBRANCH  69  70
ENDBRANCH  48  62
BRANCH  49  74
ATOM     74  C   UNL     1     -11.866   0.141   8.247  1.00  0.00     0.058 A 
ATOM     75  C   UNL     1     -13.138  -0.376   7.954  1.00  0.00     0.135 A 
ATOM     76  C   UNL     1     -10.842  -0.775   8.534  1.00  0.00     0.135 A 
ATOM     77  F   UNL     1     -14.152   0.457   7.671  1.00  0.00    -0.206 F 
ATOM     78  C   UNL     1     -13.393  -1.743   7.974  1.00  0.00     0.059 A 
ATOM     79  C   UNL     1     -11.063  -2.148   8.527  1.00  0.00     0.059 A 
ATOM     80  F   UNL     1      -9.602  -0.336   8.799  1.00  0.00    -0.206 F 
ATOM     81  C   UNL     1     -12.346  -2.622   8.260  1.00  0.00     0.060 A 
BRANCH  81  82
ATOM     82  S   UNL     1     -12.680  -4.396   8.253  1.00  0.00     0.124 S 
ATOM     83  O   UNL     1     -13.519  -4.543   9.437  1.00  0.00    -0.237 OA
ATOM     84  O   UNL     1     -13.349  -4.575   6.968  1.00  0.00    -0.237 OA
ATOM     85  O   UNL     1     -11.348  -4.989   8.347  1.00  0.00    -0.744 OA
ENDBRANCH  81  82
ENDBRANCH  49  74
BRANCH  61  86
ATOM     86  C   UNL     1     -14.265   5.489  12.039  1.00  0.00     0.058 A 
ATOM     87  C   UNL     1     -14.073   4.918  13.306  1.00  0.00     0.135 A 
ATOM     88  C   UNL     1     -15.468   6.177  11.804  1.00  0.00     0.135 A 
ATOM     89  F   UNL     1     -12.941   4.253  13.586  1.00  0.00    -0.206 F 
ATOM     90  C   UNL     1     -15.062   4.975  14.283  1.00  0.00     0.059 A 
ATOM     91  C   UNL     1     -16.450   6.285  12.780  1.00  0.00     0.059 A 
ATOM     92  F   UNL     1     -15.695   6.760  10.616  1.00  0.00    -0.206 F 
ATOM     93  C   UNL     1     -16.248   5.659  14.008  1.00  0.00     0.060 A 
BRANCH  93  94
ATOM     94  S   UNL     1     -17.525   5.716  15.279  1.00  0.00     0.124 S 
ATOM     95  O   UNL     1     -18.006   4.338  15.274  1.00  0.00    -0.237 OA
ATOM     96  O   UNL     1     -16.770   6.120  16.461  1.00  0.00    -0.237 OA
ATOM     97  O   UNL     1     -18.466   6.710  14.773  1.00  0.00    -0.744 OA
ENDBRANCH  93  94
ENDBRANCH  61  86
ENDBRANCH  35  36
ENDBRANCH  27  30
ENDBRANCH  25  26
ENDBRANCH  24  25
ENDBRANCH   1  24
TORSDOF 19
