REMARK SMILES CC(C)[NH2+][C@@]1(C(=O)NCCCNC(=O)c2ccc(-c3c4nc(c(-c5c(F)cc(S(=O)(=O)[O-])cc5F)c5ccc([nH]5)c(-c5c(F)cc(S(=O)(=O)[O-])cc5F)c5nc(c(-c6c(F)cc(S(=O)(=O)[O-])cc6F)c6ccc3[nH]6)C=C5)C=C4)cc2)CCC[C@@H]([NH+]2CCS(=O)CC2)C1
REMARK SMILES IDX 10 1 9 2 8 3 6 4 7 5 5 7 81 8 92 9 82 10 84 11 83 12 4 13
REMARK SMILES IDX 2 16 1 17 3 18 85 19 86 20 91 21 87 23 90 24 88 25 89 26
REMARK SMILES IDX 11 27 12 28 13 29 14 31 15 32 16 33 80 34 17 35 79 36 18 37
REMARK SMILES IDX 19 38 20 39 73 40 21 41 78 42 72 43 74 44 22 45 77 46 71 47
REMARK SMILES IDX 70 48 23 50 57 51 36 52 56 53 37 54 40 55 55 56 75 57 38 58
REMARK SMILES IDX 39 59 54 61 76 62 41 63 24 64 25 65 34 66 26 67 27 68 33 69
REMARK SMILES IDX 35 70 28 71 29 72 30 73 31 74 32 75 58 76 59 77 68 78 60 79
REMARK SMILES IDX 61 80 67 81 69 82 62 83 63 84 64 85 65 86 66 87 42 88 43 89
REMARK SMILES IDX 52 90 44 91 45 92 51 93 53 94 46 95 47 96 48 97 49 98 50 99
REMARK H PARENT 8 6 4 14 4 15 85 22 12 30 74 49 40 60
REMARK Flexibility Score: inf
ROOT
ATOM      1  C   UNL     1      -3.363  -4.753  -4.376  1.00  0.00     0.042 C 
ENDROOT
BRANCH   1   2
ATOM      2  C   UNL     1      -1.902  -4.562  -3.997  1.00  0.00     0.118 C 
BRANCH   2   3
ATOM      3  N   UNL     1      -1.502  -3.182  -3.902  1.00  0.00    -0.351 N 
ATOM      4  C   UNL     1      -1.107  -2.394  -2.867  1.00  0.00     0.281 C 
ATOM      5  O   UNL     1      -0.690  -1.287  -3.244  1.00  0.00    -0.268 OA
ATOM      6  H   UNL     1      -1.518  -2.711  -4.767  1.00  0.00     0.163 HD
BRANCH   4   7
ATOM      7  C   UNL     1      -1.235  -2.763  -1.310  1.00  0.00     0.181 C 
ATOM      8  C   UNL     1      -0.514  -4.034  -0.820  1.00  0.00     0.079 C 
ATOM      9  C   UNL     1      -2.740  -2.729  -0.923  1.00  0.00     0.144 C 
ATOM     10  C   UNL     1      -1.280  -5.342  -0.667  1.00  0.00     0.013 C 
ATOM     11  C   UNL     1      -3.502  -4.061  -0.926  1.00  0.00     0.190 C 
ATOM     12  C   UNL     1      -2.719  -5.173  -0.210  1.00  0.00     0.065 C 
BRANCH   7  13
ATOM     13  N   UNL     1      -0.664  -1.587  -0.541  1.00  0.00    -0.331 N 
ATOM     14  H   UNL     1      -1.168  -0.757  -0.853  1.00  0.00     0.347 HD
ATOM     15  H   UNL     1      -0.779  -1.866   0.434  1.00  0.00     0.347 HD
BRANCH  13  16
ATOM     16  C   UNL     1       0.769  -1.274  -0.636  1.00  0.00     0.176 C 
ATOM     17  C   UNL     1       0.906   0.223  -0.322  1.00  0.00     0.075 C 
ATOM     18  C   UNL     1       1.632  -2.043   0.373  1.00  0.00     0.075 C 
ENDBRANCH  13  16
ENDBRANCH   7  13
BRANCH  11  19
ATOM     19  N   UNL     1      -4.916  -4.006  -0.501  1.00  0.00    -0.331 N 
ATOM     20  C   UNL     1      -5.264  -4.141   0.914  1.00  0.00     0.276 C 
ATOM     21  C   UNL     1      -5.789  -3.025  -1.162  1.00  0.00     0.276 C 
ATOM     22  H   UNL     1      -5.128  -4.923  -0.894  1.00  0.00     0.348 HD
ATOM     23  C   UNL     1      -5.068  -2.881   1.739  1.00  0.00     0.166 C 
ATOM     24  C   UNL     1      -5.807  -1.612  -0.576  1.00  0.00     0.166 C 
ATOM     25  S   UNL     1      -6.148  -1.531   1.202  1.00  0.00     0.032 S 
ATOM     26  O   UNL     1      -7.569  -1.942   1.439  1.00  0.00    -0.259 OA
ENDBRANCH  11  19
ENDBRANCH   4   7
ENDBRANCH   2   3
ENDBRANCH   1   2
BRANCH   1  27
ATOM     27  C   UNL     1      -3.586  -4.976  -5.858  1.00  0.00     0.118 C 
BRANCH  27  28
ATOM     28  N   UNL     1      -3.000  -6.229  -6.322  1.00  0.00    -0.352 N 
ATOM     29  C   UNL     1      -3.591  -7.374  -6.793  1.00  0.00     0.251 C 
ATOM     30  H   UNL     1      -2.016  -6.258  -6.292  1.00  0.00     0.163 HD
ATOM     31  O   UNL     1      -2.904  -8.392  -6.917  1.00  0.00    -0.269 OA
BRANCH  29  32
ATOM     32  C   UNL     1      -5.029  -7.405  -7.137  1.00  0.00     0.039 A 
ATOM     33  C   UNL     1      -5.761  -8.575  -6.921  1.00  0.00     0.014 A 
ATOM     34  C   UNL     1      -5.656  -6.292  -7.698  1.00  0.00     0.014 A 
ATOM     35  C   UNL     1      -7.128  -8.602  -7.210  1.00  0.00     0.010 A 
ATOM     36  C   UNL     1      -7.035  -6.277  -7.859  1.00  0.00     0.010 A 
ATOM     37  C   UNL     1      -7.784  -7.440  -7.646  1.00  0.00    -0.014 A 
BRANCH  37  38
ATOM     38  C   UNL     1      -9.241  -7.423  -7.934  1.00  0.00     0.031 A 
ATOM     39  C   UNL     1      -9.723  -7.056  -9.316  1.00  0.00     0.074 A 
ATOM     40  C   UNL     1     -10.123  -7.666  -6.944  1.00  0.00     0.049 A 
ATOM     41  N   UNL     1     -10.946  -6.889  -9.747  1.00  0.00    -0.248 NA
ATOM     42  C   UNL     1      -8.693  -6.804 -10.341  1.00  0.00     0.031 C 
ATOM     43  C   UNL     1      -9.776  -7.971  -5.553  1.00  0.00     0.029 A 
ATOM     44  N   UNL     1     -11.495  -7.686  -6.951  1.00  0.00    -0.354 N 
ATOM     45  C   UNL     1     -10.829  -6.491 -11.074  1.00  0.00     0.074 A 
ATOM     46  C   UNL     1      -9.419  -6.377 -11.363  1.00  0.00     0.031 C 
ATOM     47  C   UNL     1     -10.902  -8.176  -4.851  1.00  0.00     0.029 A 
ATOM     48  C   UNL     1     -12.051  -7.974  -5.726  1.00  0.00     0.049 A 
ATOM     49  H   UNL     1     -12.032  -7.510  -7.758  1.00  0.00     0.167 HD
ATOM     50  C   UNL     1     -11.809  -6.271 -11.981  1.00  0.00     0.037 A 
ATOM     51  C   UNL     1     -13.342  -8.057  -5.351  1.00  0.00     0.037 A 
ATOM     52  C   UNL     1     -13.209  -6.439 -11.697  1.00  0.00     0.049 A 
ATOM     53  C   UNL     1     -14.413  -7.826  -6.386  1.00  0.00     0.074 A 
ATOM     54  C   UNL     1     -14.282  -6.318 -12.562  1.00  0.00     0.029 A 
ATOM     55  N   UNL     1     -13.730  -6.771 -10.455  1.00  0.00    -0.354 N 
ATOM     56  N   UNL     1     -14.281  -7.524  -7.656  1.00  0.00    -0.248 NA
ATOM     57  C   UNL     1     -15.807  -7.955  -5.940  1.00  0.00     0.031 C 
ATOM     58  C   UNL     1     -15.455  -6.528 -11.832  1.00  0.00     0.029 A 
ATOM     59  C   UNL     1     -15.111  -6.837 -10.526  1.00  0.00     0.049 A 
ATOM     60  H   UNL     1     -13.197  -6.934  -9.644  1.00  0.00     0.167 HD
ATOM     61  C   UNL     1     -15.572  -7.458  -8.167  1.00  0.00     0.074 A 
ATOM     62  C   UNL     1     -16.470  -7.768  -7.073  1.00  0.00     0.031 C 
ATOM     63  C   UNL     1     -15.982  -7.167  -9.427  1.00  0.00     0.037 A 
BRANCH  50  64
ATOM     64  C   UNL     1     -11.411  -5.845 -13.368  1.00  0.00     0.058 A 
ATOM     65  C   UNL     1     -10.768  -6.724 -14.255  1.00  0.00     0.135 A 
ATOM     66  C   UNL     1     -11.733  -4.562 -13.840  1.00  0.00     0.135 A 
ATOM     67  F   UNL     1     -10.417  -7.956 -13.852  1.00  0.00    -0.206 F 
ATOM     68  C   UNL     1     -10.447  -6.343 -15.553  1.00  0.00     0.059 A 
ATOM     69  C   UNL     1     -11.449  -4.169 -15.145  1.00  0.00     0.059 A 
ATOM     70  F   UNL     1     -12.341  -3.678 -13.033  1.00  0.00    -0.206 F 
ATOM     71  C   UNL     1     -10.799  -5.066 -15.992  1.00  0.00     0.060 A 
BRANCH  71  72
ATOM     72  S   UNL     1     -10.414  -4.605 -17.694  1.00  0.00     0.124 S 
ATOM     73  O   UNL     1      -8.961  -4.478 -17.640  1.00  0.00    -0.237 OA
ATOM     74  O   UNL     1     -10.922  -5.748 -18.447  1.00  0.00    -0.237 OA
ATOM     75  O   UNL     1     -11.146  -3.357 -17.884  1.00  0.00    -0.744 OA
ENDBRANCH  71  72
ENDBRANCH  50  64
BRANCH  51  76
ATOM     76  C   UNL     1     -13.700  -8.386  -3.944  1.00  0.00     0.058 A 
ATOM     77  C   UNL     1     -14.323  -9.601  -3.620  1.00  0.00     0.135 A 
ATOM     78  C   UNL     1     -13.442  -7.488  -2.896  1.00  0.00     0.135 A 
ATOM     79  F   UNL     1     -14.592 -10.493  -4.585  1.00  0.00    -0.206 F 
ATOM     80  C   UNL     1     -14.712  -9.899  -2.318  1.00  0.00     0.059 A 
ATOM     81  C   UNL     1     -13.793  -7.777  -1.580  1.00  0.00     0.059 A 
ATOM     82  F   UNL     1     -12.829  -6.320  -3.145  1.00  0.00    -0.206 F 
ATOM     83  C   UNL     1     -14.445  -8.978  -1.304  1.00  0.00     0.060 A 
BRANCH  83  84
ATOM     84  S   UNL     1     -14.944  -9.381   0.384  1.00  0.00     0.124 S 
ATOM     85  O   UNL     1     -16.392  -9.229   0.305  1.00  0.00    -0.237 OA
ATOM     86  O   UNL     1     -14.453 -10.748   0.531  1.00  0.00    -0.237 OA
ATOM     87  O   UNL     1     -14.246  -8.382   1.188  1.00  0.00    -0.744 OA
ENDBRANCH  83  84
ENDBRANCH  51  76
BRANCH  63  88
ATOM     88  C   UNL     1     -17.459  -7.215  -9.704  1.00  0.00     0.058 A 
ATOM     89  C   UNL     1     -18.336  -6.238  -9.211  1.00  0.00     0.135 A 
ATOM     90  C   UNL     1     -17.991  -8.223 -10.525  1.00  0.00     0.135 A 
ATOM     91  F   UNL     1     -17.879  -5.256  -8.418  1.00  0.00    -0.206 F 
ATOM     92  C   UNL     1     -19.696  -6.273  -9.501  1.00  0.00     0.059 A 
ATOM     93  C   UNL     1     -19.341  -8.258 -10.855  1.00  0.00     0.059 A 
ATOM     94  F   UNL     1     -17.191  -9.174 -11.034  1.00  0.00    -0.206 F 
ATOM     95  C   UNL     1     -20.188  -7.285 -10.327  1.00  0.00     0.060 A 
BRANCH  95  96
ATOM     96  S   UNL     1     -21.948  -7.297 -10.725  1.00  0.00     0.124 S 
ATOM     97  O   UNL     1     -22.532  -7.732  -9.460  1.00  0.00    -0.237 OA
ATOM     98  O   UNL     1     -22.194  -5.905 -11.091  1.00  0.00    -0.237 OA
ATOM     99  O   UNL     1     -22.043  -8.254 -11.823  1.00  0.00    -0.744 OA
ENDBRANCH  95  96
ENDBRANCH  63  88
ENDBRANCH  37  38
ENDBRANCH  29  32
ENDBRANCH  27  28
ENDBRANCH   1  27
TORSDOF 16
