REMARK SMILES Cc1ccc(CN2/C(=[NH+]/C(=O)CCC(=O)NCCCNC(=O)c3ccc(-c4c5nc(c(-c6c(F)cc(S(=O)(=O)[O-])cc6F)c6ccc([nH]6)c(-c6c(F)cc(S(=O)(=O)[O-])cc6F)c6nc(c(-c7c(F)cc(S(=O)(=O)[O-])cc7F)c7ccc4[nH]7)C=C6)C=C5)cc3)S[C@H]3CS(=O)(=O)C[C@@H]32)cc1
REMARK SMILES IDX 17 1 16 2 14 3 15 4 13 6 12 7 10 8 7 9 8 10 96 11 9 12 89 13
REMARK SMILES IDX 90 14 95 15 91 17 92 18 11 19 93 20 94 21 6 22 5 23 1 24
REMARK SMILES IDX 2 25 3 26 98 27 4 28 97 29 18 30 19 31 20 32 21 33 22 35
REMARK SMILES IDX 23 36 24 37 88 38 25 39 87 40 26 41 27 42 28 43 81 44 29 45
REMARK SMILES IDX 86 46 80 47 82 48 30 49 85 50 79 51 78 52 31 54 65 55 44 56
REMARK SMILES IDX 64 57 45 58 48 59 63 60 83 61 46 62 47 63 62 65 84 66 49 67
REMARK SMILES IDX 32 68 33 69 42 70 34 71 35 72 41 73 43 74 36 75 37 76 38 77
REMARK SMILES IDX 39 78 40 79 66 80 67 81 76 82 68 83 69 84 75 85 77 86 70 87
REMARK SMILES IDX 71 88 72 89 73 90 74 91 50 92 51 93 60 94 52 95 53 96 59 97
REMARK SMILES IDX 61 98 54 99 55 100 56 101 57 102 58 103
REMARK H PARENT 16 5 9 16 20 34 82 53 48 64
REMARK Flexibility Score: inf
ROOT
ATOM      1  C   UNL     1      -0.131  -3.601  -2.544  1.00  0.00     0.117 C 
ENDROOT
BRANCH   1   2
ATOM      2  N   UNL     1       0.389  -4.807  -1.893  1.00  0.00    -0.356 N 
ATOM      3  C   UNL     1      -0.356  -5.920  -1.580  1.00  0.00     0.220 C 
ATOM      4  O   UNL     1      -0.041  -6.598  -0.601  1.00  0.00    -0.275 OA
ATOM      5  H   UNL     1       1.346  -4.821  -1.662  1.00  0.00     0.163 HD
BRANCH   3   6
ATOM      6  C   UNL     1      -1.518  -6.316  -2.485  1.00  0.00     0.112 C 
BRANCH   6   7
ATOM      7  C   UNL     1      -2.944  -6.159  -1.907  1.00  0.00     0.138 C 
BRANCH   7   8
ATOM      8  C   UNL     1      -3.757  -5.016  -2.521  1.00  0.00     0.308 C 
ATOM      9  N   UNL     1      -4.926  -1.661  -1.469  1.00  0.00    -0.247 N 
ATOM     10  C   UNL     1      -4.905  -3.012  -2.039  1.00  0.00     0.314 C 
ATOM     11  C   UNL     1      -5.956  -0.796  -2.476  1.00  0.00     0.206 C 
ATOM     12  N   UNL     1      -4.233  -4.050  -1.619  1.00  0.00    -0.205 N 
ATOM     13  S   UNL     1      -5.826  -3.060  -3.609  1.00  0.00    -0.030 SA
ATOM     14  C   UNL     1      -5.581  -1.304  -3.889  1.00  0.00     0.120 C 
ATOM     15  C   UNL     1      -6.282   0.708  -2.739  1.00  0.00     0.187 C 
ATOM     16  H   UNL     1      -4.057  -4.157  -0.657  1.00  0.00     0.316 HD
ATOM     17  C   UNL     1      -6.371  -0.659  -5.016  1.00  0.00     0.156 C 
ATOM     18  S   UNL     1      -7.060   0.819  -4.340  1.00  0.00     0.155 S 
ATOM     19  O   UNL     1      -3.771  -4.946  -3.752  1.00  0.00    -0.247 OA
ATOM     20  O   UNL     1      -6.539   1.971  -5.080  1.00  0.00    -0.229 OA
ATOM     21  O   UNL     1      -8.473   0.634  -4.175  1.00  0.00    -0.229 OA
BRANCH   9  22
ATOM     22  C   UNL     1      -4.138  -1.359   0.070  1.00  0.00     0.273 C 
BRANCH  22  23
ATOM     23  C   UNL     1      -2.496  -0.732   0.475  1.00  0.00    -0.007 A 
ATOM     24  C   UNL     1       1.993  -0.720   0.368  1.00  0.00     0.044 C 
ATOM     25  C   UNL     1       0.504  -0.654   0.556  1.00  0.00    -0.051 A 
ATOM     26  C   UNL     1      -0.277  -1.347   1.498  1.00  0.00     0.004 A 
ATOM     27  C   UNL     1      -0.201   0.114  -0.321  1.00  0.00     0.004 A 
ATOM     28  C   UNL     1      -1.738  -1.386   1.467  1.00  0.00     0.008 A 
ATOM     29  C   UNL     1      -1.619   0.110  -0.283  1.00  0.00     0.008 A 
ENDBRANCH  22  23
ENDBRANCH   9  22
ENDBRANCH   7   8
ENDBRANCH   6   7
ENDBRANCH   3   6
ENDBRANCH   1   2
BRANCH   1  30
ATOM     30  C   UNL     1      -1.088  -2.996  -1.571  1.00  0.00     0.042 C 
BRANCH  30  31
ATOM     31  C   UNL     1      -2.176  -2.023  -2.021  1.00  0.00     0.118 C 
BRANCH  31  32
ATOM     32  N   UNL     1      -2.318  -0.702  -2.693  1.00  0.00    -0.352 N 
ATOM     33  C   UNL     1      -3.234   0.451  -2.638  1.00  0.00     0.251 C 
ATOM     34  H   UNL     1      -1.605  -0.560  -3.356  1.00  0.00     0.163 HD
ATOM     35  O   UNL     1      -3.507   0.888  -3.763  1.00  0.00    -0.269 OA
BRANCH  33  36
ATOM     36  C   UNL     1      -3.862   1.341  -1.384  1.00  0.00     0.039 A 
ATOM     37  C   UNL     1      -3.436   2.654  -1.228  1.00  0.00     0.014 A 
ATOM     38  C   UNL     1      -4.878   1.062  -0.455  1.00  0.00     0.014 A 
ATOM     39  C   UNL     1      -3.576   3.336   0.002  1.00  0.00     0.010 A 
ATOM     40  C   UNL     1      -4.972   1.650   0.797  1.00  0.00     0.010 A 
ATOM     41  C   UNL     1      -4.117   2.674   1.090  1.00  0.00    -0.014 A 
BRANCH  41  42
ATOM     42  C   UNL     1      -3.529   2.642   2.441  1.00  0.00     0.031 A 
ATOM     43  C   UNL     1      -4.367   2.646   3.652  1.00  0.00     0.074 A 
ATOM     44  C   UNL     1      -2.215   2.311   2.525  1.00  0.00     0.049 A 
ATOM     45  N   UNL     1      -3.877   2.744   4.835  1.00  0.00    -0.248 NA
ATOM     46  C   UNL     1      -5.825   2.605   3.658  1.00  0.00     0.031 C 
ATOM     47  C   UNL     1      -1.412   1.748   3.609  1.00  0.00     0.029 A 
ATOM     48  N   UNL     1      -1.278   2.517   1.520  1.00  0.00    -0.354 N 
ATOM     49  C   UNL     1      -4.883   2.550   5.751  1.00  0.00     0.074 A 
ATOM     50  C   UNL     1      -6.088   2.566   4.968  1.00  0.00     0.031 C 
ATOM     51  C   UNL     1      -0.103   1.871   3.303  1.00  0.00     0.029 A 
ATOM     52  C   UNL     1      -0.002   2.617   2.052  1.00  0.00     0.049 A 
ATOM     53  H   UNL     1      -1.491   2.582   0.561  1.00  0.00     0.167 HD
ATOM     54  C   UNL     1      -4.518   2.304   7.041  1.00  0.00     0.037 A 
ATOM     55  C   UNL     1       0.685   3.770   1.822  1.00  0.00     0.037 A 
ATOM     56  C   UNL     1      -3.071   2.546   7.186  1.00  0.00     0.049 A 
ATOM     57  C   UNL     1       0.711   4.535   3.112  1.00  0.00     0.074 A 
ATOM     58  C   UNL     1      -1.973   1.706   7.242  1.00  0.00     0.029 A 
ATOM     59  N   UNL     1      -2.570   3.821   6.904  1.00  0.00    -0.354 N 
ATOM     60  N   UNL     1      -0.175   4.374   4.060  1.00  0.00    -0.248 NA
ATOM     61  C   UNL     1       1.804   5.416   3.495  1.00  0.00     0.031 C 
ATOM     62  C   UNL     1      -0.822   2.471   6.886  1.00  0.00     0.029 A 
ATOM     63  C   UNL     1      -1.209   3.784   6.653  1.00  0.00     0.049 A 
ATOM     64  H   UNL     1      -3.116   4.640   6.886  1.00  0.00     0.167 HD
ATOM     65  C   UNL     1       0.233   5.037   5.175  1.00  0.00     0.074 A 
ATOM     66  C   UNL     1       1.469   5.689   4.768  1.00  0.00     0.031 C 
ATOM     67  C   UNL     1      -0.464   5.008   6.347  1.00  0.00     0.037 A 
BRANCH  54  68
ATOM     68  C   UNL     1      -5.387   1.673   8.122  1.00  0.00     0.058 A 
ATOM     69  C   UNL     1      -4.812   1.295   9.358  1.00  0.00     0.135 A 
ATOM     70  C   UNL     1      -6.753   1.330   8.002  1.00  0.00     0.135 A 
ATOM     71  F   UNL     1      -3.521   1.537   9.629  1.00  0.00    -0.206 F 
ATOM     72  C   UNL     1      -5.521   0.630  10.367  1.00  0.00     0.059 A 
ATOM     73  C   UNL     1      -7.486   0.681   9.001  1.00  0.00     0.059 A 
ATOM     74  F   UNL     1      -7.467   1.575   6.904  1.00  0.00    -0.206 F 
ATOM     75  C   UNL     1      -6.862   0.328  10.181  1.00  0.00     0.060 A 
BRANCH  75  76
ATOM     76  S   UNL     1      -7.775  -0.515  11.484  1.00  0.00     0.124 S 
ATOM     77  O   UNL     1      -7.071  -1.790  11.571  1.00  0.00    -0.237 OA
ATOM     78  O   UNL     1      -7.599   0.390  12.614  1.00  0.00    -0.237 OA
ATOM     79  O   UNL     1      -9.134  -0.592  10.954  1.00  0.00    -0.744 OA
ENDBRANCH  75  76
ENDBRANCH  54  68
BRANCH  55  80
ATOM     80  C   UNL     1       0.543   4.292   0.418  1.00  0.00     0.058 A 
ATOM     81  C   UNL     1       1.282   3.642  -0.592  1.00  0.00     0.135 A 
ATOM     82  C   UNL     1      -0.553   5.056  -0.019  1.00  0.00     0.135 A 
ATOM     83  F   UNL     1       2.359   2.911  -0.263  1.00  0.00    -0.206 F 
ATOM     84  C   UNL     1       0.881   3.627  -1.932  1.00  0.00     0.059 A 
ATOM     85  C   UNL     1      -0.979   5.050  -1.365  1.00  0.00     0.059 A 
ATOM     86  F   UNL     1      -1.324   5.691   0.876  1.00  0.00    -0.206 F 
ATOM     87  C   UNL     1      -0.283   4.291  -2.306  1.00  0.00     0.060 A 
BRANCH  87  88
ATOM     88  S   UNL     1      -0.966   3.939  -3.961  1.00  0.00     0.124 S 
ATOM     89  O   UNL     1      -0.167   4.813  -4.809  1.00  0.00    -0.237 OA
ATOM     90  O   UNL     1      -0.695   2.508  -4.085  1.00  0.00    -0.237 OA
ATOM     91  O   UNL     1      -2.372   4.305  -3.832  1.00  0.00    -0.744 OA
ENDBRANCH  87  88
ENDBRANCH  55  80
BRANCH  67  92
ATOM     92  C   UNL     1      -0.413   6.140   7.339  1.00  0.00     0.058 A 
ATOM     93  C   UNL     1       0.025   7.436   7.005  1.00  0.00     0.135 A 
ATOM     94  C   UNL     1      -0.966   6.000   8.632  1.00  0.00     0.135 A 
ATOM     95  F   UNL     1       0.411   7.761   5.764  1.00  0.00    -0.206 F 
ATOM     96  C   UNL     1       0.040   8.478   7.921  1.00  0.00     0.059 A 
ATOM     97  C   UNL     1      -1.044   7.054   9.534  1.00  0.00     0.059 A 
ATOM     98  F   UNL     1      -1.476   4.839   9.065  1.00  0.00    -0.206 F 
ATOM     99  C   UNL     1      -0.492   8.276   9.186  1.00  0.00     0.060 A 
BRANCH  99 100
ATOM    100  S   UNL     1      -0.476   9.634  10.356  1.00  0.00     0.124 S 
ATOM    101  O   UNL     1       0.894   9.562  10.854  1.00  0.00    -0.237 OA
ATOM    102  O   UNL     1      -0.782  10.784   9.510  1.00  0.00    -0.237 OA
ATOM    103  O   UNL     1      -1.518   9.271  11.310  1.00  0.00    -0.744 OA
ENDBRANCH  99 100
ENDBRANCH  67  92
ENDBRANCH  41  42
ENDBRANCH  33  36
ENDBRANCH  31  32
ENDBRANCH  30  31
ENDBRANCH   1  30
TORSDOF 17
