REMARK SMILES C[C@H](CC(=O)NCCCNC(=O)c1ccc(-c2c3nc(c(-c4c(F)cc(S(=O)(=O)[O-])cc4F)c4ccc([nH]4)c(-c4c(F)cc(S(=O)(=O)[O-])cc4F)c4nc(c(-c5c(F)cc(S(=O)(=O)[O-])cc5F)c5ccc2[nH]5)C=C4)C=C3)cc1)[NH2+][C@H](C)c1ccccc1
REMARK SMILES IDX 7 1 6 2 4 3 5 4 3 6 2 7 1 8 79 9 80 12 81 13 82 14 83 15
REMARK SMILES IDX 87 16 84 17 86 18 85 19 8 20 9 21 10 22 11 23 12 25 13 26
REMARK SMILES IDX 14 27 78 28 15 29 77 30 16 31 17 32 18 33 71 34 19 35 76 36
REMARK SMILES IDX 70 37 72 38 20 39 75 40 69 41 68 42 21 44 55 45 34 46 54 47
REMARK SMILES IDX 35 48 38 49 53 50 73 51 36 52 37 53 52 55 74 56 39 57 22 58
REMARK SMILES IDX 23 59 32 60 24 61 25 62 31 63 33 64 26 65 27 66 28 67 29 68
REMARK SMILES IDX 30 69 56 70 57 71 66 72 58 73 59 74 65 75 67 76 60 77 61 78
REMARK SMILES IDX 62 79 63 80 64 81 40 82 41 83 50 84 42 85 43 86 49 87 51 88
REMARK SMILES IDX 44 89 45 90 46 91 47 92 48 93
REMARK H PARENT 6 5 79 10 79 11 10 24 72 43 38 54
REMARK Flexibility Score: inf
ROOT
ATOM      1  C   UNL     1      -3.795  -2.110  -6.705  1.00  0.00     0.117 C 
ENDROOT
BRANCH   1   2
ATOM      2  N   UNL     1      -2.490  -1.694  -7.180  1.00  0.00    -0.356 N 
ATOM      3  C   UNL     1      -1.283  -1.723  -6.552  1.00  0.00     0.225 C 
ATOM      4  O   UNL     1      -0.304  -1.270  -7.149  1.00  0.00    -0.275 OA
ATOM      5  H   UNL     1      -2.474  -1.337  -8.098  1.00  0.00     0.163 HD
BRANCH   3   6
ATOM      6  C   UNL     1      -1.131  -2.426  -5.222  1.00  0.00     0.164 C 
BRANCH   6   7
ATOM      7  C   UNL     1      -1.793  -1.772  -3.991  1.00  0.00     0.189 C 
ATOM      8  C   UNL     1      -1.744  -2.822  -2.872  1.00  0.00     0.075 C 
BRANCH   7   9
ATOM      9  N   UNL     1      -1.127  -0.519  -3.650  1.00  0.00    -0.338 N 
ATOM     10  H   UNL     1      -1.032   0.004  -4.520  1.00  0.00     0.347 HD
ATOM     11  H   UNL     1      -0.280  -0.841  -3.180  1.00  0.00     0.347 HD
BRANCH   9  12
ATOM     12  C   UNL     1      -1.705   0.414  -2.663  1.00  0.00     0.210 C 
ATOM     13  C   UNL     1      -1.130   0.234  -1.252  1.00  0.00     0.081 C 
BRANCH  12  14
ATOM     14  C   UNL     1      -3.217   0.615  -2.639  1.00  0.00     0.009 A 
ATOM     15  C   UNL     1      -3.749   1.886  -2.922  1.00  0.00     0.010 A 
ATOM     16  C   UNL     1      -4.122  -0.388  -2.253  1.00  0.00     0.010 A 
ATOM     17  C   UNL     1      -5.125   2.131  -2.851  1.00  0.00     0.001 A 
ATOM     18  C   UNL     1      -5.500  -0.157  -2.217  1.00  0.00     0.001 A 
ATOM     19  C   UNL     1      -6.002   1.105  -2.513  1.00  0.00     0.000 A 
ENDBRANCH  12  14
ENDBRANCH   9  12
ENDBRANCH   7   9
ENDBRANCH   6   7
ENDBRANCH   3   6
ENDBRANCH   1   2
BRANCH   1  20
ATOM     20  C   UNL     1      -4.691  -0.907  -6.423  1.00  0.00     0.042 C 
BRANCH  20  21
ATOM     21  C   UNL     1      -5.057  -0.105  -7.670  1.00  0.00     0.118 C 
BRANCH  21  22
ATOM     22  N   UNL     1      -5.826  -0.884  -8.631  1.00  0.00    -0.352 N 
ATOM     23  C   UNL     1      -7.029  -0.610  -9.233  1.00  0.00     0.251 C 
ATOM     24  H   UNL     1      -5.418  -1.742  -8.890  1.00  0.00     0.163 HD
ATOM     25  O   UNL     1      -7.592  -1.492  -9.874  1.00  0.00    -0.269 OA
BRANCH  23  26
ATOM     26  C   UNL     1      -7.653   0.725  -9.100  1.00  0.00     0.039 A 
ATOM     27  C   UNL     1      -9.037   0.801  -8.919  1.00  0.00     0.014 A 
ATOM     28  C   UNL     1      -6.897   1.897  -9.188  1.00  0.00     0.014 A 
ATOM     29  C   UNL     1      -9.651   2.046  -8.768  1.00  0.00     0.010 A 
ATOM     30  C   UNL     1      -7.500   3.134  -8.962  1.00  0.00     0.010 A 
ATOM     31  C   UNL     1      -8.884   3.222  -8.753  1.00  0.00    -0.014 A 
BRANCH  31  32
ATOM     32  C   UNL     1      -9.515   4.545  -8.508  1.00  0.00     0.031 A 
ATOM     33  C   UNL     1      -9.491   5.612  -9.569  1.00  0.00     0.074 A 
ATOM     34  C   UNL     1     -10.071   4.801  -7.306  1.00  0.00     0.049 A 
ATOM     35  N   UNL     1      -9.955   6.835  -9.520  1.00  0.00    -0.248 NA
ATOM     36  C   UNL     1      -8.840   5.269 -10.844  1.00  0.00     0.031 C 
ATOM     37  C   UNL     1     -10.118   3.864  -6.181  1.00  0.00     0.029 A 
ATOM     38  N   UNL     1     -10.700   5.923  -6.828  1.00  0.00    -0.354 N 
ATOM     39  C   UNL     1      -9.648   7.408 -10.749  1.00  0.00     0.074 A 
ATOM     40  C   UNL     1      -8.908   6.418 -11.501  1.00  0.00     0.031 C 
ATOM     41  C   UNL     1     -10.765   4.440  -5.155  1.00  0.00     0.029 A 
ATOM     42  C   UNL     1     -11.143   5.798  -5.532  1.00  0.00     0.049 A 
ATOM     43  H   UNL     1     -10.821   6.741  -7.362  1.00  0.00     0.167 HD
ATOM     44  C   UNL     1      -9.973   8.638 -11.217  1.00  0.00     0.037 A 
ATOM     45  C   UNL     1     -11.776   6.680  -4.734  1.00  0.00     0.037 A 
ATOM     46  C   UNL     1     -10.722   9.614 -10.468  1.00  0.00     0.049 A 
ATOM     47  C   UNL     1     -12.114   8.044  -5.271  1.00  0.00     0.074 A 
ATOM     48  C   UNL     1     -11.142  10.870 -10.870  1.00  0.00     0.029 A 
ATOM     49  N   UNL     1     -11.159   9.448  -9.161  1.00  0.00    -0.354 N 
ATOM     50  N   UNL     1     -11.869   8.547  -6.458  1.00  0.00    -0.248 NA
ATOM     51  C   UNL     1     -12.821   8.958  -4.365  1.00  0.00     0.031 C 
ATOM     52  C   UNL     1     -11.790  11.482  -9.792  1.00  0.00     0.029 A 
ATOM     53  C   UNL     1     -11.824  10.587  -8.735  1.00  0.00     0.049 A 
ATOM     54  H   UNL     1     -11.017   8.640  -8.616  1.00  0.00     0.167 HD
ATOM     55  C   UNL     1     -12.417   9.825  -6.450  1.00  0.00     0.074 A 
ATOM     56  C   UNL     1     -13.019  10.011  -5.146  1.00  0.00     0.031 C 
ATOM     57  C   UNL     1     -12.423  10.759  -7.434  1.00  0.00     0.037 A 
BRANCH  44  58
ATOM     58  C   UNL     1      -9.523   8.998 -12.608  1.00  0.00     0.058 A 
ATOM     59  C   UNL     1     -10.078   8.386 -13.745  1.00  0.00     0.135 A 
ATOM     60  C   UNL     1      -8.555   9.995 -12.813  1.00  0.00     0.135 A 
ATOM     61  F   UNL     1     -10.997   7.417 -13.610  1.00  0.00    -0.206 F 
ATOM     62  C   UNL     1      -9.668   8.726 -15.030  1.00  0.00     0.059 A 
ATOM     63  C   UNL     1      -8.152  10.373 -14.091  1.00  0.00     0.059 A 
ATOM     64  F   UNL     1      -7.991  10.615 -11.764  1.00  0.00    -0.206 F 
ATOM     65  C   UNL     1      -8.704   9.723 -15.193  1.00  0.00     0.060 A 
BRANCH  65  66
ATOM     66  S   UNL     1      -8.190  10.157 -16.868  1.00  0.00     0.124 S 
ATOM     67  O   UNL     1      -7.409   8.983 -17.246  1.00  0.00    -0.237 OA
ATOM     68  O   UNL     1      -9.468  10.315 -17.555  1.00  0.00    -0.237 OA
ATOM     69  O   UNL     1      -7.425  11.385 -16.682  1.00  0.00    -0.744 OA
ENDBRANCH  65  66
ENDBRANCH  44  58
BRANCH  45  70
ATOM     70  C   UNL     1     -12.153   6.290  -3.348  1.00  0.00     0.058 A 
ATOM     71  C   UNL     1     -13.497   6.108  -2.990  1.00  0.00     0.135 A 
ATOM     72  C   UNL     1     -11.179   6.082  -2.358  1.00  0.00     0.135 A 
ATOM     73  F   UNL     1     -14.465   6.301  -3.898  1.00  0.00    -0.206 F 
ATOM     74  C   UNL     1     -13.865   5.752  -1.696  1.00  0.00     0.059 A 
ATOM     75  C   UNL     1     -11.521   5.697  -1.065  1.00  0.00     0.059 A 
ATOM     76  F   UNL     1      -9.878   6.225  -2.653  1.00  0.00    -0.206 F 
ATOM     77  C   UNL     1     -12.868   5.545  -0.741  1.00  0.00     0.060 A 
BRANCH  77  78
ATOM     78  S   UNL     1     -13.355   5.035   0.921  1.00  0.00     0.124 S 
ATOM     79  O   UNL     1     -13.933   6.266   1.448  1.00  0.00    -0.237 OA
ATOM     80  O   UNL     1     -14.295   3.953   0.646  1.00  0.00    -0.237 OA
ATOM     81  O   UNL     1     -12.093   4.620   1.527  1.00  0.00    -0.744 OA
ENDBRANCH  77  78
ENDBRANCH  45  70
BRANCH  57  82
ATOM     82  C   UNL     1     -13.133  12.055  -7.153  1.00  0.00     0.058 A 
ATOM     83  C   UNL     1     -12.617  13.005  -6.258  1.00  0.00     0.135 A 
ATOM     84  C   UNL     1     -14.331  12.367  -7.819  1.00  0.00     0.135 A 
ATOM     85  F   UNL     1     -11.479  12.756  -5.590  1.00  0.00    -0.206 F 
ATOM     86  C   UNL     1     -13.277  14.204  -6.009  1.00  0.00     0.059 A 
ATOM     87  C   UNL     1     -14.991  13.574  -7.609  1.00  0.00     0.059 A 
ATOM     88  F   UNL     1     -14.864  11.500  -8.694  1.00  0.00    -0.206 F 
ATOM     89  C   UNL     1     -14.464  14.480  -6.690  1.00  0.00     0.060 A 
BRANCH  89  90
ATOM     90  S   UNL     1     -15.299  16.049  -6.374  1.00  0.00     0.124 S 
ATOM     91  O   UNL     1     -15.856  15.823  -5.045  1.00  0.00    -0.237 OA
ATOM     92  O   UNL     1     -14.201  17.007  -6.446  1.00  0.00    -0.237 OA
ATOM     93  O   UNL     1     -16.274  16.140  -7.456  1.00  0.00    -0.744 OA
ENDBRANCH  89  90
ENDBRANCH  57  82
ENDBRANCH  31  32
ENDBRANCH  23  26
ENDBRANCH  21  22
ENDBRANCH  20  21
ENDBRANCH   1  20
TORSDOF 17
