REMARK SMILES CS(=O)(=O)c1ccc(/C=C(/C(=O)NCCCNC(=O)c2ccc(-c3c4nc(c(-c5c(F)cc(S(=O)(=O)[O-])cc5F)c5ccc([nH]5)c(-c5c(F)cc(S(=O)(=O)[O-])cc5F)c5nc(c(-c6c(F)cc(S(=O)(=O)[O-])cc6F)c6ccc3[nH]6)C=C5)C=C4)cc2)c2ccc(-c3ccc(F)cc3F)cc2)cc1
REMARK SMILES IDX 15 1 14 2 13 3 11 4 12 5 10 7 9 8 8 9 5 10 6 11 101 12 7 13
REMARK SMILES IDX 100 14 2 15 1 16 3 17 4 18 86 19 87 20 99 21 88 22 98 23
REMARK SMILES IDX 89 24 90 25 91 26 96 27 92 28 95 29 97 30 93 31 94 32 16 33
REMARK SMILES IDX 17 34 18 35 19 37 20 38 21 39 85 40 22 41 84 42 23 43 24 44
REMARK SMILES IDX 25 45 78 46 26 47 83 48 77 49 79 50 27 51 82 52 76 53 75 54
REMARK SMILES IDX 28 56 62 57 41 58 61 59 42 60 45 61 60 62 80 63 43 64 44 65
REMARK SMILES IDX 59 67 81 68 46 69 29 70 30 71 39 72 31 73 32 74 38 75 40 76
REMARK SMILES IDX 33 77 34 78 35 79 36 80 37 81 63 82 64 83 73 84 65 85 66 86
REMARK SMILES IDX 72 87 74 88 67 89 68 90 69 91 70 92 71 93 47 94 48 95 57 96
REMARK SMILES IDX 49 97 50 98 56 99 58 100 51 101 52 102 53 103 54 104 55 105
REMARK H PARENT 13 6 17 36 79 55 45 66
REMARK Flexibility Score: inf
ROOT
ATOM      1  C   UNL     1       4.446  -2.989  -8.179  1.00  0.00     0.042 C 
ENDROOT
BRANCH   1   2
ATOM      2  C   UNL     1       2.966  -3.374  -8.168  1.00  0.00     0.118 C 
BRANCH   2   3
ATOM      3  N   UNL     1       2.823  -4.814  -8.099  1.00  0.00    -0.352 N 
ATOM      4  C   UNL     1       2.526  -5.684  -7.101  1.00  0.00     0.251 C 
ATOM      5  O   UNL     1       2.553  -6.879  -7.409  1.00  0.00    -0.269 OA
ATOM      6  H   UNL     1       2.973  -5.258  -8.965  1.00  0.00     0.163 HD
BRANCH   4   7
ATOM      7  C   UNL     1       2.085  -5.252  -5.721  1.00  0.00     0.047 C 
ATOM      8  C   UNL     1       2.610  -4.169  -5.100  1.00  0.00     0.022 C 
BRANCH   8   9
ATOM      9  C   UNL     1       2.208  -3.539  -3.820  1.00  0.00    -0.025 A 
ATOM     10  C   UNL     1       1.181  -2.223  -1.556  1.00  0.00     0.067 A 
ATOM     11  C   UNL     1       1.379  -3.605  -1.534  1.00  0.00     0.021 A 
ATOM     12  C   UNL     1       1.560  -1.479  -2.672  1.00  0.00     0.021 A 
ATOM     13  C   UNL     1       1.918  -4.251  -2.651  1.00  0.00     0.009 A 
ATOM     14  C   UNL     1       2.071  -2.140  -3.796  1.00  0.00     0.009 A 
BRANCH  10  15
ATOM     15  S   UNL     1       0.413  -1.456  -0.150  1.00  0.00     0.175 S 
ATOM     16  C   UNL     1       1.122   0.159  -0.001  1.00  0.00     0.163 C 
ATOM     17  O   UNL     1       0.827  -2.209   1.023  1.00  0.00    -0.224 OA
ATOM     18  O   UNL     1      -0.990  -1.303  -0.478  1.00  0.00    -0.224 OA
ENDBRANCH  10  15
ENDBRANCH   8   9
BRANCH   7  19
ATOM     19  C   UNL     1       1.177  -6.181  -5.002  1.00  0.00    -0.013 A 
ATOM     20  C   UNL     1       1.659  -7.455  -4.671  1.00  0.00     0.009 A 
ATOM     21  C   UNL     1      -0.100  -5.816  -4.566  1.00  0.00     0.009 A 
ATOM     22  C   UNL     1       0.901  -8.331  -3.897  1.00  0.00     0.009 A 
ATOM     23  C   UNL     1      -0.844  -6.687  -3.756  1.00  0.00     0.009 A 
ATOM     24  C   UNL     1      -0.355  -7.956  -3.396  1.00  0.00    -0.015 A 
BRANCH  24  25
ATOM     25  C   UNL     1      -1.109  -8.875  -2.517  1.00  0.00     0.018 A 
ATOM     26  C   UNL     1      -0.443  -9.633  -1.530  1.00  0.00     0.015 A 
ATOM     27  C   UNL     1      -2.498  -9.057  -2.635  1.00  0.00     0.133 A 
ATOM     28  C   UNL     1      -1.131 -10.546  -0.727  1.00  0.00     0.040 A 
ATOM     29  C   UNL     1      -3.194  -9.958  -1.833  1.00  0.00     0.079 A 
ATOM     30  F   UNL     1      -3.199  -8.372  -3.551  1.00  0.00    -0.206 F 
ATOM     31  C   UNL     1      -2.501 -10.701  -0.891  1.00  0.00     0.126 A 
ATOM     32  F   UNL     1      -3.160 -11.584  -0.129  1.00  0.00    -0.207 F 
ENDBRANCH  24  25
ENDBRANCH   7  19
ENDBRANCH   4   7
ENDBRANCH   2   3
ENDBRANCH   1   2
BRANCH   1  33
ATOM     33  C   UNL     1       5.170  -3.410  -9.458  1.00  0.00     0.118 C 
BRANCH  33  34
ATOM     34  N   UNL     1       4.665  -2.703 -10.627  1.00  0.00    -0.352 N 
ATOM     35  C   UNL     1       5.304  -1.833 -11.474  1.00  0.00     0.251 C 
ATOM     36  H   UNL     1       3.720  -2.877 -10.843  1.00  0.00     0.163 HD
ATOM     37  O   UNL     1       4.639  -1.142 -12.241  1.00  0.00    -0.269 OA
BRANCH  35  38
ATOM     38  C   UNL     1       6.779  -1.722 -11.462  1.00  0.00     0.039 A 
ATOM     39  C   UNL     1       7.362  -0.459 -11.588  1.00  0.00     0.014 A 
ATOM     40  C   UNL     1       7.586  -2.860 -11.369  1.00  0.00     0.014 A 
ATOM     41  C   UNL     1       8.753  -0.333 -11.564  1.00  0.00     0.010 A 
ATOM     42  C   UNL     1       8.968  -2.725 -11.267  1.00  0.00     0.010 A 
ATOM     43  C   UNL     1       9.567  -1.461 -11.369  1.00  0.00    -0.014 A 
BRANCH  43  44
ATOM     44  C   UNL     1      11.045  -1.336 -11.270  1.00  0.00     0.031 A 
ATOM     45  C   UNL     1      11.931  -2.003 -12.288  1.00  0.00     0.074 A 
ATOM     46  C   UNL     1      11.586  -0.671 -10.230  1.00  0.00     0.049 A 
ATOM     47  N   UNL     1      13.237  -2.076 -12.323  1.00  0.00    -0.248 NA
ATOM     48  C   UNL     1      11.263  -2.701 -13.399  1.00  0.00     0.031 C 
ATOM     49  C   UNL     1      10.831  -0.024  -9.154  1.00  0.00     0.029 A 
ATOM     50  N   UNL     1      12.897  -0.439  -9.896  1.00  0.00    -0.354 N 
ATOM     51  C   UNL     1      13.546  -2.826 -13.452  1.00  0.00     0.074 A 
ATOM     52  C   UNL     1      12.290  -3.239 -14.040  1.00  0.00     0.031 C 
ATOM     53  C   UNL     1      11.688   0.541  -8.290  1.00  0.00     0.029 A 
ATOM     54  C   UNL     1      13.054   0.262  -8.723  1.00  0.00     0.049 A 
ATOM     55  H   UNL     1      13.655  -0.745 -10.445  1.00  0.00     0.167 HD
ATOM     56  C   UNL     1      14.763  -3.118 -13.968  1.00  0.00     0.037 A 
ATOM     57  C   UNL     1      14.170   0.624  -8.061  1.00  0.00     0.037 A 
ATOM     58  C   UNL     1      16.008  -2.691 -13.384  1.00  0.00     0.049 A 
ATOM     59  C   UNL     1      15.512   0.272  -8.646  1.00  0.00     0.074 A 
ATOM     60  C   UNL     1      17.295  -2.907 -13.847  1.00  0.00     0.029 A 
ATOM     61  N   UNL     1      16.124  -1.959 -12.211  1.00  0.00    -0.354 N 
ATOM     62  N   UNL     1      15.783  -0.392  -9.745  1.00  0.00    -0.248 NA
ATOM     63  C   UNL     1      16.699   0.725  -7.909  1.00  0.00     0.031 C 
ATOM     64  C   UNL     1      18.189  -2.345 -12.931  1.00  0.00     0.029 A 
ATOM     65  C   UNL     1      17.460  -1.729 -11.927  1.00  0.00     0.049 A 
ATOM     66  H   UNL     1      15.368  -1.649 -11.661  1.00  0.00     0.167 HD
ATOM     67  C   UNL     1      17.170  -0.411  -9.845  1.00  0.00     0.074 A 
ATOM     68  C   UNL     1      17.680   0.322  -8.705  1.00  0.00     0.031 C 
ATOM     69  C   UNL     1      17.951  -0.985 -10.793  1.00  0.00     0.037 A 
BRANCH  56  70
ATOM     70  C   UNL     1      14.812  -3.924 -15.239  1.00  0.00     0.058 A 
ATOM     71  C   UNL     1      14.393  -3.385 -16.466  1.00  0.00     0.135 A 
ATOM     72  C   UNL     1      15.336  -5.227 -15.244  1.00  0.00     0.135 A 
ATOM     73  F   UNL     1      13.869  -2.150 -16.518  1.00  0.00    -0.206 F 
ATOM     74  C   UNL     1      14.472  -4.114 -17.648  1.00  0.00     0.059 A 
ATOM     75  C   UNL     1      15.453  -5.964 -16.420  1.00  0.00     0.059 A 
ATOM     76  F   UNL     1      15.751  -5.794 -14.100  1.00  0.00    -0.206 F 
ATOM     77  C   UNL     1      15.008  -5.402 -17.615  1.00  0.00     0.060 A 
BRANCH  77  78
ATOM     78  S   UNL     1      15.127  -6.321 -19.164  1.00  0.00     0.124 S 
ATOM     79  O   UNL     1      13.723  -6.613 -19.438  1.00  0.00    -0.237 OA
ATOM     80  O   UNL     1      15.757  -5.351 -20.053  1.00  0.00    -0.237 OA
ATOM     81  O   UNL     1      15.949  -7.475 -18.814  1.00  0.00    -0.744 OA
ENDBRANCH  77  78
ENDBRANCH  56  70
BRANCH  57  82
ATOM     82  C   UNL     1      14.068   1.359  -6.770  1.00  0.00     0.058 A 
ATOM     83  C   UNL     1      14.486   2.693  -6.656  1.00  0.00     0.135 A 
ATOM     84  C   UNL     1      13.557   0.736  -5.620  1.00  0.00     0.135 A 
ATOM     85  F   UNL     1      14.985   3.333  -7.724  1.00  0.00    -0.206 F 
ATOM     86  C   UNL     1      14.430   3.374  -5.444  1.00  0.00     0.059 A 
ATOM     87  C   UNL     1      13.462   1.406  -4.404  1.00  0.00     0.059 A 
ATOM     88  F   UNL     1      13.123  -0.533  -5.678  1.00  0.00    -0.206 F 
ATOM     89  C   UNL     1      13.916   2.721  -4.323  1.00  0.00     0.060 A 
BRANCH  89  90
ATOM     90  S   UNL     1      13.822   3.621  -2.760  1.00  0.00     0.124 S 
ATOM     91  O   UNL     1      15.226   3.679  -2.370  1.00  0.00    -0.237 OA
ATOM     92  O   UNL     1      13.220   4.886  -3.172  1.00  0.00    -0.237 OA
ATOM     93  O   UNL     1      12.970   2.770  -1.934  1.00  0.00    -0.744 OA
ENDBRANCH  89  90
ENDBRANCH  57  82
BRANCH  69  94
ATOM     94  C   UNL     1      19.440  -0.807 -10.666  1.00  0.00     0.058 A 
ATOM     95  C   UNL     1      20.182  -1.465  -9.673  1.00  0.00     0.135 A 
ATOM     96  C   UNL     1      20.139  -0.009 -11.586  1.00  0.00     0.135 A 
ATOM     97  F   UNL     1      19.563  -2.235  -8.764  1.00  0.00    -0.206 F 
ATOM     98  C   UNL     1      21.562  -1.316  -9.580  1.00  0.00     0.059 A 
ATOM     99  C   UNL     1      21.522   0.129 -11.532  1.00  0.00     0.059 A 
ATOM    100  F   UNL     1      19.479   0.634 -12.563  1.00  0.00    -0.206 F 
ATOM    101  C   UNL     1      22.224  -0.520 -10.517  1.00  0.00     0.060 A 
BRANCH 101 102
ATOM    102  S   UNL     1      24.018  -0.364 -10.405  1.00  0.00     0.124 S 
ATOM    103  O   UNL     1      24.167   0.484  -9.227  1.00  0.00    -0.237 OA
ATOM    104  O   UNL     1      24.442  -1.752 -10.246  1.00  0.00    -0.237 OA
ATOM    105  O   UNL     1      24.387   0.256 -11.675  1.00  0.00    -0.744 OA
ENDBRANCH 101 102
ENDBRANCH  69  94
ENDBRANCH  43  44
ENDBRANCH  35  38
ENDBRANCH  33  34
ENDBRANCH   1  33
TORSDOF 17
