REMARK SMILES CCn1ncc(NC(=O)[C@@H]2CCCC[C@@H]2C(=O)NCCCNC(=O)c2ccc(-c3c4nc(c(-c5c(F)cc(S(=O)(=O)[O-])cc5F)c5ccc([nH]5)c(-c5c(F)cc(S(=O)(=O)[O-])cc5F)c5nc(c(-c6c(F)cc(S(=O)(=O)[O-])cc6F)c6ccc3[nH]6)C=C5)C=C4)cc2)c1C(=O)Nc1cnn(C)c1C
REMARK SMILES IDX 19 1 18 2 16 3 17 4 15 6 10 7 11 8 12 9 14 10 13 11 8 12
REMARK SMILES IDX 7 13 9 15 6 16 3 17 4 18 91 19 5 20 2 21 1 22 92 23 93 24
REMARK SMILES IDX 94 25 95 27 96 28 100 29 97 30 98 31 101 32 99 33 20 34
REMARK SMILES IDX 21 35 22 36 23 37 24 39 25 40 26 41 90 42 27 43 89 44 28 45
REMARK SMILES IDX 29 46 30 47 83 48 31 49 88 50 82 51 84 52 32 53 87 54 81 55
REMARK SMILES IDX 80 56 33 58 67 59 46 60 66 61 47 62 50 63 65 64 85 65 48 66
REMARK SMILES IDX 49 67 64 69 86 70 51 71 34 72 35 73 44 74 36 75 37 76 43 77
REMARK SMILES IDX 45 78 38 79 39 80 40 81 41 82 42 83 68 84 69 85 78 86 70 87
REMARK SMILES IDX 71 88 77 89 79 90 72 91 73 92 74 93 75 94 76 95 52 96 53 97
REMARK SMILES IDX 62 98 54 99 55 100 61 101 63 102 56 103 57 104 58 105 59 106
REMARK SMILES IDX 60 107
REMARK H PARENT 18 5 7 14 94 26 22 38 84 57 50 68
REMARK Flexibility Score: inf
ROOT
ATOM      1  C   UNL     1       4.667  -4.873  -3.723  1.00  0.00     0.117 C 
ENDROOT
BRANCH   1   2
ATOM      2  N   UNL     1       4.043  -4.479  -4.970  1.00  0.00    -0.356 N 
ATOM      3  C   UNL     1       2.943  -3.758  -5.293  1.00  0.00     0.223 C 
ATOM      4  O   UNL     1       2.677  -3.718  -6.499  1.00  0.00    -0.275 OA
ATOM      5  H   UNL     1       4.528  -4.810  -5.761  1.00  0.00     0.163 HD
BRANCH   3   6
ATOM      6  C   UNL     1       2.026  -3.030  -4.300  1.00  0.00     0.091 C 
ATOM      7  C   UNL     1       2.334  -1.565  -3.991  1.00  0.00     0.091 C 
ATOM      8  C   UNL     1       3.598  -1.424  -3.166  1.00  0.00     0.014 C 
ATOM      9  C   UNL     1       3.358  -2.032  -1.786  1.00  0.00     0.001 C 
ATOM     10  C   UNL     1       1.717  -3.746  -2.982  1.00  0.00     0.014 C 
ATOM     11  C   UNL     1       2.533  -3.331  -1.744  1.00  0.00     0.001 C 
BRANCH   7  12
ATOM     12  C   UNL     1       2.236  -0.586  -5.137  1.00  0.00     0.228 C 
ATOM     13  N   UNL     1       1.734   0.675  -4.952  1.00  0.00    -0.322 N 
ATOM     14  H   UNL     1       1.636   1.177  -5.793  1.00  0.00     0.170 HD
ATOM     15  O   UNL     1       2.718  -0.833  -6.242  1.00  0.00    -0.274 OA
BRANCH  13  16
ATOM     16  C   UNL     1       1.333   1.399  -3.835  1.00  0.00     0.092 A 
ATOM     17  N   UNL     1       0.989   2.234  -1.851  1.00  0.00    -0.258 N 
ATOM     18  N   UNL     1       1.252   3.319  -2.606  1.00  0.00    -0.178 NA
ATOM     19  C   UNL     1       0.740   1.095  -2.602  1.00  0.00     0.150 A 
ATOM     20  C   UNL     1       1.474   2.808  -3.808  1.00  0.00     0.162 A 
BRANCH  17  21
ATOM     21  C   UNL     1       1.064   2.432  -0.417  1.00  0.00     0.142 C 
ATOM     22  C   UNL     1       2.288   1.779   0.204  1.00  0.00     0.029 C 
ENDBRANCH  17  21
BRANCH  19  23
ATOM     23  C   UNL     1      -0.054  -0.071  -2.217  1.00  0.00     0.276 C 
ATOM     24  O   UNL     1      -0.798  -0.652  -3.006  1.00  0.00    -0.267 OA
ATOM     25  N   UNL     1       0.261  -0.693  -1.029  1.00  0.00    -0.318 N 
ATOM     26  H   UNL     1       0.960  -1.386  -1.051  1.00  0.00     0.170 HD
BRANCH  25  27
ATOM     27  C   UNL     1      -0.327  -0.421   0.190  1.00  0.00     0.082 A 
ATOM     28  C   UNL     1      -1.488   0.310   0.505  1.00  0.00     0.161 A 
ATOM     29  C   UNL     1       0.200  -0.809   1.408  1.00  0.00     0.059 A 
ATOM     30  N   UNL     1      -1.615   0.500   1.819  1.00  0.00    -0.179 NA
ATOM     31  N   UNL     1      -0.548  -0.134   2.343  1.00  0.00    -0.271 N 
ATOM     32  C   UNL     1       1.399  -1.609   1.772  1.00  0.00     0.068 C 
ATOM     33  C   UNL     1      -0.208   0.112   3.726  1.00  0.00     0.174 C 
ENDBRANCH  25  27
ENDBRANCH  19  23
ENDBRANCH  13  16
ENDBRANCH   7  12
ENDBRANCH   3   6
ENDBRANCH   1   2
BRANCH   1  34
ATOM     34  C   UNL     1       4.100  -6.181  -3.156  1.00  0.00     0.042 C 
BRANCH  34  35
ATOM     35  C   UNL     1       5.089  -7.339  -3.174  1.00  0.00     0.118 C 
BRANCH  35  36
ATOM     36  N   UNL     1       6.238  -7.104  -2.297  1.00  0.00    -0.352 N 
ATOM     37  C   UNL     1       7.548  -7.526  -2.460  1.00  0.00     0.251 C 
ATOM     38  H   UNL     1       6.056  -6.579  -1.484  1.00  0.00     0.163 HD
ATOM     39  O   UNL     1       8.340  -7.504  -1.538  1.00  0.00    -0.269 OA
BRANCH  37  40
ATOM     40  C   UNL     1       7.932  -8.023  -3.793  1.00  0.00     0.039 A 
ATOM     41  C   UNL     1       8.389  -9.330  -3.954  1.00  0.00     0.014 A 
ATOM     42  C   UNL     1       7.609  -7.228  -4.887  1.00  0.00     0.014 A 
ATOM     43  C   UNL     1       8.389  -9.883  -5.233  1.00  0.00     0.010 A 
ATOM     44  C   UNL     1       7.470  -7.827  -6.119  1.00  0.00     0.010 A 
ATOM     45  C   UNL     1       7.873  -9.149  -6.315  1.00  0.00    -0.014 A 
BRANCH  45  46
ATOM     46  C   UNL     1       7.650  -9.804  -7.609  1.00  0.00     0.031 A 
ATOM     47  C   UNL     1       7.010 -11.160  -7.584  1.00  0.00     0.074 A 
ATOM     48  C   UNL     1       7.794  -9.191  -8.804  1.00  0.00     0.049 A 
ATOM     49  N   UNL     1       7.524 -12.294  -7.939  1.00  0.00    -0.248 NA
ATOM     50  C   UNL     1       5.650 -11.278  -7.034  1.00  0.00     0.031 C 
ATOM     51  C   UNL     1       8.107  -7.787  -9.098  1.00  0.00     0.029 A 
ATOM     52  N   UNL     1       7.585  -9.715 -10.044  1.00  0.00    -0.354 N 
ATOM     53  C   UNL     1       6.507 -13.243  -7.836  1.00  0.00     0.074 A 
ATOM     54  C   UNL     1       5.420 -12.588  -7.153  1.00  0.00     0.031 C 
ATOM     55  C   UNL     1       7.834  -7.522 -10.392  1.00  0.00     0.029 A 
ATOM     56  C   UNL     1       7.535  -8.773 -11.058  1.00  0.00     0.049 A 
ATOM     57  H   UNL     1       7.479 -10.680 -10.205  1.00  0.00     0.167 HD
ATOM     58  C   UNL     1       6.565 -14.452  -8.469  1.00  0.00     0.037 A 
ATOM     59  C   UNL     1       7.279  -8.993 -12.367  1.00  0.00     0.037 A 
ATOM     60  C   UNL     1       7.896 -14.746  -8.933  1.00  0.00     0.049 A 
ATOM     61  C   UNL     1       7.598 -10.416 -12.639  1.00  0.00     0.074 A 
ATOM     62  C   UNL     1       9.127 -14.892  -8.322  1.00  0.00     0.029 A 
ATOM     63  N   UNL     1       8.173 -14.569 -10.267  1.00  0.00    -0.354 N 
ATOM     64  N   UNL     1       8.800 -10.921 -12.566  1.00  0.00    -0.248 NA
ATOM     65  C   UNL     1       6.515 -11.383 -12.586  1.00  0.00     0.031 C 
ATOM     66  C   UNL     1      10.055 -14.278  -9.216  1.00  0.00     0.029 A 
ATOM     67  C   UNL     1       9.341 -13.851 -10.337  1.00  0.00     0.049 A 
ATOM     68  H   UNL     1       7.637 -14.895 -11.026  1.00  0.00     0.167 HD
ATOM     69  C   UNL     1       8.625 -12.193 -12.045  1.00  0.00     0.074 A 
ATOM     70  C   UNL     1       7.195 -12.460 -12.184  1.00  0.00     0.031 C 
ATOM     71  C   UNL     1       9.600 -12.808 -11.310  1.00  0.00     0.037 A 
BRANCH  58  72
ATOM     72  C   UNL     1       5.365 -15.256  -8.915  1.00  0.00     0.058 A 
ATOM     73  C   UNL     1       5.512 -16.605  -9.301  1.00  0.00     0.135 A 
ATOM     74  C   UNL     1       4.114 -14.673  -9.216  1.00  0.00     0.135 A 
ATOM     75  F   UNL     1       6.668 -17.255  -9.089  1.00  0.00    -0.206 F 
ATOM     76  C   UNL     1       4.506 -17.310  -9.970  1.00  0.00     0.059 A 
ATOM     77  C   UNL     1       3.080 -15.371  -9.834  1.00  0.00     0.059 A 
ATOM     78  F   UNL     1       3.875 -13.372  -9.006  1.00  0.00    -0.206 F 
ATOM     79  C   UNL     1       3.296 -16.677 -10.243  1.00  0.00     0.060 A 
BRANCH  79  80
ATOM     80  S   UNL     1       2.029 -17.547 -11.186  1.00  0.00     0.124 S 
ATOM     81  O   UNL     1       2.608 -17.540 -12.525  1.00  0.00    -0.237 OA
ATOM     82  O   UNL     1       1.983 -18.843 -10.517  1.00  0.00    -0.237 OA
ATOM     83  O   UNL     1       0.845 -16.714 -11.003  1.00  0.00    -0.744 OA
ENDBRANCH  79  80
ENDBRANCH  58  72
BRANCH  59  84
ATOM     84  C   UNL     1       6.515  -8.121 -13.289  1.00  0.00     0.058 A 
ATOM     85  C   UNL     1       6.567  -8.309 -14.678  1.00  0.00     0.135 A 
ATOM     86  C   UNL     1       5.509  -7.256 -12.809  1.00  0.00     0.135 A 
ATOM     87  F   UNL     1       7.482  -9.130 -15.214  1.00  0.00    -0.206 F 
ATOM     88  C   UNL     1       5.641  -7.716 -15.540  1.00  0.00     0.059 A 
ATOM     89  C   UNL     1       4.582  -6.645 -13.650  1.00  0.00     0.059 A 
ATOM     90  F   UNL     1       5.340  -7.054 -11.493  1.00  0.00    -0.206 F 
ATOM     91  C   UNL     1       4.636  -6.904 -15.013  1.00  0.00     0.060 A 
BRANCH  91  92
ATOM     92  S   UNL     1       3.327  -6.301 -16.104  1.00  0.00     0.124 S 
ATOM     93  O   UNL     1       4.038  -5.318 -16.914  1.00  0.00    -0.237 OA
ATOM     94  O   UNL     1       2.918  -7.520 -16.794  1.00  0.00    -0.237 OA
ATOM     95  O   UNL     1       2.339  -5.753 -15.178  1.00  0.00    -0.744 OA
ENDBRANCH  91  92
ENDBRANCH  59  84
BRANCH  71  96
ATOM     96  C   UNL     1      10.987 -12.207 -11.305  1.00  0.00     0.058 A 
ATOM     97  C   UNL     1      11.297 -10.931 -10.799  1.00  0.00     0.135 A 
ATOM     98  C   UNL     1      12.071 -13.018 -11.676  1.00  0.00     0.135 A 
ATOM     99  F   UNL     1      10.339 -10.129 -10.319  1.00  0.00    -0.206 F 
ATOM    100  C   UNL     1      12.612 -10.469 -10.706  1.00  0.00     0.059 A 
ATOM    101  C   UNL     1      13.394 -12.591 -11.563  1.00  0.00     0.059 A 
ATOM    102  F   UNL     1      11.855 -14.272 -12.107  1.00  0.00    -0.206 F 
ATOM    103  C   UNL     1      13.656 -11.308 -11.088  1.00  0.00     0.060 A 
BRANCH 103 104
ATOM    104  S   UNL     1      15.359 -10.740 -10.882  1.00  0.00     0.124 S 
ATOM    105  O   UNL     1      15.490  -9.763 -11.957  1.00  0.00    -0.237 OA
ATOM    106  O   UNL     1      15.354 -10.195  -9.527  1.00  0.00    -0.237 OA
ATOM    107  O   UNL     1      16.148 -11.959 -11.048  1.00  0.00    -0.744 OA
ENDBRANCH 103 104
ENDBRANCH  71  96
ENDBRANCH  45  46
ENDBRANCH  37  40
ENDBRANCH  35  36
ENDBRANCH  34  35
ENDBRANCH   1  34
TORSDOF 18
