REMARK SMILES Cc1cc(NC[C@H](C)[NH+](C)C)cc(C(=O)NCCCNC(=O)c2ccc(-c3c4nc(c(-c5c(F)cc(S(=O)(=O)[O-])cc5F)c5ccc([nH]5)c(-c5c(F)cc(S(=O)(=O)[O-])cc5F)c5nc(c(-c6c(F)cc(S(=O)(=O)[O-])cc6F)c6ccc3[nH]6)C=C5)C=C4)cc2)c1N
REMARK SMILES IDX 17 1 16 2 14 3 15 4 13 6 1 7 2 8 3 9 89 10 4 11 12 12 90 13
REMARK SMILES IDX 5 16 6 18 7 19 8 20 9 21 10 22 11 23 18 25 19 26 20 27 21 28
REMARK SMILES IDX 22 30 23 31 24 32 88 33 25 34 87 35 26 36 27 37 28 38 81 39
REMARK SMILES IDX 29 40 86 41 80 42 82 43 30 44 85 45 79 46 78 47 31 49 65 50
REMARK SMILES IDX 44 51 64 52 45 53 48 54 63 55 83 56 46 57 47 58 62 60 84 61
REMARK SMILES IDX 49 62 32 63 33 64 42 65 34 66 35 67 41 68 43 69 36 70 37 71
REMARK SMILES IDX 38 72 39 73 40 74 66 75 67 76 76 77 68 78 69 79 75 80 77 81
REMARK SMILES IDX 70 82 71 83 72 84 73 85 74 86 50 87 51 88 60 89 52 90 53 91
REMARK SMILES IDX 59 92 61 93 54 94 55 95 56 96 57 97 58 98
REMARK H PARENT 16 5 90 14 90 15 5 17 9 24 20 29 82 48 48 59
REMARK Flexibility Score: inf
ROOT
ATOM      1  C   UNL     1      -4.658   6.085  -0.709  1.00  0.00     0.118 C 
ENDROOT
BRANCH   1   2
ATOM      2  N   UNL     1      -5.176   7.331  -0.167  1.00  0.00    -0.352 N 
ATOM      3  C   UNL     1      -5.692   7.691   1.058  1.00  0.00     0.253 C 
ATOM      4  O   UNL     1      -6.013   8.876   1.185  1.00  0.00    -0.269 OA
ATOM      5  H   UNL     1      -5.152   8.075  -0.812  1.00  0.00     0.163 HD
BRANCH   3   6
ATOM      6  C   UNL     1      -5.839   6.750   2.218  1.00  0.00     0.065 A 
ATOM      7  C   UNL     1      -6.061   6.805   6.039  1.00  0.00     0.046 C 
ATOM      8  C   UNL     1      -5.979   6.332   4.613  1.00  0.00    -0.025 A 
ATOM      9  C   UNL     1      -5.985   4.946   4.355  1.00  0.00     0.031 A 
ATOM     10  C   UNL     1      -5.898   7.249   3.541  1.00  0.00     0.047 A 
ATOM     11  C   UNL     1      -5.953   4.446   3.055  1.00  0.00     0.035 A 
ATOM     12  C   UNL     1      -5.974   5.374   2.015  1.00  0.00     0.041 A 
BRANCH  10  13
ATOM     13  N   UNL     1      -5.729   8.614   3.811  1.00  0.00    -0.398 N 
ATOM     14  H   UNL     1      -5.774   8.941   4.738  1.00  0.00     0.156 HD
ATOM     15  H   UNL     1      -5.565   9.245   3.073  1.00  0.00     0.156 HD
ENDBRANCH  10  13
BRANCH  11  16
ATOM     16  N   UNL     1      -5.900   3.080   2.823  1.00  0.00    -0.379 N 
ATOM     17  H   UNL     1      -6.107   2.459   3.558  1.00  0.00     0.160 HD
BRANCH  16  18
ATOM     18  C   UNL     1      -5.542   2.541   1.509  1.00  0.00     0.177 C 
BRANCH  18  19
ATOM     19  C   UNL     1      -5.364   0.996   1.496  1.00  0.00     0.199 C 
ATOM     20  C   UNL     1      -4.463   0.617   0.305  1.00  0.00     0.077 C 
BRANCH  19  21
ATOM     21  N   UNL     1      -6.593   0.168   1.494  1.00  0.00    -0.336 N 
ATOM     22  C   UNL     1      -7.402   0.346   2.698  1.00  0.00     0.332 C 
ATOM     23  C   UNL     1      -7.438   0.325   0.307  1.00  0.00     0.332 C 
ATOM     24  H   UNL     1      -6.230  -0.785   1.476  1.00  0.00     0.347 HD
ENDBRANCH  19  21
ENDBRANCH  18  19
ENDBRANCH  16  18
ENDBRANCH  11  16
ENDBRANCH   3   6
ENDBRANCH   1   2
BRANCH   1  25
ATOM     25  C   UNL     1      -5.716   5.363  -1.549  1.00  0.00     0.042 C 
BRANCH  25  26
ATOM     26  C   UNL     1      -5.913   5.982  -2.929  1.00  0.00     0.118 C 
BRANCH  26  27
ATOM     27  N   UNL     1      -4.763   5.754  -3.790  1.00  0.00    -0.352 N 
ATOM     28  C   UNL     1      -4.687   5.138  -5.015  1.00  0.00     0.251 C 
ATOM     29  H   UNL     1      -3.907   6.094  -3.441  1.00  0.00     0.163 HD
ATOM     30  O   UNL     1      -3.586   4.832  -5.465  1.00  0.00    -0.269 OA
BRANCH  28  31
ATOM     31  C   UNL     1      -5.914   4.834  -5.783  1.00  0.00     0.039 A 
ATOM     32  C   UNL     1      -5.993   3.622  -6.475  1.00  0.00     0.014 A 
ATOM     33  C   UNL     1      -6.964   5.753  -5.863  1.00  0.00     0.014 A 
ATOM     34  C   UNL     1      -7.145   3.309  -7.203  1.00  0.00     0.010 A 
ATOM     35  C   UNL     1      -8.138   5.412  -6.531  1.00  0.00     0.010 A 
ATOM     36  C   UNL     1      -8.239   4.189  -7.212  1.00  0.00    -0.014 A 
BRANCH  36  37
ATOM     37  C   UNL     1      -9.498   3.851  -7.923  1.00  0.00     0.031 A 
ATOM     38  C   UNL     1      -9.961   4.692  -9.083  1.00  0.00     0.074 A 
ATOM     39  C   UNL     1     -10.261   2.834  -7.475  1.00  0.00     0.049 A 
ATOM     40  N   UNL     1     -11.075   4.618  -9.763  1.00  0.00    -0.248 NA
ATOM     41  C   UNL     1      -9.064   5.775  -9.518  1.00  0.00     0.031 C 
ATOM     42  C   UNL     1      -9.939   1.976  -6.333  1.00  0.00     0.029 A 
ATOM     43  N   UNL     1     -11.472   2.360  -7.914  1.00  0.00    -0.354 N 
ATOM     44  C   UNL     1     -11.024   5.653 -10.690  1.00  0.00     0.074 A 
ATOM     45  C   UNL     1      -9.788   6.368 -10.455  1.00  0.00     0.031 C 
ATOM     46  C   UNL     1     -10.920   1.075  -6.168  1.00  0.00     0.029 A 
ATOM     47  C   UNL     1     -11.960   1.315  -7.165  1.00  0.00     0.049 A 
ATOM     48  H   UNL     1     -11.947   2.733  -8.691  1.00  0.00     0.167 HD
ATOM     49  C   UNL     1     -11.916   5.966 -11.660  1.00  0.00     0.037 A 
ATOM     50  C   UNL     1     -13.120   0.636  -7.259  1.00  0.00     0.037 A 
ATOM     51  C   UNL     1     -13.130   5.230 -11.903  1.00  0.00     0.049 A 
ATOM     52  C   UNL     1     -14.093   0.999  -8.347  1.00  0.00     0.074 A 
ATOM     53  C   UNL     1     -14.070   5.427 -12.900  1.00  0.00     0.029 A 
ATOM     54  N   UNL     1     -13.574   4.158 -11.143  1.00  0.00    -0.354 N 
ATOM     55  N   UNL     1     -14.000   1.942  -9.254  1.00  0.00    -0.248 NA
ATOM     56  C   UNL     1     -15.326   0.204  -8.430  1.00  0.00     0.031 C 
ATOM     57  C   UNL     1     -15.103   4.503 -12.715  1.00  0.00     0.029 A 
ATOM     58  C   UNL     1     -14.783   3.696 -11.635  1.00  0.00     0.049 A 
ATOM     59  H   UNL     1     -13.099   3.781 -10.367  1.00  0.00     0.167 HD
ATOM     60  C   UNL     1     -15.148   1.837 -10.031  1.00  0.00     0.074 A 
ATOM     61  C   UNL     1     -15.915   0.732  -9.494  1.00  0.00     0.031 C 
ATOM     62  C   UNL     1     -15.530   2.587 -11.094  1.00  0.00     0.037 A 
BRANCH  49  63
ATOM     63  C   UNL     1     -11.614   7.152 -12.535  1.00  0.00     0.058 A 
ATOM     64  C   UNL     1     -10.576   7.127 -13.480  1.00  0.00     0.135 A 
ATOM     65  C   UNL     1     -12.400   8.314 -12.459  1.00  0.00     0.135 A 
ATOM     66  F   UNL     1      -9.785   6.048 -13.587  1.00  0.00    -0.206 F 
ATOM     67  C   UNL     1     -10.309   8.220 -14.298  1.00  0.00     0.059 A 
ATOM     68  C   UNL     1     -12.169   9.409 -13.287  1.00  0.00     0.059 A 
ATOM     69  F   UNL     1     -13.406   8.394 -11.574  1.00  0.00    -0.206 F 
ATOM     70  C   UNL     1     -11.112   9.358 -14.194  1.00  0.00     0.060 A 
BRANCH  70  71
ATOM     71  S   UNL     1     -10.757  10.764 -15.270  1.00  0.00     0.124 S 
ATOM     72  O   UNL     1      -9.532  11.286 -14.671  1.00  0.00    -0.237 OA
ATOM     73  O   UNL     1     -10.603  10.127 -16.574  1.00  0.00    -0.237 OA
ATOM     74  O   UNL     1     -11.937  11.610 -15.124  1.00  0.00    -0.744 OA
ENDBRANCH  70  71
ENDBRANCH  49  63
BRANCH  50  75
ATOM     75  C   UNL     1     -13.413  -0.465  -6.303  1.00  0.00     0.058 A 
ATOM     76  C   UNL     1     -13.410  -1.803  -6.720  1.00  0.00     0.135 A 
ATOM     77  C   UNL     1     -13.679  -0.203  -4.949  1.00  0.00     0.135 A 
ATOM     78  F   UNL     1     -13.166  -2.104  -8.005  1.00  0.00    -0.206 F 
ATOM     79  C   UNL     1     -13.674  -2.844  -5.835  1.00  0.00     0.059 A 
ATOM     80  C   UNL     1     -13.921  -1.227  -4.040  1.00  0.00     0.059 A 
ATOM     81  F   UNL     1     -13.675   1.060  -4.495  1.00  0.00    -0.206 F 
ATOM     82  C   UNL     1     -13.925  -2.545  -4.495  1.00  0.00     0.060 A 
BRANCH  82  83
ATOM     83  S   UNL     1     -14.213  -3.906  -3.343  1.00  0.00     0.124 S 
ATOM     84  O   UNL     1     -15.555  -4.333  -3.722  1.00  0.00    -0.237 OA
ATOM     85  O   UNL     1     -13.130  -4.826  -3.680  1.00  0.00    -0.237 OA
ATOM     86  O   UNL     1     -14.098  -3.268  -2.035  1.00  0.00    -0.744 OA
ENDBRANCH  82  83
ENDBRANCH  50  75
BRANCH  62  87
ATOM     87  C   UNL     1     -16.820   2.221 -11.774  1.00  0.00     0.058 A 
ATOM     88  C   UNL     1     -18.066   2.492 -11.189  1.00  0.00     0.135 A 
ATOM     89  C   UNL     1     -16.807   1.651 -13.058  1.00  0.00     0.135 A 
ATOM     90  F   UNL     1     -18.134   3.029  -9.961  1.00  0.00    -0.206 F 
ATOM     91  C   UNL     1     -19.256   2.196 -11.847  1.00  0.00     0.059 A 
ATOM     92  C   UNL     1     -17.984   1.372 -13.745  1.00  0.00     0.059 A 
ATOM     93  F   UNL     1     -15.641   1.380 -13.665  1.00  0.00    -0.206 F 
ATOM     94  C   UNL     1     -19.204   1.640 -13.127  1.00  0.00     0.060 A 
BRANCH  94  95
ATOM     95  S   UNL     1     -20.755   1.305 -13.988  1.00  0.00     0.124 S 
ATOM     96  O   UNL     1     -21.241   0.131 -13.271  1.00  0.00    -0.237 OA
ATOM     97  O   UNL     1     -21.506   2.537 -13.770  1.00  0.00    -0.237 OA
ATOM     98  O   UNL     1     -20.335   1.070 -15.366  1.00  0.00    -0.744 OA
ENDBRANCH  94  95
ENDBRANCH  62  87
ENDBRANCH  36  37
ENDBRANCH  28  31
ENDBRANCH  26  27
ENDBRANCH  25  26
ENDBRANCH   1  25
TORSDOF 18
