REMARK SMILES C[C@H]1CN(C(=O)N2CC[NH+]([C@@H](C)C(=O)NCCCNC(=O)c3ccc(-c4c5nc(c(-c6c(F)cc(S(=O)(=O)[O-])cc6F)c6ccc([nH]6)c(-c6c(F)cc(S(=O)(=O)[O-])cc6F)c6nc(c(-c7c(F)cc(S(=O)(=O)[O-])cc7F)c7ccc4[nH]7)C=C6)C=C5)cc3)CC2)C[C@@H]1C
REMARK SMILES IDX 18 1 17 2 16 3 15 4 13 5 14 6 11 8 12 9 10 10 1 11 2 12 3 13
REMARK SMILES IDX 91 14 4 15 90 16 92 17 5 18 6 19 7 20 8 21 89 22 9 23 88 24
REMARK SMILES IDX 19 26 20 27 21 29 22 30 23 31 87 32 24 33 86 34 25 35 26 36
REMARK SMILES IDX 27 37 80 38 28 39 85 40 79 41 81 42 29 43 84 44 78 45 77 46
REMARK SMILES IDX 30 48 64 49 43 50 63 51 44 52 47 53 62 54 82 55 45 56 46 57
REMARK SMILES IDX 61 59 83 60 48 61 31 62 32 63 41 64 33 65 34 66 40 67 42 68
REMARK SMILES IDX 35 69 36 70 37 71 38 72 39 73 65 74 66 75 75 76 67 77 68 78
REMARK SMILES IDX 74 79 76 80 69 81 70 82 71 83 72 84 73 85 49 86 50 87 59 88
REMARK SMILES IDX 51 89 52 90 58 91 60 92 53 93 54 94 55 95 56 96 57 97
REMARK H PARENT 15 7 10 25 19 28 81 47 47 58
REMARK Flexibility Score: inf
ROOT
ATOM      1  C   UNL     1      -9.154   1.004  -0.485  1.00  0.00     0.118 C 
ENDROOT
BRANCH   1   2
ATOM      2  C   UNL     1      -7.783   1.178  -1.116  1.00  0.00     0.042 C 
BRANCH   2   3
ATOM      3  C   UNL     1      -7.789   2.003  -2.403  1.00  0.00     0.118 C 
BRANCH   3   4
ATOM      4  N   UNL     1      -7.746   3.431  -2.137  1.00  0.00    -0.351 N 
ATOM      5  C   UNL     1      -6.789   4.385  -2.321  1.00  0.00     0.278 C 
ATOM      6  O   UNL     1      -7.079   5.515  -1.905  1.00  0.00    -0.268 OA
ATOM      7  H   UNL     1      -8.578   3.782  -1.744  1.00  0.00     0.163 HD
BRANCH   5   8
ATOM      8  C   UNL     1      -5.423   4.145  -3.029  1.00  0.00     0.271 C 
ATOM      9  C   UNL     1      -5.539   3.498  -4.407  1.00  0.00     0.086 C 
BRANCH   8  10
ATOM     10  N   UNL     1      -4.336   3.736  -2.105  1.00  0.00    -0.322 N 
ATOM     11  C   UNL     1       1.908  -0.088  -2.156  1.00  0.00     0.010 C 
ATOM     12  C   UNL     1       0.756  -0.441  -1.213  1.00  0.00     0.010 C 
ATOM     13  C   UNL     1      -0.478   0.410  -1.517  1.00  0.00     0.125 C 
ATOM     14  C   UNL     1       0.246  -1.878  -1.439  1.00  0.00     0.010 C 
ATOM     15  N   UNL     1      -1.243  -0.371  -2.478  1.00  0.00    -0.324 N 
ATOM     16  C   UNL     1      -0.716  -1.717  -2.619  1.00  0.00     0.125 C 
ATOM     17  C   UNL     1      -0.485  -2.414  -0.204  1.00  0.00     0.010 C 
ATOM     18  C   UNL     1      -2.473  -0.038  -2.987  1.00  0.00     0.320 C 
ATOM     19  O   UNL     1      -3.158  -0.802  -3.663  1.00  0.00    -0.248 OA
ATOM     20  N   UNL     1      -2.939   1.196  -2.581  1.00  0.00    -0.313 N 
ATOM     21  C   UNL     1      -4.276   1.215  -2.018  1.00  0.00     0.183 C 
ATOM     22  C   UNL     1      -2.582   2.368  -3.373  1.00  0.00     0.183 C 
ATOM     23  C   UNL     1      -4.539   2.537  -1.290  1.00  0.00     0.284 C 
ATOM     24  C   UNL     1      -2.984   3.698  -2.696  1.00  0.00     0.284 C 
ATOM     25  H   UNL     1      -4.399   4.524  -1.460  1.00  0.00     0.348 HD
ENDBRANCH   8  10
ENDBRANCH   5   8
ENDBRANCH   3   4
ENDBRANCH   2   3
ENDBRANCH   1   2
BRANCH   1  26
ATOM     26  N   UNL     1      -9.915  -0.060  -1.116  1.00  0.00    -0.352 N 
ATOM     27  C   UNL     1     -10.352  -1.260  -0.603  1.00  0.00     0.251 C 
ATOM     28  H   UNL     1     -10.156   0.102  -2.057  1.00  0.00     0.163 HD
ATOM     29  O   UNL     1     -10.797  -2.106  -1.373  1.00  0.00    -0.269 OA
BRANCH  27  30
ATOM     30  C   UNL     1     -10.278  -1.550   0.852  1.00  0.00     0.039 A 
ATOM     31  C   UNL     1      -9.995  -2.856   1.265  1.00  0.00     0.014 A 
ATOM     32  C   UNL     1     -10.533  -0.568   1.812  1.00  0.00     0.014 A 
ATOM     33  C   UNL     1      -9.925  -3.162   2.629  1.00  0.00     0.010 A 
ATOM     34  C   UNL     1     -10.363  -0.849   3.167  1.00  0.00     0.010 A 
ATOM     35  C   UNL     1     -10.082  -2.154   3.594  1.00  0.00    -0.014 A 
BRANCH  35  36
ATOM     36  C   UNL     1     -10.008  -2.452   5.050  1.00  0.00     0.031 A 
ATOM     37  C   UNL     1     -11.208  -2.206   5.930  1.00  0.00     0.074 A 
ATOM     38  C   UNL     1      -8.854  -2.889   5.592  1.00  0.00     0.049 A 
ATOM     39  N   UNL     1     -11.322  -2.327   7.228  1.00  0.00    -0.248 NA
ATOM     40  C   UNL     1     -12.433  -1.728   5.267  1.00  0.00     0.031 C 
ATOM     41  C   UNL     1      -7.607  -3.119   4.858  1.00  0.00     0.029 A 
ATOM     42  N   UNL     1      -8.537  -3.211   6.889  1.00  0.00    -0.354 N 
ATOM     43  C   UNL     1     -12.616  -1.919   7.536  1.00  0.00     0.074 A 
ATOM     44  C   UNL     1     -13.229  -1.492   6.299  1.00  0.00     0.031 C 
ATOM     45  C   UNL     1      -6.670  -3.568   5.710  1.00  0.00     0.029 A 
ATOM     46  C   UNL     1      -7.235  -3.624   7.055  1.00  0.00     0.049 A 
ATOM     47  H   UNL     1      -9.181  -3.152   7.630  1.00  0.00     0.167 HD
ATOM     48  C   UNL     1     -13.246  -1.925   8.735  1.00  0.00     0.037 A 
ATOM     49  C   UNL     1      -6.571  -4.001   8.165  1.00  0.00     0.037 A 
ATOM     50  C   UNL     1     -12.646  -2.394   9.956  1.00  0.00     0.049 A 
ATOM     51  C   UNL     1      -7.298  -4.023   9.482  1.00  0.00     0.074 A 
ATOM     52  C   UNL     1     -13.220  -2.505  11.211  1.00  0.00     0.029 A 
ATOM     53  N   UNL     1     -11.336  -2.836  10.075  1.00  0.00    -0.354 N 
ATOM     54  N   UNL     1      -8.540  -3.689   9.743  1.00  0.00    -0.248 NA
ATOM     55  C   UNL     1      -6.539  -4.480  10.654  1.00  0.00     0.031 C 
ATOM     56  C   UNL     1     -12.246  -2.979  12.096  1.00  0.00     0.029 A 
ATOM     57  C   UNL     1     -11.079  -3.207  11.384  1.00  0.00     0.049 A 
ATOM     58  H   UNL     1     -10.686  -2.880   9.337  1.00  0.00     0.167 HD
ATOM     59  C   UNL     1      -8.718  -3.920  11.103  1.00  0.00     0.074 A 
ATOM     60  C   UNL     1      -7.461  -4.433  11.607  1.00  0.00     0.031 C 
ATOM     61  C   UNL     1      -9.823  -3.725  11.865  1.00  0.00     0.037 A 
BRANCH  48  62
ATOM     62  C   UNL     1     -14.664  -1.420   8.782  1.00  0.00     0.058 A 
ATOM     63  C   UNL     1     -15.722  -2.135   8.196  1.00  0.00     0.135 A 
ATOM     64  C   UNL     1     -14.975  -0.221   9.443  1.00  0.00     0.135 A 
ATOM     65  F   UNL     1     -15.480  -3.280   7.537  1.00  0.00    -0.206 F 
ATOM     66  C   UNL     1     -17.030  -1.664   8.235  1.00  0.00     0.059 A 
ATOM     67  C   UNL     1     -16.281   0.255   9.520  1.00  0.00     0.059 A 
ATOM     68  F   UNL     1     -14.005   0.504  10.022  1.00  0.00    -0.206 F 
ATOM     69  C   UNL     1     -17.300  -0.466   8.898  1.00  0.00     0.060 A 
BRANCH  69  70
ATOM     70  S   UNL     1     -19.003   0.131   8.940  1.00  0.00     0.124 S 
ATOM     71  O   UNL     1     -19.179   0.603   7.569  1.00  0.00    -0.237 OA
ATOM     72  O   UNL     1     -19.748  -1.072   9.296  1.00  0.00    -0.237 OA
ATOM     73  O   UNL     1     -18.973   1.172   9.963  1.00  0.00    -0.744 OA
ENDBRANCH  69  70
ENDBRANCH  48  62
BRANCH  49  74
ATOM     74  C   UNL     1      -5.145  -4.417   8.072  1.00  0.00     0.058 A 
ATOM     75  C   UNL     1      -4.773  -5.760   8.235  1.00  0.00     0.135 A 
ATOM     76  C   UNL     1      -4.130  -3.487   7.801  1.00  0.00     0.135 A 
ATOM     77  F   UNL     1      -5.707  -6.686   8.502  1.00  0.00    -0.206 F 
ATOM     78  C   UNL     1      -3.445  -6.165   8.148  1.00  0.00     0.059 A 
ATOM     79  C   UNL     1      -2.797  -3.872   7.684  1.00  0.00     0.059 A 
ATOM     80  F   UNL     1      -4.434  -2.193   7.619  1.00  0.00    -0.206 F 
ATOM     81  C   UNL     1      -2.464  -5.213   7.869  1.00  0.00     0.060 A 
BRANCH  81  82
ATOM     82  S   UNL     1      -0.749  -5.757   7.704  1.00  0.00     0.124 S 
ATOM     83  O   UNL     1      -0.386  -6.009   9.094  1.00  0.00    -0.237 OA
ATOM     84  O   UNL     1      -0.880  -6.935   6.853  1.00  0.00    -0.237 OA
ATOM     85  O   UNL     1      -0.094  -4.612   7.078  1.00  0.00    -0.744 OA
ENDBRANCH  81  82
ENDBRANCH  49  74
BRANCH  61  86
ATOM     86  C   UNL     1      -9.736  -4.100  13.318  1.00  0.00     0.058 A 
ATOM     87  C   UNL     1      -9.017  -3.322  14.238  1.00  0.00     0.135 A 
ATOM     88  C   UNL     1     -10.429  -5.221  13.804  1.00  0.00     0.135 A 
ATOM     89  F   UNL     1      -8.333  -2.244  13.823  1.00  0.00    -0.206 F 
ATOM     90  C   UNL     1      -8.970  -3.654  15.588  1.00  0.00     0.059 A 
ATOM     91  C   UNL     1     -10.417  -5.556  15.154  1.00  0.00     0.059 A 
ATOM     92  F   UNL     1     -11.140  -5.992  12.966  1.00  0.00    -0.206 F 
ATOM     93  C   UNL     1      -9.675  -4.773  16.037  1.00  0.00     0.060 A 
BRANCH  93  94
ATOM     94  S   UNL     1      -9.636  -5.173  17.797  1.00  0.00     0.124 S 
ATOM     95  O   UNL     1      -8.295  -5.729  17.941  1.00  0.00    -0.237 OA
ATOM     96  O   UNL     1      -9.853  -3.870  18.419  1.00  0.00    -0.237 OA
ATOM     97  O   UNL     1     -10.731  -6.125  17.953  1.00  0.00    -0.744 OA
ENDBRANCH  93  94
ENDBRANCH  61  86
ENDBRANCH  35  36
ENDBRANCH  27  30
ENDBRANCH   1  26
TORSDOF 14
