REMARK SMILES Cc1c(NCc2ccc(-c3ccc(Cl)cc3)o2)cccc1C(=O)NCCCNC(=O)c1ccc(-c2c3nc(c(-c4c(F)cc(S(=O)(=O)[O-])cc4F)c4ccc([nH]4)c(-c4c(F)cc(S(=O)(=O)[O-])cc4F)c4nc(c(-c5c(F)cc(S(=O)(=O)[O-])cc5F)c5ccc2[nH]5)C=C4)C=C3)cc1
REMARK SMILES IDX 25 1 24 2 22 3 23 4 21 6 1 7 2 8 3 9 18 10 20 11 19 12 4 13
REMARK SMILES IDX 5 15 6 16 7 17 17 18 8 19 9 20 10 21 11 22 16 23 12 24 15 25
REMARK SMILES IDX 13 26 14 27 26 28 27 29 28 30 29 31 30 33 31 34 32 35 96 36
REMARK SMILES IDX 33 37 95 38 34 39 35 40 36 41 89 42 37 43 94 44 88 45 90 46
REMARK SMILES IDX 38 47 93 48 87 49 86 50 39 52 73 53 52 54 72 55 53 56 56 57
REMARK SMILES IDX 71 58 91 59 54 60 55 61 70 63 92 64 57 65 40 66 41 67 50 68
REMARK SMILES IDX 42 69 43 70 49 71 51 72 44 73 45 74 46 75 47 76 48 77 74 78
REMARK SMILES IDX 75 79 84 80 76 81 77 82 83 83 85 84 78 85 79 86 80 87 81 88
REMARK SMILES IDX 82 89 58 90 59 91 68 92 60 93 61 94 67 95 69 96 62 97 63 98
REMARK SMILES IDX 64 99 65 100 66 101
REMARK H PARENT 24 5 4 14 28 32 90 51 56 62
REMARK Flexibility Score: inf
ROOT
ATOM      1  C   UNL     1       3.143   0.607   1.081  1.00  0.00     0.118 C 
ENDROOT
BRANCH   1   2
ATOM      2  N   UNL     1       2.318   1.609   0.340  1.00  0.00    -0.352 N 
ATOM      3  C   UNL     1       0.994   1.786  -0.037  1.00  0.00     0.251 C 
ATOM      4  O   UNL     1       0.568   2.881  -0.409  1.00  0.00    -0.269 OA
ATOM      5  H   UNL     1       2.875   2.359   0.029  1.00  0.00     0.163 HD
BRANCH   3   6
ATOM      6  C   UNL     1       0.021   0.671  -0.021  1.00  0.00     0.044 A 
ATOM      7  C   UNL     1       1.653  -0.871  -1.150  1.00  0.00     0.047 C 
ATOM      8  C   UNL     1       0.428  -0.628  -0.307  1.00  0.00    -0.015 A 
ATOM      9  C   UNL     1      -0.391  -1.704   0.069  1.00  0.00     0.038 A 
ATOM     10  C   UNL     1      -1.745  -1.455   0.310  1.00  0.00     0.026 A 
ATOM     11  C   UNL     1      -1.341   0.919   0.210  1.00  0.00     0.014 A 
ATOM     12  C   UNL     1      -2.235  -0.147   0.321  1.00  0.00     0.003 A 
BRANCH   9  13
ATOM     13  N   UNL     1       0.193  -2.944   0.204  1.00  0.00    -0.378 N 
ATOM     14  H   UNL     1       1.107  -2.961   0.569  1.00  0.00     0.161 HD
BRANCH  13  15
ATOM     15  C   UNL     1      -0.389  -4.218  -0.132  1.00  0.00     0.188 C 
BRANCH  15  16
ATOM     16  C   UNL     1       0.087  -4.745  -1.440  1.00  0.00     0.123 A 
ATOM     17  C   UNL     1       0.587  -4.159  -2.584  1.00  0.00     0.048 A 
ATOM     18  O   UNL     1       0.052  -6.097  -1.595  1.00  0.00    -0.459 OA
ATOM     19  C   UNL     1       0.946  -5.205  -3.458  1.00  0.00     0.051 A 
ATOM     20  C   UNL     1       0.556  -6.365  -2.831  1.00  0.00     0.134 A 
BRANCH  20  21
ATOM     21  C   UNL     1       0.524  -7.752  -3.233  1.00  0.00     0.017 A 
ATOM     22  C   UNL     1       1.621  -8.341  -3.869  1.00  0.00     0.013 A 
ATOM     23  C   UNL     1      -0.648  -8.494  -3.040  1.00  0.00     0.013 A 
ATOM     24  C   UNL     1       1.542  -9.661  -4.317  1.00  0.00     0.021 A 
ATOM     25  C   UNL     1      -0.734  -9.807  -3.499  1.00  0.00     0.021 A 
ATOM     26  C   UNL     1       0.362 -10.383  -4.138  1.00  0.00     0.041 A 
ATOM     27  Cl  UNL     1       0.251 -11.998  -4.720  1.00  0.00    -0.084 Cl
ENDBRANCH  20  21
ENDBRANCH  15  16
ENDBRANCH  13  15
ENDBRANCH   9  13
ENDBRANCH   3   6
ENDBRANCH   1   2
BRANCH   1  28
ATOM     28  C   UNL     1       4.468  -0.059   0.376  1.00  0.00     0.042 C 
BRANCH  28  29
ATOM     29  C   UNL     1       5.893   0.559   0.756  1.00  0.00     0.118 C 
BRANCH  29  30
ATOM     30  N   UNL     1       7.290   0.242   0.089  1.00  0.00    -0.352 N 
ATOM     31  C   UNL     1       8.528   0.962  -0.224  1.00  0.00     0.251 C 
ATOM     32  H   UNL     1       7.344  -0.699  -0.194  1.00  0.00     0.163 HD
ATOM     33  O   UNL     1       9.514   0.528   0.401  1.00  0.00    -0.269 OA
BRANCH  31  34
ATOM     34  C   UNL     1       8.909   2.123  -1.244  1.00  0.00     0.039 A 
ATOM     35  C   UNL     1       9.863   3.137  -0.898  1.00  0.00     0.014 A 
ATOM     36  C   UNL     1       8.340   2.347  -2.490  1.00  0.00     0.014 A 
ATOM     37  C   UNL     1       9.755   4.490  -1.431  1.00  0.00     0.010 A 
ATOM     38  C   UNL     1       8.222   3.678  -3.012  1.00  0.00     0.010 A 
ATOM     39  C   UNL     1       8.719   4.799  -2.329  1.00  0.00    -0.014 A 
BRANCH  39  40
ATOM     40  C   UNL     1       7.947   6.127  -2.364  1.00  0.00     0.031 A 
ATOM     41  C   UNL     1       8.156   7.089  -3.441  1.00  0.00     0.074 A 
ATOM     42  C   UNL     1       6.897   6.550  -1.587  1.00  0.00     0.049 A 
ATOM     43  N   UNL     1       8.358   8.357  -3.274  1.00  0.00    -0.248 NA
ATOM     44  C   UNL     1       8.018   6.665  -4.820  1.00  0.00     0.031 C 
ATOM     45  C   UNL     1       5.978   7.704  -1.646  1.00  0.00     0.029 A 
ATOM     46  N   UNL     1       6.324   5.915  -0.509  1.00  0.00    -0.354 N 
ATOM     47  C   UNL     1       8.043   8.935  -4.485  1.00  0.00     0.074 A 
ATOM     48  C   UNL     1       8.058   7.844  -5.443  1.00  0.00     0.031 C 
ATOM     49  C   UNL     1       5.314   7.828  -0.469  1.00  0.00     0.029 A 
ATOM     50  C   UNL     1       5.801   6.798   0.427  1.00  0.00     0.049 A 
ATOM     51  H   UNL     1       6.289   4.936  -0.411  1.00  0.00     0.167 HD
ATOM     52  C   UNL     1       7.496  10.188  -4.570  1.00  0.00     0.037 A 
ATOM     53  C   UNL     1       6.387   6.878   1.668  1.00  0.00     0.037 A 
ATOM     54  C   UNL     1       7.043  10.691  -3.257  1.00  0.00     0.049 A 
ATOM     55  C   UNL     1       7.155   8.170   1.765  1.00  0.00     0.074 A 
ATOM     56  C   UNL     1       5.794  10.955  -2.706  1.00  0.00     0.029 A 
ATOM     57  N   UNL     1       7.916  10.724  -2.182  1.00  0.00    -0.354 N 
ATOM     58  N   UNL     1       6.961   9.166   0.952  1.00  0.00    -0.248 NA
ATOM     59  C   UNL     1       8.257   8.421   2.691  1.00  0.00     0.031 C 
ATOM     60  C   UNL     1       5.942  11.166  -1.302  1.00  0.00     0.029 A 
ATOM     61  C   UNL     1       7.284  11.052  -0.993  1.00  0.00     0.049 A 
ATOM     62  H   UNL     1       8.880  10.535  -2.255  1.00  0.00     0.167 HD
ATOM     63  C   UNL     1       7.957  10.081   1.095  1.00  0.00     0.074 A 
ATOM     64  C   UNL     1       8.716   9.603   2.239  1.00  0.00     0.031 C 
ATOM     65  C   UNL     1       8.088  11.123   0.223  1.00  0.00     0.037 A 
BRANCH  52  66
ATOM     66  C   UNL     1       7.092  10.818  -5.899  1.00  0.00     0.058 A 
ATOM     67  C   UNL     1       6.180  11.892  -5.974  1.00  0.00     0.135 A 
ATOM     68  C   UNL     1       7.632  10.436  -7.148  1.00  0.00     0.135 A 
ATOM     69  F   UNL     1       5.699  12.485  -4.874  1.00  0.00    -0.206 F 
ATOM     70  C   UNL     1       5.752  12.447  -7.185  1.00  0.00     0.059 A 
ATOM     71  C   UNL     1       7.162  10.915  -8.374  1.00  0.00     0.059 A 
ATOM     72  F   UNL     1       8.709   9.640  -7.231  1.00  0.00    -0.206 F 
ATOM     73  C   UNL     1       6.225  11.932  -8.383  1.00  0.00     0.060 A 
BRANCH  73  74
ATOM     74  S   UNL     1       5.691  12.676  -9.935  1.00  0.00     0.124 S 
ATOM     75  O   UNL     1       4.238  12.571  -9.849  1.00  0.00    -0.237 OA
ATOM     76  O   UNL     1       6.238  14.024  -9.826  1.00  0.00    -0.237 OA
ATOM     77  O   UNL     1       6.314  11.832 -10.951  1.00  0.00    -0.744 OA
ENDBRANCH  73  74
ENDBRANCH  52  66
BRANCH  53  78
ATOM     78  C   UNL     1       6.852   5.540   2.306  1.00  0.00     0.058 A 
ATOM     79  C   UNL     1       5.794   4.659   2.599  1.00  0.00     0.135 A 
ATOM     80  C   UNL     1       7.862   4.936   1.582  1.00  0.00     0.135 A 
ATOM     81  F   UNL     1       5.112   4.797   3.742  1.00  0.00    -0.206 F 
ATOM     82  C   UNL     1       5.377   3.692   1.681  1.00  0.00     0.059 A 
ATOM     83  C   UNL     1       7.446   3.994   0.636  1.00  0.00     0.059 A 
ATOM     84  F   UNL     1       9.028   5.578   1.386  1.00  0.00    -0.206 F 
ATOM     85  C   UNL     1       6.150   3.526   0.550  1.00  0.00     0.060 A 
BRANCH  85  86
ATOM     86  S   UNL     1       5.302   3.068  -1.190  1.00  0.00     0.124 S 
ATOM     87  O   UNL     1       3.921   3.013  -0.748  1.00  0.00    -0.237 OA
ATOM     88  O   UNL     1       5.545   4.169  -2.082  1.00  0.00    -0.237 OA
ATOM     89  O   UNL     1       5.845   1.790  -1.628  1.00  0.00    -0.744 OA
ENDBRANCH  85  86
ENDBRANCH  53  78
BRANCH  65  90
ATOM     90  C   UNL     1       9.029  12.277   0.429  1.00  0.00     0.058 A 
ATOM     91  C   UNL     1       9.357  12.764   1.705  1.00  0.00     0.135 A 
ATOM     92  C   UNL     1       9.532  13.028  -0.658  1.00  0.00     0.135 A 
ATOM     93  F   UNL     1       8.807  12.244   2.814  1.00  0.00    -0.206 F 
ATOM     94  C   UNL     1      10.228  13.835   1.890  1.00  0.00     0.059 A 
ATOM     95  C   UNL     1      10.363  14.127  -0.498  1.00  0.00     0.059 A 
ATOM     96  F   UNL     1       9.241  12.735  -1.931  1.00  0.00    -0.206 F 
ATOM     97  C   UNL     1      10.739  14.499   0.780  1.00  0.00     0.060 A 
BRANCH  97  98
ATOM     98  S   UNL     1      11.872  15.872   1.016  1.00  0.00     0.124 S 
ATOM     99  O   UNL     1      11.230  16.624   2.091  1.00  0.00    -0.237 OA
ATOM    100  O   UNL     1      13.100  15.172   1.379  1.00  0.00    -0.237 OA
ATOM    101  O   UNL     1      11.886  16.534  -0.284  1.00  0.00    -0.744 OA
ENDBRANCH  97  98
ENDBRANCH  65  90
ENDBRANCH  39  40
ENDBRANCH  31  34
ENDBRANCH  29  30
ENDBRANCH  28  29
ENDBRANCH   1  28
TORSDOF 17
