REMARK SMILES Cc1cc(/C=C/C(=O)NCCCNC(=O)c2ccc(-c3c4nc(c(-c5c(F)cc(S(=O)(=O)[O-])cc5F)c5ccc([nH]5)c(-c5c(F)cc(S(=O)(=O)[O-])cc5F)c5nc(c(-c6c(F)cc(S(=O)(=O)[O-])cc6F)c6ccc3[nH]6)C=C5)C=C4)cc2)ccc1O
REMARK SMILES IDX 11 1 10 2 9 3 7 4 8 5 6 7 5 8 4 9 1 10 2 11 3 12 84 13 83 14
REMARK SMILES IDX 82 15 85 16 12 18 13 19 14 20 15 22 16 23 17 24 81 25 18 26
REMARK SMILES IDX 80 27 19 28 20 29 21 30 74 31 22 32 79 33 73 34 75 35 23 36
REMARK SMILES IDX 78 37 72 38 71 39 24 41 58 42 37 43 57 44 38 45 41 46 56 47
REMARK SMILES IDX 76 48 39 49 40 50 55 52 77 53 42 54 25 55 26 56 35 57 27 58
REMARK SMILES IDX 28 59 34 60 36 61 29 62 30 63 31 64 32 65 33 66 59 67 60 68
REMARK SMILES IDX 69 69 61 70 62 71 68 72 70 73 63 74 64 75 65 76 66 77 67 78
REMARK SMILES IDX 43 79 44 80 53 81 45 82 46 83 52 84 54 85 47 86 48 87 49 88
REMARK SMILES IDX 50 89 51 90
REMARK H PARENT 9 6 85 17 13 21 75 40 41 51
REMARK Flexibility Score: inf
ROOT
ATOM      1  C   UNL     1       4.558  -4.403  -0.845  1.00  0.00     0.042 C 
ENDROOT
BRANCH   1   2
ATOM      2  C   UNL     1       4.851  -3.541   0.381  1.00  0.00     0.118 C 
BRANCH   2   3
ATOM      3  N   UNL     1       5.789  -2.475   0.074  1.00  0.00    -0.352 N 
ATOM      4  C   UNL     1       5.608  -1.131  -0.006  1.00  0.00     0.244 C 
ATOM      5  O   UNL     1       6.581  -0.394  -0.156  1.00  0.00    -0.270 OA
ATOM      6  H   UNL     1       6.708  -2.777  -0.106  1.00  0.00     0.163 HD
BRANCH   4   7
ATOM      7  C   UNL     1       4.271  -0.528   0.185  1.00  0.00     0.072 C 
ATOM      8  C   UNL     1       3.152  -0.950  -0.422  1.00  0.00     0.014 C 
BRANCH   8   9
ATOM      9  C   UNL     1       1.834  -0.330  -0.226  1.00  0.00    -0.025 A 
ATOM     10  C   UNL     1      -1.776  -1.539   0.004  1.00  0.00     0.048 C 
ATOM     11  C   UNL     1      -0.593  -0.616  -0.038  1.00  0.00    -0.009 A 
ATOM     12  C   UNL     1       0.698  -1.154  -0.186  1.00  0.00     0.015 A 
ATOM     13  C   UNL     1      -0.725   0.774   0.048  1.00  0.00     0.118 A 
ATOM     14  C   UNL     1       0.393   1.603   0.010  1.00  0.00     0.047 A 
ATOM     15  C   UNL     1       1.668   1.055  -0.133  1.00  0.00     0.012 A 
BRANCH  13  16
ATOM     16  O   UNL     1      -1.935   1.397   0.163  1.00  0.00    -0.508 OA
ATOM     17  H   UNL     1      -2.722   0.890   0.194  1.00  0.00     0.293 HD
ENDBRANCH  13  16
ENDBRANCH   8   9
ENDBRANCH   4   7
ENDBRANCH   2   3
ENDBRANCH   1   2
BRANCH   1  18
ATOM     18  C   UNL     1       5.714  -5.322  -1.233  1.00  0.00     0.118 C 
BRANCH  18  19
ATOM     19  N   UNL     1       5.938  -6.369  -0.245  1.00  0.00    -0.352 N 
ATOM     20  C   UNL     1       5.917  -7.735  -0.384  1.00  0.00     0.251 C 
ATOM     21  H   UNL     1       6.134  -6.046   0.665  1.00  0.00     0.163 HD
ATOM     22  O   UNL     1       5.908  -8.440   0.620  1.00  0.00    -0.269 OA
BRANCH  20  23
ATOM     23  C   UNL     1       5.896  -8.357  -1.727  1.00  0.00     0.039 A 
ATOM     24  C   UNL     1       5.087  -9.478  -1.939  1.00  0.00     0.014 A 
ATOM     25  C   UNL     1       6.699  -7.870  -2.761  1.00  0.00     0.014 A 
ATOM     26  C   UNL     1       5.042 -10.074  -3.202  1.00  0.00     0.010 A 
ATOM     27  C   UNL     1       6.601  -8.422  -4.036  1.00  0.00     0.010 A 
ATOM     28  C   UNL     1       5.775  -9.532  -4.270  1.00  0.00    -0.014 A 
BRANCH  28  29
ATOM     29  C   UNL     1       5.693 -10.107  -5.637  1.00  0.00     0.031 A 
ATOM     30  C   UNL     1       6.915 -10.709  -6.278  1.00  0.00     0.074 A 
ATOM     31  C   UNL     1       4.540 -10.018  -6.328  1.00  0.00     0.049 A 
ATOM     32  N   UNL     1       7.069 -11.167  -7.494  1.00  0.00    -0.248 NA
ATOM     33  C   UNL     1       8.130 -10.782  -5.451  1.00  0.00     0.031 C 
ATOM     34  C   UNL     1       3.300  -9.417  -5.830  1.00  0.00     0.029 A 
ATOM     35  N   UNL     1       4.225 -10.415  -7.604  1.00  0.00    -0.354 N 
ATOM     36  C   UNL     1       8.399 -11.562  -7.585  1.00  0.00     0.074 A 
ATOM     37  C   UNL     1       9.020 -11.248  -6.316  1.00  0.00     0.031 C 
ATOM     38  C   UNL     1       2.357  -9.499  -6.783  1.00  0.00     0.029 A 
ATOM     39  C   UNL     1       2.933 -10.119  -7.971  1.00  0.00     0.049 A 
ATOM     40  H   UNL     1       4.863 -10.870  -8.199  1.00  0.00     0.167 HD
ATOM     41  C   UNL     1       9.039 -12.150  -8.624  1.00  0.00     0.037 A 
ATOM     42  C   UNL     1       2.289 -10.313  -9.139  1.00  0.00     0.037 A 
ATOM     43  C   UNL     1       8.406 -12.484  -9.874  1.00  0.00     0.049 A 
ATOM     44  C   UNL     1       3.019 -10.973 -10.277  1.00  0.00     0.074 A 
ATOM     45  C   UNL     1       8.951 -13.132 -10.968  1.00  0.00     0.029 A 
ATOM     46  N   UNL     1       7.088 -12.196 -10.196  1.00  0.00    -0.354 N 
ATOM     47  N   UNL     1       4.261 -11.390 -10.326  1.00  0.00    -0.248 NA
ATOM     48  C   UNL     1       2.259 -11.194 -11.515  1.00  0.00     0.031 C 
ATOM     49  C   UNL     1       7.975 -13.201 -11.967  1.00  0.00     0.029 A 
ATOM     50  C   UNL     1       6.806 -12.639 -11.478  1.00  0.00     0.049 A 
ATOM     51  H   UNL     1       6.447 -11.744  -9.602  1.00  0.00     0.167 HD
ATOM     52  C   UNL     1       4.425 -11.949 -11.589  1.00  0.00     0.074 A 
ATOM     53  C   UNL     1       3.151 -11.825 -12.268  1.00  0.00     0.031 C 
ATOM     54  C   UNL     1       5.528 -12.517 -12.135  1.00  0.00     0.037 A 
BRANCH  41  55
ATOM     55  C   UNL     1      10.499 -12.474  -8.453  1.00  0.00     0.058 A 
ATOM     56  C   UNL     1      10.932 -13.493  -7.590  1.00  0.00     0.135 A 
ATOM     57  C   UNL     1      11.476 -11.781  -9.187  1.00  0.00     0.135 A 
ATOM     58  F   UNL     1      10.043 -14.179  -6.853  1.00  0.00    -0.206 F 
ATOM     59  C   UNL     1      12.281 -13.793  -7.435  1.00  0.00     0.059 A 
ATOM     60  C   UNL     1      12.830 -12.083  -9.069  1.00  0.00     0.059 A 
ATOM     61  F   UNL     1      11.119 -10.798 -10.028  1.00  0.00    -0.206 F 
ATOM     62  C   UNL     1      13.224 -13.081  -8.179  1.00  0.00     0.060 A 
BRANCH  62  63
ATOM     63  S   UNL     1      14.971 -13.483  -7.968  1.00  0.00     0.124 S 
ATOM     64  O   UNL     1      15.245 -12.907  -6.655  1.00  0.00    -0.237 OA
ATOM     65  O   UNL     1      14.966 -14.941  -8.031  1.00  0.00    -0.237 OA
ATOM     66  O   UNL     1      15.613 -12.813  -9.095  1.00  0.00    -0.744 OA
ENDBRANCH  62  63
ENDBRANCH  41  55
BRANCH  42  67
ATOM     67  C   UNL     1       0.868  -9.896  -9.280  1.00  0.00     0.058 A 
ATOM     68  C   UNL     1      -0.158 -10.848  -9.358  1.00  0.00     0.135 A 
ATOM     69  C   UNL     1       0.506  -8.540  -9.320  1.00  0.00     0.135 A 
ATOM     70  F   UNL     1       0.139 -12.157  -9.329  1.00  0.00    -0.206 F 
ATOM     71  C   UNL     1      -1.492 -10.475  -9.484  1.00  0.00     0.059 A 
ATOM     72  C   UNL     1      -0.823  -8.141  -9.421  1.00  0.00     0.059 A 
ATOM     73  F   UNL     1       1.449  -7.589  -9.230  1.00  0.00    -0.206 F 
ATOM     74  C   UNL     1      -1.815  -9.117  -9.512  1.00  0.00     0.060 A 
BRANCH  74  75
ATOM     75  S   UNL     1      -3.554  -8.642  -9.621  1.00  0.00     0.124 S 
ATOM     76  O   UNL     1      -3.856  -8.950 -11.014  1.00  0.00    -0.237 OA
ATOM     77  O   UNL     1      -4.173  -9.513  -8.626  1.00  0.00    -0.237 OA
ATOM     78  O   UNL     1      -3.536  -7.224  -9.275  1.00  0.00    -0.744 OA
ENDBRANCH  74  75
ENDBRANCH  42  67
BRANCH  54  79
ATOM     79  C   UNL     1       5.401 -13.084 -13.522  1.00  0.00     0.058 A 
ATOM     80  C   UNL     1       5.319 -12.259 -14.653  1.00  0.00     0.135 A 
ATOM     81  C   UNL     1       5.419 -14.474 -13.722  1.00  0.00     0.135 A 
ATOM     82  F   UNL     1       5.290 -10.924 -14.516  1.00  0.00    -0.206 F 
ATOM     83  C   UNL     1       5.239 -12.792 -15.936  1.00  0.00     0.059 A 
ATOM     84  C   UNL     1       5.368 -15.028 -14.997  1.00  0.00     0.059 A 
ATOM     85  F   UNL     1       5.506 -15.308 -12.673  1.00  0.00    -0.206 F 
ATOM     86  C   UNL     1       5.267 -14.179 -16.098  1.00  0.00     0.060 A 
BRANCH  86  87
ATOM     87  S   UNL     1       5.203 -14.857 -17.769  1.00  0.00     0.124 S 
ATOM     88  O   UNL     1       3.800 -14.653 -18.116  1.00  0.00    -0.237 OA
ATOM     89  O   UNL     1       6.161 -14.020 -18.484  1.00  0.00    -0.237 OA
ATOM     90  O   UNL     1       5.609 -16.248 -17.587  1.00  0.00    -0.744 OA
ENDBRANCH  86  87
ENDBRANCH  54  79
ENDBRANCH  28  29
ENDBRANCH  20  23
ENDBRANCH  18  19
ENDBRANCH   1  18
TORSDOF 15
