REMARK SMILES Cc1ncc(CC(=O)N2CCc3c(c(C(=O)NCCCNC(=O)c4ccc(-c5c6nc(c(-c7c(F)cc(S(=O)(=O)[O-])cc7F)c7ccc([nH]7)c(-c7c(F)cc(S(=O)(=O)[O-])cc7F)c7nc(c(-c8c(F)cc(S(=O)(=O)[O-])cc8F)c8ccc5[nH]8)C=C7)C=C6)cc4)nn3CC3CC3)C2)c(=O)[nH]1
REMARK SMILES IDX 19 1 18 2 17 3 15 4 16 5 14 7 9 8 10 9 96 10 11 11 13 12
REMARK SMILES IDX 12 13 91 14 90 15 7 16 8 17 6 18 5 19 1 20 2 21 3 22 99 23
REMARK SMILES IDX 4 24 97 25 98 27 92 28 93 29 94 30 95 31 20 32 21 33 22 34
REMARK SMILES IDX 23 36 24 37 25 38 89 39 26 40 88 41 27 42 28 43 29 44 82 45
REMARK SMILES IDX 30 46 87 47 81 48 83 49 31 50 86 51 80 52 79 53 32 55 66 56
REMARK SMILES IDX 45 57 65 58 46 59 49 60 64 61 84 62 47 63 48 64 63 66 85 67
REMARK SMILES IDX 50 68 33 69 34 70 43 71 35 72 36 73 42 74 44 75 37 76 38 77
REMARK SMILES IDX 39 78 40 79 41 80 67 81 68 82 77 83 69 84 70 85 76 86 78 87
REMARK SMILES IDX 71 88 72 89 73 90 74 91 75 92 51 93 52 94 61 95 53 96 54 97
REMARK SMILES IDX 60 98 62 99 55 100 56 101 57 102 58 103 59 104
REMARK H PARENT 17 6 99 26 21 35 83 54 49 65
REMARK Flexibility Score: inf
ROOT
ATOM      1  C   UNL     1       0.966   6.933   8.547  1.00  0.00     0.042 C 
ENDROOT
BRANCH   1   2
ATOM      2  C   UNL     1       1.641   7.228   7.202  1.00  0.00     0.118 C 
BRANCH   2   3
ATOM      3  N   UNL     1       2.796   6.379   6.934  1.00  0.00    -0.351 N 
ATOM      4  C   UNL     1       2.941   5.287   6.096  1.00  0.00     0.272 C 
ATOM      5  O   UNL     1       4.064   4.814   5.960  1.00  0.00    -0.267 OA
ATOM      6  H   UNL     1       3.609   6.624   7.432  1.00  0.00     0.163 HD
BRANCH   4   7
ATOM      7  C   UNL     1       1.778   4.707   5.399  1.00  0.00     0.155 A 
ATOM      8  N   UNL     1       2.337   2.002   2.787  1.00  0.00    -0.338 N 
ATOM      9  C   UNL     1       1.071   1.316   3.097  1.00  0.00     0.126 C 
ATOM     10  C   UNL     1       2.909   2.785   3.915  1.00  0.00     0.159 C 
ATOM     11  C   UNL     1      -0.067   2.331   3.295  1.00  0.00     0.078 C 
ATOM     12  C   UNL     1       1.785   3.615   4.480  1.00  0.00     0.026 A 
ATOM     13  C   UNL     1       0.449   3.396   4.187  1.00  0.00     0.046 A 
ATOM     14  N   UNL     1      -0.261   4.338   4.851  1.00  0.00    -0.268 N 
ATOM     15  N   UNL     1       0.518   5.149   5.576  1.00  0.00    -0.167 NA
BRANCH   8  16
ATOM     16  C   UNL     1       3.028   1.972   1.589  1.00  0.00     0.227 C 
ATOM     17  O   UNL     1       4.251   2.151   1.563  1.00  0.00    -0.275 OA
BRANCH  16  18
ATOM     18  C   UNL     1       2.270   2.023   0.246  1.00  0.00     0.143 C 
BRANCH  18  19
ATOM     19  C   UNL     1       1.065   1.178   0.019  1.00  0.00     0.045 A 
ATOM     20  C   UNL     1      -2.356  -1.300  -0.087  1.00  0.00     0.087 C 
ATOM     21  C   UNL     1      -1.168  -0.385  -0.116  1.00  0.00     0.105 A 
ATOM     22  N   UNL     1      -1.320   0.897  -0.187  1.00  0.00    -0.243 NA
ATOM     23  N   UNL     1       0.052  -0.994  -0.047  1.00  0.00    -0.311 N 
ATOM     24  C   UNL     1      -0.180   1.654  -0.132  1.00  0.00     0.123 A 
ATOM     25  C   UNL     1       1.221  -0.290  -0.026  1.00  0.00     0.254 A 
ATOM     26  H   UNL     1       0.089  -1.977  -0.010  1.00  0.00     0.171 HD
ATOM     27  O   UNL     1       2.313  -0.841  -0.019  1.00  0.00    -0.269 OA
ENDBRANCH  18  19
ENDBRANCH  16  18
ENDBRANCH   8  16
BRANCH  14  28
ATOM     28  C   UNL     1      -1.697   4.574   4.829  1.00  0.00     0.148 C 
BRANCH  28  29
ATOM     29  C   UNL     1      -2.433   4.125   6.063  1.00  0.00     0.011 C 
ATOM     30  C   UNL     1      -1.770   3.615   7.326  1.00  0.00     0.006 C 
ATOM     31  C   UNL     1      -2.384   4.984   7.306  1.00  0.00     0.006 C 
ENDBRANCH  28  29
ENDBRANCH  14  28
ENDBRANCH   4   7
ENDBRANCH   2   3
ENDBRANCH   1   2
BRANCH   1  32
ATOM     32  C   UNL     1       1.679   7.654   9.679  1.00  0.00     0.118 C 
BRANCH  32  33
ATOM     33  N   UNL     1       1.529   9.124   9.614  1.00  0.00    -0.352 N 
ATOM     34  C   UNL     1       1.992  10.113  10.476  1.00  0.00     0.251 C 
ATOM     35  H   UNL     1       1.022   9.454   8.838  1.00  0.00     0.163 HD
ATOM     36  O   UNL     1       1.530  11.245  10.430  1.00  0.00    -0.269 OA
BRANCH  34  37
ATOM     37  C   UNL     1       3.055   9.775  11.440  1.00  0.00     0.039 A 
ATOM     38  C   UNL     1       3.188  10.347  12.711  1.00  0.00     0.014 A 
ATOM     39  C   UNL     1       3.927   8.784  11.041  1.00  0.00     0.014 A 
ATOM     40  C   UNL     1       4.216   9.886  13.538  1.00  0.00     0.010 A 
ATOM     41  C   UNL     1       4.557   8.063  11.995  1.00  0.00     0.010 A 
ATOM     42  C   UNL     1       4.914   8.746  13.137  1.00  0.00    -0.014 A 
BRANCH  42  43
ATOM     43  C   UNL     1       6.028   8.138  13.842  1.00  0.00     0.031 A 
ATOM     44  C   UNL     1       5.619   7.395  15.051  1.00  0.00     0.074 A 
ATOM     45  C   UNL     1       7.212   7.946  13.212  1.00  0.00     0.049 A 
ATOM     46  N   UNL     1       5.781   7.753  16.281  1.00  0.00    -0.248 NA
ATOM     47  C   UNL     1       4.711   6.245  14.883  1.00  0.00     0.031 C 
ATOM     48  C   UNL     1       7.593   8.312  11.838  1.00  0.00     0.029 A 
ATOM     49  N   UNL     1       8.289   7.226  13.631  1.00  0.00    -0.354 N 
ATOM     50  C   UNL     1       5.247   6.710  17.030  1.00  0.00     0.074 A 
ATOM     51  C   UNL     1       4.345   6.026  16.147  1.00  0.00     0.031 C 
ATOM     52  C   UNL     1       8.697   7.625  11.472  1.00  0.00     0.029 A 
ATOM     53  C   UNL     1       9.177   6.869  12.611  1.00  0.00     0.049 A 
ATOM     54  H   UNL     1       8.431   6.978  14.573  1.00  0.00     0.167 HD
ATOM     55  C   UNL     1       5.840   6.296  18.186  1.00  0.00     0.037 A 
ATOM     56  C   UNL     1      10.158   5.932  12.722  1.00  0.00     0.037 A 
ATOM     57  C   UNL     1       6.856   7.243  18.596  1.00  0.00     0.049 A 
ATOM     58  C   UNL     1      10.426   5.792  14.189  1.00  0.00     0.074 A 
ATOM     59  C   UNL     1       6.866   8.604  18.843  1.00  0.00     0.029 A 
ATOM     60  N   UNL     1       8.173   6.897  18.377  1.00  0.00    -0.354 N 
ATOM     61  N   UNL     1      10.889   6.769  14.931  1.00  0.00    -0.248 NA
ATOM     62  C   UNL     1       9.672   4.775  14.912  1.00  0.00     0.031 C 
ATOM     63  C   UNL     1       8.076   9.074  18.251  1.00  0.00     0.029 A 
ATOM     64  C   UNL     1       8.786   7.969  17.778  1.00  0.00     0.049 A 
ATOM     65  H   UNL     1       8.596   6.039  18.609  1.00  0.00     0.167 HD
ATOM     66  C   UNL     1      10.137   6.724  16.101  1.00  0.00     0.074 A 
ATOM     67  C   UNL     1       9.442   5.437  16.051  1.00  0.00     0.031 C 
ATOM     68  C   UNL     1       9.888   7.847  16.844  1.00  0.00     0.037 A 
BRANCH  55  69
ATOM     69  C   UNL     1       5.817   4.877  18.724  1.00  0.00     0.058 A 
ATOM     70  C   UNL     1       6.423   4.630  19.975  1.00  0.00     0.135 A 
ATOM     71  C   UNL     1       5.483   3.720  17.983  1.00  0.00     0.135 A 
ATOM     72  F   UNL     1       6.754   5.646  20.788  1.00  0.00    -0.206 F 
ATOM     73  C   UNL     1       6.783   3.351  20.396  1.00  0.00     0.059 A 
ATOM     74  C   UNL     1       5.785   2.432  18.410  1.00  0.00     0.059 A 
ATOM     75  F   UNL     1       4.927   3.761  16.770  1.00  0.00    -0.206 F 
ATOM     76  C   UNL     1       6.481   2.259  19.591  1.00  0.00     0.060 A 
BRANCH  76  77
ATOM     77  S   UNL     1       7.051   0.622  20.069  1.00  0.00     0.124 S 
ATOM     78  O   UNL     1       8.494   0.762  19.910  1.00  0.00    -0.237 OA
ATOM     79  O   UNL     1       6.564   0.523  21.440  1.00  0.00    -0.237 OA
ATOM     80  O   UNL     1       6.390  -0.257  19.109  1.00  0.00    -0.744 OA
ENDBRANCH  76  77
ENDBRANCH  55  69
BRANCH  56  81
ATOM     81  C   UNL     1      10.513   4.895  11.702  1.00  0.00     0.058 A 
ATOM     82  C   UNL     1      11.624   4.043  11.858  1.00  0.00     0.135 A 
ATOM     83  C   UNL     1       9.622   4.543  10.664  1.00  0.00     0.135 A 
ATOM     84  F   UNL     1      12.522   4.279  12.827  1.00  0.00    -0.206 F 
ATOM     85  C   UNL     1      11.810   2.895  11.069  1.00  0.00     0.059 A 
ATOM     86  C   UNL     1       9.795   3.418   9.857  1.00  0.00     0.059 A 
ATOM     87  F   UNL     1       8.492   5.230  10.450  1.00  0.00    -0.206 F 
ATOM     88  C   UNL     1      10.876   2.580  10.082  1.00  0.00     0.060 A 
BRANCH  88  89
ATOM     89  S   UNL     1      10.993   1.012   9.184  1.00  0.00     0.124 S 
ATOM     90  O   UNL     1      12.169   1.228   8.348  1.00  0.00    -0.237 OA
ATOM     91  O   UNL     1      11.149   0.047  10.267  1.00  0.00    -0.237 OA
ATOM     92  O   UNL     1       9.722   0.936   8.468  1.00  0.00    -0.744 OA
ENDBRANCH  88  89
ENDBRANCH  56  81
BRANCH  68  93
ATOM     93  C   UNL     1      10.631   9.127  16.532  1.00  0.00     0.058 A 
ATOM     94  C   UNL     1      10.534   9.832  15.318  1.00  0.00     0.135 A 
ATOM     95  C   UNL     1      11.299   9.773  17.584  1.00  0.00     0.135 A 
ATOM     96  F   UNL     1       9.822   9.345  14.295  1.00  0.00    -0.206 F 
ATOM     97  C   UNL     1      11.100  11.098  15.146  1.00  0.00     0.059 A 
ATOM     98  C   UNL     1      11.843  11.048  17.447  1.00  0.00     0.059 A 
ATOM     99  F   UNL     1      11.371   9.190  18.792  1.00  0.00    -0.206 F 
ATOM    100  C   UNL     1      11.751  11.701  16.221  1.00  0.00     0.060 A 
BRANCH 100 101
ATOM    101  S   UNL     1      12.420  13.367  16.023  1.00  0.00     0.124 S 
ATOM    102  O   UNL     1      13.541  13.140  15.117  1.00  0.00    -0.237 OA
ATOM    103  O   UNL     1      11.289  14.100  15.462  1.00  0.00    -0.237 OA
ATOM    104  O   UNL     1      12.787  13.752  17.384  1.00  0.00    -0.744 OA
ENDBRANCH 100 101
ENDBRANCH  68  93
ENDBRANCH  42  43
ENDBRANCH  34  37
ENDBRANCH  32  33
ENDBRANCH   1  32
TORSDOF 18
