REMARK SMILES COc1cc([C@@H]2CC(=O)Nc3c(C(=O)NCCCNC(=O)c4ccc(-c5c6nc(c(-c7c(F)cc(S(=O)(=O)[O-])cc7F)c7ccc([nH]7)c(-c7c(F)cc(S(=O)(=O)[O-])cc7F)c7nc(c(-c8c(F)cc(S(=O)(=O)[O-])cc8F)c8ccc5[nH]8)C=C7)C=C6)cc4)cn(-c4ccc(F)cc4)c32)c(OC)c2c1OCO2
REMARK SMILES IDX 17 1 16 2 15 3 13 4 14 5 12 7 6 8 7 9 97 10 8 11 11 12 89 13
REMARK SMILES IDX 9 14 10 15 88 16 5 18 3 19 4 20 102 21 101 22 103 23 98 24
REMARK SMILES IDX 105 25 104 26 2 27 1 28 99 29 100 30 90 31 91 32 96 33 92 34
REMARK SMILES IDX 95 35 93 36 94 37 18 38 19 39 20 40 21 42 22 43 23 44 87 45
REMARK SMILES IDX 24 46 86 47 25 48 26 49 27 50 80 51 28 52 85 53 79 54 81 55
REMARK SMILES IDX 29 56 84 57 78 58 77 59 30 61 64 62 43 63 63 64 44 65 47 66
REMARK SMILES IDX 62 67 82 68 45 69 46 70 61 72 83 73 48 74 31 75 32 76 41 77
REMARK SMILES IDX 33 78 34 79 40 80 42 81 35 82 36 83 37 84 38 85 39 86 65 87
REMARK SMILES IDX 66 88 75 89 67 90 68 91 74 92 76 93 69 94 70 95 71 96 72 97
REMARK SMILES IDX 73 98 49 99 50 100 59 101 51 102 52 103 58 104 60 105 53 106
REMARK SMILES IDX 54 107 55 108 56 109 57 110
REMARK H PARENT 15 6 10 17 19 41 81 60 47 71
REMARK Flexibility Score: inf
ROOT
ATOM      1  C   UNL     1      -0.360   9.789  -5.605  1.00  0.00     0.042 C 
ENDROOT
BRANCH   1   2
ATOM      2  C   UNL     1       0.271  10.093  -4.236  1.00  0.00     0.118 C 
BRANCH   2   3
ATOM      3  N   UNL     1      -0.727  10.286  -3.212  1.00  0.00    -0.352 N 
ATOM      4  C   UNL     1      -1.401   9.431  -2.385  1.00  0.00     0.254 C 
ATOM      5  O   UNL     1      -2.115   9.987  -1.544  1.00  0.00    -0.269 OA
ATOM      6  H   UNL     1      -0.975  11.230  -3.083  1.00  0.00     0.163 HD
BRANCH   4   7
ATOM      7  C   UNL     1      -1.321   7.962  -2.426  1.00  0.00     0.081 A 
ATOM      8  C   UNL     1      -0.774   4.399  -3.432  1.00  0.00     0.082 C 
ATOM      9  C   UNL     1      -0.610   4.618  -4.941  1.00  0.00     0.115 C 
ATOM     10  C   UNL     1      -1.077   5.705  -2.748  1.00  0.00     0.055 A 
ATOM     11  C   UNL     1       0.132   5.889  -5.267  1.00  0.00     0.225 C 
ATOM     12  C   UNL     1      -0.795   6.946  -3.282  1.00  0.00     0.076 A 
ATOM     13  N   UNL     1      -1.795   5.891  -1.590  1.00  0.00    -0.317 N 
ATOM     14  O   UNL     1       0.830   6.004  -6.275  1.00  0.00    -0.275 OA
ATOM     15  N   UNL     1      -0.103   6.973  -4.468  1.00  0.00    -0.324 N 
ATOM     16  C   UNL     1      -1.988   7.238  -1.433  1.00  0.00     0.107 A 
ATOM     17  H   UNL     1       0.251   7.842  -4.766  1.00  0.00     0.170 HD
BRANCH   8  18
ATOM     18  C   UNL     1       0.400   3.597  -2.865  1.00  0.00     0.012 A 
ATOM     19  C   UNL     1       1.077   1.441  -1.906  1.00  0.00     0.165 A 
ATOM     20  C   UNL     1       0.121   2.251  -2.509  1.00  0.00     0.059 A 
ATOM     21  C   UNL     1       2.352   1.948  -1.768  1.00  0.00     0.211 A 
ATOM     22  C   UNL     1       2.664   3.237  -2.155  1.00  0.00     0.211 A 
ATOM     23  O   UNL     1       3.428   1.278  -1.268  1.00  0.00    -0.449 OA
ATOM     24  C   UNL     1       1.712   4.099  -2.690  1.00  0.00     0.168 A 
ATOM     25  O   UNL     1       3.982   3.512  -1.926  1.00  0.00    -0.449 OA
ATOM     26  C   UNL     1       4.471   2.243  -1.468  1.00  0.00     0.468 C 
BRANCH  19  27
ATOM     27  O   UNL     1       0.678   0.194  -1.525  1.00  0.00    -0.493 OA
ATOM     28  C   UNL     1       0.988  -0.083  -0.161  1.00  0.00     0.278 C 
ENDBRANCH  19  27
BRANCH  24  29
ATOM     29  O   UNL     1       1.924   5.393  -3.054  1.00  0.00    -0.492 OA
ATOM     30  C   UNL     1       3.249   5.906  -3.056  1.00  0.00     0.278 C 
ENDBRANCH  24  29
ENDBRANCH   8  18
BRANCH  13  31
ATOM     31  C   UNL     1      -2.351   4.889  -0.768  1.00  0.00     0.046 A 
ATOM     32  C   UNL     1      -1.529   3.880  -0.260  1.00  0.00     0.029 A 
ATOM     33  C   UNL     1      -3.732   4.866  -0.548  1.00  0.00     0.029 A 
ATOM     34  C   UNL     1      -2.099   2.777   0.369  1.00  0.00     0.041 A 
ATOM     35  C   UNL     1      -4.296   3.757   0.085  1.00  0.00     0.041 A 
ATOM     36  C   UNL     1      -3.479   2.713   0.513  1.00  0.00     0.123 A 
ATOM     37  F   UNL     1      -4.029   1.626   1.069  1.00  0.00    -0.207 F 
ENDBRANCH  13  31
ENDBRANCH   4   7
ENDBRANCH   2   3
ENDBRANCH   1   2
BRANCH   1  38
ATOM     38  C   UNL     1      -0.445  11.014  -6.486  1.00  0.00     0.118 C 
BRANCH  38  39
ATOM     39  N   UNL     1       0.895  11.415  -6.939  1.00  0.00    -0.352 N 
ATOM     40  C   UNL     1       1.270  12.547  -7.624  1.00  0.00     0.251 C 
ATOM     41  H   UNL     1       1.623  10.787  -6.724  1.00  0.00     0.163 HD
ATOM     42  O   UNL     1       2.335  12.577  -8.247  1.00  0.00    -0.269 OA
BRANCH  40  43
ATOM     43  C   UNL     1       0.379  13.710  -7.597  1.00  0.00     0.039 A 
ATOM     44  C   UNL     1       0.156  14.497  -8.729  1.00  0.00     0.014 A 
ATOM     45  C   UNL     1      -0.300  13.956  -6.407  1.00  0.00     0.014 A 
ATOM     46  C   UNL     1      -0.820  15.485  -8.664  1.00  0.00     0.010 A 
ATOM     47  C   UNL     1      -1.402  14.760  -6.420  1.00  0.00     0.010 A 
ATOM     48  C   UNL     1      -1.612  15.591  -7.508  1.00  0.00    -0.014 A 
BRANCH  48  49
ATOM     49  C   UNL     1      -2.768  16.473  -7.448  1.00  0.00     0.031 A 
ATOM     50  C   UNL     1      -3.750  16.215  -8.532  1.00  0.00     0.074 A 
ATOM     51  C   UNL     1      -3.020  17.264  -6.380  1.00  0.00     0.049 A 
ATOM     52  N   UNL     1      -3.961  16.934  -9.583  1.00  0.00    -0.248 NA
ATOM     53  C   UNL     1      -4.413  14.899  -8.577  1.00  0.00     0.031 C 
ATOM     54  C   UNL     1      -2.279  17.347  -5.114  1.00  0.00     0.029 A 
ATOM     55  N   UNL     1      -4.065  18.105  -6.157  1.00  0.00    -0.354 N 
ATOM     56  C   UNL     1      -4.998  16.303 -10.263  1.00  0.00     0.074 A 
ATOM     57  C   UNL     1      -5.040  14.960  -9.755  1.00  0.00     0.031 C 
ATOM     58  C   UNL     1      -3.018  17.998  -4.189  1.00  0.00     0.029 A 
ATOM     59  C   UNL     1      -4.200  18.534  -4.835  1.00  0.00     0.049 A 
ATOM     60  H   UNL     1      -4.679  18.390  -6.871  1.00  0.00     0.167 HD
ATOM     61  C   UNL     1      -5.919  17.037 -10.950  1.00  0.00     0.037 A 
ATOM     62  C   UNL     1      -5.220  19.269  -4.316  1.00  0.00     0.037 A 
ATOM     63  C   UNL     1      -5.445  18.391 -11.130  1.00  0.00     0.049 A 
ATOM     64  C   UNL     1      -5.888  19.933  -5.466  1.00  0.00     0.074 A 
ATOM     65  C   UNL     1      -4.346  18.967 -11.738  1.00  0.00     0.029 A 
ATOM     66  N   UNL     1      -5.943  19.338 -10.268  1.00  0.00    -0.354 N 
ATOM     67  N   UNL     1      -5.311  20.836  -6.213  1.00  0.00    -0.248 NA
ATOM     68  C   UNL     1      -7.007  19.238  -6.082  1.00  0.00     0.031 C 
ATOM     69  C   UNL     1      -3.974  20.047 -10.884  1.00  0.00     0.029 A 
ATOM     70  C   UNL     1      -4.911  20.138  -9.852  1.00  0.00     0.049 A 
ATOM     71  H   UNL     1      -6.885  19.427  -9.994  1.00  0.00     0.167 HD
ATOM     72  C   UNL     1      -5.689  20.518  -7.510  1.00  0.00     0.074 A 
ATOM     73  C   UNL     1      -6.802  19.580  -7.357  1.00  0.00     0.031 C 
ATOM     74  C   UNL     1      -4.876  20.811  -8.569  1.00  0.00     0.037 A 
BRANCH  61  75
ATOM     75  C   UNL     1      -7.389  16.686 -11.078  1.00  0.00     0.058 A 
ATOM     76  C   UNL     1      -8.217  17.519 -11.862  1.00  0.00     0.135 A 
ATOM     77  C   UNL     1      -8.075  15.757 -10.262  1.00  0.00     0.135 A 
ATOM     78  F   UNL     1      -7.683  18.437 -12.684  1.00  0.00    -0.206 F 
ATOM     79  C   UNL     1      -9.609  17.495 -11.773  1.00  0.00     0.059 A 
ATOM     80  C   UNL     1      -9.462  15.682 -10.197  1.00  0.00     0.059 A 
ATOM     81  F   UNL     1      -7.449  14.932  -9.417  1.00  0.00    -0.206 F 
ATOM     82  C   UNL     1     -10.222  16.581 -10.924  1.00  0.00     0.060 A 
BRANCH  82  83
ATOM     83  S   UNL     1     -12.012  16.598 -10.746  1.00  0.00     0.124 S 
ATOM     84  O   UNL     1     -12.224  17.871 -10.067  1.00  0.00    -0.237 OA
ATOM     85  O   UNL     1     -12.452  16.530 -12.136  1.00  0.00    -0.237 OA
ATOM     86  O   UNL     1     -12.281  15.404  -9.950  1.00  0.00    -0.744 OA
ENDBRANCH  82  83
ENDBRANCH  61  75
BRANCH  62  87
ATOM     87  C   UNL     1      -5.854  19.163  -2.971  1.00  0.00     0.058 A 
ATOM     88  C   UNL     1      -6.748  20.144  -2.498  1.00  0.00     0.135 A 
ATOM     89  C   UNL     1      -5.827  17.956  -2.245  1.00  0.00     0.135 A 
ATOM     90  F   UNL     1      -6.861  21.317  -3.139  1.00  0.00    -0.206 F 
ATOM     91  C   UNL     1      -7.594  19.924  -1.402  1.00  0.00     0.059 A 
ATOM     92  C   UNL     1      -6.656  17.716  -1.147  1.00  0.00     0.059 A 
ATOM     93  F   UNL     1      -5.054  16.933  -2.639  1.00  0.00    -0.206 F 
ATOM     94  C   UNL     1      -7.555  18.695  -0.744  1.00  0.00     0.060 A 
BRANCH  94  95
ATOM     95  S   UNL     1      -8.758  18.339   0.562  1.00  0.00     0.124 S 
ATOM     96  O   UNL     1      -8.319  19.230   1.631  1.00  0.00    -0.237 OA
ATOM     97  O   UNL     1     -10.023  18.687  -0.077  1.00  0.00    -0.237 OA
ATOM     98  O   UNL     1      -8.566  16.914   0.821  1.00  0.00    -0.744 OA
ENDBRANCH  94  95
ENDBRANCH  62  87
BRANCH  74  99
ATOM     99  C   UNL     1      -3.734  21.775  -8.348  1.00  0.00     0.058 A 
ATOM    100  C   UNL     1      -2.627  21.546  -7.511  1.00  0.00     0.135 A 
ATOM    101  C   UNL     1      -3.696  22.925  -9.152  1.00  0.00     0.135 A 
ATOM    102  F   UNL     1      -2.533  20.427  -6.780  1.00  0.00    -0.206 F 
ATOM    103  C   UNL     1      -1.551  22.439  -7.451  1.00  0.00     0.059 A 
ATOM    104  C   UNL     1      -2.622  23.809  -9.134  1.00  0.00     0.059 A 
ATOM    105  F   UNL     1      -4.695  23.173 -10.016  1.00  0.00    -0.206 F 
ATOM    106  C   UNL     1      -1.558  23.568  -8.270  1.00  0.00     0.060 A 
BRANCH 106 107
ATOM    107  S   UNL     1      -0.144  24.691  -8.245  1.00  0.00     0.124 S 
ATOM    108  O   UNL     1      -0.272  25.317  -6.934  1.00  0.00    -0.237 OA
ATOM    109  O   UNL     1       0.988  23.783  -8.406  1.00  0.00    -0.237 OA
ATOM    110  O   UNL     1      -0.389  25.574  -9.383  1.00  0.00    -0.744 OA
ENDBRANCH 106 107
ENDBRANCH  74  99
ENDBRANCH  48  49
ENDBRANCH  40  43
ENDBRANCH  38  39
ENDBRANCH   1  38
TORSDOF 17
