REMARK SMILES O=C(C[C@@H]1C(=O)NCCN1C(=O)OCC1c2ccccc2-c2ccccc21)NCCCNC(=O)c1ccc(-c2c3nc(c(-c4c(F)cc(S(=O)(=O)[O-])cc4F)c4ccc([nH]4)c(-c4c(F)cc(S(=O)(=O)[O-])cc4F)c4nc(c(-c5c(F)cc(S(=O)(=O)[O-])cc5F)c5ccc2[nH]5)C=C4)C=C3)cc1
REMARK SMILES IDX 29 1 28 2 1 3 2 4 3 6 4 7 5 8 10 9 6 10 7 11 9 12 8 13 11 15
REMARK SMILES IDX 12 16 13 17 14 18 15 19 16 20 27 21 17 22 21 23 22 24 26 25
REMARK SMILES IDX 18 26 20 27 23 28 25 29 19 30 24 31 30 32 31 33 32 34 33 35
REMARK SMILES IDX 34 37 35 38 36 39 100 40 37 41 99 42 38 43 39 44 40 45 93 46
REMARK SMILES IDX 41 47 98 48 92 49 94 50 42 51 97 52 91 53 90 54 43 56 77 57
REMARK SMILES IDX 56 58 76 59 57 60 60 61 75 62 95 63 58 64 59 65 74 67 96 68
REMARK SMILES IDX 61 69 44 70 45 71 54 72 46 73 47 74 53 75 55 76 48 77 49 78
REMARK SMILES IDX 50 79 51 80 52 81 78 82 79 83 88 84 80 85 81 86 87 87 89 88
REMARK SMILES IDX 82 89 83 90 84 91 85 92 86 93 62 94 63 95 72 96 64 97 65 98
REMARK SMILES IDX 71 99 73 100 66 101 67 102 68 103 69 104 70 105
REMARK H PARENT 28 5 7 14 32 36 94 55 60 66
REMARK Flexibility Score: inf
ROOT
ATOM      1  C   UNL     1       2.922   0.916   1.845  1.00  0.00     0.117 C 
ENDROOT
BRANCH   1   2
ATOM      2  N   UNL     1       3.528  -0.149   1.092  1.00  0.00    -0.356 N 
ATOM      3  O   UNL     1       1.646  -1.439   1.017  1.00  0.00    -0.275 OA
ATOM      4  C   UNL     1       2.647  -0.992   0.457  1.00  0.00     0.222 C 
ATOM      5  H   UNL     1       4.503  -0.266   1.036  1.00  0.00     0.163 HD
BRANCH   4   6
ATOM      6  C   UNL     1       2.898  -1.293  -0.995  1.00  0.00     0.135 C 
BRANCH   6   7
ATOM      7  C   UNL     1       3.679  -0.285  -1.853  1.00  0.00     0.187 C 
ATOM      8  C   UNL     1       5.155  -0.789  -1.931  1.00  0.00     0.243 C 
ATOM      9  N   UNL     1       3.514   1.185  -1.657  1.00  0.00    -0.294 N 
ATOM     10  O   UNL     1       5.448  -1.962  -2.159  1.00  0.00    -0.273 OA
ATOM     11  N   UNL     1       6.167   0.115  -1.764  1.00  0.00    -0.353 N 
ATOM     12  C   UNL     1       4.653   2.005  -2.078  1.00  0.00     0.145 C 
ATOM     13  C   UNL     1       5.949   1.506  -1.461  1.00  0.00     0.137 C 
ATOM     14  H   UNL     1       7.094  -0.202  -1.857  1.00  0.00     0.163 HD
BRANCH   9  15
ATOM     15  C   UNL     1       2.294   1.858  -1.670  1.00  0.00     0.410 C 
ATOM     16  O   UNL     1       2.147   2.930  -2.260  1.00  0.00    -0.224 OA
BRANCH  15  17
ATOM     17  O   UNL     1       1.345   1.329  -0.862  1.00  0.00    -0.448 OA
BRANCH  17  18
ATOM     18  C   UNL     1       0.214   2.204  -0.525  1.00  0.00     0.248 C 
BRANCH  18  19
ATOM     19  C   UNL     1       0.480   2.999   0.773  1.00  0.00     0.088 C 
ATOM     20  C   UNL     1       0.734   4.501   0.705  1.00  0.00    -0.029 A 
ATOM     21  C   UNL     1      -0.583   2.906   1.867  1.00  0.00    -0.029 A 
ATOM     22  C   UNL     1       1.711   5.181  -0.005  1.00  0.00     0.005 A 
ATOM     23  C   UNL     1      -0.023   5.161   1.699  1.00  0.00    -0.014 A 
ATOM     24  C   UNL     1      -0.831   4.189   2.405  1.00  0.00    -0.014 A 
ATOM     25  C   UNL     1      -1.139   1.771   2.441  1.00  0.00     0.005 A 
ATOM     26  C   UNL     1       1.907   6.538   0.259  1.00  0.00     0.000 A 
ATOM     27  C   UNL     1       0.161   6.513   1.951  1.00  0.00     0.009 A 
ATOM     28  C   UNL     1      -1.654   4.346   3.510  1.00  0.00     0.009 A 
ATOM     29  C   UNL     1      -1.967   1.932   3.556  1.00  0.00     0.000 A 
ATOM     30  C   UNL     1       1.135   7.200   1.223  1.00  0.00     0.001 A 
ATOM     31  C   UNL     1      -2.222   3.207   4.086  1.00  0.00     0.001 A 
ENDBRANCH  18  19
ENDBRANCH  17  18
ENDBRANCH  15  17
ENDBRANCH   9  15
ENDBRANCH   6   7
ENDBRANCH   4   6
ENDBRANCH   1   2
BRANCH   1  32
ATOM     32  C   UNL     1       3.233   1.044   3.310  1.00  0.00     0.042 C 
BRANCH  32  33
ATOM     33  C   UNL     1       4.573   1.684   3.597  1.00  0.00     0.118 C 
BRANCH  33  34
ATOM     34  N   UNL     1       4.724   3.059   3.119  1.00  0.00    -0.352 N 
ATOM     35  C   UNL     1       5.337   4.133   3.731  1.00  0.00     0.251 C 
ATOM     36  H   UNL     1       4.332   3.244   2.236  1.00  0.00     0.163 HD
ATOM     37  O   UNL     1       5.377   5.220   3.162  1.00  0.00    -0.269 OA
BRANCH  35  38
ATOM     38  C   UNL     1       5.891   3.982   5.095  1.00  0.00     0.039 A 
ATOM     39  C   UNL     1       5.638   4.973   6.047  1.00  0.00     0.014 A 
ATOM     40  C   UNL     1       6.577   2.825   5.462  1.00  0.00     0.014 A 
ATOM     41  C   UNL     1       5.980   4.750   7.384  1.00  0.00     0.010 A 
ATOM     42  C   UNL     1       6.784   2.546   6.805  1.00  0.00     0.010 A 
ATOM     43  C   UNL     1       6.502   3.509   7.784  1.00  0.00    -0.014 A 
BRANCH  43  44
ATOM     44  C   UNL     1       6.783   3.192   9.209  1.00  0.00     0.031 A 
ATOM     45  C   UNL     1       8.174   2.779   9.621  1.00  0.00     0.074 A 
ATOM     46  C   UNL     1       5.781   3.185  10.110  1.00  0.00     0.049 A 
ATOM     47  N   UNL     1       8.602   2.361  10.784  1.00  0.00    -0.248 NA
ATOM     48  C   UNL     1       9.210   2.789   8.575  1.00  0.00     0.031 C 
ATOM     49  C   UNL     1       4.373   3.479   9.824  1.00  0.00     0.029 A 
ATOM     50  N   UNL     1       5.790   2.910  11.455  1.00  0.00    -0.354 N 
ATOM     51  C   UNL     1       9.938   2.027  10.597  1.00  0.00     0.074 A 
ATOM     52  C   UNL     1      10.232   2.222   9.196  1.00  0.00     0.031 C 
ATOM     53  C   UNL     1       3.666   3.409  10.963  1.00  0.00     0.029 A 
ATOM     54  C   UNL     1       4.558   3.032  12.055  1.00  0.00     0.049 A 
ATOM     55  H   UNL     1       6.603   2.650  11.945  1.00  0.00     0.167 HD
ATOM     56  C   UNL     1      10.852   1.630  11.514  1.00  0.00     0.037 A 
ATOM     57  C   UNL     1       4.191   2.866  13.340  1.00  0.00     0.037 A 
ATOM     58  C   UNL     1      10.573   1.504  12.918  1.00  0.00     0.049 A 
ATOM     59  C   UNL     1       5.238   2.495  14.355  1.00  0.00     0.074 A 
ATOM     60  C   UNL     1      11.445   1.189  13.945  1.00  0.00     0.029 A 
ATOM     61  N   UNL     1       9.328   1.703  13.496  1.00  0.00    -0.354 N 
ATOM     62  N   UNL     1       6.514   2.248  14.171  1.00  0.00    -0.248 NA
ATOM     63  C   UNL     1       4.800   2.391  15.754  1.00  0.00     0.031 C 
ATOM     64  C   UNL     1      10.721   1.176  15.143  1.00  0.00     0.029 A 
ATOM     65  C   UNL     1       9.406   1.516  14.865  1.00  0.00     0.049 A 
ATOM     66  H   UNL     1       8.509   1.942  13.004  1.00  0.00     0.167 HD
ATOM     67  C   UNL     1       7.035   1.985  15.432  1.00  0.00     0.074 A 
ATOM     68  C   UNL     1       5.941   2.115  16.372  1.00  0.00     0.031 C 
ATOM     69  C   UNL     1       8.305   1.663  15.782  1.00  0.00     0.037 A 
BRANCH  56  70
ATOM     70  C   UNL     1      12.243   1.335  11.024  1.00  0.00     0.058 A 
ATOM     71  C   UNL     1      13.093   2.357  10.569  1.00  0.00     0.135 A 
ATOM     72  C   UNL     1      12.737   0.021  11.015  1.00  0.00     0.135 A 
ATOM     73  F   UNL     1      12.665   3.629  10.536  1.00  0.00    -0.206 F 
ATOM     74  C   UNL     1      14.368   2.082  10.086  1.00  0.00     0.059 A 
ATOM     75  C   UNL     1      14.021  -0.273  10.565  1.00  0.00     0.059 A 
ATOM     76  F   UNL     1      11.967  -0.994  11.438  1.00  0.00    -0.206 F 
ATOM     77  C   UNL     1      14.822   0.763  10.085  1.00  0.00     0.060 A 
BRANCH  77  78
ATOM     78  S   UNL     1      16.477   0.422   9.452  1.00  0.00     0.124 S 
ATOM     79  O   UNL     1      16.264   0.533   8.012  1.00  0.00    -0.237 OA
ATOM     80  O   UNL     1      17.271   1.485  10.058  1.00  0.00    -0.237 OA
ATOM     81  O   UNL     1      16.757  -0.924   9.943  1.00  0.00    -0.744 OA
ENDBRANCH  77  78
ENDBRANCH  56  70
BRANCH  57  82
ATOM     82  C   UNL     1       2.781   3.102  13.750  1.00  0.00     0.058 A 
ATOM     83  C   UNL     1       2.432   4.242  14.490  1.00  0.00     0.135 A 
ATOM     84  C   UNL     1       1.757   2.208  13.403  1.00  0.00     0.135 A 
ATOM     85  F   UNL     1       3.378   5.123  14.849  1.00  0.00    -0.206 F 
ATOM     86  C   UNL     1       1.121   4.480  14.887  1.00  0.00     0.059 A 
ATOM     87  C   UNL     1       0.434   2.436  13.770  1.00  0.00     0.059 A 
ATOM     88  F   UNL     1       2.037   1.113  12.681  1.00  0.00    -0.206 F 
ATOM     89  C   UNL     1       0.127   3.571  14.521  1.00  0.00     0.060 A 
BRANCH  89  90
ATOM     90  S   UNL     1      -1.581   3.914  15.000  1.00  0.00     0.124 S 
ATOM     91  O   UNL     1      -1.562   3.577  16.418  1.00  0.00    -0.237 OA
ATOM     92  O   UNL     1      -1.711   5.333  14.682  1.00  0.00    -0.237 OA
ATOM     93  O   UNL     1      -2.354   3.017  14.146  1.00  0.00    -0.744 OA
ENDBRANCH  89  90
ENDBRANCH  57  82
BRANCH  69  94
ATOM     94  C   UNL     1       8.586   1.464  17.244  1.00  0.00     0.058 A 
ATOM     95  C   UNL     1       8.161   0.314  17.925  1.00  0.00     0.135 A 
ATOM     96  C   UNL     1       9.327   2.418  17.959  1.00  0.00     0.135 A 
ATOM     97  F   UNL     1       7.446  -0.625  17.285  1.00  0.00    -0.206 F 
ATOM     98  C   UNL     1       8.439   0.127  19.274  1.00  0.00     0.059 A 
ATOM     99  C   UNL     1       9.637   2.240  19.303  1.00  0.00     0.059 A 
ATOM    100  F   UNL     1       9.767   3.530  17.349  1.00  0.00    -0.206 F 
ATOM    101  C   UNL     1       9.176   1.097  19.956  1.00  0.00     0.060 A 
BRANCH 101 102
ATOM    102  S   UNL     1       9.553   0.835  21.701  1.00  0.00     0.124 S 
ATOM    103  O   UNL     1       8.277   1.163  22.328  1.00  0.00    -0.237 OA
ATOM    104  O   UNL     1       9.930  -0.575  21.734  1.00  0.00    -0.237 OA
ATOM    105  O   UNL     1      10.640   1.774  21.958  1.00  0.00    -0.744 OA
ENDBRANCH 101 102
ENDBRANCH  69  94
ENDBRANCH  43  44
ENDBRANCH  35  38
ENDBRANCH  33  34
ENDBRANCH  32  33
ENDBRANCH   1  32
TORSDOF 18
