REMARK SMILES CC(C)(C)c1ccc(C(=O)N/C(=C/c2ccc(O)cc2)C(=O)NCCCNC(=O)c2ccc(-c3c4nc(c(-c5c(F)cc(S(=O)(=O)[O-])cc5F)c5ccc([nH]5)c(-c5c(F)cc(S(=O)(=O)[O-])cc5F)c5nc(c(-c6c(F)cc(S(=O)(=O)[O-])cc6F)c6ccc3[nH]6)C=C5)C=C4)cc2)cc1
REMARK SMILES IDX 25 1 24 2 23 3 21 4 22 5 12 7 13 8 11 9 9 10 10 11 8 13 5 14
REMARK SMILES IDX 6 15 97 16 7 17 96 18 2 19 1 20 3 21 4 22 14 23 15 24 20 25
REMARK SMILES IDX 16 26 19 27 17 28 18 29 26 31 27 32 28 33 29 35 30 36 31 37
REMARK SMILES IDX 95 38 32 39 94 40 33 41 34 42 35 43 88 44 36 45 93 46 87 47
REMARK SMILES IDX 89 48 37 49 92 50 86 51 85 52 38 54 72 55 51 56 71 57 52 58
REMARK SMILES IDX 55 59 70 60 90 61 53 62 54 63 69 65 91 66 56 67 39 68 40 69
REMARK SMILES IDX 49 70 41 71 42 72 48 73 50 74 43 75 44 76 45 77 46 78 47 79
REMARK SMILES IDX 73 80 74 81 83 82 75 83 76 84 82 85 84 86 77 87 78 88 79 89
REMARK SMILES IDX 80 90 81 91 57 92 58 93 67 94 59 95 60 96 66 97 68 98 61 99
REMARK SMILES IDX 62 100 63 101 64 102 65 103
REMARK H PARENT 23 6 11 12 18 30 27 34 89 53 55 64
REMARK Flexibility Score: inf
ROOT
ATOM      1  C   UNL     1       3.254   0.535  -5.256  1.00  0.00     0.042 C 
ENDROOT
BRANCH   1   2
ATOM      2  C   UNL     1       3.809  -0.791  -4.773  1.00  0.00     0.118 C 
BRANCH   2   3
ATOM      3  N   UNL     1       2.840  -1.643  -4.143  1.00  0.00    -0.351 N 
ATOM      4  C   UNL     1       2.509  -2.902  -4.545  1.00  0.00     0.267 C 
ATOM      5  O   UNL     1       1.302  -3.160  -4.600  1.00  0.00    -0.268 OA
ATOM      6  H   UNL     1       2.375  -1.287  -3.351  1.00  0.00     0.163 HD
BRANCH   4   7
ATOM      7  C   UNL     1       3.519  -4.045  -4.712  1.00  0.00     0.107 C 
ATOM      8  C   UNL     1       4.719  -4.097  -5.343  1.00  0.00     0.040 C 
BRANCH   7   9
ATOM      9  N   UNL     1       3.107  -5.270  -4.180  1.00  0.00    -0.317 N 
ATOM     10  C   UNL     1       2.261  -5.594  -3.133  1.00  0.00     0.255 C 
ATOM     11  O   UNL     1       1.895  -6.766  -3.012  1.00  0.00    -0.269 OA
ATOM     12  H   UNL     1       3.492  -6.053  -4.637  1.00  0.00     0.170 HD
BRANCH  10  13
ATOM     13  C   UNL     1       1.864  -4.617  -2.082  1.00  0.00     0.040 A 
ATOM     14  C   UNL     1       0.921  -2.658  -0.256  1.00  0.00    -0.043 A 
ATOM     15  C   UNL     1       0.129  -3.761  -0.617  1.00  0.00     0.005 A 
ATOM     16  C   UNL     1       2.249  -2.647  -0.721  1.00  0.00     0.005 A 
ATOM     17  C   UNL     1       0.590  -4.724  -1.524  1.00  0.00     0.014 A 
ATOM     18  C   UNL     1       2.723  -3.625  -1.607  1.00  0.00     0.014 A 
BRANCH  14  19
ATOM     19  C   UNL     1       0.371  -1.504   0.604  1.00  0.00    -0.013 C 
ATOM     20  C   UNL     1       0.866  -0.132   0.085  1.00  0.00     0.016 C 
ATOM     21  C   UNL     1       0.841  -1.688   2.058  1.00  0.00     0.016 C 
ATOM     22  C   UNL     1      -1.175  -1.432   0.597  1.00  0.00     0.016 C 
ENDBRANCH  14  19
ENDBRANCH  10  13
ENDBRANCH   7   9
BRANCH   8  23
ATOM     23  C   UNL     1       5.607  -3.045  -5.848  1.00  0.00    -0.023 A 
ATOM     24  C   UNL     1       5.504  -2.503  -7.135  1.00  0.00     0.012 A 
ATOM     25  C   UNL     1       6.533  -2.499  -4.940  1.00  0.00     0.012 A 
ATOM     26  C   UNL     1       6.201  -1.325  -7.445  1.00  0.00     0.047 A 
ATOM     27  C   UNL     1       7.222  -1.325  -5.251  1.00  0.00     0.047 A 
ATOM     28  C   UNL     1       7.004  -0.718  -6.481  1.00  0.00     0.115 A 
BRANCH  28  29
ATOM     29  O   UNL     1       7.522   0.514  -6.750  1.00  0.00    -0.508 OA
ATOM     30  H   UNL     1       7.369   0.914  -7.583  1.00  0.00     0.293 HD
ENDBRANCH  28  29
ENDBRANCH   8  23
ENDBRANCH   4   7
ENDBRANCH   2   3
ENDBRANCH   1   2
BRANCH   1  31
ATOM     31  C   UNL     1       3.297   1.603  -4.182  1.00  0.00     0.118 C 
BRANCH  31  32
ATOM     32  N   UNL     1       4.668   2.022  -3.881  1.00  0.00    -0.352 N 
ATOM     33  C   UNL     1       5.480   2.959  -4.484  1.00  0.00     0.251 C 
ATOM     34  H   UNL     1       5.079   1.556  -3.118  1.00  0.00     0.163 HD
ATOM     35  O   UNL     1       6.696   2.869  -4.330  1.00  0.00    -0.269 OA
BRANCH  33  36
ATOM     36  C   UNL     1       4.906   4.019  -5.351  1.00  0.00     0.039 A 
ATOM     37  C   UNL     1       5.644   4.509  -6.433  1.00  0.00     0.014 A 
ATOM     38  C   UNL     1       3.628   4.520  -5.119  1.00  0.00     0.014 A 
ATOM     39  C   UNL     1       5.042   5.381  -7.348  1.00  0.00     0.010 A 
ATOM     40  C   UNL     1       2.982   5.253  -6.105  1.00  0.00     0.010 A 
ATOM     41  C   UNL     1       3.677   5.689  -7.239  1.00  0.00    -0.014 A 
BRANCH  41  42
ATOM     42  C   UNL     1       2.934   6.426  -8.297  1.00  0.00     0.031 A 
ATOM     43  C   UNL     1       2.152   7.668  -7.951  1.00  0.00     0.074 A 
ATOM     44  C   UNL     1       2.856   5.906  -9.539  1.00  0.00     0.049 A 
ATOM     45  N   UNL     1       1.328   8.362  -8.693  1.00  0.00    -0.248 NA
ATOM     46  C   UNL     1       2.278   8.168  -6.572  1.00  0.00     0.031 C 
ATOM     47  C   UNL     1       3.515   4.676  -9.987  1.00  0.00     0.029 A 
ATOM     48  N   UNL     1       2.177   6.336 -10.652  1.00  0.00    -0.354 N 
ATOM     49  C   UNL     1       0.815   9.354  -7.864  1.00  0.00     0.074 A 
ATOM     50  C   UNL     1       1.366   9.127  -6.547  1.00  0.00     0.031 C 
ATOM     51  C   UNL     1       3.250   4.480 -11.287  1.00  0.00     0.029 A 
ATOM     52  C   UNL     1       2.353   5.531 -11.753  1.00  0.00     0.049 A 
ATOM     53  H   UNL     1       1.617   7.146 -10.661  1.00  0.00     0.167 HD
ATOM     54  C   UNL     1      -0.016  10.377  -8.176  1.00  0.00     0.037 A 
ATOM     55  C   UNL     1       1.843   5.621 -12.997  1.00  0.00     0.037 A 
ATOM     56  C   UNL     1      -0.535  10.609  -9.499  1.00  0.00     0.049 A 
ATOM     57  C   UNL     1       0.907   6.752 -13.320  1.00  0.00     0.074 A 
ATOM     58  C   UNL     1      -1.315  11.660  -9.946  1.00  0.00     0.029 A 
ATOM     59  N   UNL     1      -0.332   9.770 -10.586  1.00  0.00    -0.354 N 
ATOM     60  N   UNL     1       0.496   7.728 -12.545  1.00  0.00    -0.248 NA
ATOM     61  C   UNL     1       0.358   6.790 -14.681  1.00  0.00     0.031 C 
ATOM     62  C   UNL     1      -1.633  11.425 -11.288  1.00  0.00     0.029 A 
ATOM     63  C   UNL     1      -1.005  10.258 -11.694  1.00  0.00     0.049 A 
ATOM     64  H   UNL     1       0.210   8.948 -10.571  1.00  0.00     0.167 HD
ATOM     65  C   UNL     1      -0.343   8.509 -13.331  1.00  0.00     0.074 A 
ATOM     66  C   UNL     1      -0.370   7.898 -14.645  1.00  0.00     0.031 C 
ATOM     67  C   UNL     1      -1.026   9.631 -12.995  1.00  0.00     0.037 A 
BRANCH  54  68
ATOM     68  C   UNL     1      -0.416  11.309  -7.061  1.00  0.00     0.058 A 
ATOM     69  C   UNL     1       0.516  12.145  -6.422  1.00  0.00     0.135 A 
ATOM     70  C   UNL     1      -1.744  11.352  -6.607  1.00  0.00     0.135 A 
ATOM     71  F   UNL     1       1.803  12.141  -6.805  1.00  0.00    -0.206 F 
ATOM     72  C   UNL     1       0.161  12.937  -5.334  1.00  0.00     0.059 A 
ATOM     73  C   UNL     1      -2.130  12.165  -5.545  1.00  0.00     0.059 A 
ATOM     74  F   UNL     1      -2.682  10.583  -7.183  1.00  0.00    -0.206 F 
ATOM     75  C   UNL     1      -1.163  12.932  -4.896  1.00  0.00     0.060 A 
BRANCH  75  76
ATOM     76  S   UNL     1      -1.596  13.923  -3.451  1.00  0.00     0.124 S 
ATOM     77  O   UNL     1      -0.993  13.143  -2.375  1.00  0.00    -0.237 OA
ATOM     78  O   UNL     1      -0.954  15.200  -3.744  1.00  0.00    -0.237 OA
ATOM     79  O   UNL     1      -3.055  13.938  -3.473  1.00  0.00    -0.744 OA
ENDBRANCH  75  76
ENDBRANCH  54  68
BRANCH  55  80
ATOM     80  C   UNL     1       2.251   4.636 -14.034  1.00  0.00     0.058 A 
ATOM     81  C   UNL     1       3.106   5.019 -15.078  1.00  0.00     0.135 A 
ATOM     82  C   UNL     1       1.850   3.292 -13.978  1.00  0.00     0.135 A 
ATOM     83  F   UNL     1       3.510   6.294 -15.179  1.00  0.00    -0.206 F 
ATOM     84  C   UNL     1       3.555   4.106 -16.026  1.00  0.00     0.059 A 
ATOM     85  C   UNL     1       2.304   2.354 -14.902  1.00  0.00     0.059 A 
ATOM     86  F   UNL     1       1.043   2.870 -12.992  1.00  0.00    -0.206 F 
ATOM     87  C   UNL     1       3.157   2.772 -15.923  1.00  0.00     0.060 A 
BRANCH  87  88
ATOM     88  S   UNL     1       3.817   1.583 -17.112  1.00  0.00     0.124 S 
ATOM     89  O   UNL     1       3.133   1.980 -18.337  1.00  0.00    -0.237 OA
ATOM     90  O   UNL     1       5.248   1.864 -17.060  1.00  0.00    -0.237 OA
ATOM     91  O   UNL     1       3.418   0.294 -16.555  1.00  0.00    -0.744 OA
ENDBRANCH  87  88
ENDBRANCH  55  80
BRANCH  67  92
ATOM     92  C   UNL     1      -1.856  10.284 -14.065  1.00  0.00     0.058 A 
ATOM     93  C   UNL     1      -3.062   9.717 -14.508  1.00  0.00     0.135 A 
ATOM     94  C   UNL     1      -1.478  11.525 -14.602  1.00  0.00     0.135 A 
ATOM     95  F   UNL     1      -3.463   8.526 -14.036  1.00  0.00    -0.206 F 
ATOM     96  C   UNL     1      -3.858  10.354 -15.453  1.00  0.00     0.059 A 
ATOM     97  C   UNL     1      -2.274  12.194 -15.526  1.00  0.00     0.059 A 
ATOM     98  F   UNL     1      -0.338  12.114 -14.207  1.00  0.00    -0.206 F 
ATOM     99  C   UNL     1      -3.460  11.597 -15.950  1.00  0.00     0.060 A 
BRANCH  99 100
ATOM    100  S   UNL     1      -4.535  12.439 -17.131  1.00  0.00     0.124 S 
ATOM    101  O   UNL     1      -4.354  11.624 -18.328  1.00  0.00    -0.237 OA
ATOM    102  O   UNL     1      -5.842  12.338 -16.487  1.00  0.00    -0.237 OA
ATOM    103  O   UNL     1      -3.978  13.786 -17.198  1.00  0.00    -0.744 OA
ENDBRANCH  99 100
ENDBRANCH  67  92
ENDBRANCH  41  42
ENDBRANCH  33  36
ENDBRANCH  31  32
ENDBRANCH   1  31
TORSDOF 18
