REMARK SMILES CCc1cc(OC(F)(F)F)cc2c1O[C@@H](C(F)(F)F)C(C(=O)NCCCNC(=O)c1ccc(-c3c4nc(c(-c5c(F)cc(S(=O)(=O)[O-])cc5F)c5ccc([nH]5)c(-c5c(F)cc(S(=O)(=O)[O-])cc5F)c5nc(c(-c6c(F)cc(S(=O)(=O)[O-])cc6F)c6ccc3[nH]6)C=C5)C=C4)cc1)=C2
REMARK SMILES IDX 25 1 24 2 23 3 21 4 22 5 20 7 3 8 4 9 13 10 5 11 12 12 14 13
REMARK SMILES IDX 11 14 96 15 15 16 2 17 1 18 6 19 7 20 8 21 9 22 10 23 16 24
REMARK SMILES IDX 17 25 18 26 19 27 26 28 27 29 28 30 29 32 30 33 31 34 95 35
REMARK SMILES IDX 32 36 94 37 33 38 34 39 35 40 88 41 36 42 93 43 87 44 89 45
REMARK SMILES IDX 37 46 92 47 86 48 85 49 38 51 72 52 51 53 71 54 52 55 55 56
REMARK SMILES IDX 70 57 90 58 53 59 54 60 69 62 91 63 56 64 39 65 40 66 49 67
REMARK SMILES IDX 41 68 42 69 48 70 50 71 43 72 44 73 45 74 46 75 47 76 73 77
REMARK SMILES IDX 74 78 83 79 75 80 76 81 82 82 84 83 77 84 78 85 79 86 80 87
REMARK SMILES IDX 81 88 57 89 58 90 67 91 59 92 60 93 66 94 68 95 61 96 62 97
REMARK SMILES IDX 63 98 64 99 65 100
REMARK H PARENT 23 6 27 31 89 50 55 61
REMARK Flexibility Score: inf
ROOT
ATOM      1  C   UNL     1       3.945  -2.712  -8.491  1.00  0.00     0.042 C 
ENDROOT
BRANCH   1   2
ATOM      2  C   UNL     1       4.721  -1.823  -7.515  1.00  0.00     0.118 C 
BRANCH   2   3
ATOM      3  N   UNL     1       4.387  -0.422  -7.721  1.00  0.00    -0.352 N 
ATOM      4  C   UNL     1       3.475   0.411  -7.157  1.00  0.00     0.251 C 
ATOM      5  O   UNL     1       3.342   1.529  -7.650  1.00  0.00    -0.270 OA
ATOM      6  H   UNL     1       4.937   0.013  -8.412  1.00  0.00     0.163 HD
BRANCH   4   7
ATOM      7  C   UNL     1       2.693   0.064  -5.940  1.00  0.00     0.067 C 
ATOM      8  C   UNL     1       0.680  -0.695  -2.314  1.00  0.00    -0.002 A 
ATOM      9  C   UNL     1       0.251  -2.012  -2.047  1.00  0.00     0.054 A 
ATOM     10  C   UNL     1       1.338  -0.427  -3.526  1.00  0.00     0.131 A 
ATOM     11  C   UNL     1       0.489  -3.044  -2.955  1.00  0.00     0.130 A 
ATOM     12  C   UNL     1       1.548  -1.449  -4.450  1.00  0.00     0.021 A 
ATOM     13  O   UNL     1       1.814   0.835  -3.727  1.00  0.00    -0.475 OA
ATOM     14  C   UNL     1       1.127  -2.751  -4.160  1.00  0.00     0.058 A 
ATOM     15  C   UNL     1       2.270  -1.181  -5.683  1.00  0.00     0.025 C 
ATOM     16  C   UNL     1       2.239   1.229  -5.065  1.00  0.00     0.314 C 
BRANCH   8  17
ATOM     17  C   UNL     1       0.382   0.399  -1.310  1.00  0.00     0.036 C 
ATOM     18  C   UNL     1       1.008   0.157   0.057  1.00  0.00     0.009 C 
ENDBRANCH   8  17
BRANCH  11  19
ATOM     19  O   UNL     1       0.165  -4.360  -2.799  1.00  0.00    -0.406 OA
BRANCH  19  20
ATOM     20  C   UNL     1      -0.432  -4.758  -1.578  1.00  0.00     0.573 C 
ATOM     21  F   UNL     1       0.368  -4.469  -0.527  1.00  0.00    -0.132 F 
ATOM     22  F   UNL     1      -1.630  -4.160  -1.405  1.00  0.00    -0.132 F 
ATOM     23  F   UNL     1      -0.624  -6.095  -1.600  1.00  0.00    -0.132 F 
ENDBRANCH  19  20
ENDBRANCH  11  19
BRANCH  16  24
ATOM     24  C   UNL     1       3.239   2.396  -4.888  1.00  0.00     0.429 C 
ATOM     25  F   UNL     1       3.182   3.301  -5.889  1.00  0.00    -0.167 F 
ATOM     26  F   UNL     1       2.963   3.101  -3.755  1.00  0.00    -0.167 F 
ATOM     27  F   UNL     1       4.518   1.970  -4.772  1.00  0.00    -0.167 F 
ENDBRANCH  16  24
ENDBRANCH   4   7
ENDBRANCH   2   3
ENDBRANCH   1   2
BRANCH   1  28
ATOM     28  C   UNL     1       4.490  -2.655  -9.917  1.00  0.00     0.118 C 
BRANCH  28  29
ATOM     29  N   UNL     1       5.790  -3.303 -10.022  1.00  0.00    -0.352 N 
ATOM     30  C   UNL     1       6.178  -4.371 -10.793  1.00  0.00     0.251 C 
ATOM     31  H   UNL     1       6.496  -2.917  -9.456  1.00  0.00     0.163 HD
ATOM     32  O   UNL     1       7.245  -4.928 -10.555  1.00  0.00    -0.269 OA
BRANCH  30  33
ATOM     33  C   UNL     1       5.317  -4.852 -11.895  1.00  0.00     0.039 A 
ATOM     34  C   UNL     1       5.171  -6.229 -12.090  1.00  0.00     0.014 A 
ATOM     35  C   UNL     1       4.688  -3.952 -12.760  1.00  0.00     0.014 A 
ATOM     36  C   UNL     1       4.351  -6.701 -13.118  1.00  0.00     0.010 A 
ATOM     37  C   UNL     1       3.818  -4.424 -13.740  1.00  0.00     0.010 A 
ATOM     38  C   UNL     1       3.643  -5.803 -13.932  1.00  0.00    -0.014 A 
BRANCH  38  39
ATOM     39  C   UNL     1       2.714  -6.278 -14.989  1.00  0.00     0.031 A 
ATOM     40  C   UNL     1       2.991  -5.959 -16.434  1.00  0.00     0.074 A 
ATOM     41  C   UNL     1       1.581  -6.920 -14.640  1.00  0.00     0.049 A 
ATOM     42  N   UNL     1       2.245  -6.178 -17.485  1.00  0.00    -0.248 NA
ATOM     43  C   UNL     1       4.263  -5.280 -16.733  1.00  0.00     0.031 C 
ATOM     44  C   UNL     1       1.182  -7.247 -13.269  1.00  0.00     0.029 A 
ATOM     45  N   UNL     1       0.545  -7.394 -15.406  1.00  0.00    -0.354 N 
ATOM     46  C   UNL     1       2.942  -5.644 -18.564  1.00  0.00     0.074 A 
ATOM     47  C   UNL     1       4.152  -5.056 -18.035  1.00  0.00     0.031 C 
ATOM     48  C   UNL     1      -0.007  -7.870 -13.292  1.00  0.00     0.029 A 
ATOM     49  C   UNL     1      -0.476  -7.951 -14.671  1.00  0.00     0.049 A 
ATOM     50  H   UNL     1       0.534  -7.340 -16.389  1.00  0.00     0.167 HD
ATOM     51  C   UNL     1       2.608  -5.660 -19.877  1.00  0.00     0.037 A 
ATOM     52  C   UNL     1      -1.665  -8.450 -15.062  1.00  0.00     0.037 A 
ATOM     53  C   UNL     1       1.418  -6.281 -20.396  1.00  0.00     0.049 A 
ATOM     54  C   UNL     1      -2.007  -8.462 -16.528  1.00  0.00     0.074 A 
ATOM     55  C   UNL     1       1.026  -6.414 -21.717  1.00  0.00     0.029 A 
ATOM     56  N   UNL     1       0.428  -6.871 -19.624  1.00  0.00    -0.354 N 
ATOM     57  N   UNL     1      -1.304  -8.014 -17.541  1.00  0.00    -0.248 NA
ATOM     58  C   UNL     1      -3.299  -9.051 -16.907  1.00  0.00     0.031 C 
ATOM     59  C   UNL     1      -0.224  -7.041 -21.741  1.00  0.00     0.029 A 
ATOM     60  C   UNL     1      -0.584  -7.349 -20.439  1.00  0.00     0.049 A 
ATOM     61  H   UNL     1       0.443  -6.939 -18.642  1.00  0.00     0.167 HD
ATOM     62  C   UNL     1      -2.054  -8.295 -18.678  1.00  0.00     0.074 A 
ATOM     63  C   UNL     1      -3.259  -8.960 -18.230  1.00  0.00     0.031 C 
ATOM     64  C   UNL     1      -1.770  -8.027 -19.976  1.00  0.00     0.037 A 
BRANCH  51  65
ATOM     65  C   UNL     1       3.541  -4.995 -20.852  1.00  0.00     0.058 A 
ATOM     66  C   UNL     1       4.793  -5.546 -21.169  1.00  0.00     0.135 A 
ATOM     67  C   UNL     1       3.149  -3.829 -21.529  1.00  0.00     0.135 A 
ATOM     68  F   UNL     1       5.225  -6.651 -20.541  1.00  0.00    -0.206 F 
ATOM     69  C   UNL     1       5.629  -4.956 -22.112  1.00  0.00     0.059 A 
ATOM     70  C   UNL     1       3.958  -3.237 -22.496  1.00  0.00     0.059 A 
ATOM     71  F   UNL     1       1.963  -3.259 -21.263  1.00  0.00    -0.206 F 
ATOM     72  C   UNL     1       5.200  -3.804 -22.774  1.00  0.00     0.060 A 
BRANCH  72  73
ATOM     73  S   UNL     1       6.285  -3.071 -24.017  1.00  0.00     0.124 S 
ATOM     74  O   UNL     1       7.340  -2.503 -23.183  1.00  0.00    -0.237 OA
ATOM     75  O   UNL     1       6.667  -4.230 -24.818  1.00  0.00    -0.237 OA
ATOM     76  O   UNL     1       5.427  -2.102 -24.690  1.00  0.00    -0.744 OA
ENDBRANCH  72  73
ENDBRANCH  51  65
BRANCH  52  77
ATOM     77  C   UNL     1      -2.621  -8.981 -14.053  1.00  0.00     0.058 A 
ATOM     78  C   UNL     1      -2.909 -10.352 -13.978  1.00  0.00     0.135 A 
ATOM     79  C   UNL     1      -3.271  -8.128 -13.147  1.00  0.00     0.135 A 
ATOM     80  F   UNL     1      -2.317 -11.208 -14.825  1.00  0.00    -0.206 F 
ATOM     81  C   UNL     1      -3.827 -10.856 -13.062  1.00  0.00     0.059 A 
ATOM     82  C   UNL     1      -4.172  -8.612 -12.203  1.00  0.00     0.059 A 
ATOM     83  F   UNL     1      -3.017  -6.810 -13.161  1.00  0.00    -0.206 F 
ATOM     84  C   UNL     1      -4.455  -9.977 -12.179  1.00  0.00     0.060 A 
BRANCH  84  85
ATOM     85  S   UNL     1      -5.625 -10.643 -10.976  1.00  0.00     0.124 S 
ATOM     86  O   UNL     1      -6.772 -10.949 -11.821  1.00  0.00    -0.237 OA
ATOM     87  O   UNL     1      -4.897 -11.792 -10.445  1.00  0.00    -0.237 OA
ATOM     88  O   UNL     1      -5.806  -9.539 -10.038  1.00  0.00    -0.744 OA
ENDBRANCH  84  85
ENDBRANCH  52  77
BRANCH  64  89
ATOM     89  C   UNL     1      -2.752  -8.491 -21.015  1.00  0.00     0.058 A 
ATOM     90  C   UNL     1      -3.989  -7.856 -21.200  1.00  0.00     0.135 A 
ATOM     91  C   UNL     1      -2.417  -9.543 -21.885  1.00  0.00     0.135 A 
ATOM     92  F   UNL     1      -4.361  -6.851 -20.391  1.00  0.00    -0.206 F 
ATOM     93  C   UNL     1      -4.868  -8.257 -22.201  1.00  0.00     0.059 A 
ATOM     94  C   UNL     1      -3.268  -9.941 -22.910  1.00  0.00     0.059 A 
ATOM     95  F   UNL     1      -1.241 -10.177 -21.757  1.00  0.00    -0.206 F 
ATOM     96  C   UNL     1      -4.496  -9.297 -23.055  1.00  0.00     0.060 A 
BRANCH  96  97
ATOM     97  S   UNL     1      -5.624  -9.773 -24.381  1.00  0.00     0.124 S 
ATOM     98  O   UNL     1      -6.672 -10.468 -23.641  1.00  0.00    -0.237 OA
ATOM     99  O   UNL     1      -5.998  -8.482 -24.951  1.00  0.00    -0.237 OA
ATOM    100  O   UNL     1      -4.800 -10.616 -25.243  1.00  0.00    -0.744 OA
ENDBRANCH  96  97
ENDBRANCH  64  89
ENDBRANCH  38  39
ENDBRANCH  30  33
ENDBRANCH  28  29
ENDBRANCH   1  28
TORSDOF 17
