REMARK SMILES CC[C@H](C)[C@H](NS(=O)(=O)c1ccc(C)cc1)C(=O)NCCCNC(=O)c1ccc(-c2c3nc(c(-c4c(F)cc(S(=O)(=O)[O-])cc4F)c4ccc([nH]4)c(-c4c(F)cc(S(=O)(=O)[O-])cc4F)c4nc(c(-c5c(F)cc(S(=O)(=O)[O-])cc5F)c5ccc2[nH]5)C=C4)C=C3)cc1
REMARK SMILES IDX 21 1 20 2 19 3 17 4 18 5 5 7 3 8 4 9 2 10 1 11 6 12 7 14
REMARK SMILES IDX 8 15 9 16 10 17 11 18 16 19 12 20 15 21 13 22 14 23 22 24
REMARK SMILES IDX 23 25 24 26 25 28 26 29 27 30 91 31 28 32 90 33 29 34 30 35
REMARK SMILES IDX 31 36 84 37 32 38 89 39 83 40 85 41 33 42 88 43 82 44 81 45
REMARK SMILES IDX 34 47 68 48 47 49 67 50 48 51 51 52 66 53 86 54 49 55 50 56
REMARK SMILES IDX 65 58 87 59 52 60 35 61 36 62 45 63 37 64 38 65 44 66 46 67
REMARK SMILES IDX 39 68 40 69 41 70 42 71 43 72 69 73 70 74 79 75 71 76 72 77
REMARK SMILES IDX 78 78 80 79 73 80 74 81 75 82 76 83 77 84 53 85 54 86 63 87
REMARK SMILES IDX 55 88 56 89 62 90 64 91 57 92 58 93 59 94 60 95 61 96
REMARK H PARENT 19 6 6 13 23 27 85 46 51 57
REMARK Flexibility Score: inf
ROOT
ATOM      1  C   UNL     1       4.740   2.646   1.367  1.00  0.00     0.042 C 
ENDROOT
BRANCH   1   2
ATOM      2  C   UNL     1       3.344   3.193   1.964  1.00  0.00     0.117 C 
BRANCH   2   3
ATOM      3  N   UNL     1       2.291   3.959   1.289  1.00  0.00    -0.355 N 
ATOM      4  C   UNL     1       1.024   4.161   1.825  1.00  0.00     0.238 C 
ATOM      5  O   UNL     1       0.341   5.158   1.574  1.00  0.00    -0.273 OA
ATOM      6  H   UNL     1       2.492   4.352   0.409  1.00  0.00     0.163 HD
BRANCH   4   7
ATOM      7  C   UNL     1       0.393   2.986   2.633  1.00  0.00     0.161 C 
BRANCH   7   8
ATOM      8  C   UNL     1       0.825   2.791   4.136  1.00  0.00     0.013 C 
ATOM      9  C   UNL     1       1.030   1.365   4.606  1.00  0.00     0.010 C 
BRANCH   8  10
ATOM     10  C   UNL     1       2.017   3.638   4.660  1.00  0.00     0.002 C 
ATOM     11  C   UNL     1       2.218   3.700   6.170  1.00  0.00     0.004 C 
ENDBRANCH   8  10
ENDBRANCH   7   8
BRANCH   7  12
ATOM     12  N   UNL     1       0.215   1.934   1.579  1.00  0.00    -0.198 NA
ATOM     13  H   UNL     1       0.460   2.434   0.725  1.00  0.00     0.142 HD
BRANCH  12  14
ATOM     14  S   UNL     1       0.818   0.422   1.291  1.00  0.00     0.241 S 
ATOM     15  O   UNL     1       0.478   0.092  -0.052  1.00  0.00    -0.207 OA
ATOM     16  O   UNL     1       2.198   0.326   1.775  1.00  0.00    -0.207 OA
BRANCH  14  17
ATOM     17  C   UNL     1      -0.151  -0.656   2.312  1.00  0.00     0.082 A 
ATOM     18  C   UNL     1       0.481  -1.792   2.823  1.00  0.00     0.022 A 
ATOM     19  C   UNL     1      -1.392  -0.235   2.796  1.00  0.00     0.022 A 
ATOM     20  C   UNL     1      -0.074  -2.446   3.916  1.00  0.00     0.005 A 
ATOM     21  C   UNL     1      -1.927  -0.879   3.913  1.00  0.00     0.005 A 
ATOM     22  C   UNL     1      -1.256  -1.967   4.495  1.00  0.00    -0.051 A 
ATOM     23  C   UNL     1      -1.721  -2.522   5.807  1.00  0.00     0.044 C 
ENDBRANCH  14  17
ENDBRANCH  12  14
ENDBRANCH   7  12
ENDBRANCH   4   7
ENDBRANCH   2   3
ENDBRANCH   1   2
BRANCH   1  24
ATOM     24  C   UNL     1       5.979   3.505   1.968  1.00  0.00     0.118 C 
BRANCH  24  25
ATOM     25  N   UNL     1       7.591   3.645   1.685  1.00  0.00    -0.352 N 
ATOM     26  C   UNL     1       8.752   4.483   1.209  1.00  0.00     0.251 C 
ATOM     27  H   UNL     1       7.981   2.780   1.947  1.00  0.00     0.163 HD
ATOM     28  O   UNL     1       9.735   4.313   1.966  1.00  0.00    -0.269 OA
BRANCH  26  29
ATOM     29  C   UNL     1       9.082   5.670   0.083  1.00  0.00     0.039 A 
ATOM     30  C   UNL     1       9.698   6.930   0.405  1.00  0.00     0.014 A 
ATOM     31  C   UNL     1       8.679   5.691  -1.225  1.00  0.00     0.014 A 
ATOM     32  C   UNL     1       9.118   8.162  -0.094  1.00  0.00     0.010 A 
ATOM     33  C   UNL     1       8.094   6.883  -1.717  1.00  0.00     0.010 A 
ATOM     34  C   UNL     1       8.059   8.079  -0.992  1.00  0.00    -0.014 A 
BRANCH  34  35
ATOM     35  C   UNL     1       6.933   9.082  -1.216  1.00  0.00     0.031 A 
ATOM     36  C   UNL     1       6.956   9.829  -2.467  1.00  0.00     0.074 A 
ATOM     37  C   UNL     1       5.767   9.296  -0.520  1.00  0.00     0.049 A 
ATOM     38  N   UNL     1       6.975  11.112  -2.578  1.00  0.00    -0.248 NA
ATOM     39  C   UNL     1       6.969   9.121  -3.736  1.00  0.00     0.031 C 
ATOM     40  C   UNL     1       4.632  10.234  -0.686  1.00  0.00     0.029 A 
ATOM     41  N   UNL     1       5.332   8.671   0.630  1.00  0.00    -0.354 N 
ATOM     42  C   UNL     1       6.667  11.365  -3.900  1.00  0.00     0.074 A 
ATOM     43  C   UNL     1       6.939  10.134  -4.596  1.00  0.00     0.031 C 
ATOM     44  C   UNL     1       4.016  10.415   0.512  1.00  0.00     0.029 A 
ATOM     45  C   UNL     1       4.706   9.587   1.475  1.00  0.00     0.049 A 
ATOM     46  H   UNL     1       5.448   7.713   0.827  1.00  0.00     0.167 HD
ATOM     47  C   UNL     1       5.928  12.460  -4.248  1.00  0.00     0.037 A 
ATOM     48  C   UNL     1       5.370   9.934   2.621  1.00  0.00     0.037 A 
ATOM     49  C   UNL     1       5.419  13.128  -3.037  1.00  0.00     0.049 A 
ATOM     50  C   UNL     1       5.927  11.333   2.458  1.00  0.00     0.074 A 
ATOM     51  C   UNL     1       4.161  13.169  -2.453  1.00  0.00     0.029 A 
ATOM     52  N   UNL     1       6.308  13.553  -2.050  1.00  0.00    -0.354 N 
ATOM     53  N   UNL     1       5.993  11.922   1.295  1.00  0.00    -0.248 NA
ATOM     54  C   UNL     1       6.365  12.216   3.535  1.00  0.00     0.031 C 
ATOM     55  C   UNL     1       4.321  13.501  -1.078  1.00  0.00     0.029 A 
ATOM     56  C   UNL     1       5.671  13.681  -0.827  1.00  0.00     0.049 A 
ATOM     57  H   UNL     1       7.263  13.737  -2.203  1.00  0.00     0.167 HD
ATOM     58  C   UNL     1       6.374  13.219   1.431  1.00  0.00     0.074 A 
ATOM     59  C   UNL     1       6.617  13.355   2.858  1.00  0.00     0.031 C 
ATOM     60  C   UNL     1       6.421  14.073   0.365  1.00  0.00     0.037 A 
BRANCH  47  61
ATOM     61  C   UNL     1       5.389  12.698  -5.655  1.00  0.00     0.058 A 
ATOM     62  C   UNL     1       4.303  13.568  -5.886  1.00  0.00     0.135 A 
ATOM     63  C   UNL     1       5.930  12.133  -6.834  1.00  0.00     0.135 A 
ATOM     64  F   UNL     1       3.745  14.271  -4.892  1.00  0.00    -0.206 F 
ATOM     65  C   UNL     1       3.760  13.796  -7.157  1.00  0.00     0.059 A 
ATOM     66  C   UNL     1       5.361  12.284  -8.102  1.00  0.00     0.059 A 
ATOM     67  F   UNL     1       7.102  11.486  -6.833  1.00  0.00    -0.206 F 
ATOM     68  C   UNL     1       4.283  13.135  -8.259  1.00  0.00     0.060 A 
BRANCH  68  69
ATOM     69  S   UNL     1       3.619  13.489  -9.897  1.00  0.00     0.124 S 
ATOM     70  O   UNL     1       2.212  13.134  -9.745  1.00  0.00    -0.237 OA
ATOM     71  O   UNL     1       3.903  14.913 -10.038  1.00  0.00    -0.237 OA
ATOM     72  O   UNL     1       4.388  12.613 -10.777  1.00  0.00    -0.744 OA
ENDBRANCH  68  69
ENDBRANCH  47  61
BRANCH  48  73
ATOM     73  C   UNL     1       6.038   8.715   3.275  1.00  0.00     0.058 A 
ATOM     74  C   UNL     1       5.149   7.635   3.477  1.00  0.00     0.135 A 
ATOM     75  C   UNL     1       7.222   8.293   2.714  1.00  0.00     0.135 A 
ATOM     76  F   UNL     1       4.215   7.715   4.431  1.00  0.00    -0.206 F 
ATOM     77  C   UNL     1       5.065   6.572   2.561  1.00  0.00     0.059 A 
ATOM     78  C   UNL     1       7.225   7.112   1.951  1.00  0.00     0.059 A 
ATOM     79  F   UNL     1       8.336   9.040   2.787  1.00  0.00    -0.206 F 
ATOM     80  C   UNL     1       6.067   6.427   1.612  1.00  0.00     0.060 A 
BRANCH  80  81
ATOM     81  S   UNL     1       5.559   5.559  -0.197  1.00  0.00     0.124 S 
ATOM     82  O   UNL     1       4.237   5.037   0.109  1.00  0.00    -0.237 OA
ATOM     83  O   UNL     1       5.455   6.629  -1.164  1.00  0.00    -0.237 OA
ATOM     84  O   UNL     1       6.523   4.515  -0.505  1.00  0.00    -0.744 OA
ENDBRANCH  80  81
ENDBRANCH  48  73
BRANCH  60  85
ATOM     85  C   UNL     1       7.081  15.424   0.375  1.00  0.00     0.058 A 
ATOM     86  C   UNL     1       8.145  15.762   1.224  1.00  0.00     0.135 A 
ATOM     87  C   UNL     1       6.737  16.394  -0.599  1.00  0.00     0.135 A 
ATOM     88  F   UNL     1       8.662  14.880   2.091  1.00  0.00    -0.206 F 
ATOM     89  C   UNL     1       8.750  17.015   1.187  1.00  0.00     0.059 A 
ATOM     90  C   UNL     1       7.383  17.616  -0.707  1.00  0.00     0.059 A 
ATOM     91  F   UNL     1       5.760  16.187  -1.494  1.00  0.00    -0.206 F 
ATOM     92  C   UNL     1       8.358  17.937   0.222  1.00  0.00     0.060 A 
BRANCH  92  93
ATOM     93  S   UNL     1       9.140  19.553   0.179  1.00  0.00     0.124 S 
ATOM     94  O   UNL     1       8.397  20.257   1.219  1.00  0.00    -0.237 OA
ATOM     95  O   UNL     1      10.530  19.241   0.497  1.00  0.00    -0.237 OA
ATOM     96  O   UNL     1       8.903  20.009  -1.187  1.00  0.00    -0.744 OA
ENDBRANCH  92  93
ENDBRANCH  60  85
ENDBRANCH  34  35
ENDBRANCH  26  29
ENDBRANCH  24  25
ENDBRANCH   1  24
TORSDOF 18
