REMARK SMILES CC(=O)Oc1ccc([C@H]2Nc3c(C(=O)NCCCNC(=O)c4ccc(-c5c6nc(c(-c7c(F)cc(S(=O)(=O)[O-])cc7F)c7ccc([nH]7)c(-c7c(F)cc(S(=O)(=O)[O-])cc7F)c7nc(c(-c8c(F)cc(S(=O)(=O)[O-])cc8F)c8ccc5[nH]8)C=C7)C=C6)cc4)ccc([N+](=O)[O-])c3[C@H]3C=CC[C@@H]32)cc1
REMARK SMILES IDX 17 1 16 2 15 3 13 4 14 5 12 7 9 8 10 9 99 10 11 11 95 13
REMARK SMILES IDX 98 14 94 15 96 16 97 17 88 18 90 19 89 20 8 21 5 22 6 23
REMARK SMILES IDX 101 24 7 25 100 26 4 27 2 28 1 29 3 30 91 31 92 32 93 33
REMARK SMILES IDX 18 34 19 35 20 36 21 38 22 39 23 40 87 41 24 42 86 43 25 44
REMARK SMILES IDX 26 45 27 46 80 47 28 48 85 49 79 50 81 51 29 52 84 53 78 54
REMARK SMILES IDX 77 55 30 57 64 58 43 59 63 60 44 61 47 62 62 63 82 64 45 65
REMARK SMILES IDX 46 66 61 68 83 69 48 70 31 71 32 72 41 73 33 74 34 75 40 76
REMARK SMILES IDX 42 77 35 78 36 79 37 80 38 81 39 82 65 83 66 84 75 85 67 86
REMARK SMILES IDX 68 87 74 88 76 89 69 90 70 91 71 92 72 93 73 94 49 95 50 96
REMARK SMILES IDX 59 97 51 98 52 99 58 100 60 101 53 102 54 103 55 104 56 105
REMARK SMILES IDX 57 106
REMARK H PARENT 15 6 10 12 19 37 81 56 47 67
REMARK Flexibility Score: inf
ROOT
ATOM      1  C   UNL     1       0.441 -14.495  -5.947  1.00  0.00     0.042 C 
ENDROOT
BRANCH   1   2
ATOM      2  C   UNL     1      -0.463 -13.980  -4.833  1.00  0.00     0.118 C 
BRANCH   2   3
ATOM      3  N   UNL     1       0.175 -13.050  -3.885  1.00  0.00    -0.352 N 
ATOM      4  C   UNL     1      -0.184 -11.768  -3.467  1.00  0.00     0.253 C 
ATOM      5  O   UNL     1       0.553 -11.149  -2.705  1.00  0.00    -0.269 OA
ATOM      6  H   UNL     1       1.001 -13.394  -3.475  1.00  0.00     0.163 HD
BRANCH   4   7
ATOM      7  C   UNL     1      -1.447 -11.144  -3.963  1.00  0.00     0.063 A 
ATOM      8  C   UNL     1      -0.990  -7.330  -4.255  1.00  0.00     0.114 C 
ATOM      9  N   UNL     1      -0.725  -8.750  -3.905  1.00  0.00    -0.377 N 
ATOM     10  C   UNL     1      -2.490  -7.228  -4.571  1.00  0.00     0.031 C 
ATOM     11  C   UNL     1      -1.537  -9.801  -4.415  1.00  0.00     0.058 A 
ATOM     12  H   UNL     1       0.028  -8.967  -3.309  1.00  0.00     0.161 HD
ATOM     13  C   UNL     1      -2.639  -8.078  -5.842  1.00  0.00     0.056 C 
ATOM     14  C   UNL     1      -3.206  -5.906  -4.837  1.00  0.00     0.034 C 
ATOM     15  C   UNL     1      -2.620  -9.486  -5.308  1.00  0.00     0.061 A 
ATOM     16  C   UNL     1      -3.803  -7.438  -6.514  1.00  0.00    -0.022 C 
ATOM     17  C   UNL     1      -4.101  -6.249  -5.980  1.00  0.00    -0.030 C 
ATOM     18  C   UNL     1      -2.564 -11.993  -4.066  1.00  0.00     0.023 A 
ATOM     19  C   UNL     1      -3.596 -10.460  -5.576  1.00  0.00     0.275 A 
ATOM     20  C   UNL     1      -3.625 -11.674  -4.899  1.00  0.00     0.087 A 
BRANCH   8  21
ATOM     21  C   UNL     1      -0.458  -6.246  -3.312  1.00  0.00    -0.025 A 
ATOM     22  C   UNL     1       0.354  -3.771  -2.193  1.00  0.00     0.130 A 
ATOM     23  C   UNL     1       1.226  -4.488  -3.010  1.00  0.00     0.047 A 
ATOM     24  C   UNL     1      -0.895  -4.298  -1.883  1.00  0.00     0.047 A 
ATOM     25  C   UNL     1       0.827  -5.718  -3.554  1.00  0.00     0.010 A 
ATOM     26  C   UNL     1      -1.280  -5.545  -2.408  1.00  0.00     0.010 A 
BRANCH  22  27
ATOM     27  O   UNL     1       0.785  -2.479  -1.810  1.00  0.00    -0.427 OA
BRANCH  27  28
ATOM     28  C   UNL     1       0.392  -1.872  -0.616  1.00  0.00     0.308 C 
ATOM     29  C   UNL     1       1.013  -0.506  -0.528  1.00  0.00     0.139 C 
ATOM     30  O   UNL     1      -0.340  -2.344   0.242  1.00  0.00    -0.252 OA
ENDBRANCH  27  28
ENDBRANCH  22  27
ENDBRANCH   8  21
BRANCH  19  31
ATOM     31  N   UNL     1      -4.638 -10.257  -6.556  1.00  0.00     0.063 N 
ATOM     32  O   UNL     1      -5.786 -10.077  -6.130  1.00  0.00    -0.258 OA
ATOM     33  O   UNL     1      -4.305 -10.333  -7.747  1.00  0.00    -0.258 OA
ENDBRANCH  19  31
ENDBRANCH   4   7
ENDBRANCH   2   3
ENDBRANCH   1   2
BRANCH   1  34
ATOM     34  C   UNL     1       1.440 -15.568  -5.537  1.00  0.00     0.118 C 
BRANCH  34  35
ATOM     35  N   UNL     1       0.849 -16.893  -5.373  1.00  0.00    -0.352 N 
ATOM     36  C   UNL     1       1.130 -18.090  -6.007  1.00  0.00     0.251 C 
ATOM     37  H   UNL     1       0.132 -16.942  -4.701  1.00  0.00     0.163 HD
ATOM     38  O   UNL     1       0.433 -19.066  -5.775  1.00  0.00    -0.269 OA
BRANCH  36  39
ATOM     39  C   UNL     1       2.241 -18.192  -6.991  1.00  0.00     0.039 A 
ATOM     40  C   UNL     1       2.043 -18.931  -8.164  1.00  0.00     0.014 A 
ATOM     41  C   UNL     1       3.471 -17.574  -6.771  1.00  0.00     0.014 A 
ATOM     42  C   UNL     1       3.034 -18.956  -9.154  1.00  0.00     0.010 A 
ATOM     43  C   UNL     1       4.419 -17.524  -7.791  1.00  0.00     0.010 A 
ATOM     44  C   UNL     1       4.210 -18.204  -9.001  1.00  0.00    -0.014 A 
BRANCH  44  45
ATOM     45  C   UNL     1       5.231 -18.094 -10.081  1.00  0.00     0.031 A 
ATOM     46  C   UNL     1       6.644 -18.555  -9.833  1.00  0.00     0.074 A 
ATOM     47  C   UNL     1       4.920 -17.482 -11.243  1.00  0.00     0.049 A 
ATOM     48  N   UNL     1       7.708 -18.399 -10.578  1.00  0.00    -0.248 NA
ATOM     49  C   UNL     1       6.899 -19.258  -8.565  1.00  0.00     0.031 C 
ATOM     50  C   UNL     1       3.599 -16.960 -11.601  1.00  0.00     0.029 A 
ATOM     51  N   UNL     1       5.700 -17.173 -12.332  1.00  0.00    -0.354 N 
ATOM     52  C   UNL     1       8.761 -18.953  -9.859  1.00  0.00     0.074 A 
ATOM     53  C   UNL     1       8.215 -19.417  -8.602  1.00  0.00     0.031 C 
ATOM     54  C   UNL     1       3.657 -16.412 -12.826  1.00  0.00     0.029 A 
ATOM     55  C   UNL     1       5.027 -16.494 -13.323  1.00  0.00     0.049 A 
ATOM     56  H   UNL     1       6.652 -17.415 -12.398  1.00  0.00     0.167 HD
ATOM     57  C   UNL     1      10.061 -19.078 -10.218  1.00  0.00     0.037 A 
ATOM     58  C   UNL     1       5.465 -15.978 -14.489  1.00  0.00     0.037 A 
ATOM     59  C   UNL     1      10.593 -18.653 -11.488  1.00  0.00     0.049 A 
ATOM     60  C   UNL     1       6.918 -16.119 -14.859  1.00  0.00     0.074 A 
ATOM     61  C   UNL     1      11.880 -18.806 -11.972  1.00  0.00     0.029 A 
ATOM     62  N   UNL     1       9.872 -17.993 -12.471  1.00  0.00    -0.354 N 
ATOM     63  N   UNL     1       7.886 -16.699 -14.191  1.00  0.00    -0.248 NA
ATOM     64  C   UNL     1       7.341 -15.534 -16.140  1.00  0.00     0.031 C 
ATOM     65  C   UNL     1      11.951 -18.193 -13.226  1.00  0.00     0.029 A 
ATOM     66  C   UNL     1      10.694 -17.709 -13.548  1.00  0.00     0.049 A 
ATOM     67  H   UNL     1       8.917 -17.760 -12.411  1.00  0.00     0.167 HD
ATOM     68  C   UNL     1       9.020 -16.586 -14.990  1.00  0.00     0.074 A 
ATOM     69  C   UNL     1       8.619 -15.882 -16.189  1.00  0.00     0.031 C 
ATOM     70  C   UNL     1      10.278 -17.031 -14.751  1.00  0.00     0.037 A 
BRANCH  57  71
ATOM     71  C   UNL     1      11.011 -19.696  -9.229  1.00  0.00     0.058 A 
ATOM     72  C   UNL     1      10.970 -21.064  -8.917  1.00  0.00     0.135 A 
ATOM     73  C   UNL     1      12.018 -18.919  -8.631  1.00  0.00     0.135 A 
ATOM     74  F   UNL     1      10.022 -21.851  -9.449  1.00  0.00    -0.206 F 
ATOM     75  C   UNL     1      11.878 -21.636  -8.031  1.00  0.00     0.059 A 
ATOM     76  C   UNL     1      12.954 -19.475  -7.764  1.00  0.00     0.059 A 
ATOM     77  F   UNL     1      12.103 -17.605  -8.893  1.00  0.00    -0.206 F 
ATOM     78  C   UNL     1      12.868 -20.833  -7.462  1.00  0.00     0.060 A 
BRANCH  78  79
ATOM     79  S   UNL     1      14.049 -21.596  -6.330  1.00  0.00     0.124 S 
ATOM     80  O   UNL     1      13.216 -21.829  -5.154  1.00  0.00    -0.237 OA
ATOM     81  O   UNL     1      14.458 -22.789  -7.063  1.00  0.00    -0.237 OA
ATOM     82  O   UNL     1      15.081 -20.575  -6.174  1.00  0.00    -0.744 OA
ENDBRANCH  78  79
ENDBRANCH  57  71
BRANCH  58  83
ATOM     83  C   UNL     1       4.518 -15.287 -15.408  1.00  0.00     0.058 A 
ATOM     84  C   UNL     1       4.173 -15.857 -16.643  1.00  0.00     0.135 A 
ATOM     85  C   UNL     1       3.951 -14.045 -15.082  1.00  0.00     0.135 A 
ATOM     86  F   UNL     1       4.695 -17.039 -17.004  1.00  0.00    -0.206 F 
ATOM     87  C   UNL     1       3.322 -15.211 -17.534  1.00  0.00     0.059 A 
ATOM     88  C   UNL     1       3.075 -13.392 -15.944  1.00  0.00     0.059 A 
ATOM     89  F   UNL     1       4.235 -13.463 -13.907  1.00  0.00    -0.206 F 
ATOM     90  C   UNL     1       2.778 -13.977 -17.175  1.00  0.00     0.060 A 
BRANCH  90  91
ATOM     91  S   UNL     1       1.653 -13.160 -18.328  1.00  0.00     0.124 S 
ATOM     92  O   UNL     1       2.573 -12.713 -19.367  1.00  0.00    -0.237 OA
ATOM     93  O   UNL     1       0.750 -14.246 -18.696  1.00  0.00    -0.237 OA
ATOM     94  O   UNL     1       1.054 -12.103 -17.518  1.00  0.00    -0.744 OA
ENDBRANCH  90  91
ENDBRANCH  58  83
BRANCH  70  95
ATOM     95  C   UNL     1      11.311 -16.831 -15.826  1.00  0.00     0.058 A 
ATOM     96  C   UNL     1      11.866 -15.571 -16.098  1.00  0.00     0.135 A 
ATOM     97  C   UNL     1      11.809 -17.934 -16.539  1.00  0.00     0.135 A 
ATOM     98  F   UNL     1      11.420 -14.482 -15.452  1.00  0.00    -0.206 F 
ATOM     99  C   UNL     1      12.871 -15.411 -17.046  1.00  0.00     0.059 A 
ATOM    100  C   UNL     1      12.833 -17.801 -17.471  1.00  0.00     0.059 A 
ATOM    101  F   UNL     1      11.319 -19.163 -16.311  1.00  0.00    -0.206 F 
ATOM    102  C   UNL     1      13.354 -16.533 -17.722  1.00  0.00     0.060 A 
BRANCH 102 103
ATOM    103  S   UNL     1      14.701 -16.319 -18.905  1.00  0.00     0.124 S 
ATOM    104  O   UNL     1      14.016 -15.672 -20.018  1.00  0.00    -0.237 OA
ATOM    105  O   UNL     1      15.638 -15.481 -18.163  1.00  0.00    -0.237 OA
ATOM    106  O   UNL     1      15.155 -17.684 -19.156  1.00  0.00    -0.744 OA
ENDBRANCH 102 103
ENDBRANCH  70  95
ENDBRANCH  44  45
ENDBRANCH  36  39
ENDBRANCH  34  35
ENDBRANCH   1  34
TORSDOF 17
