REMARK SMILES CCSc1ccc(-c2cc(Cl)cc3c2O[C@H](C(F)(F)F)C(C(=O)NCCCNC(=O)c2ccc(-c4c5nc(c(-c6c(F)cc(S(=O)(=O)[O-])cc6F)c6ccc([nH]6)c(-c6c(F)cc(S(=O)(=O)[O-])cc6F)c6nc(c(-c7c(F)cc(S(=O)(=O)[O-])cc7F)c7ccc4[nH]7)C=C6)C=C5)cc2)=C3)cc1
REMARK SMILES IDX 26 1 25 2 24 3 22 4 23 5 21 7 8 8 9 9 14 10 10 11 13 12
REMARK SMILES IDX 15 13 11 14 12 15 97 16 16 17 7 18 4 19 5 20 99 21 6 22
REMARK SMILES IDX 98 23 3 24 2 25 1 26 17 27 18 28 19 29 20 30 27 31 28 32
REMARK SMILES IDX 29 33 30 35 31 36 32 37 96 38 33 39 95 40 34 41 35 42 36 43
REMARK SMILES IDX 89 44 37 45 94 46 88 47 90 48 38 49 93 50 87 51 86 52 39 54
REMARK SMILES IDX 73 55 52 56 72 57 53 58 56 59 71 60 91 61 54 62 55 63 70 65
REMARK SMILES IDX 92 66 57 67 40 68 41 69 50 70 42 71 43 72 49 73 51 74 44 75
REMARK SMILES IDX 45 76 46 77 47 78 48 79 74 80 75 81 84 82 76 83 77 84 83 85
REMARK SMILES IDX 85 86 78 87 79 88 80 89 81 90 82 91 58 92 59 93 68 94 60 95
REMARK SMILES IDX 61 96 67 97 69 98 62 99 63 100 64 101 65 102 66 103
REMARK H PARENT 24 6 28 34 90 53 56 64
REMARK Flexibility Score: inf
ROOT
ATOM      1  C   UNL     1      14.904   0.925   6.348  1.00  0.00     0.042 C 
ENDROOT
BRANCH   1   2
ATOM      2  C   UNL     1      14.099   1.912   5.496  1.00  0.00     0.118 C 
BRANCH   2   3
ATOM      3  N   UNL     1      13.399   1.209   4.439  1.00  0.00    -0.352 N 
ATOM      4  C   UNL     1      12.060   1.133   4.247  1.00  0.00     0.251 C 
ATOM      5  O   UNL     1      11.564   0.077   3.868  1.00  0.00    -0.270 OA
ATOM      6  H   UNL     1      13.961   0.733   3.786  1.00  0.00     0.163 HD
BRANCH   4   7
ATOM      7  C   UNL     1      11.276   2.399   4.357  1.00  0.00     0.067 C 
ATOM      8  C   UNL     1       7.618   1.021   3.189  1.00  0.00     0.026 A 
ATOM      9  C   UNL     1       7.854   0.193   2.060  1.00  0.00     0.033 A 
ATOM     10  C   UNL     1       8.697   1.833   3.596  1.00  0.00     0.135 A 
ATOM     11  C   UNL     1       8.992   0.311   1.265  1.00  0.00     0.042 A 
ATOM     12  C   UNL     1       9.788   2.024   2.709  1.00  0.00     0.019 A 
ATOM     13  O   UNL     1       8.792   2.422   4.852  1.00  0.00    -0.475 OA
ATOM     14  Cl  UNL     1       9.198  -0.729  -0.087  1.00  0.00    -0.084 Cl
ATOM     15  C   UNL     1       9.928   1.287   1.538  1.00  0.00     0.032 A 
ATOM     16  C   UNL     1      10.905   2.885   3.156  1.00  0.00     0.025 C 
ATOM     17  C   UNL     1      10.183   2.406   5.418  1.00  0.00     0.314 C 
BRANCH   8  18
ATOM     18  C   UNL     1       6.182   1.110   3.591  1.00  0.00    -0.015 A 
ATOM     19  C   UNL     1       3.348   1.218   3.143  1.00  0.00     0.007 A 
ATOM     20  C   UNL     1       3.978   0.005   3.413  1.00  0.00     0.015 A 
ATOM     21  C   UNL     1       4.122   2.385   3.240  1.00  0.00     0.015 A 
ATOM     22  C   UNL     1       5.368  -0.044   3.651  1.00  0.00     0.010 A 
ATOM     23  C   UNL     1       5.511   2.335   3.466  1.00  0.00     0.010 A 
BRANCH  19  24
ATOM     24  S   UNL     1       1.609   1.412   2.757  1.00  0.00    -0.126 SA
BRANCH  24  25
ATOM     25  C   UNL     1       1.136  -0.070   1.782  1.00  0.00     0.071 C 
ATOM     26  C   UNL     1       1.337   0.107   0.284  1.00  0.00     0.016 C 
ENDBRANCH  24  25
ENDBRANCH  19  24
ENDBRANCH   8  18
BRANCH  17  27
ATOM     27  C   UNL     1      10.447   3.610   6.355  1.00  0.00     0.429 C 
ATOM     28  F   UNL     1       9.483   4.554   6.277  1.00  0.00    -0.167 F 
ATOM     29  F   UNL     1      10.536   3.218   7.648  1.00  0.00    -0.167 F 
ATOM     30  F   UNL     1      11.620   4.241   6.073  1.00  0.00    -0.167 F 
ENDBRANCH  17  27
ENDBRANCH   4   7
ENDBRANCH   2   3
ENDBRANCH   1   2
BRANCH   1  31
ATOM     31  C   UNL     1      15.964   0.125   5.589  1.00  0.00     0.118 C 
BRANCH  31  32
ATOM     32  N   UNL     1      16.957   0.963   4.939  1.00  0.00    -0.352 N 
ATOM     33  C   UNL     1      18.326   0.875   4.963  1.00  0.00     0.251 C 
ATOM     34  H   UNL     1      16.594   1.704   4.401  1.00  0.00     0.163 HD
ATOM     35  O   UNL     1      18.995   1.784   4.465  1.00  0.00    -0.269 OA
BRANCH  33  36
ATOM     36  C   UNL     1      19.001  -0.275   5.603  1.00  0.00     0.039 A 
ATOM     37  C   UNL     1      20.126  -0.034   6.394  1.00  0.00     0.014 A 
ATOM     38  C   UNL     1      18.543  -1.585   5.424  1.00  0.00     0.014 A 
ATOM     39  C   UNL     1      20.750  -1.094   7.054  1.00  0.00     0.010 A 
ATOM     40  C   UNL     1      19.116  -2.629   6.151  1.00  0.00     0.010 A 
ATOM     41  C   UNL     1      20.226  -2.397   6.975  1.00  0.00    -0.014 A 
BRANCH  41  42
ATOM     42  C   UNL     1      20.827  -3.501   7.772  1.00  0.00     0.031 A 
ATOM     43  C   UNL     1      21.442  -4.698   7.093  1.00  0.00     0.074 A 
ATOM     44  C   UNL     1      20.802  -3.429   9.119  1.00  0.00     0.049 A 
ATOM     45  N   UNL     1      22.024  -5.740   7.631  1.00  0.00    -0.248 NA
ATOM     46  C   UNL     1      21.376  -4.745   5.623  1.00  0.00     0.031 C 
ATOM     47  C   UNL     1      20.175  -2.355   9.896  1.00  0.00     0.029 A 
ATOM     48  N   UNL     1      21.318  -4.266  10.076  1.00  0.00    -0.354 N 
ATOM     49  C   UNL     1      22.400  -6.557   6.570  1.00  0.00     0.074 A 
ATOM     50  C   UNL     1      21.919  -5.926   5.362  1.00  0.00     0.031 C 
ATOM     51  C   UNL     1      20.378  -2.579  11.204  1.00  0.00     0.029 A 
ATOM     52  C   UNL     1      21.113  -3.828  11.365  1.00  0.00     0.049 A 
ATOM     53  H   UNL     1      21.791  -5.103   9.861  1.00  0.00     0.167 HD
ATOM     54  C   UNL     1      23.112  -7.710   6.598  1.00  0.00     0.037 A 
ATOM     55  C   UNL     1      21.476  -4.370  12.544  1.00  0.00     0.037 A 
ATOM     56  C   UNL     1      23.602  -8.329   7.803  1.00  0.00     0.049 A 
ATOM     57  C   UNL     1      22.265  -5.653  12.542  1.00  0.00     0.074 A 
ATOM     58  C   UNL     1      24.362  -9.479   7.933  1.00  0.00     0.029 A 
ATOM     59  N   UNL     1      23.387  -7.848   9.087  1.00  0.00    -0.354 N 
ATOM     60  N   UNL     1      22.668  -6.373  11.522  1.00  0.00    -0.248 NA
ATOM     61  C   UNL     1      22.660  -6.190  13.851  1.00  0.00     0.031 C 
ATOM     62  C   UNL     1      24.569  -9.717   9.296  1.00  0.00     0.029 A 
ATOM     63  C   UNL     1      23.985  -8.687  10.014  1.00  0.00     0.049 A 
ATOM     64  H   UNL     1      22.882  -7.032   9.307  1.00  0.00     0.167 HD
ATOM     65  C   UNL     1      23.384  -7.434  12.067  1.00  0.00     0.074 A 
ATOM     66  C   UNL     1      23.387  -7.241  13.502  1.00  0.00     0.031 C 
ATOM     67  C   UNL     1      23.979  -8.480  11.440  1.00  0.00     0.037 A 
BRANCH  54  68
ATOM     68  C   UNL     1      23.437  -8.370   5.283  1.00  0.00     0.058 A 
ATOM     69  C   UNL     1      24.363  -7.804   4.392  1.00  0.00     0.135 A 
ATOM     70  C   UNL     1      22.883  -9.615   4.945  1.00  0.00     0.135 A 
ATOM     71  F   UNL     1      24.911  -6.606   4.655  1.00  0.00    -0.206 F 
ATOM     72  C   UNL     1      24.723  -8.444   3.211  1.00  0.00     0.059 A 
ATOM     73  C   UNL     1      23.249 -10.287   3.781  1.00  0.00     0.059 A 
ATOM     74  F   UNL     1      21.989 -10.200   5.758  1.00  0.00    -0.206 F 
ATOM     75  C   UNL     1      24.167  -9.690   2.918  1.00  0.00     0.060 A 
BRANCH  75  76
ATOM     76  S   UNL     1      24.685 -10.527   1.405  1.00  0.00     0.124 S 
ATOM     77  O   UNL     1      24.066  -9.690   0.381  1.00  0.00    -0.237 OA
ATOM     78  O   UNL     1      26.140 -10.450   1.491  1.00  0.00    -0.237 OA
ATOM     79  O   UNL     1      24.121 -11.866   1.544  1.00  0.00    -0.744 OA
ENDBRANCH  75  76
ENDBRANCH  54  68
BRANCH  55  80
ATOM     80  C   UNL     1      21.108  -3.709  13.827  1.00  0.00     0.058 A 
ATOM     81  C   UNL     1      22.087  -3.175  14.680  1.00  0.00     0.135 A 
ATOM     82  C   UNL     1      19.771  -3.632  14.245  1.00  0.00     0.135 A 
ATOM     83  F   UNL     1      23.381  -3.223  14.327  1.00  0.00    -0.206 F 
ATOM     84  C   UNL     1      21.761  -2.633  15.919  1.00  0.00     0.059 A 
ATOM     85  C   UNL     1      19.415  -3.064  15.464  1.00  0.00     0.059 A 
ATOM     86  F   UNL     1      18.791  -4.106  13.460  1.00  0.00    -0.206 F 
ATOM     87  C   UNL     1      20.420  -2.588  16.305  1.00  0.00     0.060 A 
BRANCH  87  88
ATOM     88  S   UNL     1      20.003  -1.887  17.916  1.00  0.00     0.124 S 
ATOM     89  O   UNL     1      20.449  -2.942  18.818  1.00  0.00    -0.237 OA
ATOM     90  O   UNL     1      20.790  -0.658  17.929  1.00  0.00    -0.237 OA
ATOM     91  O   UNL     1      18.558  -1.695  17.832  1.00  0.00    -0.744 OA
ENDBRANCH  87  88
ENDBRANCH  55  80
BRANCH  67  92
ATOM     92  C   UNL     1      24.706  -9.473  12.307  1.00  0.00     0.058 A 
ATOM     93  C   UNL     1      24.019 -10.333  13.180  1.00  0.00     0.135 A 
ATOM     94  C   UNL     1      26.106  -9.565  12.266  1.00  0.00     0.135 A 
ATOM     95  F   UNL     1      22.680 -10.286  13.260  1.00  0.00    -0.206 F 
ATOM     96  C   UNL     1      24.698 -11.209  14.020  1.00  0.00     0.059 A 
ATOM     97  C   UNL     1      26.804 -10.460  13.071  1.00  0.00     0.059 A 
ATOM     98  F   UNL     1      26.813  -8.779  11.438  1.00  0.00    -0.206 F 
ATOM     99  C   UNL     1      26.091 -11.260  13.963  1.00  0.00     0.060 A 
BRANCH  99 100
ATOM    100  S   UNL     1      26.961 -12.389  15.070  1.00  0.00     0.124 S 
ATOM    101  O   UNL     1      26.827 -11.704  16.352  1.00  0.00    -0.237 OA
ATOM    102  O   UNL     1      26.192 -13.622  14.927  1.00  0.00    -0.237 OA
ATOM    103  O   UNL     1      28.312 -12.432  14.519  1.00  0.00    -0.744 OA
ENDBRANCH  99 100
ENDBRANCH  67  92
ENDBRANCH  41  42
ENDBRANCH  33  36
ENDBRANCH  31  32
ENDBRANCH   1  31
TORSDOF 17
