REMARK SMILES O=C(CCCN1C(=O)/C(=C\c2ccc(O)c(O)c2)SC1=S)NCCCNC(=O)c1ccc(-c2c3nc(c(-c4c(F)cc(S(=O)(=O)[O-])cc4F)c4ccc([nH]4)c(-c4c(F)cc(S(=O)(=O)[O-])cc4F)c4nc(c(-c5c(F)cc(S(=O)(=O)[O-])cc5F)c5ccc2[nH]5)C=C4)C=C3)cc1
REMARK SMILES IDX 23 1 22 2 1 3 2 4 3 6 4 7 5 8 6 9 7 10 20 11 8 12 9 13 19 14
REMARK SMILES IDX 21 15 10 16 11 17 12 18 18 19 13 20 16 21 14 22 17 23 15 25
REMARK SMILES IDX 24 27 25 28 26 29 27 30 28 32 29 33 30 34 94 35 31 36 93 37
REMARK SMILES IDX 32 38 33 39 34 40 87 41 35 42 92 43 86 44 88 45 36 46 91 47
REMARK SMILES IDX 85 48 84 49 37 51 71 52 50 53 70 54 51 55 54 56 69 57 89 58
REMARK SMILES IDX 52 59 53 60 68 62 90 63 55 64 38 65 39 66 48 67 40 68 41 69
REMARK SMILES IDX 47 70 49 71 42 72 43 73 44 74 45 75 46 76 72 77 73 78 82 79
REMARK SMILES IDX 74 80 75 81 81 82 83 83 76 84 77 85 78 86 79 87 80 88 56 89
REMARK SMILES IDX 57 90 66 91 58 92 59 93 65 94 67 95 60 96 61 97 62 98 63 99
REMARK SMILES IDX 64 100
REMARK H PARENT 22 5 17 24 15 26 26 31 88 50 54 61
REMARK Flexibility Score: inf
ROOT
ATOM      1  C   UNL     1       1.996   1.945   1.614  1.00  0.00     0.117 C 
ENDROOT
BRANCH   1   2
ATOM      2  N   UNL     1       2.613   0.958   0.749  1.00  0.00    -0.356 N 
ATOM      3  O   UNL     1       0.712   0.472  -0.445  1.00  0.00    -0.275 OA
ATOM      4  C   UNL     1       1.899   0.280  -0.209  1.00  0.00     0.220 C 
ATOM      5  H   UNL     1       3.573   0.768   0.852  1.00  0.00     0.163 HD
BRANCH   4   6
ATOM      6  C   UNL     1       2.701  -0.759  -0.958  1.00  0.00     0.102 C 
BRANCH   6   7
ATOM      7  C   UNL     1       3.616  -0.163  -2.022  1.00  0.00     0.032 C 
BRANCH   7   8
ATOM      8  C   UNL     1       4.996   0.315  -1.555  1.00  0.00     0.128 C 
BRANCH   8   9
ATOM      9  N   UNL     1       5.774  -0.527  -0.631  1.00  0.00    -0.293 N 
ATOM     10  C   UNL     1       6.485   0.138   0.363  1.00  0.00     0.266 C 
ATOM     11  C   UNL     1       6.042  -1.875  -0.747  1.00  0.00     0.148 C 
ATOM     12  O   UNL     1       6.372   1.331   0.596  1.00  0.00    -0.268 OA
ATOM     13  C   UNL     1       7.367  -0.802   1.117  1.00  0.00     0.081 C 
ATOM     14  S   UNL     1       7.001  -2.414   0.630  1.00  0.00    -0.054 SA
ATOM     15  S   UNL     1       5.603  -2.938  -1.954  1.00  0.00    -0.052 S 
ATOM     16  C   UNL     1       8.367  -0.520   1.969  1.00  0.00     0.029 C 
BRANCH  16  17
ATOM     17  C   UNL     1       8.880   0.817   2.292  1.00  0.00    -0.020 A 
ATOM     18  C   UNL     1       8.058   1.811   2.837  1.00  0.00     0.012 A 
ATOM     19  C   UNL     1      10.223   1.115   2.034  1.00  0.00     0.058 A 
ATOM     20  C   UNL     1       8.537   3.102   3.070  1.00  0.00     0.051 A 
ATOM     21  C   UNL     1      10.693   2.403   2.262  1.00  0.00     0.157 A 
ATOM     22  C   UNL     1       9.857   3.393   2.767  1.00  0.00     0.157 A 
BRANCH  21  23
ATOM     23  O   UNL     1      11.991   2.701   1.958  1.00  0.00    -0.504 OA
ATOM     24  H   UNL     1      12.320   3.566   2.107  1.00  0.00     0.293 HD
ENDBRANCH  21  23
BRANCH  22  25
ATOM     25  O   UNL     1      10.369   4.649   2.933  1.00  0.00    -0.504 OA
ATOM     26  H   UNL     1       9.828   5.335   3.271  1.00  0.00     0.293 HD
ENDBRANCH  22  25
ENDBRANCH  16  17
ENDBRANCH   8   9
ENDBRANCH   7   8
ENDBRANCH   6   7
ENDBRANCH   4   6
ENDBRANCH   1   2
BRANCH   1  27
ATOM     27  C   UNL     1       2.280   1.673   3.087  1.00  0.00     0.042 C 
BRANCH  27  28
ATOM     28  C   UNL     1       3.753   1.736   3.473  1.00  0.00     0.118 C 
BRANCH  28  29
ATOM     29  N   UNL     1       4.345   3.045   3.257  1.00  0.00    -0.352 N 
ATOM     30  C   UNL     1       5.033   3.869   4.112  1.00  0.00     0.251 C 
ATOM     31  H   UNL     1       4.235   3.400   2.345  1.00  0.00     0.163 HD
ATOM     32  O   UNL     1       5.327   5.002   3.737  1.00  0.00    -0.269 OA
BRANCH  30  33
ATOM     33  C   UNL     1       5.454   3.419   5.460  1.00  0.00     0.039 A 
ATOM     34  C   UNL     1       5.496   4.365   6.489  1.00  0.00     0.014 A 
ATOM     35  C   UNL     1       5.891   2.115   5.709  1.00  0.00     0.014 A 
ATOM     36  C   UNL     1       5.934   3.993   7.762  1.00  0.00     0.010 A 
ATOM     37  C   UNL     1       6.271   1.727   6.989  1.00  0.00     0.010 A 
ATOM     38  C   UNL     1       6.302   2.664   8.025  1.00  0.00    -0.014 A 
BRANCH  38  39
ATOM     39  C   UNL     1       6.670   2.227   9.392  1.00  0.00     0.031 A 
ATOM     40  C   UNL     1       8.060   1.747   9.699  1.00  0.00     0.074 A 
ATOM     41  C   UNL     1       5.709   2.198  10.335  1.00  0.00     0.049 A 
ATOM     42  N   UNL     1       8.553   1.332  10.838  1.00  0.00    -0.248 NA
ATOM     43  C   UNL     1       9.016   1.703   8.581  1.00  0.00     0.031 C 
ATOM     44  C   UNL     1       4.306   2.562  10.118  1.00  0.00     0.029 A 
ATOM     45  N   UNL     1       5.759   1.841  11.656  1.00  0.00    -0.354 N 
ATOM     46  C   UNL     1       9.872   0.981  10.577  1.00  0.00     0.074 A 
ATOM     47  C   UNL     1      10.086   1.174   9.159  1.00  0.00     0.031 C 
ATOM     48  C   UNL     1       3.637   2.440  11.274  1.00  0.00     0.029 A 
ATOM     49  C   UNL     1       4.552   1.960  12.303  1.00  0.00     0.049 A 
ATOM     50  H   UNL     1       6.581   1.530  12.100  1.00  0.00     0.167 HD
ATOM     51  C   UNL     1      10.821   0.560  11.447  1.00  0.00     0.037 A 
ATOM     52  C   UNL     1       4.222   1.711  13.584  1.00  0.00     0.037 A 
ATOM     53  C   UNL     1      10.587   0.373  12.858  1.00  0.00     0.049 A 
ATOM     54  C   UNL     1       5.296   1.257  14.533  1.00  0.00     0.074 A 
ATOM     55  C   UNL     1      11.492   0.009  13.840  1.00  0.00     0.029 A 
ATOM     56  N   UNL     1       9.359   0.526  13.486  1.00  0.00    -0.354 N 
ATOM     57  N   UNL     1       6.564   1.020  14.290  1.00  0.00    -0.248 NA
ATOM     58  C   UNL     1       4.900   1.052  15.931  1.00  0.00     0.031 C 
ATOM     59  C   UNL     1      10.800  -0.112  15.050  1.00  0.00     0.029 A 
ATOM     60  C   UNL     1       9.476   0.239  14.837  1.00  0.00     0.049 A 
ATOM     61  H   UNL     1       8.526   0.798  13.038  1.00  0.00     0.167 HD
ATOM     62  C   UNL     1       7.124   0.665  15.512  1.00  0.00     0.074 A 
ATOM     63  C   UNL     1       6.059   0.739  16.493  1.00  0.00     0.031 C 
ATOM     64  C   UNL     1       8.403   0.313  15.799  1.00  0.00     0.037 A 
BRANCH  51  65
ATOM     65  C   UNL     1      12.198   0.279  10.905  1.00  0.00     0.058 A 
ATOM     66  C   UNL     1      13.028   1.308  10.429  1.00  0.00     0.135 A 
ATOM     67  C   UNL     1      12.718  -1.026  10.908  1.00  0.00     0.135 A 
ATOM     68  F   UNL     1      12.582   2.574  10.391  1.00  0.00    -0.206 F 
ATOM     69  C   UNL     1      14.309   1.051   9.950  1.00  0.00     0.059 A 
ATOM     70  C   UNL     1      14.008  -1.303  10.463  1.00  0.00     0.059 A 
ATOM     71  F   UNL     1      11.972  -2.050  11.351  1.00  0.00    -0.206 F 
ATOM     72  C   UNL     1      14.792  -0.258   9.974  1.00  0.00     0.060 A 
BRANCH  72  73
ATOM     73  S   UNL     1      16.463  -0.571   9.365  1.00  0.00     0.124 S 
ATOM     74  O   UNL     1      16.291  -0.373   7.929  1.00  0.00    -0.237 OA
ATOM     75  O   UNL     1      17.241   0.452  10.056  1.00  0.00    -0.237 OA
ATOM     76  O   UNL     1      16.726  -1.944   9.782  1.00  0.00    -0.744 OA
ENDBRANCH  72  73
ENDBRANCH  51  65
BRANCH  52  77
ATOM     77  C   UNL     1       2.826   1.929  14.045  1.00  0.00     0.058 A 
ATOM     78  C   UNL     1       2.509   2.980  14.918  1.00  0.00     0.135 A 
ATOM     79  C   UNL     1       1.776   1.109  13.602  1.00  0.00     0.135 A 
ATOM     80  F   UNL     1       3.477   3.793  15.367  1.00  0.00    -0.206 F 
ATOM     81  C   UNL     1       1.207   3.197  15.356  1.00  0.00     0.059 A 
ATOM     82  C   UNL     1       0.462   1.323  14.003  1.00  0.00     0.059 A 
ATOM     83  F   UNL     1       2.022   0.104  12.746  1.00  0.00    -0.206 F 
ATOM     84  C   UNL     1       0.189   2.363  14.890  1.00  0.00     0.060 A 
BRANCH  84  85
ATOM     85  S   UNL     1      -1.503   2.680  15.432  1.00  0.00     0.124 S 
ATOM     86  O   UNL     1      -1.450   2.252  16.825  1.00  0.00    -0.237 OA
ATOM     87  O   UNL     1      -1.631   4.117  15.209  1.00  0.00    -0.237 OA
ATOM     88  O   UNL     1      -2.303   1.842  14.544  1.00  0.00    -0.744 OA
ENDBRANCH  84  85
ENDBRANCH  52  77
BRANCH  64  89
ATOM     89  C   UNL     1       8.724   0.013  17.238  1.00  0.00     0.058 A 
ATOM     90  C   UNL     1       8.234  -1.134  17.885  1.00  0.00     0.135 A 
ATOM     91  C   UNL     1       9.550   0.877  17.976  1.00  0.00     0.135 A 
ATOM     92  F   UNL     1       7.436  -1.991  17.228  1.00  0.00    -0.206 F 
ATOM     93  C   UNL     1       8.515  -1.390  19.223  1.00  0.00     0.059 A 
ATOM     94  C   UNL     1       9.873   0.622  19.305  1.00  0.00     0.059 A 
ATOM     95  F   UNL     1      10.056   1.981  17.404  1.00  0.00    -0.206 F 
ATOM     96  C   UNL     1       9.335  -0.504  19.925  1.00  0.00     0.060 A 
BRANCH  96  97
ATOM     97  S   UNL     1       9.695  -0.850  21.659  1.00  0.00     0.124 S 
ATOM     98  O   UNL     1       8.421  -0.530  22.293  1.00  0.00    -0.237 OA
ATOM     99  O   UNL     1      10.050  -2.265  21.628  1.00  0.00    -0.237 OA
ATOM    100  O   UNL     1      10.795   0.060  21.966  1.00  0.00    -0.744 OA
ENDBRANCH  96  97
ENDBRANCH  64  89
ENDBRANCH  38  39
ENDBRANCH  30  33
ENDBRANCH  28  29
ENDBRANCH  27  28
ENDBRANCH   1  27
TORSDOF 19
