REMARK SMILES O=C(Cn1ncc2ccccc2c1=O)N[C@@H]1C[NH2+][C@H](C(=O)NCCCNC(=O)c2ccc(-c3c4nc(c(-c5c(F)cc(S(=O)(=O)[O-])cc5F)c5ccc([nH]5)c(-c5c(F)cc(S(=O)(=O)[O-])cc5F)c5nc(c(-c6c(F)cc(S(=O)(=O)[O-])cc6F)c6ccc3[nH]6)C=C5)C=C4)cc2)C1
REMARK SMILES IDX 24 1 23 2 22 3 20 4 21 5 19 7 16 8 17 9 95 10 18 11 15 14
REMARK SMILES IDX 1 15 2 16 3 18 4 19 5 20 13 21 6 22 12 23 14 24 7 25 11 26
REMARK SMILES IDX 8 27 10 28 9 29 25 30 26 31 27 32 28 34 29 35 30 36 94 37
REMARK SMILES IDX 31 38 93 39 32 40 33 41 34 42 87 43 35 44 92 45 86 46 88 47
REMARK SMILES IDX 36 48 91 49 85 50 84 51 37 53 71 54 50 55 70 56 51 57 54 58
REMARK SMILES IDX 69 59 89 60 52 61 53 62 68 64 90 65 55 66 38 67 39 68 48 69
REMARK SMILES IDX 40 70 41 71 47 72 49 73 42 74 43 75 44 76 45 77 46 78 72 79
REMARK SMILES IDX 73 80 82 81 74 82 75 83 81 84 83 85 76 86 77 87 78 88 79 89
REMARK SMILES IDX 80 90 56 91 57 92 66 93 58 94 59 95 65 96 67 97 60 98 61 99
REMARK SMILES IDX 62 100 63 101 64 102
REMARK H PARENT 22 6 18 12 18 13 15 17 26 33 88 52 54 63
REMARK Flexibility Score: inf
ROOT
ATOM      1  C   UNL     1       4.484   4.531  -3.120  1.00  0.00     0.042 C 
ENDROOT
BRANCH   1   2
ATOM      2  C   UNL     1       3.512   4.334  -4.281  1.00  0.00     0.118 C 
BRANCH   2   3
ATOM      3  N   UNL     1       3.959   3.303  -5.198  1.00  0.00    -0.351 N 
ATOM      4  C   UNL     1       3.550   2.009  -5.356  1.00  0.00     0.278 C 
ATOM      5  O   UNL     1       4.136   1.353  -6.221  1.00  0.00    -0.268 OA
ATOM      6  H   UNL     1       4.679   3.582  -5.809  1.00  0.00     0.163 HD
BRANCH   4   7
ATOM      7  C   UNL     1       2.352   1.466  -4.537  1.00  0.00     0.274 C 
ATOM      8  C   UNL     1       2.130   0.180  -2.507  1.00  0.00     0.143 C 
ATOM      9  C   UNL     1       2.571  -0.717  -3.653  1.00  0.00     0.286 C 
ATOM     10  C   UNL     1       2.535   1.548  -3.022  1.00  0.00     0.106 C 
ATOM     11  N   UNL     1       2.126   0.020  -4.844  1.00  0.00    -0.334 N 
ATOM     12  H   UNL     1       1.136  -0.155  -5.020  1.00  0.00     0.347 HD
ATOM     13  H   UNL     1       2.636  -0.271  -5.678  1.00  0.00     0.347 HD
BRANCH   8  14
ATOM     14  N   UNL     1       2.737  -0.122  -1.233  1.00  0.00    -0.346 N 
ATOM     15  O   UNL     1       0.885   0.403  -0.004  1.00  0.00    -0.273 OA
ATOM     16  C   UNL     1       2.037  -0.029  -0.045  1.00  0.00     0.242 C 
ATOM     17  H   UNL     1       3.681  -0.402  -1.209  1.00  0.00     0.164 HD
BRANCH  16  18
ATOM     18  C   UNL     1       2.845  -0.299   1.226  1.00  0.00     0.248 C 
BRANCH  18  19
ATOM     19  N   UNL     1       3.747  -1.441   1.075  1.00  0.00    -0.220 N 
ATOM     20  N   UNL     1       3.206  -2.679   1.353  1.00  0.00    -0.177 NA
ATOM     21  C   UNL     1       5.046  -1.242   0.613  1.00  0.00     0.275 A 
ATOM     22  C   UNL     1       3.958  -3.723   1.208  1.00  0.00     0.142 A 
ATOM     23  C   UNL     1       5.905  -2.433   0.518  1.00  0.00     0.050 A 
ATOM     24  O   UNL     1       5.462  -0.155   0.215  1.00  0.00    -0.267 OA
ATOM     25  C   UNL     1       5.350  -3.676   0.782  1.00  0.00     0.007 A 
ATOM     26  C   UNL     1       7.244  -2.339   0.131  1.00  0.00     0.014 A 
ATOM     27  C   UNL     1       6.099  -4.845   0.640  1.00  0.00     0.010 A 
ATOM     28  C   UNL     1       8.007  -3.501  -0.003  1.00  0.00     0.001 A 
ATOM     29  C   UNL     1       7.433  -4.752   0.241  1.00  0.00     0.001 A 
ENDBRANCH  18  19
ENDBRANCH  16  18
ENDBRANCH   8  14
ENDBRANCH   4   7
ENDBRANCH   2   3
ENDBRANCH   1   2
BRANCH   1  30
ATOM     30  C   UNL     1       5.862   5.040  -3.534  1.00  0.00     0.118 C 
BRANCH  30  31
ATOM     31  N   UNL     1       5.838   6.417  -4.005  1.00  0.00    -0.352 N 
ATOM     32  C   UNL     1       6.523   7.523  -3.554  1.00  0.00     0.251 C 
ATOM     33  H   UNL     1       5.238   6.584  -4.767  1.00  0.00     0.163 HD
ATOM     34  O   UNL     1       6.226   8.629  -3.993  1.00  0.00    -0.269 OA
BRANCH  32  35
ATOM     35  C   UNL     1       7.588   7.393  -2.529  1.00  0.00     0.039 A 
ATOM     36  C   UNL     1       8.498   6.336  -2.557  1.00  0.00     0.014 A 
ATOM     37  C   UNL     1       7.691   8.367  -1.529  1.00  0.00     0.014 A 
ATOM     38  C   UNL     1       9.389   6.158  -1.501  1.00  0.00     0.010 A 
ATOM     39  C   UNL     1       8.652   8.237  -0.518  1.00  0.00     0.010 A 
ATOM     40  C   UNL     1       9.478   7.104  -0.466  1.00  0.00    -0.014 A 
BRANCH  40  41
ATOM     41  C   UNL     1      10.444   6.880   0.644  1.00  0.00     0.031 A 
ATOM     42  C   UNL     1       9.965   6.686   2.061  1.00  0.00     0.074 A 
ATOM     43  C   UNL     1      11.761   6.792   0.363  1.00  0.00     0.049 A 
ATOM     44  N   UNL     1      10.665   6.419   3.135  1.00  0.00    -0.248 NA
ATOM     45  C   UNL     1       8.520   6.814   2.311  1.00  0.00     0.031 C 
ATOM     46  C   UNL     1      12.353   6.984  -0.963  1.00  0.00     0.029 A 
ATOM     47  N   UNL     1      12.836   6.496   1.163  1.00  0.00    -0.354 N 
ATOM     48  C   UNL     1       9.755   6.364   4.184  1.00  0.00     0.074 A 
ATOM     49  C   UNL     1       8.453   6.656   3.627  1.00  0.00     0.031 C 
ATOM     50  C   UNL     1      13.672   6.750  -0.897  1.00  0.00     0.029 A 
ATOM     51  C   UNL     1      14.032   6.445   0.484  1.00  0.00     0.049 A 
ATOM     52  H   UNL     1      12.760   6.335   2.131  1.00  0.00     0.167 HD
ATOM     53  C   UNL     1       9.981   6.079   5.489  1.00  0.00     0.037 A 
ATOM     54  C   UNL     1      15.281   6.191   0.919  1.00  0.00     0.037 A 
ATOM     55  C   UNL     1      11.272   5.747   6.034  1.00  0.00     0.049 A 
ATOM     56  C   UNL     1      15.504   5.880   2.373  1.00  0.00     0.074 A 
ATOM     57  C   UNL     1      11.586   5.384   7.332  1.00  0.00     0.029 A 
ATOM     58  N   UNL     1      12.459   5.735   5.318  1.00  0.00    -0.354 N 
ATOM     59  N   UNL     1      14.619   5.784   3.337  1.00  0.00    -0.248 NA
ATOM     60  C   UNL     1      16.890   5.648   2.803  1.00  0.00     0.031 C 
ATOM     61  C   UNL     1      12.969   5.197   7.413  1.00  0.00     0.029 A 
ATOM     62  C   UNL     1      13.511   5.397   6.154  1.00  0.00     0.049 A 
ATOM     63  H   UNL     1      12.542   5.936   4.358  1.00  0.00     0.167 HD
ATOM     64  C   UNL     1      15.341   5.475   4.484  1.00  0.00     0.074 A 
ATOM     65  C   UNL     1      16.731   5.375   4.091  1.00  0.00     0.031 C 
ATOM     66  C   UNL     1      14.890   5.298   5.750  1.00  0.00     0.037 A 
BRANCH  53  67
ATOM     67  C   UNL     1       8.813   6.097   6.437  1.00  0.00     0.058 A 
ATOM     68  C   UNL     1       7.861   5.067   6.450  1.00  0.00     0.135 A 
ATOM     69  C   UNL     1       8.706   7.102   7.413  1.00  0.00     0.135 A 
ATOM     70  F   UNL     1       7.909   4.090   5.531  1.00  0.00    -0.206 F 
ATOM     71  C   UNL     1       6.843   5.032   7.397  1.00  0.00     0.059 A 
ATOM     72  C   UNL     1       7.708   7.075   8.383  1.00  0.00     0.059 A 
ATOM     73  F   UNL     1       9.591   8.111   7.443  1.00  0.00    -0.206 F 
ATOM     74  C   UNL     1       6.780   6.036   8.366  1.00  0.00     0.060 A 
BRANCH  74  75
ATOM     75  S   UNL     1       5.482   5.942   9.618  1.00  0.00     0.124 S 
ATOM     76  O   UNL     1       4.291   6.235   8.826  1.00  0.00    -0.237 OA
ATOM     77  O   UNL     1       5.606   4.567  10.090  1.00  0.00    -0.237 OA
ATOM     78  O   UNL     1       5.862   6.971  10.581  1.00  0.00    -0.744 OA
ENDBRANCH  74  75
ENDBRANCH  53  67
BRANCH  54  79
ATOM     79  C   UNL     1      16.419   6.230  -0.037  1.00  0.00     0.058 A 
ATOM     80  C   UNL     1      17.100   5.061  -0.406  1.00  0.00     0.135 A 
ATOM     81  C   UNL     1      16.836   7.440  -0.616  1.00  0.00     0.135 A 
ATOM     82  F   UNL     1      16.744   3.881   0.125  1.00  0.00    -0.206 F 
ATOM     83  C   UNL     1      18.161   5.090  -1.306  1.00  0.00     0.059 A 
ATOM     84  C   UNL     1      17.875   7.491  -1.539  1.00  0.00     0.059 A 
ATOM     85  F   UNL     1      16.207   8.585  -0.308  1.00  0.00    -0.206 F 
ATOM     86  C   UNL     1      18.539   6.311  -1.869  1.00  0.00     0.060 A 
BRANCH  86  87
ATOM     87  S   UNL     1      19.887   6.330  -3.071  1.00  0.00     0.124 S 
ATOM     88  O   UNL     1      21.046   6.107  -2.215  1.00  0.00    -0.237 OA
ATOM     89  O   UNL     1      19.524   5.228  -3.956  1.00  0.00    -0.237 OA
ATOM     90  O   UNL     1      19.787   7.660  -3.665  1.00  0.00    -0.744 OA
ENDBRANCH  86  87
ENDBRANCH  54  79
BRANCH  66  91
ATOM     91  C   UNL     1      15.902   4.973   6.812  1.00  0.00     0.058 A 
ATOM     92  C   UNL     1      16.763   5.956   7.324  1.00  0.00     0.135 A 
ATOM     93  C   UNL     1      15.948   3.693   7.386  1.00  0.00     0.135 A 
ATOM     94  F   UNL     1      16.762   7.193   6.803  1.00  0.00    -0.206 F 
ATOM     95  C   UNL     1      17.640   5.679   8.367  1.00  0.00     0.059 A 
ATOM     96  C   UNL     1      16.801   3.400   8.446  1.00  0.00     0.059 A 
ATOM     97  F   UNL     1      15.139   2.720   6.937  1.00  0.00    -0.206 F 
ATOM     98  C   UNL     1      17.645   4.400   8.928  1.00  0.00     0.060 A 
BRANCH  98  99
ATOM     99  S   UNL     1      18.745   4.075  10.322  1.00  0.00     0.124 S 
ATOM    100  O   UNL     1      20.051   4.066   9.671  1.00  0.00    -0.237 OA
ATOM    101  O   UNL     1      18.480   5.211  11.198  1.00  0.00    -0.237 OA
ATOM    102  O   UNL     1      18.286   2.783  10.824  1.00  0.00    -0.744 OA
ENDBRANCH  98  99
ENDBRANCH  66  91
ENDBRANCH  40  41
ENDBRANCH  32  35
ENDBRANCH  30  31
ENDBRANCH   1  30
TORSDOF 16
