REMARK SMILES O=C(C[C@H]([NH2+]Cc1ccco1)C(=O)NCCCNC(=O)c1ccc(-c2c3nc(c(-c4c(F)cc(S(=O)(=O)[O-])cc4F)c4ccc([nH]4)c(-c4c(F)cc(S(=O)(=O)[O-])cc4F)c4nc(c(-c5c(F)cc(S(=O)(=O)[O-])cc5F)c5ccc2[nH]5)C=C4)C=C3)cc1)Nc1ccc(O)cc1
REMARK SMILES IDX 15 1 14 2 12 3 13 4 4 6 3 7 2 8 1 9 87 10 88 12 89 13 94 14
REMARK SMILES IDX 90 15 93 16 91 17 92 18 5 20 6 23 7 24 8 25 11 26 9 27 10 28
REMARK SMILES IDX 16 29 17 30 18 31 19 32 20 34 21 35 22 36 86 37 23 38 85 39
REMARK SMILES IDX 24 40 25 41 26 42 79 43 27 44 84 45 78 46 80 47 28 48 83 49
REMARK SMILES IDX 77 50 76 51 29 53 63 54 42 55 62 56 43 57 46 58 61 59 81 60
REMARK SMILES IDX 44 61 45 62 60 64 82 65 47 66 30 67 31 68 40 69 32 70 33 71
REMARK SMILES IDX 39 72 41 73 34 74 35 75 36 76 37 77 38 78 64 79 65 80 74 81
REMARK SMILES IDX 66 82 67 83 73 84 75 85 68 86 69 87 70 88 71 89 72 90 48 91
REMARK SMILES IDX 49 92 58 93 50 94 51 95 57 96 59 97 52 98 53 99 54 100
REMARK SMILES IDX 55 101 56 102
REMARK H PARENT 14 5 87 11 92 19 5 21 5 22 18 33 80 52 46 63
REMARK Flexibility Score: inf
ROOT
ATOM      1  C   UNL     1       5.813   1.138  -1.938  1.00  0.00     0.118 C 
ENDROOT
BRANCH   1   2
ATOM      2  N   UNL     1       5.594   2.442  -1.327  1.00  0.00    -0.351 N 
ATOM      3  C   UNL     1       4.742   2.795  -0.320  1.00  0.00     0.278 C 
ATOM      4  O   UNL     1       4.704   3.974   0.041  1.00  0.00    -0.268 OA
ATOM      5  H   UNL     1       6.139   3.176  -1.694  1.00  0.00     0.163 HD
BRANCH   3   6
ATOM      6  C   UNL     1       3.883   1.735   0.395  1.00  0.00     0.282 C 
BRANCH   6   7
ATOM      7  C   UNL     1       4.853   0.869   1.205  1.00  0.00     0.175 C 
BRANCH   7   8
ATOM      8  C   UNL     1       4.226  -0.126   2.142  1.00  0.00     0.230 C 
ATOM      9  O   UNL     1       4.354  -1.331   1.941  1.00  0.00    -0.274 OA
ATOM     10  N   UNL     1       3.583   0.438   3.225  1.00  0.00    -0.326 N 
ATOM     11  H   UNL     1       3.330   1.387   3.165  1.00  0.00     0.169 HD
BRANCH  10  12
ATOM     12  C   UNL     1       3.264  -0.252   4.411  1.00  0.00     0.041 A 
ATOM     13  C   UNL     1       2.282   0.286   5.246  1.00  0.00     0.030 A 
ATOM     14  C   UNL     1       3.931  -1.419   4.800  1.00  0.00     0.030 A 
ATOM     15  C   UNL     1       1.938  -0.366   6.433  1.00  0.00     0.048 A 
ATOM     16  C   UNL     1       3.607  -2.058   5.998  1.00  0.00     0.048 A 
ATOM     17  C   UNL     1       2.602  -1.532   6.798  1.00  0.00     0.115 A 
BRANCH  17  18
ATOM     18  O   UNL     1       2.238  -2.138   7.963  1.00  0.00    -0.508 OA
ATOM     19  H   UNL     1       1.558  -1.769   8.491  1.00  0.00     0.293 HD
ENDBRANCH  17  18
ENDBRANCH  10  12
ENDBRANCH   7   8
ENDBRANCH   6   7
BRANCH   6  20
ATOM     20  N   UNL     1       3.015   1.019  -0.564  1.00  0.00    -0.329 N 
ATOM     21  H   UNL     1       2.477   0.313  -0.060  1.00  0.00     0.347 HD
ATOM     22  H   UNL     1       3.608   0.587  -1.272  1.00  0.00     0.347 HD
BRANCH  20  23
ATOM     23  C   UNL     1       2.082   1.938  -1.240  1.00  0.00     0.337 C 
BRANCH  23  24
ATOM     24  C   UNL     1       1.185   1.216  -2.183  1.00  0.00     0.157 A 
ATOM     25  C   UNL     1       0.224   0.237  -2.028  1.00  0.00     0.052 A 
ATOM     26  O   UNL     1       1.255   1.591  -3.495  1.00  0.00    -0.463 OA
ATOM     27  C   UNL     1      -0.315  -0.003  -3.316  1.00  0.00     0.042 A 
ATOM     28  C   UNL     1       0.346   0.844  -4.173  1.00  0.00     0.195 A 
ENDBRANCH  23  24
ENDBRANCH  20  23
ENDBRANCH   6  20
ENDBRANCH   3   6
ENDBRANCH   1   2
BRANCH   1  29
ATOM     29  C   UNL     1       5.387   1.087  -3.395  1.00  0.00     0.042 C 
BRANCH  29  30
ATOM     30  C   UNL     1       6.168   2.027  -4.298  1.00  0.00     0.118 C 
BRANCH  30  31
ATOM     31  N   UNL     1       7.597   1.738  -4.318  1.00  0.00    -0.352 N 
ATOM     32  C   UNL     1       8.407   1.342  -5.352  1.00  0.00     0.251 C 
ATOM     33  H   UNL     1       8.053   1.844  -3.451  1.00  0.00     0.163 HD
ATOM     34  O   UNL     1       9.556   0.972  -5.113  1.00  0.00    -0.269 OA
BRANCH  32  35
ATOM     35  C   UNL     1       7.901   1.337  -6.741  1.00  0.00     0.039 A 
ATOM     36  C   UNL     1       8.235   0.272  -7.581  1.00  0.00     0.014 A 
ATOM     37  C   UNL     1       7.103   2.379  -7.220  1.00  0.00     0.014 A 
ATOM     38  C   UNL     1       7.707   0.217  -8.873  1.00  0.00     0.010 A 
ATOM     39  C   UNL     1       6.499   2.273  -8.468  1.00  0.00     0.010 A 
ATOM     40  C   UNL     1       6.800   1.195  -9.313  1.00  0.00    -0.014 A 
BRANCH  40  41
ATOM     41  C   UNL     1       6.153   1.108 -10.648  1.00  0.00     0.031 A 
ATOM     42  C   UNL     1       6.368   2.199 -11.664  1.00  0.00     0.074 A 
ATOM     43  C   UNL     1       5.316   0.086 -10.918  1.00  0.00     0.049 A 
ATOM     44  N   UNL     1       5.832   2.340 -12.849  1.00  0.00    -0.248 NA
ATOM     45  C   UNL     1       7.281   3.292 -11.288  1.00  0.00     0.031 C 
ATOM     46  C   UNL     1       4.982  -1.000  -9.994  1.00  0.00     0.029 A 
ATOM     47  N   UNL     1       4.581  -0.200 -12.041  1.00  0.00    -0.354 N 
ATOM     48  C   UNL     1       6.324   3.540 -13.349  1.00  0.00     0.074 A 
ATOM     49  C   UNL     1       7.162   4.115 -12.320  1.00  0.00     0.031 C 
ATOM     50  C   UNL     1       4.126  -1.843 -10.594  1.00  0.00     0.029 A 
ATOM     51  C   UNL     1       3.813  -1.336 -11.926  1.00  0.00     0.049 A 
ATOM     52  H   UNL     1       4.601   0.356 -12.854  1.00  0.00     0.167 HD
ATOM     53  C   UNL     1       6.114   4.101 -14.564  1.00  0.00     0.037 A 
ATOM     54  C   UNL     1       2.944  -1.898 -12.788  1.00  0.00     0.037 A 
ATOM     55  C   UNL     1       5.303   3.505 -15.594  1.00  0.00     0.049 A 
ATOM     56  C   UNL     1       2.734  -1.259 -14.135  1.00  0.00     0.074 A 
ATOM     57  C   UNL     1       5.090   3.955 -16.885  1.00  0.00     0.029 A 
ATOM     58  N   UNL     1       4.566   2.338 -15.450  1.00  0.00    -0.354 N 
ATOM     59  N   UNL     1       3.273  -0.166 -14.622  1.00  0.00    -0.248 NA
ATOM     60  C   UNL     1       1.804  -1.931 -15.053  1.00  0.00     0.031 C 
ATOM     61  C   UNL     1       4.178   3.093 -17.503  1.00  0.00     0.029 A 
ATOM     62  C   UNL     1       3.873   2.070 -16.619  1.00  0.00     0.049 A 
ATOM     63  H   UNL     1       4.539   1.784 -14.637  1.00  0.00     0.167 HD
ATOM     64  C   UNL     1       2.770  -0.036 -15.912  1.00  0.00     0.074 A 
ATOM     65  C   UNL     1       1.896  -1.169 -16.134  1.00  0.00     0.031 C 
ATOM     66  C   UNL     1       3.011   0.933 -16.830  1.00  0.00     0.037 A 
BRANCH  53  67
ATOM     67  C   UNL     1       6.768   5.425 -14.852  1.00  0.00     0.058 A 
ATOM     68  C   UNL     1       8.157   5.548 -15.015  1.00  0.00     0.135 A 
ATOM     69  C   UNL     1       5.987   6.581 -15.023  1.00  0.00     0.135 A 
ATOM     70  F   UNL     1       8.955   4.480 -14.848  1.00  0.00    -0.206 F 
ATOM     71  C   UNL     1       8.751   6.770 -15.313  1.00  0.00     0.059 A 
ATOM     72  C   UNL     1       6.556   7.807 -15.352  1.00  0.00     0.059 A 
ATOM     73  F   UNL     1       4.654   6.523 -14.877  1.00  0.00    -0.206 F 
ATOM     74  C   UNL     1       7.941   7.894 -15.484  1.00  0.00     0.060 A 
BRANCH  74  75
ATOM     75  S   UNL     1       8.726   9.467 -15.893  1.00  0.00     0.124 S 
ATOM     76  O   UNL     1       9.383   9.801 -14.633  1.00  0.00    -0.237 OA
ATOM     77  O   UNL     1       9.614   9.094 -16.991  1.00  0.00    -0.237 OA
ATOM     78  O   UNL     1       7.604  10.323 -16.261  1.00  0.00    -0.744 OA
ENDBRANCH  74  75
ENDBRANCH  53  67
BRANCH  54  79
ATOM     79  C   UNL     1       2.211  -3.136 -12.407  1.00  0.00     0.058 A 
ATOM     80  C   UNL     1       2.476  -4.361 -13.039  1.00  0.00     0.135 A 
ATOM     81  C   UNL     1       1.232  -3.121 -11.400  1.00  0.00     0.135 A 
ATOM     82  F   UNL     1       3.398  -4.428 -14.011  1.00  0.00    -0.206 F 
ATOM     83  C   UNL     1       1.781  -5.519 -12.705  1.00  0.00     0.059 A 
ATOM     84  C   UNL     1       0.546  -4.272 -11.028  1.00  0.00     0.059 A 
ATOM     85  F   UNL     1       0.952  -1.980 -10.751  1.00  0.00    -0.206 F 
ATOM     86  C   UNL     1       0.818  -5.465 -11.696  1.00  0.00     0.060 A 
BRANCH  86  87
ATOM     87  S   UNL     1      -0.053  -6.982 -11.247  1.00  0.00     0.124 S 
ATOM     88  O   UNL     1      -0.922  -7.174 -12.402  1.00  0.00    -0.237 OA
ATOM     89  O   UNL     1       1.044  -7.934 -11.106  1.00  0.00    -0.237 OA
ATOM     90  O   UNL     1      -0.728  -6.625 -10.002  1.00  0.00    -0.744 OA
ENDBRANCH  86  87
ENDBRANCH  54  79
BRANCH  66  91
ATOM     91  C   UNL     1       2.354   0.795 -18.176  1.00  0.00     0.058 A 
ATOM     92  C   UNL     1       0.974   0.987 -18.351  1.00  0.00     0.135 A 
ATOM     93  C   UNL     1       3.127   0.523 -19.317  1.00  0.00     0.135 A 
ATOM     94  F   UNL     1       0.188   1.243 -17.294  1.00  0.00    -0.206 F 
ATOM     95  C   UNL     1       0.381   0.888 -19.606  1.00  0.00     0.059 A 
ATOM     96  C   UNL     1       2.559   0.453 -20.585  1.00  0.00     0.059 A 
ATOM     97  F   UNL     1       4.453   0.343 -19.209  1.00  0.00    -0.206 F 
ATOM     98  C   UNL     1       1.183   0.624 -20.718  1.00  0.00     0.060 A 
BRANCH  98  99
ATOM     99  S   UNL     1       0.404   0.534 -22.344  1.00  0.00     0.124 S 
ATOM    100  O   UNL     1      -0.308  -0.736 -22.259  1.00  0.00    -0.237 OA
ATOM    101  O   UNL     1      -0.432   1.731 -22.355  1.00  0.00    -0.237 OA
ATOM    102  O   UNL     1       1.536   0.559 -23.265  1.00  0.00    -0.744 OA
ENDBRANCH  98  99
ENDBRANCH  66  91
ENDBRANCH  40  41
ENDBRANCH  32  35
ENDBRANCH  30  31
ENDBRANCH  29  30
ENDBRANCH   1  29
TORSDOF 20
