REMARK SMILES O=C(NCCCNC(=O)c1[nH]ncc1C[N@H+]1CCC[C@@H](C(=O)c2ccc(Oc3ccccc3)cc2)C1)c1ccc(-c2c3nc(c(-c4c(F)cc(S(=O)(=O)[O-])cc4F)c4ccc([nH]4)c(-c4c(F)cc(S(=O)(=O)[O-])cc4F)c4nc(c(-c5c(F)cc(S(=O)(=O)[O-])cc5F)c5ccc2[nH]5)C=C4)C=C3)cc1
REMARK SMILES IDX 7 1 8 2 9 3 6 5 5 6 4 7 3 8 1 9 2 10 37 12 38 13 102 14
REMARK SMILES IDX 39 15 101 16 40 17 41 18 42 19 95 20 43 21 100 22 94 23
REMARK SMILES IDX 96 24 44 25 99 26 93 27 92 28 45 30 79 31 58 32 78 33 59 34
REMARK SMILES IDX 62 35 77 36 97 37 60 38 61 39 76 41 98 42 63 43 46 44 47 45
REMARK SMILES IDX 56 46 48 47 49 48 55 49 57 50 50 51 51 52 52 53 53 54 54 55
REMARK SMILES IDX 80 56 81 57 90 58 82 59 83 60 89 61 91 62 84 63 85 64 86 65
REMARK SMILES IDX 87 66 88 67 64 68 65 69 74 70 66 71 67 72 73 73 75 74 68 75
REMARK SMILES IDX 69 76 70 77 71 78 72 79 10 80 11 81 14 82 12 83 13 85 15 86
REMARK SMILES IDX 16 87 17 88 36 89 18 91 20 92 19 93 21 94 22 95 23 96 24 97
REMARK SMILES IDX 35 98 25 99 34 100 26 101 27 102 28 103 29 104 33 105 30 106
REMARK SMILES IDX 32 107 31 108
REMARK H PARENT 7 4 3 11 96 29 62 40 11 84 16 90
REMARK Flexibility Score: inf
ROOT
ATOM      1  N   UNL     1       5.060   4.043  -0.731  1.00  0.00    -0.351 N 
ATOM      2  C   UNL     1       5.811   5.163  -0.977  1.00  0.00     0.269 C 
ATOM      3  O   UNL     1       6.232   5.821  -0.029  1.00  0.00    -0.268 OA
ATOM      4  H   UNL     1       4.756   3.934   0.199  1.00  0.00     0.163 HD
ENDROOT
BRANCH   1   5
ATOM      5  C   UNL     1       4.648   2.992  -1.653  1.00  0.00     0.118 C 
BRANCH   5   6
ATOM      6  C   UNL     1       5.169   1.625  -1.270  1.00  0.00     0.042 C 
BRANCH   6   7
ATOM      7  C   UNL     1       4.668   1.163   0.083  1.00  0.00     0.118 C 
BRANCH   7   8
ATOM      8  N   UNL     1       3.218   0.999   0.124  1.00  0.00    -0.352 N 
ATOM      9  O   UNL     1       1.236  -0.059  -0.028  1.00  0.00    -0.269 OA
ATOM     10  C   UNL     1       2.450  -0.142   0.131  1.00  0.00     0.251 C 
ATOM     11  H   UNL     1       2.708   1.841   0.151  1.00  0.00     0.163 HD
BRANCH  10  12
ATOM     12  C   UNL     1       3.095  -1.460   0.301  1.00  0.00     0.039 A 
ATOM     13  C   UNL     1       4.150  -1.611   1.198  1.00  0.00     0.014 A 
ATOM     14  C   UNL     1       2.652  -2.556  -0.445  1.00  0.00     0.014 A 
ATOM     15  C   UNL     1       4.901  -2.773   1.187  1.00  0.00     0.010 A 
ATOM     16  C   UNL     1       3.320  -3.780  -0.340  1.00  0.00     0.010 A 
ATOM     17  C   UNL     1       4.474  -3.887   0.450  1.00  0.00    -0.014 A 
BRANCH  17  18
ATOM     18  C   UNL     1       5.211  -5.165   0.614  1.00  0.00     0.031 A 
ATOM     19  C   UNL     1       5.889  -5.836  -0.547  1.00  0.00     0.074 A 
ATOM     20  C   UNL     1       5.301  -5.686   1.855  1.00  0.00     0.049 A 
ATOM     21  N   UNL     1       6.589  -6.941  -0.557  1.00  0.00    -0.248 NA
ATOM     22  C   UNL     1       5.762  -5.197  -1.865  1.00  0.00     0.031 C 
ATOM     23  C   UNL     1       4.670  -5.120   3.053  1.00  0.00     0.029 A 
ATOM     24  N   UNL     1       5.975  -6.781   2.328  1.00  0.00    -0.354 N 
ATOM     25  C   UNL     1       6.964  -7.146  -1.880  1.00  0.00     0.074 A 
ATOM     26  C   UNL     1       6.397  -6.059  -2.649  1.00  0.00     0.031 C 
ATOM     27  C   UNL     1       5.041  -5.828   4.127  1.00  0.00     0.029 A 
ATOM     28  C   UNL     1       5.859  -6.950   3.687  1.00  0.00     0.049 A 
ATOM     29  H   UNL     1       6.492  -7.388   1.750  1.00  0.00     0.167 HD
ATOM     30  C   UNL     1       7.716  -8.147  -2.397  1.00  0.00     0.037 A 
ATOM     31  C   UNL     1       6.333  -7.915   4.494  1.00  0.00     0.037 A 
ATOM     32  C   UNL     1       8.288  -9.213  -1.611  1.00  0.00     0.049 A 
ATOM     33  C   UNL     1       7.146  -9.021   3.890  1.00  0.00     0.074 A 
ATOM     34  C   UNL     1       9.088 -10.260  -2.035  1.00  0.00     0.029 A 
ATOM     35  N   UNL     1       8.118  -9.371  -0.242  1.00  0.00    -0.354 N 
ATOM     36  N   UNL     1       7.503  -9.187   2.639  1.00  0.00    -0.248 NA
ATOM     37  C   UNL     1       7.610 -10.073   4.800  1.00  0.00     0.031 C 
ATOM     38  C   UNL     1       9.364 -11.075  -0.931  1.00  0.00     0.029 A 
ATOM     39  C   UNL     1       8.780 -10.509   0.190  1.00  0.00     0.049 A 
ATOM     40  H   UNL     1       7.603  -8.763   0.336  1.00  0.00     0.167 HD
ATOM     41  C   UNL     1       8.246 -10.359   2.612  1.00  0.00     0.074 A 
ATOM     42  C   UNL     1       8.305 -10.847   3.976  1.00  0.00     0.031 C 
ATOM     43  C   UNL     1       8.823 -10.979   1.553  1.00  0.00     0.037 A 
BRANCH  30  44
ATOM     44  C   UNL     1       7.950  -8.157  -3.884  1.00  0.00     0.058 A 
ATOM     45  C   UNL     1       8.800  -7.231  -4.508  1.00  0.00     0.135 A 
ATOM     46  C   UNL     1       7.352  -9.141  -4.691  1.00  0.00     0.135 A 
ATOM     47  F   UNL     1       9.386  -6.260  -3.790  1.00  0.00    -0.206 F 
ATOM     48  C   UNL     1       9.034  -7.266  -5.880  1.00  0.00     0.059 A 
ATOM     49  C   UNL     1       7.591  -9.210  -6.061  1.00  0.00     0.059 A 
ATOM     50  F   UNL     1       6.529 -10.052  -4.147  1.00  0.00    -0.206 F 
ATOM     51  C   UNL     1       8.424  -8.260  -6.649  1.00  0.00     0.060 A 
BRANCH  51  52
ATOM     52  S   UNL     1       8.742  -8.294  -8.426  1.00  0.00     0.124 S 
ATOM     53  O   UNL     1       7.976  -7.138  -8.880  1.00  0.00    -0.237 OA
ATOM     54  O   UNL     1      10.194  -8.155  -8.486  1.00  0.00    -0.237 OA
ATOM     55  O   UNL     1       8.222  -9.593  -8.840  1.00  0.00    -0.744 OA
ENDBRANCH  51  52
ENDBRANCH  30  44
BRANCH  31  56
ATOM     56  C   UNL     1       6.024  -7.879   5.947  1.00  0.00     0.058 A 
ATOM     57  C   UNL     1       7.024  -7.623   6.895  1.00  0.00     0.135 A 
ATOM     58  C   UNL     1       4.711  -8.059   6.412  1.00  0.00     0.135 A 
ATOM     59  F   UNL     1       8.294  -7.444   6.500  1.00  0.00    -0.206 F 
ATOM     60  C   UNL     1       6.738  -7.560   8.255  1.00  0.00     0.059 A 
ATOM     61  C   UNL     1       4.395  -7.970   7.762  1.00  0.00     0.059 A 
ATOM     62  F   UNL     1       3.714  -8.284   5.542  1.00  0.00    -0.206 F 
ATOM     63  C   UNL     1       5.418  -7.732   8.678  1.00  0.00     0.060 A 
BRANCH  63  64
ATOM     64  S   UNL     1       5.046  -7.597  10.439  1.00  0.00     0.124 S 
ATOM     65  O   UNL     1       5.569  -8.861  10.944  1.00  0.00    -0.237 OA
ATOM     66  O   UNL     1       5.788  -6.399  10.819  1.00  0.00    -0.237 OA
ATOM     67  O   UNL     1       3.593  -7.459  10.464  1.00  0.00    -0.744 OA
ENDBRANCH  63  64
ENDBRANCH  31  56
BRANCH  43  68
ATOM     68  C   UNL     1       9.588 -12.239   1.839  1.00  0.00     0.058 A 
ATOM     69  C   UNL     1       8.935 -13.440   2.158  1.00  0.00     0.135 A 
ATOM     70  C   UNL     1      10.990 -12.252   1.763  1.00  0.00     0.135 A 
ATOM     71  F   UNL     1       7.596 -13.477   2.254  1.00  0.00    -0.206 F 
ATOM     72  C   UNL     1       9.647 -14.605   2.418  1.00  0.00     0.059 A 
ATOM     73  C   UNL     1      11.721 -13.412   1.992  1.00  0.00     0.059 A 
ATOM     74  F   UNL     1      11.661 -11.131   1.454  1.00  0.00    -0.206 F 
ATOM     75  C   UNL     1      11.041 -14.581   2.332  1.00  0.00     0.060 A 
BRANCH  75  76
ATOM     76  S   UNL     1      11.953 -16.106   2.647  1.00  0.00     0.124 S 
ATOM     77  O   UNL     1      11.855 -16.213   4.098  1.00  0.00    -0.237 OA
ATOM     78  O   UNL     1      11.190 -17.090   1.885  1.00  0.00    -0.237 OA
ATOM     79  O   UNL     1      13.287 -15.817   2.127  1.00  0.00    -0.744 OA
ENDBRANCH  75  76
ENDBRANCH  43  68
ENDBRANCH  17  18
ENDBRANCH  10  12
ENDBRANCH   7   8
ENDBRANCH   6   7
ENDBRANCH   5   6
ENDBRANCH   1   5
BRANCH   2  80
ATOM     80  C   UNL     1       6.130   5.477  -2.336  1.00  0.00     0.131 A 
ATOM     81  N   UNL     1       7.398   5.822  -2.714  1.00  0.00    -0.272 N 
ATOM     82  C   UNL     1       5.362   5.521  -3.492  1.00  0.00     0.057 A 
ATOM     83  N   UNL     1       7.565   5.863  -4.045  1.00  0.00    -0.183 NA
ATOM     84  H   UNL     1       8.118   6.020  -2.073  1.00  0.00     0.190 HD
ATOM     85  C   UNL     1       6.338   5.637  -4.513  1.00  0.00     0.145 A 
BRANCH  82  86
ATOM     86  C   UNL     1       3.876   5.340  -3.636  1.00  0.00     0.303 C 
BRANCH  86  87
ATOM     87  N   UNL     1       3.140   6.535  -4.069  1.00  0.00    -0.330 N 
ATOM     88  C   UNL     1       3.202   7.634  -3.098  1.00  0.00     0.262 C 
ATOM     89  C   UNL     1       3.530   6.969  -5.407  1.00  0.00     0.274 C 
ATOM     90  H   UNL     1       2.161   6.255  -4.117  1.00  0.00     0.348 HD
ATOM     91  C   UNL     1       2.321   8.803  -3.552  1.00  0.00     0.062 C 
ATOM     92  C   UNL     1       2.671   8.105  -5.946  1.00  0.00     0.116 C 
ATOM     93  C   UNL     1       2.682   9.279  -4.962  1.00  0.00     0.023 C 
BRANCH  92  94
ATOM     94  C   UNL     1       3.077   8.538  -7.361  1.00  0.00     0.171 C 
ATOM     95  O   UNL     1       2.249   8.627  -8.267  1.00  0.00    -0.294 OA
BRANCH  94  96
ATOM     96  C   UNL     1       4.466   8.989  -7.649  1.00  0.00     0.018 A 
ATOM     97  C   UNL     1       4.654  10.271  -8.167  1.00  0.00     0.015 A 
ATOM     98  C   UNL     1       5.577   8.172  -7.440  1.00  0.00     0.015 A 
ATOM     99  C   UNL     1       5.949  10.744  -8.407  1.00  0.00     0.048 A 
ATOM    100  C   UNL     1       6.871   8.669  -7.607  1.00  0.00     0.048 A 
ATOM    101  C   UNL     1       7.067   9.953  -8.113  1.00  0.00     0.127 A 
BRANCH 101 102
ATOM    102  O   UNL     1       8.286  10.548  -8.361  1.00  0.00    -0.457 OA
BRANCH 102 103
ATOM    103  C   UNL     1       9.447   9.855  -8.113  1.00  0.00     0.127 A 
ATOM    104  C   UNL     1      10.354  10.427  -7.220  1.00  0.00     0.047 A 
ATOM    105  C   UNL     1       9.775   8.675  -8.784  1.00  0.00     0.047 A 
ATOM    106  C   UNL     1      11.563   9.786  -6.950  1.00  0.00     0.004 A 
ATOM    107  C   UNL     1      10.973   8.021  -8.493  1.00  0.00     0.004 A 
ATOM    108  C   UNL     1      11.866   8.576  -7.575  1.00  0.00     0.000 A 
ENDBRANCH 102 103
ENDBRANCH 101 102
ENDBRANCH  94  96
ENDBRANCH  92  94
ENDBRANCH  86  87
ENDBRANCH  82  86
ENDBRANCH   2  80
TORSDOF 19
