REMARK SMILES Cc1cc(C(=O)NC2CC2)sc1/C=C/C(=O)NCCCNC(=O)c1ccc(-c2c3nc(c(-c4c(F)cc(S(=O)(=O)[O-])cc4F)c4ccc([nH]4)c(-c4c(F)cc(S(=O)(=O)[O-])cc4F)c4nc(c(-c5c(F)cc(S(=O)(=O)[O-])cc5F)c5ccc2[nH]5)C=C4)C=C3)cc1
REMARK SMILES IDX 19 1 18 2 17 3 15 4 16 5 14 7 13 8 12 9 1 10 2 11 3 12 4 13
REMARK SMILES IDX 11 14 5 15 6 16 7 17 8 19 9 20 10 21 20 22 21 23 22 24 23 26
REMARK SMILES IDX 24 27 25 28 89 29 26 30 88 31 27 32 28 33 29 34 82 35 30 36
REMARK SMILES IDX 87 37 81 38 83 39 31 40 86 41 80 42 79 43 32 45 66 46 45 47
REMARK SMILES IDX 65 48 46 49 49 50 64 51 84 52 47 53 48 54 63 56 85 57 50 58
REMARK SMILES IDX 33 59 34 60 43 61 35 62 36 63 42 64 44 65 37 66 38 67 39 68
REMARK SMILES IDX 40 69 41 70 67 71 68 72 77 73 69 74 70 75 76 76 78 77 71 78
REMARK SMILES IDX 72 79 73 80 74 81 75 82 51 83 52 84 61 85 53 86 54 87 60 88
REMARK SMILES IDX 62 89 55 90 56 91 57 92 58 93 59 94
REMARK H PARENT 17 6 7 18 21 25 83 44 49 55
REMARK Flexibility Score: inf
ROOT
ATOM      1  C   UNL     1       3.213  -4.720   0.639  1.00  0.00     0.042 C 
ENDROOT
BRANCH   1   2
ATOM      2  C   UNL     1       2.287  -4.809  -0.571  1.00  0.00     0.118 C 
BRANCH   2   3
ATOM      3  N   UNL     1       0.999  -5.365  -0.199  1.00  0.00    -0.352 N 
ATOM      4  C   UNL     1      -0.211  -4.763  -0.064  1.00  0.00     0.244 C 
ATOM      5  O   UNL     1      -1.207  -5.439   0.185  1.00  0.00    -0.270 OA
ATOM      6  H   UNL     1       1.003  -6.332  -0.016  1.00  0.00     0.163 HD
BRANCH   4   7
ATOM      7  C   UNL     1      -0.362  -3.318  -0.324  1.00  0.00     0.072 C 
ATOM      8  C   UNL     1       0.441  -2.368   0.179  1.00  0.00     0.025 C 
BRANCH   8   9
ATOM      9  C   UNL     1       0.262  -0.971  -0.052  1.00  0.00     0.031 A 
ATOM     10  C   UNL     1       2.656  -0.072   0.299  1.00  0.00     0.046 C 
ATOM     11  C   UNL     1       1.181   0.064   0.087  1.00  0.00    -0.032 A 
ATOM     12  C   UNL     1       0.514   1.338   0.051  1.00  0.00     0.029 A 
ATOM     13  C   UNL     1      -0.853   1.250  -0.174  1.00  0.00     0.093 A 
ATOM     14  S   UNL     1      -1.225  -0.332  -0.618  1.00  0.00    -0.130 S 
BRANCH  13  15
ATOM     15  C   UNL     1      -1.771   2.373  -0.197  1.00  0.00     0.261 C 
ATOM     16  O   UNL     1      -1.331   3.531  -0.251  1.00  0.00    -0.268 OA
ATOM     17  N   UNL     1      -3.149   2.329  -0.145  1.00  0.00    -0.349 N 
ATOM     18  H   UNL     1      -3.505   3.240  -0.258  1.00  0.00     0.164 HD
BRANCH  17  19
ATOM     19  C   UNL     1      -4.234   1.419   0.018  1.00  0.00     0.082 C 
ATOM     20  C   UNL     1      -4.559   0.419  -1.058  1.00  0.00     0.027 C 
ATOM     21  C   UNL     1      -4.317  -0.031   0.358  1.00  0.00     0.027 C 
ENDBRANCH  17  19
ENDBRANCH  13  15
ENDBRANCH   8   9
ENDBRANCH   4   7
ENDBRANCH   2   3
ENDBRANCH   1   2
BRANCH   1  22
ATOM     22  C   UNL     1       3.779  -6.075   1.048  1.00  0.00     0.118 C 
BRANCH  22  23
ATOM     23  N   UNL     1       4.693  -6.597   0.043  1.00  0.00    -0.352 N 
ATOM     24  C   UNL     1       6.022  -6.918   0.146  1.00  0.00     0.251 C 
ATOM     25  H   UNL     1       4.297  -6.741  -0.847  1.00  0.00     0.163 HD
ATOM     26  O   UNL     1       6.680  -7.085  -0.877  1.00  0.00    -0.269 OA
BRANCH  24  27
ATOM     27  C   UNL     1       6.658  -7.059   1.473  1.00  0.00     0.039 A 
ATOM     28  C   UNL     1       7.965  -6.596   1.646  1.00  0.00     0.014 A 
ATOM     29  C   UNL     1       5.992  -7.691   2.528  1.00  0.00     0.014 A 
ATOM     30  C   UNL     1       8.587  -6.728   2.889  1.00  0.00     0.010 A 
ATOM     31  C   UNL     1       6.586  -7.754   3.785  1.00  0.00     0.010 A 
ATOM     32  C   UNL     1       7.894  -7.286   3.975  1.00  0.00    -0.014 A 
BRANCH  32  33
ATOM     33  C   UNL     1       8.525  -7.401   5.312  1.00  0.00     0.031 A 
ATOM     34  C   UNL     1       8.780  -8.757   5.913  1.00  0.00     0.074 A 
ATOM     35  C   UNL     1       8.813  -6.283   6.008  1.00  0.00     0.049 A 
ATOM     36  N   UNL     1       9.256  -9.061   7.093  1.00  0.00    -0.248 NA
ATOM     37  C   UNL     1       8.428  -9.925   5.090  1.00  0.00     0.031 C 
ATOM     38  C   UNL     1       8.564  -4.915   5.548  1.00  0.00     0.029 A 
ATOM     39  N   UNL     1       9.366  -6.120   7.252  1.00  0.00    -0.354 N 
ATOM     40  C   UNL     1       9.247 -10.449   7.159  1.00  0.00     0.074 A 
ATOM     41  C   UNL     1       8.669 -10.928   5.922  1.00  0.00     0.031 C 
ATOM     42  C   UNL     1       8.981  -4.053   6.489  1.00  0.00     0.029 A 
ATOM     43  C   UNL     1       9.492  -4.804   7.631  1.00  0.00     0.049 A 
ATOM     44  H   UNL     1       9.646  -6.873   7.820  1.00  0.00     0.167 HD
ATOM     45  C   UNL     1       9.701 -11.253   8.151  1.00  0.00     0.037 A 
ATOM     46  C   UNL     1       9.960  -4.265   8.773  1.00  0.00     0.037 A 
ATOM     47  C   UNL     1      10.299 -10.767   9.368  1.00  0.00     0.049 A 
ATOM     48  C   UNL     1      10.469  -5.176   9.855  1.00  0.00     0.074 A 
ATOM     49  C   UNL     1      10.839 -11.496  10.412  1.00  0.00     0.029 A 
ATOM     50  N   UNL     1      10.437  -9.427   9.702  1.00  0.00    -0.354 N 
ATOM     51  N   UNL     1      10.505  -6.487   9.878  1.00  0.00    -0.248 NA
ATOM     52  C   UNL     1      11.010  -4.537  11.062  1.00  0.00     0.031 C 
ATOM     53  C   UNL     1      11.269 -10.598  11.396  1.00  0.00     0.029 A 
ATOM     54  C   UNL     1      11.040  -9.308  10.944  1.00  0.00     0.049 A 
ATOM     55  H   UNL     1      10.148  -8.672   9.140  1.00  0.00     0.167 HD
ATOM     56  C   UNL     1      11.094  -6.830  11.090  1.00  0.00     0.074 A 
ATOM     57  C   UNL     1      11.410  -5.588  11.765  1.00  0.00     0.031 C 
ATOM     58  C   UNL     1      11.350  -8.061  11.598  1.00  0.00     0.037 A 
BRANCH  45  59
ATOM     59  C   UNL     1       9.575 -12.739   7.957  1.00  0.00     0.058 A 
ATOM     60  C   UNL     1      10.356 -13.428   7.014  1.00  0.00     0.135 A 
ATOM     61  C   UNL     1       8.684 -13.491   8.740  1.00  0.00     0.135 A 
ATOM     62  F   UNL     1      11.213 -12.758   6.227  1.00  0.00    -0.206 F 
ATOM     63  C   UNL     1      10.236 -14.802   6.833  1.00  0.00     0.059 A 
ATOM     64  C   UNL     1       8.568 -14.871   8.595  1.00  0.00     0.059 A 
ATOM     65  F   UNL     1       7.913 -12.886   9.657  1.00  0.00    -0.206 F 
ATOM     66  C   UNL     1       9.338 -15.515   7.627  1.00  0.00     0.060 A 
BRANCH  66  67
ATOM     67  S   UNL     1       9.195 -17.297   7.380  1.00  0.00     0.124 S 
ATOM     68  O   UNL     1       8.463 -17.357   6.118  1.00  0.00    -0.237 OA
ATOM     69  O   UNL     1      10.591 -17.718   7.322  1.00  0.00    -0.237 OA
ATOM     70  O   UNL     1       8.456 -17.746   8.556  1.00  0.00    -0.744 OA
ENDBRANCH  66  67
ENDBRANCH  45  59
BRANCH  46  71
ATOM     71  C   UNL     1       9.990  -2.788   8.934  1.00  0.00     0.058 A 
ATOM     72  C   UNL     1      11.204  -2.085   8.912  1.00  0.00     0.135 A 
ATOM     73  C   UNL     1       8.807  -2.046   9.084  1.00  0.00     0.135 A 
ATOM     74  F   UNL     1      12.361  -2.750   8.775  1.00  0.00    -0.206 F 
ATOM     75  C   UNL     1      11.247  -0.701   9.046  1.00  0.00     0.059 A 
ATOM     76  C   UNL     1       8.823  -0.660   9.195  1.00  0.00     0.059 A 
ATOM     77  F   UNL     1       7.619  -2.670   9.091  1.00  0.00    -0.206 F 
ATOM     78  C   UNL     1      10.050   0.003   9.184  1.00  0.00     0.060 A 
BRANCH  78  79
ATOM     79  S   UNL     1      10.113   1.805   9.298  1.00  0.00     0.124 S 
ATOM     80  O   UNL     1      10.613   1.996  10.654  1.00  0.00    -0.237 OA
ATOM     81  O   UNL     1      11.037   2.148   8.221  1.00  0.00    -0.237 OA
ATOM     82  O   UNL     1       8.726   2.203   9.072  1.00  0.00    -0.744 OA
ENDBRANCH  78  79
ENDBRANCH  46  71
BRANCH  58  83
ATOM     83  C   UNL     1      12.033  -8.126  12.935  1.00  0.00     0.058 A 
ATOM     84  C   UNL     1      11.356  -7.815  14.124  1.00  0.00     0.135 A 
ATOM     85  C   UNL     1      13.368  -8.552  13.031  1.00  0.00     0.135 A 
ATOM     86  F   UNL     1      10.081  -7.397  14.087  1.00  0.00    -0.206 F 
ATOM     87  C   UNL     1      11.986  -7.900  15.361  1.00  0.00     0.059 A 
ATOM     88  C   UNL     1      14.009  -8.670  14.259  1.00  0.00     0.059 A 
ATOM     89  F   UNL     1      14.057  -8.871  11.924  1.00  0.00    -0.206 F 
ATOM     90  C   UNL     1      13.313  -8.330  15.419  1.00  0.00     0.060 A 
BRANCH  90  91
ATOM     91  S   UNL     1      14.111  -8.466  17.032  1.00  0.00     0.124 S 
ATOM     92  O   UNL     1      14.356  -7.065  17.357  1.00  0.00    -0.237 OA
ATOM     93  O   UNL     1      13.088  -9.133  17.832  1.00  0.00    -0.237 OA
ATOM     94  O   UNL     1      15.301  -9.265  16.757  1.00  0.00    -0.744 OA
ENDBRANCH  90  91
ENDBRANCH  58  83
ENDBRANCH  32  33
ENDBRANCH  24  27
ENDBRANCH  22  23
ENDBRANCH   1  22
TORSDOF 16
