REMARK SMILES NC(=O)c1cc(NC(=O)/C=C\C(=O)NCCCNC(=O)c2ccc(-c3c4nc(c(-c5c(F)cc(S(=O)(=O)[O-])cc5F)c5ccc([nH]5)c(-c5c(F)cc(S(=O)(=O)[O-])cc5F)c5nc(c(-c6c(F)cc(S(=O)(=O)[O-])cc6F)c6ccc3[nH]6)C=C5)C=C4)cc2)ccc1N1CCOCC1
REMARK SMILES IDX 16 1 15 2 14 3 12 4 13 5 11 7 10 8 8 9 7 10 9 12 6 13 4 14
REMARK SMILES IDX 5 15 89 16 88 17 87 18 2 19 1 20 3 23 90 24 91 25 95 26
REMARK SMILES IDX 92 27 94 28 93 29 17 30 18 31 19 32 20 34 21 35 22 36 86 37
REMARK SMILES IDX 23 38 85 39 24 40 25 41 26 42 79 43 27 44 84 45 78 46 80 47
REMARK SMILES IDX 28 48 83 49 77 50 76 51 29 53 63 54 42 55 62 56 43 57 46 58
REMARK SMILES IDX 61 59 81 60 44 61 45 62 60 64 82 65 47 66 30 67 31 68 40 69
REMARK SMILES IDX 32 70 33 71 39 72 41 73 34 74 35 75 36 76 37 77 38 78 64 79
REMARK SMILES IDX 65 80 74 81 66 82 67 83 73 84 75 85 68 86 69 87 70 88 71 89
REMARK SMILES IDX 72 90 48 91 49 92 58 93 50 94 51 95 57 96 59 97 52 98 53 99
REMARK SMILES IDX 54 100 55 101 56 102
REMARK H PARENT 14 6 7 11 1 21 1 22 18 33 80 52 46 63
REMARK Flexibility Score: inf
ROOT
ATOM      1  C   UNL     1       0.955   5.653  -5.573  1.00  0.00     0.042 C 
ENDROOT
BRANCH   1   2
ATOM      2  C   UNL     1      -0.097   4.552  -5.633  1.00  0.00     0.118 C 
BRANCH   2   3
ATOM      3  N   UNL     1       0.130   3.390  -4.798  1.00  0.00    -0.352 N 
ATOM      4  C   UNL     1      -0.637   2.982  -3.755  1.00  0.00     0.244 C 
ATOM      5  O   UNL     1      -0.907   1.791  -3.622  1.00  0.00    -0.270 OA
ATOM      6  H   UNL     1       0.920   2.842  -5.009  1.00  0.00     0.163 HD
BRANCH   4   7
ATOM      7  C   UNL     1      -1.168   3.948  -2.774  1.00  0.00     0.077 C 
ATOM      8  C   UNL     1      -0.493   4.858  -2.056  1.00  0.00     0.077 C 
BRANCH   8   9
ATOM      9  C   UNL     1       0.919   5.302  -2.127  1.00  0.00     0.248 C 
ATOM     10  N   UNL     1       1.966   4.465  -2.348  1.00  0.00    -0.322 N 
ATOM     11  H   UNL     1       2.790   4.919  -2.639  1.00  0.00     0.170 HD
ATOM     12  O   UNL     1       1.133   6.512  -2.034  1.00  0.00    -0.270 OA
BRANCH  10  13
ATOM     13  C   UNL     1       2.088   3.076  -2.237  1.00  0.00     0.042 A 
ATOM     14  C   UNL     1       1.411   0.915  -1.377  1.00  0.00     0.064 A 
ATOM     15  C   UNL     1       1.302   2.316  -1.382  1.00  0.00     0.042 A 
ATOM     16  C   UNL     1       2.343   0.245  -2.190  1.00  0.00     0.050 A 
ATOM     17  C   UNL     1       3.147   1.049  -3.017  1.00  0.00     0.029 A 
ATOM     18  C   UNL     1       3.046   2.441  -3.023  1.00  0.00     0.028 A 
BRANCH  14  19
ATOM     19  C   UNL     1       0.538   0.241  -0.402  1.00  0.00     0.250 C 
ATOM     20  N   UNL     1       0.926   0.363   0.902  1.00  0.00    -0.366 N 
ATOM     21  H   UNL     1       0.395  -0.059   1.616  1.00  0.00     0.159 HD
ATOM     22  H   UNL     1       1.737   0.874   1.129  1.00  0.00     0.159 HD
ATOM     23  O   UNL     1      -0.486  -0.350  -0.718  1.00  0.00    -0.269 OA
ENDBRANCH  14  19
BRANCH  16  24
ATOM     24  N   UNL     1       2.608  -1.111  -2.192  1.00  0.00    -0.366 N 
ATOM     25  C   UNL     1       1.570  -2.149  -2.241  1.00  0.00     0.145 C 
ATOM     26  C   UNL     1       3.885  -1.548  -1.612  1.00  0.00     0.145 C 
ATOM     27  C   UNL     1       1.457  -2.903  -0.901  1.00  0.00     0.181 C 
ATOM     28  C   UNL     1       3.613  -2.182  -0.243  1.00  0.00     0.181 C 
ATOM     29  O   UNL     1       2.737  -3.315  -0.379  1.00  0.00    -0.378 OA
ENDBRANCH  16  24
ENDBRANCH  10  13
ENDBRANCH   8   9
ENDBRANCH   4   7
ENDBRANCH   2   3
ENDBRANCH   1   2
BRANCH   1  30
ATOM     30  C   UNL     1       2.409   5.229  -5.762  1.00  0.00     0.118 C 
BRANCH  30  31
ATOM     31  N   UNL     1       2.680   4.662  -7.069  1.00  0.00    -0.352 N 
ATOM     32  C   UNL     1       3.604   5.054  -8.006  1.00  0.00     0.251 C 
ATOM     33  H   UNL     1       2.125   3.888  -7.318  1.00  0.00     0.163 HD
ATOM     34  O   UNL     1       3.585   4.556  -9.127  1.00  0.00    -0.269 OA
BRANCH  32  35
ATOM     35  C   UNL     1       4.617   6.078  -7.672  1.00  0.00     0.039 A 
ATOM     36  C   UNL     1       4.738   7.199  -8.496  1.00  0.00     0.014 A 
ATOM     37  C   UNL     1       5.484   5.906  -6.588  1.00  0.00     0.014 A 
ATOM     38  C   UNL     1       5.711   8.164  -8.220  1.00  0.00     0.010 A 
ATOM     39  C   UNL     1       6.431   6.892  -6.292  1.00  0.00     0.010 A 
ATOM     40  C   UNL     1       6.561   8.028  -7.109  1.00  0.00    -0.014 A 
BRANCH  40  41
ATOM     41  C   UNL     1       7.582   9.069  -6.803  1.00  0.00     0.031 A 
ATOM     42  C   UNL     1       9.052   8.762  -6.911  1.00  0.00     0.074 A 
ATOM     43  C   UNL     1       7.188  10.292  -6.395  1.00  0.00     0.049 A 
ATOM     44  N   UNL     1      10.080   9.538  -6.675  1.00  0.00    -0.248 NA
ATOM     45  C   UNL     1       9.414   7.397  -7.321  1.00  0.00     0.031 C 
ATOM     46  C   UNL     1       5.798  10.709  -6.213  1.00  0.00     0.029 A 
ATOM     47  N   UNL     1       7.918  11.404  -6.051  1.00  0.00    -0.354 N 
ATOM     48  C   UNL     1      11.209   8.758  -6.898  1.00  0.00     0.074 A 
ATOM     49  C   UNL     1      10.736   7.432  -7.239  1.00  0.00     0.031 C 
ATOM     50  C   UNL     1       5.774  11.987  -5.802  1.00  0.00     0.029 A 
ATOM     51  C   UNL     1       7.145  12.470  -5.656  1.00  0.00     0.049 A 
ATOM     52  H   UNL     1       8.901  11.434  -6.084  1.00  0.00     0.167 HD
ATOM     53  C   UNL     1      12.516   9.115  -6.841  1.00  0.00     0.037 A 
ATOM     54  C   UNL     1       7.493  13.695  -5.212  1.00  0.00     0.037 A 
ATOM     55  C   UNL     1      12.981  10.437  -6.500  1.00  0.00     0.049 A 
ATOM     56  C   UNL     1       8.948  14.069  -5.137  1.00  0.00     0.074 A 
ATOM     57  C   UNL     1      14.281  10.911  -6.469  1.00  0.00     0.029 A 
ATOM     58  N   UNL     1      12.166  11.491  -6.109  1.00  0.00    -0.354 N 
ATOM     59  N   UNL     1      10.001  13.341  -5.424  1.00  0.00    -0.248 NA
ATOM     60  C   UNL     1       9.264  15.431  -4.688  1.00  0.00     0.031 C 
ATOM     61  C   UNL     1      14.258  12.228  -5.999  1.00  0.00     0.029 A 
ATOM     62  C   UNL     1      12.938  12.602  -5.803  1.00  0.00     0.049 A 
ATOM     63  H   UNL     1      11.183  11.455  -6.058  1.00  0.00     0.167 HD
ATOM     64  C   UNL     1      11.103  14.163  -5.213  1.00  0.00     0.074 A 
ATOM     65  C   UNL     1      10.587  15.447  -4.784  1.00  0.00     0.031 C 
ATOM     66  C   UNL     1      12.421  13.879  -5.368  1.00  0.00     0.037 A 
BRANCH  53  67
ATOM     67  C   UNL     1      13.540   8.046  -7.132  1.00  0.00     0.058 A 
ATOM     68  C   UNL     1      13.682   7.478  -8.410  1.00  0.00     0.135 A 
ATOM     69  C   UNL     1      14.396   7.583  -6.118  1.00  0.00     0.135 A 
ATOM     70  F   UNL     1      12.890   7.877  -9.419  1.00  0.00    -0.206 F 
ATOM     71  C   UNL     1      14.589   6.452  -8.656  1.00  0.00     0.059 A 
ATOM     72  C   UNL     1      15.335   6.582  -6.351  1.00  0.00     0.059 A 
ATOM     73  F   UNL     1      14.316   8.095  -4.880  1.00  0.00    -0.206 F 
ATOM     74  C   UNL     1      15.405   6.004  -7.616  1.00  0.00     0.060 A 
BRANCH  74  75
ATOM     75  S   UNL     1      16.541   4.638  -7.938  1.00  0.00     0.124 S 
ATOM     76  O   UNL     1      15.618   3.512  -8.040  1.00  0.00    -0.237 OA
ATOM     77  O   UNL     1      17.178   5.049  -9.185  1.00  0.00    -0.237 OA
ATOM     78  O   UNL     1      17.409   4.633  -6.765  1.00  0.00    -0.744 OA
ENDBRANCH  74  75
ENDBRANCH  53  67
BRANCH  54  79
ATOM     79  C   UNL     1       6.427  14.655  -4.820  1.00  0.00     0.058 A 
ATOM     80  C   UNL     1       6.127  15.772  -5.612  1.00  0.00     0.135 A 
ATOM     81  C   UNL     1       5.643  14.436  -3.676  1.00  0.00     0.135 A 
ATOM     82  F   UNL     1       6.855  16.032  -6.709  1.00  0.00    -0.206 F 
ATOM     83  C   UNL     1       5.082  16.633  -5.291  1.00  0.00     0.059 A 
ATOM     84  C   UNL     1       4.576  15.267  -3.348  1.00  0.00     0.059 A 
ATOM     85  F   UNL     1       5.883  13.374  -2.890  1.00  0.00    -0.206 F 
ATOM     86  C   UNL     1       4.303  16.363  -4.164  1.00  0.00     0.060 A 
BRANCH  86  87
ATOM     87  S   UNL     1       2.887  17.430  -3.816  1.00  0.00     0.124 S 
ATOM     88  O   UNL     1       3.542  18.663  -3.395  1.00  0.00    -0.237 OA
ATOM     89  O   UNL     1       2.215  17.474  -5.111  1.00  0.00    -0.237 OA
ATOM     90  O   UNL     1       2.170  16.707  -2.770  1.00  0.00    -0.744 OA
ENDBRANCH  86  87
ENDBRANCH  54  79
BRANCH  66  91
ATOM     91  C   UNL     1      13.412  14.982  -5.101  1.00  0.00     0.058 A 
ATOM     92  C   UNL     1      13.676  15.445  -3.802  1.00  0.00     0.135 A 
ATOM     93  C   UNL     1      14.154  15.540  -6.155  1.00  0.00     0.135 A 
ATOM     94  F   UNL     1      12.992  14.954  -2.756  1.00  0.00    -0.206 F 
ATOM     95  C   UNL     1      14.626  16.434  -3.561  1.00  0.00     0.059 A 
ATOM     96  C   UNL     1      15.130  16.507  -5.934  1.00  0.00     0.059 A 
ATOM     97  F   UNL     1      13.949  15.130  -7.417  1.00  0.00    -0.206 F 
ATOM     98  C   UNL     1      15.352  16.956  -4.633  1.00  0.00     0.060 A 
BRANCH  98  99
ATOM     99  S   UNL     1      16.610  18.207  -4.301  1.00  0.00     0.124 S 
ATOM    100  O   UNL     1      15.792  19.367  -3.964  1.00  0.00    -0.237 OA
ATOM    101  O   UNL     1      17.354  17.614  -3.194  1.00  0.00    -0.237 OA
ATOM    102  O   UNL     1      17.341  18.299  -5.561  1.00  0.00    -0.744 OA
ENDBRANCH  98  99
ENDBRANCH  66  91
ENDBRANCH  40  41
ENDBRANCH  32  35
ENDBRANCH  30  31
ENDBRANCH   1  30
TORSDOF 17
