REMARK SMILES Cc1ccc(NC(=O)N[C@@H]2C=C[C@@H](C(=O)NCCCNC(=O)c3ccc(-c4c5nc(c(-c6c(F)cc(S(=O)(=O)[O-])cc6F)c6ccc([nH]6)c(-c6c(F)cc(S(=O)(=O)[O-])cc6F)c6nc(c(-c7c(F)cc(S(=O)(=O)[O-])cc7F)c7ccc4[nH]7)C=C6)C=C5)cc3)C2)c(F)c1
REMARK SMILES IDX 18 1 17 2 16 3 14 4 15 5 13 7 10 8 11 9 89 10 12 11 9 12
REMARK SMILES IDX 6 13 7 14 8 16 5 18 1 19 2 20 3 21 92 22 4 23 90 24 91 25
REMARK SMILES IDX 19 26 20 27 21 28 22 30 23 31 24 32 88 33 25 34 87 35 26 36
REMARK SMILES IDX 27 37 28 38 81 39 29 40 86 41 80 42 82 43 30 44 85 45 79 46
REMARK SMILES IDX 78 47 31 49 65 50 44 51 64 52 45 53 48 54 63 55 83 56 46 57
REMARK SMILES IDX 47 58 62 60 84 61 49 62 32 63 33 64 42 65 34 66 35 67 41 68
REMARK SMILES IDX 43 69 36 70 37 71 38 72 39 73 40 74 66 75 67 76 76 77 68 78
REMARK SMILES IDX 69 79 75 80 77 81 70 82 71 83 72 84 73 85 74 86 50 87 51 88
REMARK SMILES IDX 60 89 52 90 53 91 59 92 61 93 54 94 55 95 56 96 57 97 58 98
REMARK H PARENT 16 6 6 15 9 17 20 29 82 48 48 59
REMARK Flexibility Score: inf
ROOT
ATOM      1  C   UNL     1      -3.897  -0.158   3.901  1.00  0.00     0.042 C 
ENDROOT
BRANCH   1   2
ATOM      2  C   UNL     1      -2.904   0.912   3.478  1.00  0.00     0.117 C 
BRANCH   2   3
ATOM      3  N   UNL     1      -1.571   0.668   3.982  1.00  0.00    -0.356 N 
ATOM      4  C   UNL     1      -0.361   0.493   3.403  1.00  0.00     0.227 C 
ATOM      5  O   UNL     1       0.584   0.376   4.197  1.00  0.00    -0.274 OA
ATOM      6  H   UNL     1      -1.536   0.617   4.965  1.00  0.00     0.163 HD
BRANCH   4   7
ATOM      7  C   UNL     1      -0.055   0.530   1.900  1.00  0.00     0.103 C 
ATOM      8  C   UNL     1      -1.573   1.426   0.198  1.00  0.00     0.107 C 
ATOM      9  C   UNL     1      -0.480   2.387   0.524  1.00  0.00    -0.006 C 
ATOM     10  C   UNL     1      -1.063   0.113   0.823  1.00  0.00     0.047 C 
ATOM     11  C   UNL     1       0.322   1.921   1.485  1.00  0.00    -0.016 C 
BRANCH   8  12
ATOM     12  N   UNL     1      -1.843   1.376  -1.219  1.00  0.00    -0.332 N 
ATOM     13  N   UNL     1      -2.751   3.526  -1.707  1.00  0.00    -0.305 N 
ATOM     14  C   UNL     1      -2.359   2.283  -2.082  1.00  0.00     0.319 C 
ATOM     15  H   UNL     1      -2.728   4.195  -2.429  1.00  0.00     0.171 HD
ATOM     16  O   UNL     1      -2.317   2.017  -3.286  1.00  0.00    -0.248 OA
ATOM     17  H   UNL     1      -1.607   0.518  -1.639  1.00  0.00     0.165 HD
BRANCH  13  18
ATOM     18  C   UNL     1      -3.183   4.023  -0.469  1.00  0.00     0.078 A 
ATOM     19  C   UNL     1      -3.499   5.047   3.676  1.00  0.00     0.044 C 
ATOM     20  C   UNL     1      -3.548   4.808   2.196  1.00  0.00    -0.048 A 
ATOM     21  C   UNL     1      -2.759   5.577   1.329  1.00  0.00     0.006 A 
ATOM     22  C   UNL     1      -4.272   3.730   1.676  1.00  0.00     0.045 A 
ATOM     23  C   UNL     1      -2.611   5.212  -0.013  1.00  0.00     0.029 A 
ATOM     24  C   UNL     1      -4.089   3.347   0.350  1.00  0.00     0.147 A 
ATOM     25  F   UNL     1      -4.722   2.251  -0.094  1.00  0.00    -0.205 F 
ENDBRANCH  13  18
ENDBRANCH   8  12
ENDBRANCH   4   7
ENDBRANCH   2   3
ENDBRANCH   1   2
BRANCH   1  26
ATOM     26  C   UNL     1      -4.198  -0.164   5.392  1.00  0.00     0.118 C 
BRANCH  26  27
ATOM     27  N   UNL     1      -4.973   0.993   5.829  1.00  0.00    -0.352 N 
ATOM     28  C   UNL     1      -6.182   1.040   6.485  1.00  0.00     0.251 C 
ATOM     29  H   UNL     1      -4.572   1.868   5.623  1.00  0.00     0.163 HD
ATOM     30  O   UNL     1      -6.743   2.121   6.648  1.00  0.00    -0.269 OA
BRANCH  28  31
ATOM     31  C   UNL     1      -6.816  -0.212   6.959  1.00  0.00     0.039 A 
ATOM     32  C   UNL     1      -8.182  -0.411   6.745  1.00  0.00     0.014 A 
ATOM     33  C   UNL     1      -6.056  -1.204   7.581  1.00  0.00     0.014 A 
ATOM     34  C   UNL     1      -8.762  -1.642   7.070  1.00  0.00     0.010 A 
ATOM     35  C   UNL     1      -6.609  -2.460   7.803  1.00  0.00     0.010 A 
ATOM     36  C   UNL     1      -7.969  -2.695   7.554  1.00  0.00    -0.014 A 
BRANCH  36  37
ATOM     37  C   UNL     1      -8.529  -4.048   7.821  1.00  0.00     0.031 A 
ATOM     38  C   UNL     1      -8.428  -4.640   9.203  1.00  0.00     0.074 A 
ATOM     39  C   UNL     1      -9.036  -4.782   6.809  1.00  0.00     0.049 A 
ATOM     40  N   UNL     1      -8.716  -5.850   9.609  1.00  0.00    -0.248 NA
ATOM     41  C   UNL     1      -7.887  -3.768  10.259  1.00  0.00     0.031 C 
ATOM     42  C   UNL     1      -9.133  -4.353   5.412  1.00  0.00     0.029 A 
ATOM     43  N   UNL     1      -9.551  -6.054   6.798  1.00  0.00    -0.354 N 
ATOM     44  C   UNL     1      -8.354  -5.895  10.951  1.00  0.00     0.074 A 
ATOM     45  C   UNL     1      -7.777  -4.609  11.276  1.00  0.00     0.031 C 
ATOM     46  C   UNL     1      -9.698  -5.332   4.687  1.00  0.00     0.029 A 
ATOM     47  C   UNL     1      -9.969  -6.473   5.556  1.00  0.00     0.049 A 
ATOM     48  H   UNL     1      -9.616  -6.615   7.605  1.00  0.00     0.167 HD
ATOM     49  C   UNL     1      -8.512  -6.904  11.840  1.00  0.00     0.037 A 
ATOM     50  C   UNL     1     -10.505  -7.644   5.161  1.00  0.00     0.037 A 
ATOM     51  C   UNL     1      -9.143  -8.159  11.528  1.00  0.00     0.049 A 
ATOM     52  C   UNL     1     -10.729  -8.729   6.179  1.00  0.00     0.074 A 
ATOM     53  C   UNL     1      -9.416  -9.220  12.374  1.00  0.00     0.029 A 
ATOM     54  N   UNL     1      -9.615  -8.515  10.274  1.00  0.00    -0.354 N 
ATOM     55  N   UNL     1     -10.424  -8.736   7.455  1.00  0.00    -0.248 NA
ATOM     56  C   UNL     1     -11.377  -9.960   5.708  1.00  0.00     0.031 C 
ATOM     57  C   UNL     1     -10.035 -10.227  11.625  1.00  0.00     0.029 A 
ATOM     58  C   UNL     1     -10.178  -9.779  10.321  1.00  0.00     0.049 A 
ATOM     59  H   UNL     1      -9.559  -7.952   9.468  1.00  0.00     0.167 HD
ATOM     60  C   UNL     1     -10.869  -9.958   7.945  1.00  0.00     0.074 A 
ATOM     61  C   UNL     1     -11.471 -10.661   6.830  1.00  0.00     0.031 C 
ATOM     62  C   UNL     1     -10.789 -10.454   9.204  1.00  0.00     0.037 A 
BRANCH  49  63
ATOM     63  C   UNL     1      -8.005  -6.680  13.238  1.00  0.00     0.058 A 
ATOM     64  C   UNL     1      -8.632  -5.777  14.112  1.00  0.00     0.135 A 
ATOM     65  C   UNL     1      -6.884  -7.379  13.714  1.00  0.00     0.135 A 
ATOM     66  F   UNL     1      -9.697  -5.069  13.704  1.00  0.00    -0.206 F 
ATOM     67  C   UNL     1      -8.140  -5.542  15.392  1.00  0.00     0.059 A 
ATOM     68  C   UNL     1      -6.392  -7.181  15.002  1.00  0.00     0.059 A 
ATOM     69  F   UNL     1      -6.247  -8.256  12.922  1.00  0.00    -0.206 F 
ATOM     70  C   UNL     1      -7.016  -6.245  15.826  1.00  0.00     0.060 A 
BRANCH  70  71
ATOM     71  S   UNL     1      -6.380  -5.920  17.483  1.00  0.00     0.124 S 
ATOM     72  O   UNL     1      -5.703  -4.641  17.287  1.00  0.00    -0.237 OA
ATOM     73  O   UNL     1      -7.598  -5.874  18.285  1.00  0.00    -0.237 OA
ATOM     74  O   UNL     1      -5.506  -7.060  17.741  1.00  0.00    -0.744 OA
ENDBRANCH  70  71
ENDBRANCH  49  63
BRANCH  50  75
ATOM     75  C   UNL     1     -10.908  -7.835   3.743  1.00  0.00     0.058 A 
ATOM     76  C   UNL     1     -12.263  -7.845   3.378  1.00  0.00     0.135 A 
ATOM     77  C   UNL     1      -9.956  -7.990   2.724  1.00  0.00     0.135 A 
ATOM     78  F   UNL     1     -13.210  -7.705   4.319  1.00  0.00    -0.206 F 
ATOM     79  C   UNL     1     -12.662  -8.017   2.057  1.00  0.00     0.059 A 
ATOM     80  C   UNL     1     -10.329  -8.142   1.392  1.00  0.00     0.059 A 
ATOM     81  F   UNL     1      -8.646  -7.969   3.018  1.00  0.00    -0.206 F 
ATOM     82  C   UNL     1     -11.686  -8.163   1.070  1.00  0.00     0.060 A 
BRANCH  82  83
ATOM     83  S   UNL     1     -12.213  -8.331  -0.650  1.00  0.00     0.124 S 
ATOM     84  O   UNL     1     -12.692  -9.709  -0.676  1.00  0.00    -0.237 OA
ATOM     85  O   UNL     1     -13.238  -7.297  -0.760  1.00  0.00    -0.237 OA
ATOM     86  O   UNL     1     -10.989  -8.072  -1.401  1.00  0.00    -0.744 OA
ENDBRANCH  82  83
ENDBRANCH  50  75
BRANCH  62  87
ATOM     87  C   UNL     1     -11.406 -11.800   9.457  1.00  0.00     0.058 A 
ATOM     88  C   UNL     1     -10.793 -12.985   9.024  1.00  0.00     0.135 A 
ATOM     89  C   UNL     1     -12.599 -11.904  10.190  1.00  0.00     0.135 A 
ATOM     90  F   UNL     1      -9.654 -12.937   8.316  1.00  0.00    -0.206 F 
ATOM     91  C   UNL     1     -11.354 -14.229   9.291  1.00  0.00     0.059 A 
ATOM     92  C   UNL     1     -13.165 -13.139  10.488  1.00  0.00     0.059 A 
ATOM     93  F   UNL     1     -13.218 -10.799  10.635  1.00  0.00    -0.206 F 
ATOM     94  C   UNL     1     -12.541 -14.296  10.024  1.00  0.00     0.060 A 
BRANCH  94  95
ATOM     95  S   UNL     1     -13.242 -15.917  10.396  1.00  0.00     0.124 S 
ATOM     96  O   UNL     1     -13.846 -16.276   9.117  1.00  0.00    -0.237 OA
ATOM     97  O   UNL     1     -12.065 -16.689  10.780  1.00  0.00    -0.237 OA
ATOM     98  O   UNL     1     -14.182 -15.640  11.479  1.00  0.00    -0.744 OA
ENDBRANCH  94  95
ENDBRANCH  62  87
ENDBRANCH  36  37
ENDBRANCH  28  31
ENDBRANCH  26  27
ENDBRANCH   1  26
TORSDOF 15
