REMARK SMILES [NH3+][C@@H](CCCCC(=O)NCCCNC(=O)c1ccc(-c2c3nc(c(-c4c(F)cc(S(=O)(=O)[O-])cc4F)c4ccc([nH]4)c(-c4c(F)cc(S(=O)(=O)[O-])cc4F)c4nc(c(-c5c(F)cc(S(=O)(=O)[O-])cc5F)c5ccc2[nH]5)C=C4)C=C3)cc1)c1ccc(-c2ccccc2)cc1
REMARK SMILES IDX 7 1 8 2 9 3 6 5 5 6 4 7 3 8 2 9 1 10 82 14 83 15 93 16 84 17
REMARK SMILES IDX 92 18 85 19 86 20 87 21 91 22 88 23 90 24 89 25 10 26 11 27
REMARK SMILES IDX 12 28 13 29 14 30 15 32 16 33 17 34 81 35 18 36 80 37 19 38
REMARK SMILES IDX 20 39 21 40 74 41 22 42 79 43 73 44 75 45 23 46 78 47 72 48
REMARK SMILES IDX 71 49 24 51 58 52 37 53 57 54 38 55 41 56 56 57 76 58 39 59
REMARK SMILES IDX 40 60 55 62 77 63 42 64 25 65 26 66 35 67 27 68 28 69 34 70
REMARK SMILES IDX 36 71 29 72 30 73 31 74 32 75 33 76 59 77 60 78 69 79 61 80
REMARK SMILES IDX 62 81 68 82 70 83 63 84 64 85 65 86 66 87 67 88 43 89 44 90
REMARK SMILES IDX 53 91 45 92 46 93 52 94 54 95 47 96 48 97 49 98 50 99 51 100
REMARK H PARENT 9 4 1 11 1 12 1 13 13 31 75 50 41 61
REMARK Flexibility Score: inf
ROOT
ATOM      1  C   UNL     1      -1.040   0.371  -5.536  1.00  0.00     0.219 C 
ATOM      2  O   UNL     1      -1.890  -0.040  -6.327  1.00  0.00    -0.275 OA
ATOM      3  N   UNL     1       0.225   0.570  -5.996  1.00  0.00    -0.356 N 
ATOM      4  H   UNL     1       0.356   0.403  -6.957  1.00  0.00     0.163 HD
ENDROOT
BRANCH   1   5
ATOM      5  C   UNL     1      -1.392   0.680  -4.094  1.00  0.00     0.100 C 
BRANCH   5   6
ATOM      6  C   UNL     1      -1.179  -0.487  -3.128  1.00  0.00     0.010 C 
BRANCH   6   7
ATOM      7  C   UNL     1       0.115  -0.567  -2.292  1.00  0.00     0.007 C 
BRANCH   7   8
ATOM      8  C   UNL     1       0.705   0.726  -1.694  1.00  0.00     0.070 C 
BRANCH   8   9
ATOM      9  C   UNL     1       0.334   1.048  -0.231  1.00  0.00     0.211 C 
BRANCH   9  10
ATOM     10  N   UNL     1       0.974   0.128   0.709  1.00  0.00    -0.351 N 
ATOM     11  H   UNL     1       1.981   0.125   0.550  1.00  0.00     0.345 HD
ATOM     12  H   UNL     1       0.604  -0.812   0.569  1.00  0.00     0.345 HD
ATOM     13  H   UNL     1       0.781   0.430   1.664  1.00  0.00     0.345 HD
ENDBRANCH   9  10
BRANCH   9  14
ATOM     14  C   UNL     1      -1.170   1.134  -0.085  1.00  0.00     0.009 A 
ATOM     15  C   UNL     1      -1.827   2.318  -0.447  1.00  0.00     0.010 A 
ATOM     16  C   UNL     1      -1.946   0.019   0.252  1.00  0.00     0.010 A 
ATOM     17  C   UNL     1      -3.222   2.366  -0.523  1.00  0.00     0.009 A 
ATOM     18  C   UNL     1      -3.337   0.063   0.149  1.00  0.00     0.009 A 
ATOM     19  C   UNL     1      -4.003   1.232  -0.253  1.00  0.00    -0.018 A 
BRANCH  19  20
ATOM     20  C   UNL     1      -5.470   1.255  -0.389  1.00  0.00    -0.018 A 
ATOM     21  C   UNL     1      -6.099   1.890  -1.474  1.00  0.00     0.009 A 
ATOM     22  C   UNL     1      -6.290   0.625   0.563  1.00  0.00     0.009 A 
ATOM     23  C   UNL     1      -7.491   1.907  -1.593  1.00  0.00     0.001 A 
ATOM     24  C   UNL     1      -7.681   0.633   0.442  1.00  0.00     0.001 A 
ATOM     25  C   UNL     1      -8.281   1.280  -0.633  1.00  0.00     0.000 A 
ENDBRANCH  19  20
ENDBRANCH   9  14
ENDBRANCH   8   9
ENDBRANCH   7   8
ENDBRANCH   6   7
ENDBRANCH   5   6
ENDBRANCH   1   5
BRANCH   3  26
ATOM     26  C   UNL     1       1.405   0.992  -5.272  1.00  0.00     0.117 C 
BRANCH  26  27
ATOM     27  C   UNL     1       2.293  -0.195  -4.932  1.00  0.00     0.042 C 
BRANCH  27  28
ATOM     28  C   UNL     1       3.202  -0.630  -6.064  1.00  0.00     0.118 C 
BRANCH  28  29
ATOM     29  N   UNL     1       4.258   0.332  -6.326  1.00  0.00    -0.352 N 
ATOM     30  C   UNL     1       5.622   0.187  -6.266  1.00  0.00     0.251 C 
ATOM     31  H   UNL     1       3.947   1.229  -6.588  1.00  0.00     0.163 HD
ATOM     32  O   UNL     1       6.330   1.187  -6.335  1.00  0.00    -0.269 OA
BRANCH  30  33
ATOM     33  C   UNL     1       6.237  -1.151  -6.095  1.00  0.00     0.039 A 
ATOM     34  C   UNL     1       7.396  -1.263  -5.322  1.00  0.00     0.014 A 
ATOM     35  C   UNL     1       5.703  -2.288  -6.707  1.00  0.00     0.014 A 
ATOM     36  C   UNL     1       7.981  -2.516  -5.122  1.00  0.00     0.010 A 
ATOM     37  C   UNL     1       6.221  -3.547  -6.416  1.00  0.00     0.010 A 
ATOM     38  C   UNL     1       7.380  -3.674  -5.640  1.00  0.00    -0.014 A 
BRANCH  38  39
ATOM     39  C   UNL     1       7.965  -5.020  -5.409  1.00  0.00     0.031 A 
ATOM     40  C   UNL     1       8.416  -5.856  -6.580  1.00  0.00     0.074 A 
ATOM     41  C   UNL     1       8.044  -5.509  -4.156  1.00  0.00     0.049 A 
ATOM     42  N   UNL     1       8.895  -7.073  -6.590  1.00  0.00    -0.248 NA
ATOM     43  C   UNL     1       8.282  -5.258  -7.920  1.00  0.00     0.031 C 
ATOM     44  C   UNL     1       7.590  -4.817  -2.946  1.00  0.00     0.029 A 
ATOM     45  N   UNL     1       8.527  -6.705  -3.688  1.00  0.00    -0.354 N 
ATOM     46  C   UNL     1       9.103  -7.388  -7.928  1.00  0.00     0.074 A 
ATOM     47  C   UNL     1       8.639  -6.261  -8.706  1.00  0.00     0.031 C 
ATOM     48  C   UNL     1       7.845  -5.586  -1.876  1.00  0.00     0.029 A 
ATOM     49  C   UNL     1       8.439  -6.842  -2.322  1.00  0.00     0.049 A 
ATOM     50  H   UNL     1       8.903  -7.400  -4.275  1.00  0.00     0.167 HD
ATOM     51  C   UNL     1       9.658  -8.503  -8.461  1.00  0.00     0.037 A 
ATOM     52  C   UNL     1       8.790  -7.866  -1.520  1.00  0.00     0.037 A 
ATOM     53  C   UNL     1      10.148  -9.606  -7.677  1.00  0.00     0.049 A 
ATOM     54  C   UNL     1       9.408  -9.093  -2.136  1.00  0.00     0.074 A 
ATOM     55  C   UNL     1      10.782 -10.756  -8.113  1.00  0.00     0.029 A 
ATOM     56  N   UNL     1      10.061  -9.697  -6.295  1.00  0.00    -0.354 N 
ATOM     57  N   UNL     1       9.658  -9.345  -3.399  1.00  0.00    -0.248 NA
ATOM     58  C   UNL     1       9.799 -10.172  -1.218  1.00  0.00     0.031 C 
ATOM     59  C   UNL     1      11.035 -11.563  -7.000  1.00  0.00     0.029 A 
ATOM     60  C   UNL     1      10.610 -10.892  -5.864  1.00  0.00     0.049 A 
ATOM     61  H   UNL     1       9.666  -9.012  -5.708  1.00  0.00     0.167 HD
ATOM     62  C   UNL     1      10.261 -10.598  -3.425  1.00  0.00     0.074 A 
ATOM     63  C   UNL     1      10.352 -11.045  -2.050  1.00  0.00     0.031 C 
ATOM     64  C   UNL     1      10.701 -11.315  -4.489  1.00  0.00     0.037 A 
BRANCH  51  65
ATOM     65  C   UNL     1       9.778  -8.581  -9.959  1.00  0.00     0.058 A 
ATOM     66  C   UNL     1      10.670  -7.763 -10.672  1.00  0.00     0.135 A 
ATOM     67  C   UNL     1       9.025  -9.516 -10.689  1.00  0.00     0.135 A 
ATOM     68  F   UNL     1      11.402  -6.839 -10.029  1.00  0.00    -0.206 F 
ATOM     69  C   UNL     1      10.793  -7.850 -12.055  1.00  0.00     0.059 A 
ATOM     70  C   UNL     1       9.155  -9.642 -12.069  1.00  0.00     0.059 A 
ATOM     71  F   UNL     1       8.156 -10.322 -10.060  1.00  0.00    -0.206 F 
ATOM     72  C   UNL     1      10.032  -8.796 -12.745  1.00  0.00     0.060 A 
BRANCH  72  73
ATOM     73  S   UNL     1      10.219  -8.907 -14.537  1.00  0.00     0.124 S 
ATOM     74  O   UNL     1       9.560  -7.680 -14.975  1.00  0.00    -0.237 OA
ATOM     75  O   UNL     1      11.669  -8.939 -14.697  1.00  0.00    -0.237 OA
ATOM     76  O   UNL     1       9.525 -10.145 -14.876  1.00  0.00    -0.744 OA
ENDBRANCH  72  73
ENDBRANCH  51  65
BRANCH  52  77
ATOM     77  C   UNL     1       8.584  -7.769  -0.050  1.00  0.00     0.058 A 
ATOM     78  C   UNL     1       9.673  -7.677   0.829  1.00  0.00     0.135 A 
ATOM     79  C   UNL     1       7.295  -7.763   0.507  1.00  0.00     0.135 A 
ATOM     80  F   UNL     1      10.926  -7.682   0.348  1.00  0.00    -0.206 F 
ATOM     81  C   UNL     1       9.496  -7.607   2.207  1.00  0.00     0.059 A 
ATOM     82  C   UNL     1       7.091  -7.665   1.879  1.00  0.00     0.059 A 
ATOM     83  F   UNL     1       6.217  -7.830  -0.291  1.00  0.00    -0.206 F 
ATOM     84  C   UNL     1       8.198  -7.601   2.723  1.00  0.00     0.060 A 
BRANCH  84  85
ATOM     85  S   UNL     1       7.978  -7.474   4.511  1.00  0.00     0.124 S 
ATOM     86  O   UNL     1       8.394  -8.799   4.953  1.00  0.00    -0.237 OA
ATOM     87  O   UNL     1       8.874  -6.374   4.852  1.00  0.00    -0.237 OA
ATOM     88  O   UNL     1       6.555  -7.179   4.652  1.00  0.00    -0.744 OA
ENDBRANCH  84  85
ENDBRANCH  52  77
BRANCH  64  89
ATOM     89  C   UNL     1      11.354 -12.640  -4.209  1.00  0.00     0.058 A 
ATOM     90  C   UNL     1      10.614 -13.755  -3.786  1.00  0.00     0.135 A 
ATOM     91  C   UNL     1      12.732 -12.809  -4.421  1.00  0.00     0.135 A 
ATOM     92  F   UNL     1       9.295 -13.645  -3.563  1.00  0.00    -0.206 F 
ATOM     93  C   UNL     1      11.222 -14.985  -3.558  1.00  0.00     0.059 A 
ATOM     94  C   UNL     1      13.356 -14.037  -4.229  1.00  0.00     0.059 A 
ATOM     95  F   UNL     1      13.485 -11.777  -4.837  1.00  0.00    -0.206 F 
ATOM     96  C   UNL     1      12.593 -15.116  -3.785  1.00  0.00     0.060 A 
BRANCH  96  97
ATOM     97  S   UNL     1      13.363 -16.727  -3.517  1.00  0.00     0.124 S 
ATOM     98  O   UNL     1      13.370 -16.811  -2.060  1.00  0.00    -0.237 OA
ATOM     99  O   UNL     1      12.441 -17.630  -4.199  1.00  0.00    -0.237 OA
ATOM    100  O   UNL     1      14.673 -16.587  -4.144  1.00  0.00    -0.744 OA
ENDBRANCH  96  97
ENDBRANCH  64  89
ENDBRANCH  38  39
ENDBRANCH  30  33
ENDBRANCH  28  29
ENDBRANCH  27  28
ENDBRANCH  26  27
ENDBRANCH   3  26
TORSDOF 20
