REMARK SMILES [NH3+]C1(CC(=O)N[C@@H]2CCCC[C@H]2C(=O)NCCCNC(=O)c2ccc(-c3c4nc(c(-c5c(F)cc(S(=O)(=O)[O-])cc5F)c5ccc([nH]5)c(-c5c(F)cc(S(=O)(=O)[O-])cc5F)c5nc(c(-c6c(F)cc(S(=O)(=O)[O-])cc6F)c6ccc3[nH]6)C=C5)C=C4)cc2)CCC1
REMARK SMILES IDX 16 1 15 2 13 3 14 4 12 6 7 7 8 8 9 9 11 10 10 11 6 12 4 13
REMARK SMILES IDX 5 14 3 16 2 17 88 18 90 19 89 20 1 21 17 25 18 26 19 27
REMARK SMILES IDX 20 28 21 30 22 31 23 32 87 33 24 34 86 35 25 36 26 37 27 38
REMARK SMILES IDX 80 39 28 40 85 41 79 42 81 43 29 44 84 45 78 46 77 47 30 49
REMARK SMILES IDX 64 50 43 51 63 52 44 53 47 54 62 55 82 56 45 57 46 58 61 60
REMARK SMILES IDX 83 61 48 62 31 63 32 64 41 65 33 66 34 67 40 68 42 69 35 70
REMARK SMILES IDX 36 71 37 72 38 73 39 74 65 75 66 76 75 77 67 78 68 79 74 80
REMARK SMILES IDX 76 81 69 82 70 83 71 84 72 85 73 86 49 87 50 88 59 89 51 90
REMARK SMILES IDX 52 91 58 92 60 93 53 94 54 95 55 96 56 97 57 98
REMARK H PARENT 15 5 6 15 1 22 1 23 1 24 19 29 81 48 47 59
REMARK Flexibility Score: inf
ROOT
ATOM      1  C   UNL     1       2.069  -1.954   5.721  1.00  0.00     0.117 C 
ENDROOT
BRANCH   1   2
ATOM      2  N   UNL     1       0.940  -1.189   6.224  1.00  0.00    -0.356 N 
ATOM      3  C   UNL     1      -0.371  -1.181   5.871  1.00  0.00     0.225 C 
ATOM      4  O   UNL     1      -1.111  -0.377   6.444  1.00  0.00    -0.275 OA
ATOM      5  H   UNL     1       1.167  -0.565   6.950  1.00  0.00     0.163 HD
BRANCH   3   6
ATOM      6  C   UNL     1      -0.940  -2.139   4.835  1.00  0.00     0.101 C 
ATOM      7  C   UNL     1      -0.432  -1.860   3.395  1.00  0.00     0.094 C 
ATOM      8  C   UNL     1      -0.908  -2.998   2.494  1.00  0.00     0.026 C 
ATOM      9  C   UNL     1      -0.375  -4.334   2.979  1.00  0.00     0.002 C 
ATOM     10  C   UNL     1      -0.772  -3.589   5.348  1.00  0.00     0.015 C 
ATOM     11  C   UNL     1      -1.008  -4.678   4.311  1.00  0.00     0.001 C 
BRANCH   7  12
ATOM     12  N   UNL     1      -0.824  -0.524   2.916  1.00  0.00    -0.352 N 
ATOM     13  C   UNL     1      -0.551   0.135   1.749  1.00  0.00     0.226 C 
ATOM     14  O   UNL     1      -0.489   1.367   1.805  1.00  0.00    -0.275 OA
ATOM     15  H   UNL     1      -1.381  -0.014   3.547  1.00  0.00     0.163 HD
BRANCH  13  16
ATOM     16  C   UNL     1      -0.423  -0.572   0.415  1.00  0.00     0.168 C 
BRANCH  16  17
ATOM     17  C   UNL     1       0.983  -0.910  -0.074  1.00  0.00     0.103 C 
ATOM     18  C   UNL     1       1.021  -1.855  -1.322  1.00  0.00     0.069 C 
ATOM     19  C   UNL     1       1.949  -1.930   0.607  1.00  0.00     0.069 C 
ATOM     20  C   UNL     1       1.456  -2.999  -0.390  1.00  0.00     0.013 C 
BRANCH  17  21
ATOM     21  N   UNL     1       1.754   0.283  -0.446  1.00  0.00    -0.352 N 
ATOM     22  H   UNL     1       1.137   0.961  -0.893  1.00  0.00     0.344 HD
ATOM     23  H   UNL     1       2.496   0.019  -1.095  1.00  0.00     0.344 HD
ATOM     24  H   UNL     1       2.165   0.697   0.391  1.00  0.00     0.344 HD
ENDBRANCH  17  21
ENDBRANCH  16  17
ENDBRANCH  13  16
ENDBRANCH   7  12
ENDBRANCH   3   6
ENDBRANCH   1   2
BRANCH   1  25
ATOM     25  C   UNL     1       3.165  -1.049   5.180  1.00  0.00     0.042 C 
BRANCH  25  26
ATOM     26  C   UNL     1       3.830  -0.197   6.252  1.00  0.00     0.118 C 
BRANCH  26  27
ATOM     27  N   UNL     1       4.533  -0.997   7.249  1.00  0.00    -0.352 N 
ATOM     28  C   UNL     1       5.849  -0.939   7.637  1.00  0.00     0.251 C 
ATOM     29  H   UNL     1       3.986  -1.675   7.708  1.00  0.00     0.163 HD
ATOM     30  O   UNL     1       6.314  -1.817   8.360  1.00  0.00    -0.269 OA
BRANCH  28  31
ATOM     31  C   UNL     1       6.700   0.171   7.163  1.00  0.00     0.039 A 
ATOM     32  C   UNL     1       7.985  -0.105   6.690  1.00  0.00     0.014 A 
ATOM     33  C   UNL     1       6.216   1.481   7.168  1.00  0.00     0.014 A 
ATOM     34  C   UNL     1       8.760   0.928   6.157  1.00  0.00     0.010 A 
ATOM     35  C   UNL     1       6.950   2.488   6.556  1.00  0.00     0.010 A 
ATOM     36  C   UNL     1       8.233   2.226   6.053  1.00  0.00    -0.014 A 
BRANCH  36  37
ATOM     37  C   UNL     1       9.005   3.345   5.457  1.00  0.00     0.031 A 
ATOM     38  C   UNL     1       9.337   4.544   6.304  1.00  0.00     0.074 A 
ATOM     39  C   UNL     1       9.318   3.329   4.146  1.00  0.00     0.049 A 
ATOM     40  N   UNL     1       9.858   5.689   5.949  1.00  0.00    -0.248 NA
ATOM     41  C   UNL     1       9.005   4.454   7.736  1.00  0.00     0.031 C 
ATOM     42  C   UNL     1       9.023   2.237   3.216  1.00  0.00     0.029 A 
ATOM     43  N   UNL     1       9.937   4.271   3.363  1.00  0.00    -0.354 N 
ATOM     44  C   UNL     1       9.887   6.464   7.103  1.00  0.00     0.074 A 
ATOM     45  C   UNL     1       9.286   5.678   8.157  1.00  0.00     0.031 C 
ATOM     46  C   UNL     1       9.474   2.565   1.994  1.00  0.00     0.029 A 
ATOM     47  C   UNL     1      10.045   3.908   2.041  1.00  0.00     0.049 A 
ATOM     48  H   UNL     1      10.273   5.127   3.715  1.00  0.00     0.167 HD
ATOM     49  C   UNL     1      10.389   7.710   7.273  1.00  0.00     0.037 A 
ATOM     50  C   UNL     1      10.533   4.587   0.984  1.00  0.00     0.037 A 
ATOM     51  C   UNL     1      11.017   8.469   6.224  1.00  0.00     0.049 A 
ATOM     52  C   UNL     1      11.079   5.975   1.195  1.00  0.00     0.074 A 
ATOM     53  C   UNL     1      11.610   9.716   6.304  1.00  0.00     0.029 A 
ATOM     54  N   UNL     1      11.136   8.051   4.907  1.00  0.00    -0.354 N 
ATOM     55  N   UNL     1      11.143   6.675   2.303  1.00  0.00    -0.248 NA
ATOM     56  C   UNL     1      11.622   6.665   0.017  1.00  0.00     0.031 C 
ATOM     57  C   UNL     1      12.043  10.074   5.024  1.00  0.00     0.029 A 
ATOM     58  C   UNL     1      11.777   9.024   4.160  1.00  0.00     0.049 A 
ATOM     59  H   UNL     1      10.811   7.191   4.555  1.00  0.00     0.167 HD
ATOM     60  C   UNL     1      11.774   7.868   1.963  1.00  0.00     0.074 A 
ATOM     61  C   UNL     1      12.067   7.796   0.547  1.00  0.00     0.031 C 
ATOM     62  C   UNL     1      12.088   8.922   2.755  1.00  0.00     0.037 A 
BRANCH  49  63
ATOM     63  C   UNL     1      10.279   8.329   8.640  1.00  0.00     0.058 A 
ATOM     64  C   UNL     1      11.017   7.846   9.733  1.00  0.00     0.135 A 
ATOM     65  C   UNL     1       9.448   9.441   8.853  1.00  0.00     0.135 A 
ATOM     66  F   UNL     1      11.814   6.775   9.592  1.00  0.00    -0.206 F 
ATOM     67  C   UNL     1      10.910   8.422  10.995  1.00  0.00     0.059 A 
ATOM     68  C   UNL     1       9.351  10.054  10.099  1.00  0.00     0.059 A 
ATOM     69  F   UNL     1       8.720   9.944   7.844  1.00  0.00    -0.206 F 
ATOM     70  C   UNL     1      10.074   9.526  11.167  1.00  0.00     0.060 A 
BRANCH  70  71
ATOM     71  S   UNL     1       9.952  10.264  12.810  1.00  0.00     0.124 S 
ATOM     72  O   UNL     1       9.178   9.255  13.525  1.00  0.00    -0.237 OA
ATOM     73  O   UNL     1      11.353  10.383  13.202  1.00  0.00    -0.237 OA
ATOM     74  O   UNL     1       9.263  11.527  12.566  1.00  0.00    -0.744 OA
ENDBRANCH  70  71
ENDBRANCH  49  63
BRANCH  50  75
ATOM     75  C   UNL     1      10.552   3.957  -0.364  1.00  0.00     0.058 A 
ATOM     76  C   UNL     1      11.762   3.578  -0.963  1.00  0.00     0.135 A 
ATOM     77  C   UNL     1       9.367   3.710  -1.075  1.00  0.00     0.135 A 
ATOM     78  F   UNL     1      12.923   3.798  -0.326  1.00  0.00    -0.206 F 
ATOM     79  C   UNL     1      11.802   2.995  -2.225  1.00  0.00     0.059 A 
ATOM     80  C   UNL     1       9.378   3.103  -2.328  1.00  0.00     0.059 A 
ATOM     81  F   UNL     1       8.180   4.036  -0.540  1.00  0.00    -0.206 F 
ATOM     82  C   UNL     1      10.603   2.758  -2.899  1.00  0.00     0.060 A 
BRANCH  82  83
ATOM     83  S   UNL     1      10.664   1.956  -4.516  1.00  0.00     0.124 S 
ATOM     84  O   UNL     1      11.209   3.020  -5.351  1.00  0.00    -0.237 OA
ATOM     85  O   UNL     1      11.551   0.825  -4.262  1.00  0.00    -0.237 OA
ATOM     86  O   UNL     1       9.270   1.605  -4.769  1.00  0.00    -0.744 OA
ENDBRANCH  82  83
ENDBRANCH  50  75
BRANCH  62  87
ATOM     87  C   UNL     1      12.850  10.062   2.137  1.00  0.00     0.058 A 
ATOM     88  C   UNL     1      12.244  10.977   1.264  1.00  0.00     0.135 A 
ATOM     89  C   UNL     1      14.188  10.290   2.502  1.00  0.00     0.135 A 
ATOM     90  F   UNL     1      10.970  10.801   0.878  1.00  0.00    -0.206 F 
ATOM     91  C   UNL     1      12.940  12.074   0.767  1.00  0.00     0.059 A 
ATOM     92  C   UNL     1      14.893  11.395   2.041  1.00  0.00     0.059 A 
ATOM     93  F   UNL     1      14.812   9.449   3.343  1.00  0.00    -0.206 F 
ATOM     94  C   UNL     1      14.262  12.280   1.168  1.00  0.00     0.060 A 
BRANCH  94  95
ATOM     95  S   UNL     1      15.132  13.743   0.567  1.00  0.00     0.124 S 
ATOM     96  O   UNL     1      15.371  13.391  -0.829  1.00  0.00    -0.237 OA
ATOM     97  O   UNL     1      14.154  14.802   0.795  1.00  0.00    -0.237 OA
ATOM     98  O   UNL     1      16.321  13.803   1.412  1.00  0.00    -0.744 OA
ENDBRANCH  94  95
ENDBRANCH  62  87
ENDBRANCH  36  37
ENDBRANCH  28  31
ENDBRANCH  26  27
ENDBRANCH  25  26
ENDBRANCH   1  25
TORSDOF 17
