REMARK SMILES O=C(NCCCNC(=O)[C@H]1Cc2c([nH]c3ccccc23)[C@H](c2c[nH]c3ccccc23)[NH2+]1)c1ccc(-c2c3nc(c(-c4c(F)cc(S(=O)(=O)[O-])cc4F)c4ccc([nH]4)c(-c4c(F)cc(S(=O)(=O)[O-])cc4F)c4nc(c(-c5c(F)cc(S(=O)(=O)[O-])cc5F)c5ccc2[nH]5)C=C4)C=C3)cc1
REMARK SMILES IDX 4 1 3 2 1 3 2 4 32 6 33 7 97 8 34 9 96 10 35 11 36 12 37 13
REMARK SMILES IDX 90 14 38 15 95 16 89 17 91 18 39 19 94 20 88 21 87 22 40 24
REMARK SMILES IDX 74 25 53 26 73 27 54 28 57 29 72 30 92 31 55 32 56 33 71 35
REMARK SMILES IDX 93 36 58 37 41 38 42 39 51 40 43 41 44 42 50 43 52 44 45 45
REMARK SMILES IDX 46 46 47 47 48 48 49 49 75 50 76 51 85 52 77 53 78 54 84 55
REMARK SMILES IDX 86 56 79 57 80 58 81 59 82 60 83 61 59 62 60 63 69 64 61 65
REMARK SMILES IDX 62 66 68 67 70 68 63 69 64 70 65 71 66 72 67 73 5 74 6 75
REMARK SMILES IDX 7 76 8 77 9 79 10 80 11 81 31 82 12 83 21 84 13 87 20 88
REMARK SMILES IDX 14 89 15 90 19 91 16 93 18 94 17 95 22 96 23 97 30 98 24 99
REMARK SMILES IDX 25 100 29 101 26 103 28 104 27 105
REMARK H PARENT 3 5 91 23 57 34 7 78 31 85 31 86 14 92 24 102
REMARK Flexibility Score: inf
ROOT
ATOM      1  C   UNL     1       4.562  -0.489   1.252  1.00  0.00     0.118 C 
ENDROOT
BRANCH   1   2
ATOM      2  N   UNL     1       3.126  -0.594   0.985  1.00  0.00    -0.352 N 
ATOM      3  O   UNL     1       1.179  -0.084  -0.026  1.00  0.00    -0.269 OA
ATOM      4  C   UNL     1       2.401  -0.203  -0.113  1.00  0.00     0.251 C 
ATOM      5  H   UNL     1       2.599  -1.010   1.704  1.00  0.00     0.163 HD
BRANCH   4   6
ATOM      6  C   UNL     1       3.092   0.069  -1.387  1.00  0.00     0.039 A 
ATOM      7  C   UNL     1       4.177  -0.721  -1.763  1.00  0.00     0.014 A 
ATOM      8  C   UNL     1       2.645   1.092  -2.227  1.00  0.00     0.014 A 
ATOM      9  C   UNL     1       4.933  -0.374  -2.867  1.00  0.00     0.010 A 
ATOM     10  C   UNL     1       3.324   1.348  -3.421  1.00  0.00     0.010 A 
ATOM     11  C   UNL     1       4.489   0.632  -3.736  1.00  0.00    -0.014 A 
BRANCH  11  12
ATOM     12  C   UNL     1       5.216   0.825  -5.013  1.00  0.00     0.031 A 
ATOM     13  C   UNL     1       5.882   2.127  -5.343  1.00  0.00     0.074 A 
ATOM     14  C   UNL     1       5.293  -0.224  -5.857  1.00  0.00     0.049 A 
ATOM     15  N   UNL     1       6.560   2.451  -6.413  1.00  0.00    -0.248 NA
ATOM     16  C   UNL     1       5.765   3.212  -4.356  1.00  0.00     0.031 C 
ATOM     17  C   UNL     1       4.666  -1.532  -5.633  1.00  0.00     0.029 A 
ATOM     18  N   UNL     1       5.940  -0.372  -7.055  1.00  0.00    -0.354 N 
ATOM     19  C   UNL     1       6.929   3.780  -6.244  1.00  0.00     0.074 A 
ATOM     20  C   UNL     1       6.379   4.210  -4.976  1.00  0.00     0.031 C 
ATOM     21  C   UNL     1       5.002  -2.361  -6.629  1.00  0.00     0.029 A 
ATOM     22  C   UNL     1       5.791  -1.623  -7.605  1.00  0.00     0.049 A 
ATOM     23  H   UNL     1       6.460   0.347  -7.480  1.00  0.00     0.167 HD
ATOM     24  C   UNL     1       7.661   4.560  -7.075  1.00  0.00     0.037 A 
ATOM     25  C   UNL     1       6.211  -2.117  -8.783  1.00  0.00     0.037 A 
ATOM     26  C   UNL     1       8.208   4.104  -8.329  1.00  0.00     0.049 A 
ATOM     27  C   UNL     1       7.003  -1.225  -9.691  1.00  0.00     0.074 A 
ATOM     28  C   UNL     1       8.996   4.800  -9.228  1.00  0.00     0.029 A 
ATOM     29  N   UNL     1       8.018   2.837  -8.865  1.00  0.00    -0.354 N 
ATOM     30  N   UNL     1       7.370   0.020  -9.501  1.00  0.00    -0.248 NA
ATOM     31  C   UNL     1       7.435  -1.798 -10.970  1.00  0.00     0.031 C 
ATOM     32  C   UNL     1       9.235   3.974 -10.331  1.00  0.00     0.029 A 
ATOM     33  C   UNL     1       8.648   2.741 -10.096  1.00  0.00     0.049 A 
ATOM     34  H   UNL     1       7.509   2.112  -8.434  1.00  0.00     0.167 HD
ATOM     35  C   UNL     1       8.087   0.379 -10.634  1.00  0.00     0.074 A 
ATOM     36  C   UNL     1       8.120  -0.789 -11.492  1.00  0.00     0.031 C 
ATOM     37  C   UNL     1       8.664   1.568 -10.937  1.00  0.00     0.037 A 
BRANCH  24  38
ATOM     38  C   UNL     1       7.885   5.994  -6.673  1.00  0.00     0.058 A 
ATOM     39  C   UNL     1       8.717   6.347  -5.599  1.00  0.00     0.135 A 
ATOM     40  C   UNL     1       7.278   7.035  -7.396  1.00  0.00     0.135 A 
ATOM     41  F   UNL     1       9.313   5.395  -4.864  1.00  0.00    -0.206 F 
ATOM     42  C   UNL     1       8.913   7.676  -5.234  1.00  0.00     0.059 A 
ATOM     43  C   UNL     1       7.481   8.373  -7.067  1.00  0.00     0.059 A 
ATOM     44  F   UNL     1       6.473   6.758  -8.433  1.00  0.00    -0.206 F 
ATOM     45  C   UNL     1       8.287   8.683  -5.973  1.00  0.00     0.060 A 
BRANCH  45  46
ATOM     46  S   UNL     1       8.541  10.401  -5.481  1.00  0.00     0.124 S 
ATOM     47  O   UNL     1       7.755  10.471  -4.253  1.00  0.00    -0.237 OA
ATOM     48  O   UNL     1       9.989  10.466  -5.309  1.00  0.00    -0.237 OA
ATOM     49  O   UNL     1       8.012  11.162  -6.608  1.00  0.00    -0.744 OA
ENDBRANCH  45  46
ENDBRANCH  24  38
BRANCH  25  50
ATOM     50  C   UNL     1       5.854  -3.509  -9.161  1.00  0.00     0.058 A 
ATOM     51  C   UNL     1       6.825  -4.517  -9.226  1.00  0.00     0.135 A 
ATOM     52  C   UNL     1       4.519  -3.868  -9.411  1.00  0.00     0.135 A 
ATOM     53  F   UNL     1       8.114  -4.224  -8.996  1.00  0.00    -0.206 F 
ATOM     54  C   UNL     1       6.487  -5.832  -9.533  1.00  0.00     0.059 A 
ATOM     55  C   UNL     1       4.153  -5.179  -9.688  1.00  0.00     0.059 A 
ATOM     56  F   UNL     1       3.549  -2.943  -9.338  1.00  0.00    -0.206 F 
ATOM     57  C   UNL     1       5.147  -6.154  -9.756  1.00  0.00     0.060 A 
BRANCH  57  58
ATOM     58  S   UNL     1       4.712  -7.873 -10.094  1.00  0.00     0.124 S 
ATOM     59  O   UNL     1       5.205  -8.037 -11.456  1.00  0.00    -0.237 OA
ATOM     60  O   UNL     1       5.450  -8.585  -9.056  1.00  0.00    -0.237 OA
ATOM     61  O   UNL     1       3.260  -7.888  -9.942  1.00  0.00    -0.744 OA
ENDBRANCH  57  58
ENDBRANCH  25  50
BRANCH  37  62
ATOM     62  C   UNL     1       9.401   1.654 -12.243  1.00  0.00     0.058 A 
ATOM     63  C   UNL     1       8.723   1.686 -13.472  1.00  0.00     0.135 A 
ATOM     64  C   UNL     1      10.802   1.747 -12.262  1.00  0.00     0.135 A 
ATOM     65  F   UNL     1       7.385   1.588 -13.509  1.00  0.00    -0.206 F 
ATOM     66  C   UNL     1       9.411   1.784 -14.677  1.00  0.00     0.059 A 
ATOM     67  C   UNL     1      11.508   1.876 -13.453  1.00  0.00     0.059 A 
ATOM     68  F   UNL     1      11.497   1.728 -11.114  1.00  0.00    -0.206 F 
ATOM     69  C   UNL     1      10.804   1.882 -14.656  1.00  0.00     0.060 A 
BRANCH  69  70
ATOM     70  S   UNL     1      11.682   2.046 -16.224  1.00  0.00     0.124 S 
ATOM     71  O   UNL     1      11.567   0.696 -16.768  1.00  0.00    -0.237 OA
ATOM     72  O   UNL     1      10.905   3.074 -16.911  1.00  0.00    -0.237 OA
ATOM     73  O   UNL     1      13.026   2.449 -15.821  1.00  0.00    -0.744 OA
ENDBRANCH  69  70
ENDBRANCH  37  62
ENDBRANCH  11  12
ENDBRANCH   4   6
ENDBRANCH   1   2
BRANCH   1  74
ATOM     74  C   UNL     1       4.879   0.713   2.121  1.00  0.00     0.042 C 
BRANCH  74  75
ATOM     75  C   UNL     1       4.266   0.565   3.501  1.00  0.00     0.118 C 
BRANCH  75  76
ATOM     76  N   UNL     1       5.022  -0.371   4.329  1.00  0.00    -0.351 N 
ATOM     77  C   UNL     1       5.954  -0.236   5.314  1.00  0.00     0.278 C 
ATOM     78  H   UNL     1       4.810  -1.312   4.131  1.00  0.00     0.163 HD
ATOM     79  O   UNL     1       6.512  -1.282   5.672  1.00  0.00    -0.268 OA
BRANCH  77  80
ATOM     80  C   UNL     1       6.280   1.087   6.035  1.00  0.00     0.277 C 
ATOM     81  C   UNL     1       7.803   1.349   5.980  1.00  0.00     0.114 C 
ATOM     82  N   UNL     1       5.451   2.205   5.545  1.00  0.00    -0.324 N 
ATOM     83  C   UNL     1       8.088   2.724   6.483  1.00  0.00    -0.006 A 
ATOM     84  C   UNL     1       5.652   3.494   6.190  1.00  0.00     0.264 C 
ATOM     85  H   UNL     1       4.473   1.945   5.671  1.00  0.00     0.347 HD
ATOM     86  H   UNL     1       5.729   2.343   4.573  1.00  0.00     0.347 HD
ATOM     87  C   UNL     1       7.085   3.672   6.558  1.00  0.00     0.083 A 
ATOM     88  C   UNL     1       9.296   3.333   6.914  1.00  0.00     0.003 A 
ATOM     89  N   UNL     1       7.661   4.859   6.912  1.00  0.00    -0.353 N 
ATOM     90  C   UNL     1       9.004   4.678   7.156  1.00  0.00     0.046 A 
ATOM     91  C   UNL     1      10.618   2.886   7.101  1.00  0.00     0.010 A 
ATOM     92  H   UNL     1       7.186   5.718   6.983  1.00  0.00     0.166 HD
ATOM     93  C   UNL     1       9.974   5.603   7.555  1.00  0.00     0.026 A 
ATOM     94  C   UNL     1      11.595   3.795   7.524  1.00  0.00     0.001 A 
ATOM     95  C   UNL     1      11.277   5.134   7.740  1.00  0.00     0.002 A 
BRANCH  84  96
ATOM     96  C   UNL     1       4.643   3.735   7.304  1.00  0.00     0.041 A 
ATOM     97  C   UNL     1       4.385   5.002   7.812  1.00  0.00     0.093 A 
ATOM     98  C   UNL     1       3.684   2.853   7.958  1.00  0.00     0.009 A 
ATOM     99  N   UNL     1       3.378   4.926   8.727  1.00  0.00    -0.361 N 
ATOM    100  C   UNL     1       2.917   3.639   8.824  1.00  0.00     0.046 A 
ATOM    101  C   UNL     1       3.342   1.477   7.891  1.00  0.00     0.011 A 
ATOM    102  H   UNL     1       3.032   5.688   9.246  1.00  0.00     0.166 HD
ATOM    103  C   UNL     1       1.866   3.133   9.603  1.00  0.00     0.026 A 
ATOM    104  C   UNL     1       2.292   0.954   8.658  1.00  0.00     0.001 A 
ATOM    105  C   UNL     1       1.564   1.775   9.504  1.00  0.00     0.002 A 
ENDBRANCH  84  96
ENDBRANCH  77  80
ENDBRANCH  75  76
ENDBRANCH  74  75
ENDBRANCH   1  74
TORSDOF 14
