REMARK SMILES C[C@H]([C@@H](C)C(=O)NCCCNC(=O)c1ccc(-c2c3nc(c(-c4c(F)cc(S(=O)(=O)[O-])cc4F)c4ccc([nH]4)c(-c4c(F)cc(S(=O)(=O)[O-])cc4F)c4nc(c(-c5c(F)cc(S(=O)(=O)[O-])cc5F)c5ccc2[nH]5)C=C4)C=C3)cc1)[NH+]1CCN(c2nccs2)CC1
REMARK SMILES IDX 9 1 8 2 7 3 5 4 6 5 3 7 4 8 2 9 1 10 80 11 81 12 90 13 82 15
REMARK SMILES IDX 89 16 83 17 84 18 85 19 88 20 86 21 87 22 10 23 11 24 12 25
REMARK SMILES IDX 13 27 14 28 15 29 79 30 16 31 78 32 17 33 18 34 19 35 72 36
REMARK SMILES IDX 20 37 77 38 71 39 73 40 21 41 76 42 70 43 69 44 22 46 56 47
REMARK SMILES IDX 35 48 55 49 36 50 39 51 54 52 74 53 37 54 38 55 53 57 75 58
REMARK SMILES IDX 40 59 23 60 24 61 33 62 25 63 26 64 32 65 34 66 27 67 28 68
REMARK SMILES IDX 29 69 30 70 31 71 57 72 58 73 67 74 59 75 60 76 66 77 68 78
REMARK SMILES IDX 61 79 62 80 63 81 64 82 65 83 41 84 42 85 51 86 43 87 44 88
REMARK SMILES IDX 50 89 52 90 45 91 46 92 47 93 48 94 49 95
REMARK H PARENT 7 6 80 14 11 26 73 45 39 56
REMARK Flexibility Score: inf
ROOT
ATOM      1  C   UNL     1       3.955  -0.118  -3.175  1.00  0.00     0.042 C 
ENDROOT
BRANCH   1   2
ATOM      2  C   UNL     1       3.647  -0.885  -1.895  1.00  0.00     0.117 C 
BRANCH   2   3
ATOM      3  N   UNL     1       3.559   0.016  -0.766  1.00  0.00    -0.356 N 
ATOM      4  C   UNL     1       2.502   0.478  -0.060  1.00  0.00     0.228 C 
ATOM      5  O   UNL     1       2.731   1.395   0.736  1.00  0.00    -0.275 OA
ATOM      6  H   UNL     1       4.429   0.355  -0.454  1.00  0.00     0.163 HD
BRANCH   4   7
ATOM      7  C   UNL     1       1.094  -0.105  -0.165  1.00  0.00     0.133 C 
ATOM      8  C   UNL     1       1.083  -1.597   0.178  1.00  0.00     0.024 C 
BRANCH   7   9
ATOM      9  C   UNL     1       0.279   0.390  -1.396  1.00  0.00     0.193 C 
ATOM     10  C   UNL     1       0.312  -0.542  -2.618  1.00  0.00     0.076 C 
BRANCH   9  11
ATOM     11  N   UNL     1      -1.165   0.671  -1.212  1.00  0.00    -0.329 N 
ATOM     12  C   UNL     1      -1.952  -0.146  -0.279  1.00  0.00     0.284 C 
ATOM     13  C   UNL     1      -1.489   2.097  -1.014  1.00  0.00     0.284 C 
ATOM     14  H   UNL     1      -1.476   0.358  -2.131  1.00  0.00     0.348 HD
ATOM     15  C   UNL     1      -1.933   0.274   1.213  1.00  0.00     0.180 C 
ATOM     16  C   UNL     1      -1.339   2.590   0.435  1.00  0.00     0.180 C 
ATOM     17  N   UNL     1      -2.062   1.720   1.362  1.00  0.00    -0.337 N 
BRANCH  17  18
ATOM     18  C   UNL     1      -2.634   2.264   2.461  1.00  0.00     0.185 A 
ATOM     19  N   UNL     1      -3.507   3.246   2.406  1.00  0.00    -0.229 NA
ATOM     20  S   UNL     1      -2.269   1.729   4.068  1.00  0.00    -0.106 S 
ATOM     21  C   UNL     1      -3.978   3.546   3.666  1.00  0.00     0.125 A 
ATOM     22  C   UNL     1      -3.389   2.856   4.699  1.00  0.00     0.088 A 
ENDBRANCH  17  18
ENDBRANCH   9  11
ENDBRANCH   7   9
ENDBRANCH   4   7
ENDBRANCH   2   3
ENDBRANCH   1   2
BRANCH   1  23
ATOM     23  C   UNL     1       5.351   0.488  -3.190  1.00  0.00     0.118 C 
BRANCH  23  24
ATOM     24  N   UNL     1       6.389  -0.534  -3.154  1.00  0.00    -0.352 N 
ATOM     25  C   UNL     1       7.290  -0.901  -4.118  1.00  0.00     0.251 C 
ATOM     26  H   UNL     1       6.452  -1.036  -2.309  1.00  0.00     0.163 HD
ATOM     27  O   UNL     1       7.905  -1.963  -3.994  1.00  0.00    -0.269 OA
BRANCH  25  28
ATOM     28  C   UNL     1       7.519  -0.043  -5.297  1.00  0.00     0.039 A 
ATOM     29  C   UNL     1       7.710  -0.640  -6.545  1.00  0.00     0.014 A 
ATOM     30  C   UNL     1       7.575   1.349  -5.171  1.00  0.00     0.014 A 
ATOM     31  C   UNL     1       7.902   0.162  -7.672  1.00  0.00     0.010 A 
ATOM     32  C   UNL     1       7.672   2.147  -6.306  1.00  0.00     0.010 A 
ATOM     33  C   UNL     1       7.852   1.562  -7.566  1.00  0.00    -0.014 A 
BRANCH  33  34
ATOM     34  C   UNL     1       8.000   2.427  -8.763  1.00  0.00     0.031 A 
ATOM     35  C   UNL     1       9.161   3.380  -8.868  1.00  0.00     0.074 A 
ATOM     36  C   UNL     1       7.061   2.387  -9.728  1.00  0.00     0.049 A 
ATOM     37  N   UNL     1       9.434   4.246  -9.809  1.00  0.00    -0.248 NA
ATOM     38  C   UNL     1      10.126   3.384  -7.755  1.00  0.00     0.031 C 
ATOM     39  C   UNL     1       5.856   1.553  -9.703  1.00  0.00     0.029 A 
ATOM     40  N   UNL     1       6.965   3.068 -10.914  1.00  0.00    -0.354 N 
ATOM     41  C   UNL     1      10.591   4.899  -9.400  1.00  0.00     0.074 A 
ATOM     42  C   UNL     1      10.935   4.375  -8.097  1.00  0.00     0.031 C 
ATOM     43  C   UNL     1       5.157   1.753 -10.832  1.00  0.00     0.029 A 
ATOM     44  C   UNL     1       5.845   2.750 -11.646  1.00  0.00     0.049 A 
ATOM     45  H   UNL     1       7.636   3.724 -11.214  1.00  0.00     0.167 HD
ATOM     46  C   UNL     1      11.318   5.829 -10.063  1.00  0.00     0.037 A 
ATOM     47  C   UNL     1       5.421   3.212 -12.837  1.00  0.00     0.037 A 
ATOM     48  C   UNL     1      10.986   6.323 -11.374  1.00  0.00     0.049 A 
ATOM     49  C   UNL     1       6.261   4.223 -13.566  1.00  0.00     0.074 A 
ATOM     50  C   UNL     1      11.684   7.227 -12.156  1.00  0.00     0.029 A 
ATOM     51  N   UNL     1       9.865   5.948 -12.099  1.00  0.00    -0.354 N 
ATOM     52  N   UNL     1       7.386   4.785 -13.189  1.00  0.00    -0.248 NA
ATOM     53  C   UNL     1       5.784   4.655 -14.887  1.00  0.00     0.031 C 
ATOM     54  C   UNL     1      10.967   7.422 -13.342  1.00  0.00     0.029 A 
ATOM     55  C   UNL     1       9.845   6.610 -13.316  1.00  0.00     0.049 A 
ATOM     56  H   UNL     1       9.183   5.307 -11.794  1.00  0.00     0.167 HD
ATOM     57  C   UNL     1       7.758   5.625 -14.233  1.00  0.00     0.074 A 
ATOM     58  C   UNL     1       6.753   5.477 -15.265  1.00  0.00     0.031 C 
ATOM     59  C   UNL     1       8.832   6.448 -14.328  1.00  0.00     0.037 A 
BRANCH  46  60
ATOM     60  C   UNL     1      12.559   6.355  -9.394  1.00  0.00     0.058 A 
ATOM     61  C   UNL     1      13.704   5.555  -9.243  1.00  0.00     0.135 A 
ATOM     62  C   UNL     1      12.623   7.681  -8.938  1.00  0.00     0.135 A 
ATOM     63  F   UNL     1      13.691   4.274  -9.643  1.00  0.00    -0.206 F 
ATOM     64  C   UNL     1      14.860   6.044  -8.646  1.00  0.00     0.059 A 
ATOM     65  C   UNL     1      13.780   8.200  -8.362  1.00  0.00     0.059 A 
ATOM     66  F   UNL     1      11.557   8.489  -9.054  1.00  0.00    -0.206 F 
ATOM     67  C   UNL     1      14.890   7.370  -8.210  1.00  0.00     0.060 A 
BRANCH  67  68
ATOM     68  S   UNL     1      16.408   7.995  -7.459  1.00  0.00     0.124 S 
ATOM     69  O   UNL     1      16.381   7.336  -6.157  1.00  0.00    -0.237 OA
ATOM     70  O   UNL     1      17.432   7.525  -8.386  1.00  0.00    -0.237 OA
ATOM     71  O   UNL     1      16.205   9.440  -7.435  1.00  0.00    -0.744 OA
ENDBRANCH  67  68
ENDBRANCH  46  60
BRANCH  47  72
ATOM     72  C   UNL     1       4.150   2.708 -13.422  1.00  0.00     0.058 A 
ATOM     73  C   UNL     1       4.155   1.870 -14.548  1.00  0.00     0.135 A 
ATOM     74  C   UNL     1       2.908   3.049 -12.867  1.00  0.00     0.135 A 
ATOM     75  F   UNL     1       5.318   1.517 -15.116  1.00  0.00    -0.206 F 
ATOM     76  C   UNL     1       2.973   1.408 -15.117  1.00  0.00     0.059 A 
ATOM     77  C   UNL     1       1.713   2.579 -13.403  1.00  0.00     0.059 A 
ATOM     78  F   UNL     1       2.850   3.830 -11.777  1.00  0.00    -0.206 F 
ATOM     79  C   UNL     1       1.756   1.770 -14.538  1.00  0.00     0.060 A 
BRANCH  79  80
ATOM     80  S   UNL     1       0.227   1.139 -15.262  1.00  0.00     0.124 S 
ATOM     81  O   UNL     1       0.098   1.974 -16.450  1.00  0.00    -0.237 OA
ATOM     82  O   UNL     1       0.554  -0.264 -15.499  1.00  0.00    -0.237 OA
ATOM     83  O   UNL     1      -0.761   1.373 -14.213  1.00  0.00    -0.744 OA
ENDBRANCH  79  80
ENDBRANCH  47  72
BRANCH  59  84
ATOM     84  C   UNL     1       8.978   7.234 -15.600  1.00  0.00     0.058 A 
ATOM     85  C   UNL     1       8.143   8.325 -15.888  1.00  0.00     0.135 A 
ATOM     86  C   UNL     1       9.982   6.911 -16.526  1.00  0.00     0.135 A 
ATOM     87  F   UNL     1       7.165   8.671 -15.036  1.00  0.00    -0.206 F 
ATOM     88  C   UNL     1       8.274   9.046 -17.069  1.00  0.00     0.059 A 
ATOM     89  C   UNL     1      10.149   7.636 -17.702  1.00  0.00     0.059 A 
ATOM     90  F   UNL     1      10.815   5.885 -16.291  1.00  0.00    -0.206 F 
ATOM     91  C   UNL     1       9.279   8.691 -17.972  1.00  0.00     0.060 A 
BRANCH  91  92
ATOM     92  S   UNL     1       9.448   9.641 -19.497  1.00  0.00     0.124 S 
ATOM     93  O   UNL     1       8.333   9.128 -20.287  1.00  0.00    -0.237 OA
ATOM     94  O   UNL     1       9.311  11.017 -19.028  1.00  0.00    -0.237 OA
ATOM     95  O   UNL     1      10.778   9.278 -19.977  1.00  0.00    -0.744 OA
ENDBRANCH  91  92
ENDBRANCH  59  84
ENDBRANCH  33  34
ENDBRANCH  25  28
ENDBRANCH  23  24
ENDBRANCH   1  23
TORSDOF 16
