REMARK SMILES Cc1cccc(CN(C)c2nc(C)c(C(=O)NCCCNC(=O)c3ccc(-c4c5nc(c(-c6c(F)cc(S(=O)(=O)[O-])cc6F)c6ccc([nH]6)c(-c6c(F)cc(S(=O)(=O)[O-])cc6F)c6nc(c(-c7c(F)cc(S(=O)(=O)[O-])cc7F)c7ccc4[nH]7)C=C6)C=C5)cc3)s2)n1
REMARK SMILES IDX 19 1 18 2 17 3 15 4 16 5 14 7 10 8 11 9 90 10 12 11 13 12
REMARK SMILES IDX 8 13 9 14 7 15 6 16 1 17 2 18 3 19 91 20 4 21 5 22 20 23
REMARK SMILES IDX 21 24 22 25 23 27 24 28 25 29 89 30 26 31 88 32 27 33 28 34
REMARK SMILES IDX 29 35 82 36 30 37 87 38 81 39 83 40 31 41 86 42 80 43 79 44
REMARK SMILES IDX 32 46 66 47 45 48 65 49 46 50 49 51 64 52 84 53 47 54 48 55
REMARK SMILES IDX 63 57 85 58 50 59 33 60 34 61 43 62 35 63 36 64 42 65 44 66
REMARK SMILES IDX 37 67 38 68 39 69 40 70 41 71 67 72 68 73 77 74 69 75 70 76
REMARK SMILES IDX 76 77 78 78 71 79 72 80 73 81 74 82 75 83 51 84 52 85 61 86
REMARK SMILES IDX 53 87 54 88 60 89 62 90 55 91 56 92 57 93 58 94 59 95
REMARK H PARENT 17 6 21 26 83 45 49 56
REMARK Flexibility Score: inf
ROOT
ATOM      1  C   UNL     1      -3.079   2.221   8.278  1.00  0.00     0.042 C 
ENDROOT
BRANCH   1   2
ATOM      2  C   UNL     1      -1.706   1.887   7.701  1.00  0.00     0.118 C 
BRANCH   2   3
ATOM      3  N   UNL     1      -1.806   0.751   6.817  1.00  0.00    -0.351 N 
ATOM      4  C   UNL     1      -1.908   0.623   5.458  1.00  0.00     0.263 C 
ATOM      5  O   UNL     1      -2.046  -0.553   5.098  1.00  0.00    -0.268 OA
ATOM      6  H   UNL     1      -1.800  -0.112   7.290  1.00  0.00     0.163 HD
BRANCH   4   7
ATOM      7  C   UNL     1      -1.795   1.725   4.513  1.00  0.00     0.117 A 
ATOM      8  C   UNL     1      -1.330   2.854   2.354  1.00  0.00     0.186 A 
ATOM      9  N   UNL     1      -1.699   3.713   3.272  1.00  0.00    -0.225 NA
ATOM     10  S   UNL     1      -1.249   1.249   2.941  1.00  0.00    -0.091 S 
ATOM     11  C   UNL     1      -2.055   3.090   4.467  1.00  0.00     0.063 A 
ATOM     12  C   UNL     1      -2.693   4.006   5.443  1.00  0.00     0.068 C 
BRANCH   8  13
ATOM     13  N   UNL     1      -1.006   3.220   1.081  1.00  0.00    -0.345 N 
ATOM     14  C   UNL     1      -0.581   4.590   0.872  1.00  0.00     0.146 C 
BRANCH  13  15
ATOM     15  C   UNL     1      -1.512   2.478  -0.079  1.00  0.00     0.174 C 
BRANCH  15  16
ATOM     16  C   UNL     1      -0.883   1.105  -0.253  1.00  0.00     0.060 A 
ATOM     17  C   UNL     1       2.537  -0.226  -0.158  1.00  0.00     0.067 C 
ATOM     18  C   UNL     1       1.044  -0.195  -0.255  1.00  0.00     0.038 A 
ATOM     19  C   UNL     1       0.298  -1.369  -0.244  1.00  0.00     0.023 A 
ATOM     20  N   UNL     1       0.473   1.031  -0.288  1.00  0.00    -0.256 NA
ATOM     21  C   UNL     1      -1.089  -1.282  -0.278  1.00  0.00     0.004 A 
ATOM     22  C   UNL     1      -1.693  -0.030  -0.284  1.00  0.00     0.026 A 
ENDBRANCH  15  16
ENDBRANCH  13  15
ENDBRANCH   8  13
ENDBRANCH   4   7
ENDBRANCH   2   3
ENDBRANCH   1   2
BRANCH   1  23
ATOM     23  C   UNL     1      -3.488   1.310   9.429  1.00  0.00     0.118 C 
BRANCH  23  24
ATOM     24  N   UNL     1      -2.776   1.640  10.652  1.00  0.00    -0.352 N 
ATOM     25  C   UNL     1      -3.256   2.138  11.839  1.00  0.00     0.251 C 
ATOM     26  H   UNL     1      -1.805   1.484  10.626  1.00  0.00     0.163 HD
ATOM     27  O   UNL     1      -2.463   2.602  12.654  1.00  0.00    -0.269 OA
BRANCH  25  28
ATOM     28  C   UNL     1      -4.707   2.125  12.140  1.00  0.00     0.039 A 
ATOM     29  C   UNL     1      -5.260   3.204  12.839  1.00  0.00     0.014 A 
ATOM     30  C   UNL     1      -5.513   1.036  11.796  1.00  0.00     0.014 A 
ATOM     31  C   UNL     1      -6.622   3.207  13.154  1.00  0.00     0.010 A 
ATOM     32  C   UNL     1      -6.883   1.076  12.040  1.00  0.00     0.010 A 
ATOM     33  C   UNL     1      -7.450   2.153  12.737  1.00  0.00    -0.014 A 
BRANCH  33  34
ATOM     34  C   UNL     1      -8.903   2.143  13.044  1.00  0.00     0.031 A 
ATOM     35  C   UNL     1      -9.478   1.076  13.938  1.00  0.00     0.074 A 
ATOM     36  C   UNL     1      -9.714   3.053  12.470  1.00  0.00     0.049 A 
ATOM     37  N   UNL     1     -10.725   0.856  14.269  1.00  0.00    -0.248 NA
ATOM     38  C   UNL     1      -8.527   0.109  14.511  1.00  0.00     0.031 C 
ATOM     39  C   UNL     1      -9.282   4.112  11.555  1.00  0.00     0.029 A 
ATOM     40  N   UNL     1     -11.071   3.229  12.564  1.00  0.00    -0.354 N 
ATOM     41  C   UNL     1     -10.712  -0.286  15.061  1.00  0.00     0.074 A 
ATOM     42  C   UNL     1      -9.339  -0.738  15.126  1.00  0.00     0.031 C 
ATOM     43  C   UNL     1     -10.348   4.846  11.198  1.00  0.00     0.029 A 
ATOM     44  C   UNL     1     -11.543   4.289  11.826  1.00  0.00     0.049 A 
ATOM     45  H   UNL     1     -11.653   2.651  13.109  1.00  0.00     0.167 HD
ATOM     46  C   UNL     1     -11.746  -0.893  15.693  1.00  0.00     0.037 A 
ATOM     47  C   UNL     1     -12.796   4.758  11.673  1.00  0.00     0.037 A 
ATOM     48  C   UNL     1     -13.103  -0.413  15.656  1.00  0.00     0.049 A 
ATOM     49  C   UNL     1     -13.927   4.075  12.391  1.00  0.00     0.074 A 
ATOM     50  C   UNL     1     -14.209  -0.904  16.326  1.00  0.00     0.029 A 
ATOM     51  N   UNL     1     -13.539   0.669  14.904  1.00  0.00    -0.354 N 
ATOM     52  N   UNL     1     -13.888   3.035  13.189  1.00  0.00    -0.248 NA
ATOM     53  C   UNL     1     -15.272   4.630  12.188  1.00  0.00     0.031 C 
ATOM     54  C   UNL     1     -15.322  -0.144  15.948  1.00  0.00     0.029 A 
ATOM     55  C   UNL     1     -14.902   0.847  15.075  1.00  0.00     0.049 A 
ATOM     56  H   UNL     1     -12.964   1.228  14.333  1.00  0.00     0.167 HD
ATOM     57  C   UNL     1     -15.198   2.828  13.607  1.00  0.00     0.074 A 
ATOM     58  C   UNL     1     -16.004   3.854  12.976  1.00  0.00     0.031 C 
ATOM     59  C   UNL     1     -15.687   1.877  14.441  1.00  0.00     0.037 A 
BRANCH  46  60
ATOM     60  C   UNL     1     -11.445  -2.147  16.468  1.00  0.00     0.058 A 
ATOM     61  C   UNL     1     -10.705  -2.122  17.661  1.00  0.00     0.135 A 
ATOM     62  C   UNL     1     -11.903  -3.393  16.010  1.00  0.00     0.135 A 
ATOM     63  F   UNL     1     -10.232  -0.960  18.139  1.00  0.00    -0.206 F 
ATOM     64  C   UNL     1     -10.389  -3.291  18.347  1.00  0.00     0.059 A 
ATOM     65  C   UNL     1     -11.623  -4.573  16.695  1.00  0.00     0.059 A 
ATOM     66  F   UNL     1     -12.619  -3.477  14.877  1.00  0.00    -0.206 F 
ATOM     67  C   UNL     1     -10.845  -4.513  17.851  1.00  0.00     0.060 A 
BRANCH  67  68
ATOM     68  S   UNL     1     -10.402  -6.025  18.732  1.00  0.00     0.124 S 
ATOM     69  O   UNL     1      -9.007  -6.192  18.336  1.00  0.00    -0.237 OA
ATOM     70  O   UNL     1     -10.624  -5.654  20.126  1.00  0.00    -0.237 OA
ATOM     71  O   UNL     1     -11.330  -7.015  18.195  1.00  0.00    -0.744 OA
ENDBRANCH  67  68
ENDBRANCH  46  60
BRANCH  47  72
ATOM     72  C   UNL     1     -13.035   5.966  10.841  1.00  0.00     0.058 A 
ATOM     73  C   UNL     1     -13.349   7.194  11.441  1.00  0.00     0.135 A 
ATOM     74  C   UNL     1     -12.919   5.931   9.443  1.00  0.00     0.135 A 
ATOM     75  F   UNL     1     -13.477   7.274  12.774  1.00  0.00    -0.206 F 
ATOM     76  C   UNL     1     -13.544   8.345  10.687  1.00  0.00     0.059 A 
ATOM     77  C   UNL     1     -13.088   7.074   8.668  1.00  0.00     0.059 A 
ATOM     78  F   UNL     1     -12.604   4.783   8.822  1.00  0.00    -0.206 F 
ATOM     79  C   UNL     1     -13.406   8.276   9.299  1.00  0.00     0.060 A 
BRANCH  79  80
ATOM     80  S   UNL     1     -13.591   9.793   8.336  1.00  0.00     0.124 S 
ATOM     81  O   UNL     1     -15.034   9.997   8.384  1.00  0.00    -0.237 OA
ATOM     82  O   UNL     1     -12.786  10.741   9.099  1.00  0.00    -0.237 OA
ATOM     83  O   UNL     1     -13.047   9.429   7.031  1.00  0.00    -0.744 OA
ENDBRANCH  79  80
ENDBRANCH  47  72
BRANCH  59  84
ATOM     84  C   UNL     1     -17.158   1.919  14.745  1.00  0.00     0.058 A 
ATOM     85  C   UNL     1     -18.116   1.510  13.805  1.00  0.00     0.135 A 
ATOM     86  C   UNL     1     -17.610   2.327  16.010  1.00  0.00     0.135 A 
ATOM     87  F   UNL     1     -17.736   1.120  12.578  1.00  0.00    -0.206 F 
ATOM     88  C   UNL     1     -19.475   1.524  14.101  1.00  0.00     0.059 A 
ATOM     89  C   UNL     1     -18.962   2.325  16.337  1.00  0.00     0.059 A 
ATOM     90  F   UNL     1     -16.733   2.718  16.948  1.00  0.00    -0.206 F 
ATOM     91  C   UNL     1     -19.889   1.932  15.371  1.00  0.00     0.060 A 
BRANCH  91  92
ATOM     92  S   UNL     1     -21.652   1.911  15.758  1.00  0.00     0.124 S 
ATOM     93  O   UNL     1     -22.122   3.096  15.050  1.00  0.00    -0.237 OA
ATOM     94  O   UNL     1     -22.080   0.630  15.204  1.00  0.00    -0.237 OA
ATOM     95  O   UNL     1     -21.680   1.996  17.215  1.00  0.00    -0.744 OA
ENDBRANCH  91  92
ENDBRANCH  59  84
ENDBRANCH  33  34
ENDBRANCH  25  28
ENDBRANCH  23  24
ENDBRANCH   1  23
TORSDOF 16
