REMARK SMILES O=C(Cn1c(-c2nc(-c3ccc(C(F)(F)F)cc3)no2)cc2ccccc21)NCCCNC(=O)c1ccc(-c2c3nc(c(-c4c(F)cc(S(=O)(=O)[O-])cc4F)c4ccc([nH]4)c(-c4c(F)cc(S(=O)(=O)[O-])cc4F)c4nc(c(-c5c(F)cc(S(=O)(=O)[O-])cc5F)c5ccc2[nH]5)C=C4)C=C3)cc1
REMARK SMILES IDX 29 1 28 2 1 3 2 4 3 6 4 7 5 8 27 9 21 10 22 11 26 12 23 13
REMARK SMILES IDX 25 14 24 15 6 16 7 17 20 18 8 19 19 20 9 21 10 22 18 23
REMARK SMILES IDX 11 24 17 25 12 26 13 27 14 28 15 29 16 30 30 31 31 32 32 33
REMARK SMILES IDX 33 34 34 36 35 37 36 38 100 39 37 40 99 41 38 42 39 43 40 44
REMARK SMILES IDX 93 45 41 46 98 47 92 48 94 49 42 50 97 51 91 52 90 53 43 55
REMARK SMILES IDX 77 56 56 57 76 58 57 59 60 60 75 61 95 62 58 63 59 64 74 66
REMARK SMILES IDX 96 67 61 68 44 69 45 70 54 71 46 72 47 73 53 74 55 75 48 76
REMARK SMILES IDX 49 77 50 78 51 79 52 80 78 81 79 82 88 83 80 84 81 85 87 86
REMARK SMILES IDX 89 87 82 88 83 89 84 90 85 91 86 92 62 93 63 94 72 95 64 96
REMARK SMILES IDX 65 97 71 98 73 99 66 100 67 101 68 102 69 103 70 104
REMARK H PARENT 28 5 32 35 94 54 60 65
REMARK Flexibility Score: inf
ROOT
ATOM      1  C   UNL     1       2.042   0.984  -2.312  1.00  0.00     0.117 C 
ENDROOT
BRANCH   1   2
ATOM      2  N   UNL     1       2.842   0.452  -1.220  1.00  0.00    -0.354 N 
ATOM      3  O   UNL     1       1.104  -0.022   0.207  1.00  0.00    -0.273 OA
ATOM      4  C   UNL     1       2.306  -0.021  -0.042  1.00  0.00     0.239 C 
ATOM      5  H   UNL     1       3.821   0.428  -1.329  1.00  0.00     0.163 HD
BRANCH   4   6
ATOM      6  C   UNL     1       3.326  -0.458   0.992  1.00  0.00     0.222 C 
BRANCH   6   7
ATOM      7  N   UNL     1       4.149  -1.573   0.538  1.00  0.00    -0.327 N 
ATOM      8  C   UNL     1       5.397  -1.483  -0.054  1.00  0.00     0.109 A 
ATOM      9  C   UNL     1       3.783  -2.904   0.678  1.00  0.00     0.049 A 
ATOM     10  C   UNL     1       5.776  -2.767  -0.396  1.00  0.00     0.042 A 
ATOM     11  C   UNL     1       4.799  -3.671   0.106  1.00  0.00     0.000 A 
ATOM     12  C   UNL     1       2.647  -3.497   1.260  1.00  0.00     0.027 A 
ATOM     13  C   UNL     1       4.695  -5.077   0.140  1.00  0.00     0.010 A 
ATOM     14  C   UNL     1       2.570  -4.893   1.287  1.00  0.00     0.002 A 
ATOM     15  C   UNL     1       3.581  -5.675   0.741  1.00  0.00     0.001 A 
BRANCH   8  16
ATOM     16  C   UNL     1       6.161  -0.276  -0.180  1.00  0.00     0.274 A 
ATOM     17  N   UNL     1       6.631   0.234  -1.304  1.00  0.00    -0.185 NA
ATOM     18  O   UNL     1       6.495   0.479   0.911  1.00  0.00    -0.332 OA
ATOM     19  C   UNL     1       7.367   1.323  -0.863  1.00  0.00     0.202 A 
ATOM     20  N   UNL     1       7.290   1.520   0.463  1.00  0.00    -0.057 NA
BRANCH  19  21
ATOM     21  C   UNL     1       8.098   2.257  -1.715  1.00  0.00     0.023 A 
ATOM     22  C   UNL     1       9.375   2.700  -1.355  1.00  0.00     0.013 A 
ATOM     23  C   UNL     1       7.488   2.851  -2.819  1.00  0.00     0.013 A 
ATOM     24  C   UNL     1       9.980   3.767  -2.033  1.00  0.00     0.014 A 
ATOM     25  C   UNL     1       8.071   3.933  -3.489  1.00  0.00     0.014 A 
ATOM     26  C   UNL     1       9.312   4.427  -3.077  1.00  0.00     0.056 A 
BRANCH  26  27
ATOM     27  C   UNL     1       9.908   5.667  -3.699  1.00  0.00     0.416 C 
ATOM     28  F   UNL     1      10.169   6.628  -2.767  1.00  0.00    -0.166 F 
ATOM     29  F   UNL     1      11.094   5.426  -4.322  1.00  0.00    -0.166 F 
ATOM     30  F   UNL     1       9.107   6.261  -4.625  1.00  0.00    -0.166 F 
ENDBRANCH  26  27
ENDBRANCH  19  21
ENDBRANCH   8  16
ENDBRANCH   6   7
ENDBRANCH   4   6
ENDBRANCH   1   2
BRANCH   1  31
ATOM     31  C   UNL     1       2.374   2.448  -2.612  1.00  0.00     0.042 C 
BRANCH  31  32
ATOM     32  C   UNL     1       3.852   2.700  -2.892  1.00  0.00     0.118 C 
BRANCH  32  33
ATOM     33  N   UNL     1       4.400   1.831  -3.919  1.00  0.00    -0.352 N 
ATOM     34  C   UNL     1       4.931   2.043  -5.161  1.00  0.00     0.251 C 
ATOM     35  H   UNL     1       4.386   0.880  -3.665  1.00  0.00     0.163 HD
ATOM     36  O   UNL     1       5.695   1.165  -5.571  1.00  0.00    -0.269 OA
BRANCH  34  37
ATOM     37  C   UNL     1       4.614   3.189  -6.048  1.00  0.00     0.039 A 
ATOM     38  C   UNL     1       3.691   4.192  -5.761  1.00  0.00     0.014 A 
ATOM     39  C   UNL     1       5.192   3.139  -7.334  1.00  0.00     0.014 A 
ATOM     40  C   UNL     1       3.260   5.038  -6.776  1.00  0.00     0.010 A 
ATOM     41  C   UNL     1       4.755   3.976  -8.352  1.00  0.00     0.010 A 
ATOM     42  C   UNL     1       3.738   4.879  -8.084  1.00  0.00    -0.014 A 
BRANCH  42  43
ATOM     43  C   UNL     1       3.153   5.714  -9.125  1.00  0.00     0.031 A 
ATOM     44  C   UNL     1       3.321   7.173  -8.906  1.00  0.00     0.074 A 
ATOM     45  C   UNL     1       2.494   5.244 -10.204  1.00  0.00     0.049 A 
ATOM     46  N   UNL     1       2.425   8.008  -8.495  1.00  0.00    -0.248 NA
ATOM     47  C   UNL     1       4.672   7.738  -8.998  1.00  0.00     0.031 C 
ATOM     48  C   UNL     1       2.404   3.876 -10.717  1.00  0.00     0.029 A 
ATOM     49  N   UNL     1       1.769   5.955 -11.114  1.00  0.00    -0.354 N 
ATOM     50  C   UNL     1       3.042   9.255  -8.469  1.00  0.00     0.074 A 
ATOM     51  C   UNL     1       4.451   9.005  -8.639  1.00  0.00     0.031 C 
ATOM     52  C   UNL     1       1.839   3.892 -11.949  1.00  0.00     0.029 A 
ATOM     53  C   UNL     1       1.387   5.242 -12.244  1.00  0.00     0.049 A 
ATOM     54  H   UNL     1       1.533   6.902 -10.980  1.00  0.00     0.167 HD
ATOM     55  C   UNL     1       2.312  10.405  -8.502  1.00  0.00     0.037 A 
ATOM     56  C   UNL     1       0.753   5.735 -13.340  1.00  0.00     0.037 A 
ATOM     57  C   UNL     1       0.933  10.158  -8.161  1.00  0.00     0.049 A 
ATOM     58  C   UNL     1       0.035   6.962 -12.903  1.00  0.00     0.074 A 
ATOM     59  C   UNL     1       0.281   9.674  -7.042  1.00  0.00     0.029 A 
ATOM     60  N   UNL     1       0.019  10.071  -9.184  1.00  0.00    -0.354 N 
ATOM     61  N   UNL     1      -0.976   6.951 -12.075  1.00  0.00    -0.248 NA
ATOM     62  C   UNL     1       0.735   8.232 -13.015  1.00  0.00     0.031 C 
ATOM     63  C   UNL     1      -0.779   8.868  -7.552  1.00  0.00     0.029 A 
ATOM     64  C   UNL     1      -0.748   8.959  -8.945  1.00  0.00     0.049 A 
ATOM     65  H   UNL     1      -0.067  10.689  -9.946  1.00  0.00     0.167 HD
ATOM     66  C   UNL     1      -0.779   8.055 -11.258  1.00  0.00     0.074 A 
ATOM     67  C   UNL     1       0.252   8.844 -11.930  1.00  0.00     0.031 C 
ATOM     68  C   UNL     1      -1.268   8.097  -9.984  1.00  0.00     0.037 A 
BRANCH  55  69
ATOM     69  C   UNL     1       2.757  11.684  -9.170  1.00  0.00     0.058 A 
ATOM     70  C   UNL     1       1.962  12.843  -9.040  1.00  0.00     0.135 A 
ATOM     71  C   UNL     1       3.758  11.743 -10.164  1.00  0.00     0.135 A 
ATOM     72  F   UNL     1       0.985  12.905  -8.121  1.00  0.00    -0.206 F 
ATOM     73  C   UNL     1       2.089  13.937  -9.897  1.00  0.00     0.059 A 
ATOM     74  C   UNL     1       3.935  12.843 -10.996  1.00  0.00     0.059 A 
ATOM     75  F   UNL     1       4.550  10.702 -10.445  1.00  0.00    -0.206 F 
ATOM     76  C   UNL     1       3.066  13.915 -10.887  1.00  0.00     0.060 A 
BRANCH  76  77
ATOM     77  S   UNL     1       3.140  15.265 -12.077  1.00  0.00     0.124 S 
ATOM     78  O   UNL     1       1.884  15.093 -12.792  1.00  0.00    -0.237 OA
ATOM     79  O   UNL     1       3.231  16.430 -11.205  1.00  0.00    -0.237 OA
ATOM     80  O   UNL     1       4.351  14.967 -12.845  1.00  0.00    -0.744 OA
ENDBRANCH  76  77
ENDBRANCH  55  69
BRANCH  56  81
ATOM     81  C   UNL     1       1.063   5.460 -14.773  1.00  0.00     0.058 A 
ATOM     82  C   UNL     1       0.236   5.941 -15.807  1.00  0.00     0.135 A 
ATOM     83  C   UNL     1       2.328   4.982 -15.168  1.00  0.00     0.135 A 
ATOM     84  F   UNL     1      -0.980   6.433 -15.525  1.00  0.00    -0.206 F 
ATOM     85  C   UNL     1       0.661   6.000 -17.142  1.00  0.00     0.059 A 
ATOM     86  C   UNL     1       2.771   5.025 -16.491  1.00  0.00     0.059 A 
ATOM     87  F   UNL     1       3.214   4.542 -14.263  1.00  0.00    -0.206 F 
ATOM     88  C   UNL     1       1.943   5.561 -17.470  1.00  0.00     0.060 A 
BRANCH  88  89
ATOM     89  S   UNL     1       2.563   5.795 -19.154  1.00  0.00     0.124 S 
ATOM     90  O   UNL     1       1.717   4.886 -19.919  1.00  0.00    -0.237 OA
ATOM     91  O   UNL     1       2.330   7.219 -19.373  1.00  0.00    -0.237 OA
ATOM     92  O   UNL     1       3.968   5.405 -19.056  1.00  0.00    -0.744 OA
ENDBRANCH  88  89
ENDBRANCH  56  81
BRANCH  68  93
ATOM     93  C   UNL     1      -2.246   7.034  -9.552  1.00  0.00     0.058 A 
ATOM     94  C   UNL     1      -1.933   5.666  -9.441  1.00  0.00     0.135 A 
ATOM     95  C   UNL     1      -3.497   7.442  -9.063  1.00  0.00     0.135 A 
ATOM     96  F   UNL     1      -0.724   5.205  -9.792  1.00  0.00    -0.206 F 
ATOM     97  C   UNL     1      -2.832   4.746  -8.895  1.00  0.00     0.059 A 
ATOM     98  C   UNL     1      -4.396   6.548  -8.488  1.00  0.00     0.059 A 
ATOM     99  F   UNL     1      -3.833   8.743  -9.085  1.00  0.00    -0.206 F 
ATOM    100  C   UNL     1      -4.060   5.199  -8.414  1.00  0.00     0.060 A 
BRANCH 100 101
ATOM    101  S   UNL     1      -5.183   4.026  -7.621  1.00  0.00     0.124 S 
ATOM    102  O   UNL     1      -5.598   3.189  -8.745  1.00  0.00    -0.237 OA
ATOM    103  O   UNL     1      -4.316   3.378  -6.638  1.00  0.00    -0.237 OA
ATOM    104  O   UNL     1      -6.224   4.874  -7.057  1.00  0.00    -0.744 OA
ENDBRANCH 100 101
ENDBRANCH  68  93
ENDBRANCH  42  43
ENDBRANCH  34  37
ENDBRANCH  32  33
ENDBRANCH  31  32
ENDBRANCH   1  31
TORSDOF 17
