REMARK SMILES CCS(=O)(=O)/N=c1/[nH]c(C)c(C(=O)NCCCNC(=O)c2ccc(-c3c4nc(c(-c5c(F)cc(S(=O)(=O)[O-])cc5F)c5ccc([nH]5)c(-c5c(F)cc(S(=O)(=O)[O-])cc5F)c5nc(c(-c6c(F)cc(S(=O)(=O)[O-])cc6F)c6ccc3[nH]6)C=C5)C=C4)cc2)s1
REMARK SMILES IDX 16 1 15 2 14 3 12 4 13 5 11 7 6 8 7 9 8 10 87 11 9 12 10 14
REMARK SMILES IDX 3 15 4 16 5 17 2 18 1 19 17 20 18 21 19 22 20 24 21 25 22 26
REMARK SMILES IDX 86 27 23 28 85 29 24 30 25 31 26 32 79 33 27 34 84 35 78 36
REMARK SMILES IDX 80 37 28 38 83 39 77 40 76 41 29 43 63 44 42 45 62 46 43 47
REMARK SMILES IDX 46 48 61 49 81 50 44 51 45 52 60 54 82 55 47 56 30 57 31 58
REMARK SMILES IDX 40 59 32 60 33 61 39 62 41 63 34 64 35 65 36 66 37 67 38 68
REMARK SMILES IDX 64 69 65 70 74 71 66 72 67 73 73 74 75 75 68 76 69 77 70 78
REMARK SMILES IDX 71 79 72 80 48 81 49 82 58 83 50 84 51 85 57 86 59 87 52 88
REMARK SMILES IDX 53 89 54 90 55 91 56 92
REMARK H PARENT 14 6 8 13 18 23 80 42 46 53
REMARK Flexibility Score: inf
ROOT
ATOM      1  C   UNL     1       8.295   2.140  -1.304  1.00  0.00     0.042 C 
ENDROOT
BRANCH   1   2
ATOM      2  C   UNL     1       7.541   1.992   0.001  1.00  0.00     0.118 C 
BRANCH   2   3
ATOM      3  N   UNL     1       6.168   2.396  -0.099  1.00  0.00    -0.351 N 
ATOM      4  C   UNL     1       5.006   1.724  -0.235  1.00  0.00     0.263 C 
ATOM      5  O   UNL     1       4.005   2.453  -0.225  1.00  0.00    -0.268 OA
ATOM      6  H   UNL     1       6.048   3.372  -0.060  1.00  0.00     0.163 HD
BRANCH   4   7
ATOM      7  C   UNL     1       4.850   0.231  -0.397  1.00  0.00     0.114 A 
ATOM      8  N   UNL     1       2.530  -2.795  -0.361  1.00  0.00    -0.135 NA
ATOM      9  C   UNL     1       3.388  -1.865  -0.557  1.00  0.00     0.199 A 
ATOM     10  N   UNL     1       4.729  -2.059  -0.389  1.00  0.00    -0.333 N 
ATOM     11  S   UNL     1       3.189  -0.180  -0.946  1.00  0.00    -0.091 S 
ATOM     12  C   UNL     1       5.526  -0.931  -0.200  1.00  0.00     0.037 A 
ATOM     13  H   UNL     1       5.119  -2.963  -0.402  1.00  0.00     0.169 HD
ATOM     14  C   UNL     1       6.900  -1.222   0.313  1.00  0.00     0.066 C 
BRANCH   8  15
ATOM     15  S   UNL     1       0.928  -2.800  -0.305  1.00  0.00     0.255 S 
ATOM     16  O   UNL     1       0.545  -2.983   1.084  1.00  0.00    -0.205 OA
ATOM     17  O   UNL     1       0.480  -3.778  -1.282  1.00  0.00    -0.205 OA
BRANCH  15  18
ATOM     18  C   UNL     1       0.237  -1.256  -0.828  1.00  0.00     0.159 C 
ATOM     19  C   UNL     1       0.148  -0.207   0.268  1.00  0.00     0.023 C 
ENDBRANCH  15  18
ENDBRANCH   8  15
ENDBRANCH   4   7
ENDBRANCH   2   3
ENDBRANCH   1   2
BRANCH   1  20
ATOM     20  C   UNL     1       8.856   3.543  -1.484  1.00  0.00     0.118 C 
BRANCH  20  21
ATOM     21  N   UNL     1       9.799   3.894  -0.422  1.00  0.00    -0.352 N 
ATOM     22  C   UNL     1      11.163   4.048  -0.454  1.00  0.00     0.251 C 
ATOM     23  H   UNL     1       9.388   4.044   0.460  1.00  0.00     0.163 HD
ATOM     24  O   UNL     1      11.795   4.061   0.595  1.00  0.00    -0.269 OA
BRANCH  22  25
ATOM     25  C   UNL     1      11.854   4.196  -1.750  1.00  0.00     0.039 A 
ATOM     26  C   UNL     1      13.104   3.602  -1.935  1.00  0.00     0.014 A 
ATOM     27  C   UNL     1      11.266   4.936  -2.777  1.00  0.00     0.014 A 
ATOM     28  C   UNL     1      13.729   3.695  -3.179  1.00  0.00     0.010 A 
ATOM     29  C   UNL     1      11.831   4.927  -4.042  1.00  0.00     0.010 A 
ATOM     30  C   UNL     1      13.077   4.323  -4.253  1.00  0.00    -0.014 A 
BRANCH  30  31
ATOM     31  C   UNL     1      13.681   4.388  -5.605  1.00  0.00     0.031 A 
ATOM     32  C   UNL     1      13.961   5.728  -6.231  1.00  0.00     0.074 A 
ATOM     33  C   UNL     1      13.892   3.250  -6.294  1.00  0.00     0.049 A 
ATOM     34  N   UNL     1      14.382   6.003  -7.438  1.00  0.00    -0.248 NA
ATOM     35  C   UNL     1      13.694   6.919  -5.405  1.00  0.00     0.031 C 
ATOM     36  C   UNL     1      13.598   1.898  -5.810  1.00  0.00     0.029 A 
ATOM     37  N   UNL     1      14.390   3.047  -7.555  1.00  0.00    -0.354 N 
ATOM     38  C   UNL     1      14.407   7.390  -7.521  1.00  0.00     0.074 A 
ATOM     39  C   UNL     1      13.896   7.901  -6.269  1.00  0.00     0.031 C 
ATOM     40  C   UNL     1      13.948   1.007  -6.751  1.00  0.00     0.029 A 
ATOM     41  C   UNL     1      14.448   1.723  -7.920  1.00  0.00     0.049 A 
ATOM     42  H   UNL     1      14.679   3.781  -8.144  1.00  0.00     0.167 HD
ATOM     43  C   UNL     1      14.845   8.168  -8.539  1.00  0.00     0.037 A 
ATOM     44  C   UNL     1      14.851   1.152  -9.071  1.00  0.00     0.037 A 
ATOM     45  C   UNL     1      15.388   7.645  -9.764  1.00  0.00     0.049 A 
ATOM     46  C   UNL     1      15.349   2.036 -10.182  1.00  0.00     0.074 A 
ATOM     47  C   UNL     1      15.924   8.339 -10.832  1.00  0.00     0.029 A 
ATOM     48  N   UNL     1      15.465   6.296 -10.082  1.00  0.00    -0.354 N 
ATOM     49  N   UNL     1      15.430   3.345 -10.219  1.00  0.00    -0.248 NA
ATOM     50  C   UNL     1      15.816   1.368 -11.403  1.00  0.00     0.031 C 
ATOM     51  C   UNL     1      16.284   7.413 -11.816  1.00  0.00     0.029 A 
ATOM     52  C   UNL     1      16.022   6.138 -11.339  1.00  0.00     0.049 A 
ATOM     53  H   UNL     1      15.167   5.561  -9.499  1.00  0.00     0.167 HD
ATOM     54  C   UNL     1      15.983   3.656 -11.456  1.00  0.00     0.074 A 
ATOM     55  C   UNL     1      16.228   2.398 -12.130  1.00  0.00     0.031 C 
ATOM     56  C   UNL     1      16.265   4.873 -11.986  1.00  0.00     0.037 A 
BRANCH  43  57
ATOM     57  C   UNL     1      14.766   9.660  -8.363  1.00  0.00     0.058 A 
ATOM     58  C   UNL     1      15.578  10.339  -7.439  1.00  0.00     0.135 A 
ATOM     59  C   UNL     1      13.888  10.427  -9.145  1.00  0.00     0.135 A 
ATOM     60  F   UNL     1      16.424   9.655  -6.651  1.00  0.00    -0.206 F 
ATOM     61  C   UNL     1      15.500  11.717  -7.274  1.00  0.00     0.059 A 
ATOM     62  C   UNL     1      13.815  11.811  -9.020  1.00  0.00     0.059 A 
ATOM     63  F   UNL     1      13.086   9.831 -10.042  1.00  0.00    -0.206 F 
ATOM     64  C   UNL     1      14.615  12.445  -8.071  1.00  0.00     0.060 A 
BRANCH  64  65
ATOM     65  S   UNL     1      14.532  14.235  -7.850  1.00  0.00     0.124 S 
ATOM     66  O   UNL     1      13.844  14.337  -6.566  1.00  0.00    -0.237 OA
ATOM     67  O   UNL     1      15.941  14.614  -7.844  1.00  0.00    -0.237 OA
ATOM     68  O   UNL     1      13.768  14.686  -9.009  1.00  0.00    -0.744 OA
ENDBRANCH  64  65
ENDBRANCH  43  57
BRANCH  44  69
ATOM     69  C   UNL     1      14.825  -0.328  -9.216  1.00  0.00     0.058 A 
ATOM     70  C   UNL     1      16.015  -1.069  -9.261  1.00  0.00     0.135 A 
ATOM     71  C   UNL     1      13.613  -1.033  -9.291  1.00  0.00     0.135 A 
ATOM     72  F   UNL     1      17.198  -0.440  -9.195  1.00  0.00    -0.206 F 
ATOM     73  C   UNL     1      16.008  -2.453  -9.393  1.00  0.00     0.059 A 
ATOM     74  C   UNL     1      13.580  -2.420  -9.397  1.00  0.00     0.059 A 
ATOM     75  F   UNL     1      12.446  -0.374  -9.231  1.00  0.00    -0.206 F 
ATOM     76  C   UNL     1      14.783  -3.121  -9.458  1.00  0.00     0.060 A 
BRANCH  76  77
ATOM     77  S   UNL     1      14.785  -4.923  -9.579  1.00  0.00     0.124 S 
ATOM     78  O   UNL     1      15.228  -5.124 -10.954  1.00  0.00    -0.237 OA
ATOM     79  O   UNL     1      15.738  -5.298  -8.539  1.00  0.00    -0.237 OA
ATOM     80  O   UNL     1      13.396  -5.278  -9.303  1.00  0.00    -0.744 OA
ENDBRANCH  76  77
ENDBRANCH  44  69
BRANCH  56  81
ATOM     81  C   UNL     1      16.902   4.902 -13.347  1.00  0.00     0.058 A 
ATOM     82  C   UNL     1      16.178   4.594 -14.508  1.00  0.00     0.135 A 
ATOM     83  C   UNL     1      18.240   5.305 -13.492  1.00  0.00     0.135 A 
ATOM     84  F   UNL     1      14.899   4.197 -14.422  1.00  0.00    -0.206 F 
ATOM     85  C   UNL     1      16.765   4.663 -15.767  1.00  0.00     0.059 A 
ATOM     86  C   UNL     1      18.838   5.410 -14.743  1.00  0.00     0.059 A 
ATOM     87  F   UNL     1      18.973   5.622 -12.413  1.00  0.00    -0.206 F 
ATOM     88  C   UNL     1      18.095   5.076 -15.874  1.00  0.00     0.060 A 
BRANCH  88  89
ATOM     89  S   UNL     1      18.831   5.199 -17.517  1.00  0.00     0.124 S 
ATOM     90  O   UNL     1      19.012   3.793 -17.864  1.00  0.00    -0.237 OA
ATOM     91  O   UNL     1      17.802   5.910 -18.268  1.00  0.00    -0.237 OA
ATOM     92  O   UNL     1      20.061   5.951 -17.284  1.00  0.00    -0.744 OA
ENDBRANCH  88  89
ENDBRANCH  56  81
ENDBRANCH  30  31
ENDBRANCH  22  25
ENDBRANCH  20  21
ENDBRANCH   1  20
TORSDOF 15
