REMARK SMILES Cc1ccc(-c2nc(NC(=O)[C@H]3[C@@H](C(=O)NCCCNC(=O)c4ccc(-c5c6nc(c(-c7c(F)cc(S(=O)(=O)[O-])cc7F)c7ccc([nH]7)c(-c7c(F)cc(S(=O)(=O)[O-])cc7F)c7nc(c(-c8c(F)cc(S(=O)(=O)[O-])cc8F)c8ccc5[nH]8)C=C7)C=C6)cc4)[C@@H]4CC[C@H]3O4)sc2C)cc1
REMARK SMILES IDX 18 1 17 2 16 3 14 4 15 5 13 7 12 8 92 9 89 10 91 11 93 12
REMARK SMILES IDX 90 13 10 14 9 15 11 17 8 18 6 19 7 20 95 21 94 22 96 23 5 24
REMARK SMILES IDX 1 25 2 26 3 27 98 28 4 29 97 30 19 31 20 32 21 33 22 35
REMARK SMILES IDX 23 36 24 37 88 38 25 39 87 40 26 41 27 42 28 43 81 44 29 45
REMARK SMILES IDX 86 46 80 47 82 48 30 49 85 50 79 51 78 52 31 54 65 55 44 56
REMARK SMILES IDX 64 57 45 58 48 59 63 60 83 61 46 62 47 63 62 65 84 66 49 67
REMARK SMILES IDX 32 68 33 69 42 70 34 71 35 72 41 73 43 74 36 75 37 76 38 77
REMARK SMILES IDX 39 78 40 79 66 80 67 81 76 82 68 83 69 84 75 85 77 86 70 87
REMARK SMILES IDX 71 88 72 89 73 90 74 91 50 92 51 93 60 94 52 95 53 96 59 97
REMARK SMILES IDX 61 98 54 99 55 100 56 101 57 102 58 103
REMARK H PARENT 16 6 9 16 20 34 82 53 48 64
REMARK Flexibility Score: inf
ROOT
ATOM      1  C   UNL     1      -5.774  -1.068   1.177  1.00  0.00     0.042 C 
ENDROOT
BRANCH   1   2
ATOM      2  C   UNL     1      -6.617  -0.602   2.348  1.00  0.00     0.117 C 
BRANCH   2   3
ATOM      3  N   UNL     1      -7.453   0.572   2.113  1.00  0.00    -0.356 N 
ATOM      4  C   UNL     1      -8.762   0.547   1.733  1.00  0.00     0.226 C 
ATOM      5  O   UNL     1      -9.595   1.024   2.507  1.00  0.00    -0.275 OA
ATOM      6  H   UNL     1      -7.037   1.455   2.239  1.00  0.00     0.163 HD
BRANCH   4   7
ATOM      7  C   UNL     1      -9.162  -0.188   0.475  1.00  0.00     0.122 C 
ATOM      8  C   UNL     1      -8.529  -0.038  -0.919  1.00  0.00     0.123 C 
ATOM      9  C   UNL     1      -9.746  -0.419  -1.787  1.00  0.00     0.132 C 
ATOM     10  C   UNL     1     -10.681  -0.065   0.137  1.00  0.00     0.132 C 
ATOM     11  C   UNL     1     -10.350  -1.796  -1.405  1.00  0.00     0.035 C 
ATOM     12  O   UNL     1     -10.708   0.485  -1.210  1.00  0.00    -0.373 OA
ATOM     13  C   UNL     1     -11.226  -1.447  -0.194  1.00  0.00     0.035 C 
BRANCH   8  14
ATOM     14  C   UNL     1      -7.761   1.075  -1.684  1.00  0.00     0.232 C 
ATOM     15  N   UNL     1      -7.692   2.421  -1.613  1.00  0.00    -0.302 N 
ATOM     16  H   UNL     1      -7.113   2.785  -2.321  1.00  0.00     0.172 HD
ATOM     17  O   UNL     1      -7.085   0.632  -2.643  1.00  0.00    -0.274 OA
BRANCH  15  18
ATOM     18  C   UNL     1      -8.204   3.417  -0.833  1.00  0.00     0.190 A 
ATOM     19  C   UNL     1      -8.458   5.424   0.117  1.00  0.00     0.086 A 
ATOM     20  N   UNL     1      -7.829   4.683  -0.899  1.00  0.00    -0.220 NA
ATOM     21  C   UNL     1      -9.377   4.684   0.851  1.00  0.00     0.031 A 
ATOM     22  S   UNL     1      -9.436   3.100   0.245  1.00  0.00    -0.101 S 
ATOM     23  C   UNL     1     -10.284   5.003   1.983  1.00  0.00     0.059 C 
BRANCH  19  24
ATOM     24  C   UNL     1      -8.197   6.849   0.378  1.00  0.00     0.001 A 
ATOM     25  C   UNL     1      -7.929  11.089   1.300  1.00  0.00     0.044 C 
ATOM     26  C   UNL     1      -7.997   9.624   0.975  1.00  0.00    -0.051 A 
ATOM     27  C   UNL     1      -7.987   9.169  -0.352  1.00  0.00     0.004 A 
ATOM     28  C   UNL     1      -8.046   8.681   1.999  1.00  0.00     0.004 A 
ATOM     29  C   UNL     1      -8.088   7.794  -0.649  1.00  0.00     0.010 A 
ATOM     30  C   UNL     1      -8.122   7.316   1.702  1.00  0.00     0.010 A 
ENDBRANCH  19  24
ENDBRANCH  15  18
ENDBRANCH   8  14
ENDBRANCH   4   7
ENDBRANCH   2   3
ENDBRANCH   1   2
BRANCH   1  31
ATOM     31  C   UNL     1      -4.927   0.040   0.586  1.00  0.00     0.118 C 
BRANCH  31  32
ATOM     32  N   UNL     1      -3.544   0.010   1.016  1.00  0.00    -0.352 N 
ATOM     33  C   UNL     1      -2.607  -0.474   0.113  1.00  0.00     0.251 C 
ATOM     34  H   UNL     1      -3.279   0.320   1.912  1.00  0.00     0.163 HD
ATOM     35  O   UNL     1      -2.537  -1.624  -0.280  1.00  0.00    -0.269 OA
BRANCH  33  36
ATOM     36  C   UNL     1      -2.013   0.632  -0.668  1.00  0.00     0.039 A 
ATOM     37  C   UNL     1      -0.907   1.363  -0.240  1.00  0.00     0.014 A 
ATOM     38  C   UNL     1      -2.823   1.074  -1.718  1.00  0.00     0.014 A 
ATOM     39  C   UNL     1      -0.663   2.611  -0.819  1.00  0.00     0.010 A 
ATOM     40  C   UNL     1      -2.632   2.335  -2.224  1.00  0.00     0.010 A 
ATOM     41  C   UNL     1      -1.569   3.115  -1.756  1.00  0.00    -0.014 A 
BRANCH  41  42
ATOM     42  C   UNL     1      -1.529   4.451  -2.331  1.00  0.00     0.031 A 
ATOM     43  C   UNL     1      -0.976   4.643  -3.687  1.00  0.00     0.074 A 
ATOM     44  C   UNL     1      -2.203   5.441  -1.710  1.00  0.00     0.049 A 
ATOM     45  N   UNL     1      -0.698   5.784  -4.217  1.00  0.00    -0.248 NA
ATOM     46  C   UNL     1      -0.640   3.517  -4.549  1.00  0.00     0.031 C 
ATOM     47  C   UNL     1      -2.648   6.708  -2.280  1.00  0.00     0.029 A 
ATOM     48  N   UNL     1      -2.449   5.568  -0.339  1.00  0.00    -0.354 N 
ATOM     49  C   UNL     1      -0.419   5.579  -5.553  1.00  0.00     0.074 A 
ATOM     50  C   UNL     1      -0.304   4.146  -5.678  1.00  0.00     0.031 C 
ATOM     51  C   UNL     1      -2.853   7.582  -1.282  1.00  0.00     0.029 A 
ATOM     52  C   UNL     1      -2.380   6.950  -0.061  1.00  0.00     0.049 A 
ATOM     53  H   UNL     1      -2.632   4.843   0.301  1.00  0.00     0.167 HD
ATOM     54  C   UNL     1      -0.451   6.650  -6.402  1.00  0.00     0.037 A 
ATOM     55  C   UNL     1      -1.382   7.450   0.727  1.00  0.00     0.037 A 
ATOM     56  C   UNL     1      -0.595   7.894  -5.636  1.00  0.00     0.049 A 
ATOM     57  C   UNL     1      -0.487   8.440   0.020  1.00  0.00     0.074 A 
ATOM     58  C   UNL     1      -1.683   8.702  -5.347  1.00  0.00     0.029 A 
ATOM     59  N   UNL     1       0.429   8.293  -4.781  1.00  0.00    -0.354 N 
ATOM     60  N   UNL     1      -0.361   8.525  -1.277  1.00  0.00    -0.248 NA
ATOM     61  C   UNL     1       0.324   9.428   0.723  1.00  0.00     0.031 C 
ATOM     62  C   UNL     1      -1.332   9.532  -4.251  1.00  0.00     0.029 A 
ATOM     63  C   UNL     1      -0.023   9.254  -3.896  1.00  0.00     0.049 A 
ATOM     64  H   UNL     1       1.347   7.940  -4.803  1.00  0.00     0.167 HD
ATOM     65  C   UNL     1       0.522   9.527  -1.591  1.00  0.00     0.074 A 
ATOM     66  C   UNL     1       0.903  10.077  -0.303  1.00  0.00     0.031 C 
ATOM     67  C   UNL     1       0.864   9.819  -2.884  1.00  0.00     0.037 A 
BRANCH  54  68
ATOM     68  C   UNL     1      -0.628   6.582  -7.918  1.00  0.00     0.058 A 
ATOM     69  C   UNL     1      -1.103   7.706  -8.637  1.00  0.00     0.135 A 
ATOM     70  C   UNL     1      -0.435   5.439  -8.722  1.00  0.00     0.135 A 
ATOM     71  F   UNL     1      -1.259   8.900  -8.046  1.00  0.00    -0.206 F 
ATOM     72  C   UNL     1      -1.450   7.667  -9.994  1.00  0.00     0.059 A 
ATOM     73  C   UNL     1      -0.806   5.363 -10.069  1.00  0.00     0.059 A 
ATOM     74  F   UNL     1       0.174   4.343  -8.267  1.00  0.00    -0.206 F 
ATOM     75  C   UNL     1      -1.329   6.478 -10.697  1.00  0.00     0.060 A 
BRANCH  75  76
ATOM     76  S   UNL     1      -1.832   6.412 -12.426  1.00  0.00     0.124 S 
ATOM     77  O   UNL     1      -3.251   6.745 -12.345  1.00  0.00    -0.237 OA
ATOM     78  O   UNL     1      -0.975   7.424 -13.035  1.00  0.00    -0.237 OA
ATOM     79  O   UNL     1      -1.540   5.035 -12.815  1.00  0.00    -0.744 OA
ENDBRANCH  75  76
ENDBRANCH  54  68
BRANCH  55  80
ATOM     80  C   UNL     1      -0.967   6.502   1.802  1.00  0.00     0.058 A 
ATOM     81  C   UNL     1      -1.914   6.211   2.804  1.00  0.00     0.135 A 
ATOM     82  C   UNL     1       0.058   5.568   1.592  1.00  0.00     0.135 A 
ATOM     83  F   UNL     1      -2.900   7.084   3.069  1.00  0.00    -0.206 F 
ATOM     84  C   UNL     1      -1.963   4.967   3.427  1.00  0.00     0.059 A 
ATOM     85  C   UNL     1       0.038   4.319   2.220  1.00  0.00     0.059 A 
ATOM     86  F   UNL     1       0.999   5.793   0.663  1.00  0.00    -0.206 F 
ATOM     87  C   UNL     1      -1.028   4.000   3.063  1.00  0.00     0.060 A 
BRANCH  87  88
ATOM     88  S   UNL     1      -1.347   2.288   3.553  1.00  0.00     0.124 S 
ATOM     89  O   UNL     1      -1.484   2.399   5.000  1.00  0.00    -0.237 OA
ATOM     90  O   UNL     1      -2.580   1.986   2.821  1.00  0.00    -0.237 OA
ATOM     91  O   UNL     1      -0.167   1.571   3.084  1.00  0.00    -0.744 OA
ENDBRANCH  87  88
ENDBRANCH  55  80
BRANCH  67  92
ATOM     92  C   UNL     1       1.989  10.733  -3.331  1.00  0.00     0.058 A 
ATOM     93  C   UNL     1       3.130  11.023  -2.562  1.00  0.00     0.135 A 
ATOM     94  C   UNL     1       2.009  11.254  -4.651  1.00  0.00     0.135 A 
ATOM     95  F   UNL     1       3.310  10.492  -1.345  1.00  0.00    -0.206 F 
ATOM     96  C   UNL     1       4.170  11.832  -3.031  1.00  0.00     0.059 A 
ATOM     97  C   UNL     1       3.063  12.010  -5.160  1.00  0.00     0.059 A 
ATOM     98  F   UNL     1       1.002  11.031  -5.509  1.00  0.00    -0.206 F 
ATOM     99  C   UNL     1       4.128  12.322  -4.331  1.00  0.00     0.060 A 
BRANCH  99 100
ATOM    100  S   UNL     1       5.498  13.309  -4.961  1.00  0.00     0.124 S 
ATOM    101  O   UNL     1       5.080  14.657  -4.589  1.00  0.00    -0.237 OA
ATOM    102  O   UNL     1       6.643  12.780  -4.227  1.00  0.00    -0.237 OA
ATOM    103  O   UNL     1       5.492  13.015  -6.391  1.00  0.00    -0.744 OA
ENDBRANCH  99 100
ENDBRANCH  67  92
ENDBRANCH  41  42
ENDBRANCH  33  36
ENDBRANCH  31  32
ENDBRANCH   1  31
TORSDOF 16
