REMARK SMILES O=C(NCCCNC(=O)[C@@H]1C[N@@H+](CCOc2ccc(F)cc2)C[C@H]1C1CC1)c1ccc(-c2c3nc(c(-c4c(F)cc(S(=O)(=O)[O-])cc4F)c4ccc([nH]4)c(-c4c(F)cc(S(=O)(=O)[O-])cc4F)c4nc(c(-c5c(F)cc(S(=O)(=O)[O-])cc5F)c5ccc2[nH]5)C=C4)C=C3)cc1
REMARK SMILES IDX 5 1 4 2 3 3 1 4 2 5 28 7 29 8 93 9 30 10 92 11 31 12 32 13
REMARK SMILES IDX 33 14 86 15 34 16 91 17 85 18 87 19 35 20 90 21 84 22 83 23
REMARK SMILES IDX 36 25 70 26 49 27 69 28 50 29 53 30 68 31 88 32 51 33 52 34
REMARK SMILES IDX 67 36 89 37 54 38 37 39 38 40 47 41 39 42 40 43 46 44 48 45
REMARK SMILES IDX 41 46 42 47 43 48 44 49 45 50 71 51 72 52 81 53 73 54 74 55
REMARK SMILES IDX 80 56 82 57 75 58 76 59 77 60 78 61 79 62 55 63 56 64 65 65
REMARK SMILES IDX 57 66 58 67 64 68 66 69 59 70 60 71 61 72 62 73 63 74 6 75
REMARK SMILES IDX 7 76 8 77 9 79 10 80 11 81 24 82 12 83 23 84 25 86 26 87
REMARK SMILES IDX 27 88 13 89 14 90 15 91 16 92 17 93 22 94 18 95 21 96 19 97
REMARK SMILES IDX 20 98
REMARK H PARENT 3 6 87 24 53 35 7 78 12 85
REMARK Flexibility Score: inf
ROOT
ATOM      1  C   UNL     1       4.065  -1.216  -2.506  1.00  0.00     0.042 C 
ENDROOT
BRANCH   1   2
ATOM      2  C   UNL     1       4.052   0.091  -1.729  1.00  0.00     0.118 C 
BRANCH   2   3
ATOM      3  N   UNL     1       2.718   0.405  -1.253  1.00  0.00    -0.352 N 
ATOM      4  O   UNL     1       0.977   0.352   0.149  1.00  0.00    -0.269 OA
ATOM      5  C   UNL     1       2.200   0.373   0.019  1.00  0.00     0.251 C 
ATOM      6  H   UNL     1       2.084   0.685  -1.952  1.00  0.00     0.163 HD
BRANCH   5   7
ATOM      7  C   UNL     1       3.069   0.384   1.224  1.00  0.00     0.039 A 
ATOM      8  C   UNL     1       4.264   1.105   1.264  1.00  0.00     0.014 A 
ATOM      9  C   UNL     1       2.610  -0.241   2.392  1.00  0.00     0.014 A 
ATOM     10  C   UNL     1       5.032   1.133   2.428  1.00  0.00     0.010 A 
ATOM     11  C   UNL     1       3.339  -0.142   3.585  1.00  0.00     0.010 A 
ATOM     12  C   UNL     1       4.561   0.545   3.614  1.00  0.00    -0.014 A 
BRANCH  12  13
ATOM     13  C   UNL     1       5.307   0.759   4.884  1.00  0.00     0.031 A 
ATOM     14  C   UNL     1       5.937  -0.385   5.628  1.00  0.00     0.074 A 
ATOM     15  C   UNL     1       5.435   2.018   5.354  1.00  0.00     0.049 A 
ATOM     16  N   UNL     1       6.646  -0.358   6.729  1.00  0.00    -0.248 NA
ATOM     17  C   UNL     1       5.747  -1.733   5.073  1.00  0.00     0.031 C 
ATOM     18  C   UNL     1       4.852   3.210   4.730  1.00  0.00     0.029 A 
ATOM     19  N   UNL     1       6.111   2.515   6.440  1.00  0.00    -0.354 N 
ATOM     20  C   UNL     1       6.983  -1.678   7.002  1.00  0.00     0.074 A 
ATOM     21  C   UNL     1       6.372  -2.487   5.968  1.00  0.00     0.031 C 
ATOM     22  C   UNL     1       5.248   4.300   5.402  1.00  0.00     0.029 A 
ATOM     23  C   UNL     1       6.057   3.886   6.543  1.00  0.00     0.049 A 
ATOM     24  H   UNL     1       6.588   1.944   7.085  1.00  0.00     0.167 HD
ATOM     25  C   UNL     1       7.743  -2.166   8.012  1.00  0.00     0.037 A 
ATOM     26  C   UNL     1       6.590   4.723   7.455  1.00  0.00     0.037 A 
ATOM     27  C   UNL     1       8.351  -1.352   9.036  1.00  0.00     0.049 A 
ATOM     28  C   UNL     1       7.396   4.152   8.586  1.00  0.00     0.074 A 
ATOM     29  C   UNL     1       9.149  -1.756  10.094  1.00  0.00     0.029 A 
ATOM     30  N   UNL     1       8.231   0.027   9.134  1.00  0.00    -0.354 N 
ATOM     31  N   UNL     1       7.714   2.901   8.818  1.00  0.00    -0.248 NA
ATOM     32  C   UNL     1       7.909   5.101   9.583  1.00  0.00     0.031 C 
ATOM     33  C   UNL     1       9.475  -0.628  10.853  1.00  0.00     0.029 A 
ATOM     34  C   UNL     1       8.924   0.487  10.243  1.00  0.00     0.049 A 
ATOM     35  H   UNL     1       7.728   0.596   8.507  1.00  0.00     0.167 HD
ATOM     36  C   UNL     1       8.472   2.913   9.982  1.00  0.00     0.074 A 
ATOM     37  C   UNL     1       8.581   4.297  10.396  1.00  0.00     0.031 C 
ATOM     38  C   UNL     1       9.022   1.868  10.648  1.00  0.00     0.037 A 
BRANCH  25  39
ATOM     39  C   UNL     1       7.966  -3.653   8.071  1.00  0.00     0.058 A 
ATOM     40  C   UNL     1       7.387  -4.426   9.090  1.00  0.00     0.135 A 
ATOM     41  C   UNL     1       8.811  -4.306   7.158  1.00  0.00     0.135 A 
ATOM     42  F   UNL     1       6.569  -3.856   9.989  1.00  0.00    -0.206 F 
ATOM     43  C   UNL     1       7.646  -5.788   9.211  1.00  0.00     0.059 A 
ATOM     44  C   UNL     1       9.066  -5.672   7.245  1.00  0.00     0.059 A 
ATOM     45  F   UNL     1       9.377  -3.619   6.152  1.00  0.00    -0.206 F 
ATOM     46  C   UNL     1       8.489  -6.402   8.283  1.00  0.00     0.060 A 
BRANCH  46  47
ATOM     47  S   UNL     1       8.789  -8.177   8.432  1.00  0.00     0.124 S 
ATOM     48  O   UNL     1       9.619  -8.243   9.629  1.00  0.00    -0.237 OA
ATOM     49  O   UNL     1       7.435  -8.706   8.564  1.00  0.00    -0.237 OA
ATOM     50  O   UNL     1       9.462  -8.511   7.179  1.00  0.00    -0.744 OA
ENDBRANCH  46  47
ENDBRANCH  25  39
BRANCH  26  51
ATOM     51  C   UNL     1       6.380   6.189   7.316  1.00  0.00     0.058 A 
ATOM     52  C   UNL     1       5.111   6.763   7.488  1.00  0.00     0.135 A 
ATOM     53  C   UNL     1       7.437   7.036   6.951  1.00  0.00     0.135 A 
ATOM     54  F   UNL     1       4.065   5.994   7.829  1.00  0.00    -0.206 F 
ATOM     55  C   UNL     1       4.888   8.116   7.266  1.00  0.00     0.059 A 
ATOM     56  C   UNL     1       7.244   8.400   6.750  1.00  0.00     0.059 A 
ATOM     57  F   UNL     1       8.671   6.536   6.788  1.00  0.00    -0.206 F 
ATOM     58  C   UNL     1       5.960   8.926   6.889  1.00  0.00     0.060 A 
BRANCH  58  59
ATOM     59  S   UNL     1       5.643  10.676   6.578  1.00  0.00     0.124 S 
ATOM     60  O   UNL     1       4.876  10.616   5.338  1.00  0.00    -0.237 OA
ATOM     61  O   UNL     1       4.897  11.069   7.769  1.00  0.00    -0.237 OA
ATOM     62  O   UNL     1       6.981  11.246   6.462  1.00  0.00    -0.744 OA
ENDBRANCH  58  59
ENDBRANCH  26  51
BRANCH  38  63
ATOM     63  C   UNL     1       9.808   2.176  11.892  1.00  0.00     0.058 A 
ATOM     64  C   UNL     1      11.205   2.038  11.904  1.00  0.00     0.135 A 
ATOM     65  C   UNL     1       9.174   2.543  13.089  1.00  0.00     0.135 A 
ATOM     66  F   UNL     1      11.861   1.686  10.787  1.00  0.00    -0.206 F 
ATOM     67  C   UNL     1      11.944   2.235  13.065  1.00  0.00     0.059 A 
ATOM     68  C   UNL     1       9.896   2.771  14.256  1.00  0.00     0.059 A 
ATOM     69  F   UNL     1       7.841   2.703  13.125  1.00  0.00    -0.206 F 
ATOM     70  C   UNL     1      11.280   2.598  14.238  1.00  0.00     0.060 A 
BRANCH  70  71
ATOM     71  S   UNL     1      12.257   2.861  15.733  1.00  0.00     0.124 S 
ATOM     72  O   UNL     1      12.651   1.499  16.076  1.00  0.00    -0.237 OA
ATOM     73  O   UNL     1      13.328   3.730  15.254  1.00  0.00    -0.237 OA
ATOM     74  O   UNL     1      11.311   3.492  16.649  1.00  0.00    -0.744 OA
ENDBRANCH  70  71
ENDBRANCH  38  63
ENDBRANCH  12  13
ENDBRANCH   5   7
ENDBRANCH   2   3
ENDBRANCH   1   2
BRANCH   1  75
ATOM     75  C   UNL     1       3.481  -1.141  -3.927  1.00  0.00     0.117 C 
BRANCH  75  76
ATOM     76  N   UNL     1       4.257  -0.383  -4.921  1.00  0.00    -0.356 N 
ATOM     77  C   UNL     1       5.007  -0.799  -5.997  1.00  0.00     0.229 C 
ATOM     78  H   UNL     1       4.236   0.593  -4.795  1.00  0.00     0.163 HD
ATOM     79  O   UNL     1       4.910  -0.117  -7.025  1.00  0.00    -0.275 OA
BRANCH  77  80
ATOM     80  C   UNL     1       6.102  -1.869  -5.918  1.00  0.00     0.142 C 
ATOM     81  C   UNL     1       6.222  -2.814  -7.139  1.00  0.00     0.276 C 
ATOM     82  C   UNL     1       6.040  -2.794  -4.733  1.00  0.00     0.065 C 
ATOM     83  N   UNL     1       6.396  -4.196  -6.623  1.00  0.00    -0.331 N 
ATOM     84  C   UNL     1       5.726  -4.142  -5.348  1.00  0.00     0.267 C 
ATOM     85  H   UNL     1       5.999  -4.876  -7.272  1.00  0.00     0.348 HD
BRANCH  82  86
ATOM     86  C   UNL     1       7.171  -2.657  -3.748  1.00  0.00    -0.001 C 
ATOM     87  C   UNL     1       8.579  -2.172  -4.014  1.00  0.00     0.004 C 
ATOM     88  C   UNL     1       7.612  -1.275  -3.305  1.00  0.00     0.004 C 
ENDBRANCH  82  86
BRANCH  83  89
ATOM     89  C   UNL     1       7.761  -4.770  -6.600  1.00  0.00     0.304 C 
BRANCH  89  90
ATOM     90  C   UNL     1       8.447  -5.362  -5.311  1.00  0.00     0.290 C 
BRANCH  90  91
ATOM     91  O   UNL     1       7.838  -6.547  -4.753  1.00  0.00    -0.488 OA
BRANCH  91  92
ATOM     92  C   UNL     1       7.293  -6.410  -3.494  1.00  0.00     0.119 A 
ATOM     93  C   UNL     1       5.986  -6.900  -3.355  1.00  0.00     0.049 A 
ATOM     94  C   UNL     1       7.882  -5.716  -2.434  1.00  0.00     0.049 A 
ATOM     95  C   UNL     1       5.202  -6.509  -2.267  1.00  0.00     0.043 A 
ATOM     96  C   UNL     1       7.105  -5.361  -1.320  1.00  0.00     0.043 A 
ATOM     97  C   UNL     1       5.761  -5.714  -1.275  1.00  0.00     0.123 A 
ATOM     98  F   UNL     1       4.982  -5.244  -0.291  1.00  0.00    -0.207 F 
ENDBRANCH  91  92
ENDBRANCH  90  91
ENDBRANCH  89  90
ENDBRANCH  83  89
ENDBRANCH  77  80
ENDBRANCH  75  76
ENDBRANCH   1  75
TORSDOF 18
