REMARK SMILES CCC[N@@H+]1CC2(CCN(C(=O)Cn3nnnc3C)CC2)C[C@H]1C(=O)NCCCNC(=O)c1ccc(-c2c3nc(c(-c4c(F)cc(S(=O)(=O)[O-])cc4F)c4ccc([nH]4)c(-c4c(F)cc(S(=O)(=O)[O-])cc4F)c4nc(c(-c5c(F)cc(S(=O)(=O)[O-])cc5F)c5ccc2[nH]5)C=C4)C=C3)cc1
REMARK SMILES IDX 27 1 26 2 25 3 23 4 24 5 22 7 4 8 5 9 6 11 21 12 7 13 20 14
REMARK SMILES IDX 8 15 19 16 9 17 10 18 11 19 3 20 2 21 1 22 12 23 13 24 14 25
REMARK SMILES IDX 17 26 15 27 16 28 18 29 28 30 29 31 30 32 31 34 32 35 33 36
REMARK SMILES IDX 97 37 34 38 96 39 35 40 36 41 37 42 90 43 38 44 95 45 89 46
REMARK SMILES IDX 91 47 39 48 94 49 88 50 87 51 40 53 74 54 53 55 73 56 54 57
REMARK SMILES IDX 57 58 72 59 92 60 55 61 56 62 71 64 93 65 58 66 41 67 42 68
REMARK SMILES IDX 51 69 43 70 44 71 50 72 52 73 45 74 46 75 47 76 48 77 49 78
REMARK SMILES IDX 75 79 76 80 85 81 77 82 78 83 84 84 86 85 79 86 80 87 81 88
REMARK SMILES IDX 82 89 83 90 59 91 60 92 69 93 61 94 62 95 68 96 70 97 63 98
REMARK SMILES IDX 64 99 65 100 66 101 67 102
REMARK H PARENT 25 6 4 10 29 33 91 52 57 63
REMARK Flexibility Score: inf
ROOT
ATOM      1  C   UNL     1      -2.135  -3.947  -0.615  1.00  0.00     0.042 C 
ENDROOT
BRANCH   1   2
ATOM      2  C   UNL     1      -0.889  -4.792  -0.899  1.00  0.00     0.118 C 
BRANCH   2   3
ATOM      3  N   UNL     1      -0.330  -4.677  -2.228  1.00  0.00    -0.351 N 
ATOM      4  C   UNL     1       0.736  -3.984  -2.719  1.00  0.00     0.278 C 
ATOM      5  O   UNL     1       1.130  -4.346  -3.838  1.00  0.00    -0.268 OA
ATOM      6  H   UNL     1      -0.813  -5.199  -2.909  1.00  0.00     0.163 HD
BRANCH   4   7
ATOM      7  C   UNL     1       1.483  -2.812  -2.018  1.00  0.00     0.274 C 
ATOM      8  N   UNL     1       0.577  -1.689  -1.681  1.00  0.00    -0.324 N 
ATOM      9  C   UNL     1       0.423  -1.713  -0.233  1.00  0.00     0.270 C 
ATOM     10  H   UNL     1      -0.357  -1.767  -2.085  1.00  0.00     0.348 HD
ATOM     11  C   UNL     1       1.655  -2.372   0.411  1.00  0.00     0.029 C 
ATOM     12  C   UNL     1       2.338  -3.080  -0.776  1.00  0.00     0.088 C 
ATOM     13  C   UNL     1       1.401  -3.411   1.528  1.00  0.00     0.034 C 
ATOM     14  C   UNL     1       2.482  -1.269   1.115  1.00  0.00     0.034 C 
ATOM     15  C   UNL     1       0.525  -2.855   2.626  1.00  0.00     0.120 C 
ATOM     16  C   UNL     1       1.738  -0.698   2.352  1.00  0.00     0.120 C 
ATOM     17  N   UNL     1       1.191  -1.722   3.256  1.00  0.00    -0.341 N 
ATOM     18  C   UNL     1       1.154  -1.474   4.622  1.00  0.00     0.244 C 
ATOM     19  O   UNL     1       1.671  -0.463   5.107  1.00  0.00    -0.273 OA
BRANCH   8  20
ATOM     20  C   UNL     1       1.103  -0.440  -2.262  1.00  0.00     0.262 C 
BRANCH  20  21
ATOM     21  C   UNL     1       0.317   0.847  -1.966  1.00  0.00     0.058 C 
ATOM     22  C   UNL     1       0.930   1.692  -0.856  1.00  0.00     0.010 C 
ENDBRANCH  20  21
ENDBRANCH   8  20
BRANCH  18  23
ATOM     23  C   UNL     1       0.493  -2.478   5.546  1.00  0.00     0.248 C 
BRANCH  23  24
ATOM     24  N   UNL     1      -0.941  -2.564   5.388  1.00  0.00    -0.220 N 
ATOM     25  N   UNL     1      -1.516  -3.778   5.316  1.00  0.00    -0.044 NA
ATOM     26  C   UNL     1      -1.907  -1.597   5.319  1.00  0.00     0.148 A 
ATOM     27  N   UNL     1      -2.812  -3.547   5.179  1.00  0.00    -0.024 NA
ATOM     28  N   UNL     1      -3.069  -2.202   5.174  1.00  0.00    -0.114 NA
ATOM     29  C   UNL     1      -1.699  -0.137   5.375  1.00  0.00     0.091 C 
ENDBRANCH  23  24
ENDBRANCH  18  23
ENDBRANCH   4   7
ENDBRANCH   2   3
ENDBRANCH   1   2
BRANCH   1  30
ATOM     30  C   UNL     1      -3.362  -4.756  -0.240  1.00  0.00     0.118 C 
BRANCH  30  31
ATOM     31  N   UNL     1      -3.241  -5.386   1.084  1.00  0.00    -0.352 N 
ATOM     32  C   UNL     1      -3.951  -6.475   1.580  1.00  0.00     0.251 C 
ATOM     33  H   UNL     1      -2.577  -4.988   1.693  1.00  0.00     0.163 HD
ATOM     34  O   UNL     1      -4.008  -6.727   2.757  1.00  0.00    -0.269 OA
BRANCH  32  35
ATOM     35  C   UNL     1      -4.646  -7.305   0.581  1.00  0.00     0.039 A 
ATOM     36  C   UNL     1      -6.031  -7.463   0.627  1.00  0.00     0.014 A 
ATOM     37  C   UNL     1      -3.899  -7.684  -0.525  1.00  0.00     0.014 A 
ATOM     38  C   UNL     1      -6.686  -7.889  -0.526  1.00  0.00     0.010 A 
ATOM     39  C   UNL     1      -4.568  -7.914  -1.700  1.00  0.00     0.010 A 
ATOM     40  C   UNL     1      -5.957  -8.061  -1.713  1.00  0.00    -0.014 A 
BRANCH  40  41
ATOM     41  C   UNL     1      -6.639  -8.289  -2.989  1.00  0.00     0.031 A 
ATOM     42  C   UNL     1      -7.829  -7.434  -3.289  1.00  0.00     0.074 A 
ATOM     43  C   UNL     1      -6.137  -9.078  -3.964  1.00  0.00     0.049 A 
ATOM     44  N   UNL     1      -9.065  -7.807  -3.370  1.00  0.00    -0.248 NA
ATOM     45  C   UNL     1      -7.642  -5.983  -3.442  1.00  0.00     0.031 C 
ATOM     46  C   UNL     1      -4.850  -9.784  -4.011  1.00  0.00     0.029 A 
ATOM     47  N   UNL     1      -6.652  -9.321  -5.199  1.00  0.00    -0.354 N 
ATOM     48  C   UNL     1      -9.790  -6.691  -3.784  1.00  0.00     0.074 A 
ATOM     49  C   UNL     1      -8.893  -5.569  -3.662  1.00  0.00     0.031 C 
ATOM     50  C   UNL     1      -4.578 -10.146  -5.281  1.00  0.00     0.029 A 
ATOM     51  C   UNL     1      -5.754  -9.893  -6.086  1.00  0.00     0.049 A 
ATOM     52  H   UNL     1      -7.582  -9.108  -5.442  1.00  0.00     0.167 HD
ATOM     53  C   UNL     1     -11.011  -6.805  -4.386  1.00  0.00     0.037 A 
ATOM     54  C   UNL     1      -5.954 -10.150  -7.399  1.00  0.00     0.037 A 
ATOM     55  C   UNL     1     -11.547  -8.136  -4.244  1.00  0.00     0.049 A 
ATOM     56  C   UNL     1      -7.422 -10.255  -7.593  1.00  0.00     0.074 A 
ATOM     57  C   UNL     1     -11.864  -8.949  -3.173  1.00  0.00     0.029 A 
ATOM     58  N   UNL     1     -11.483  -8.973  -5.332  1.00  0.00    -0.354 N 
ATOM     59  N   UNL     1      -8.157 -11.198  -7.067  1.00  0.00    -0.248 NA
ATOM     60  C   UNL     1      -8.147  -9.069  -8.017  1.00  0.00     0.031 C 
ATOM     61  C   UNL     1     -11.464 -10.258  -3.575  1.00  0.00     0.029 A 
ATOM     62  C   UNL     1     -10.988 -10.173  -4.885  1.00  0.00     0.049 A 
ATOM     63  H   UNL     1     -11.742  -8.755  -6.257  1.00  0.00     0.167 HD
ATOM     64  C   UNL     1      -9.336 -10.567  -6.698  1.00  0.00     0.074 A 
ATOM     65  C   UNL     1      -9.316  -9.292  -7.412  1.00  0.00     0.031 C 
ATOM     66  C   UNL     1     -10.083 -11.012  -5.643  1.00  0.00     0.037 A 
BRANCH  53  67
ATOM     67  C   UNL     1     -11.586  -5.822  -5.379  1.00  0.00     0.058 A 
ATOM     68  C   UNL     1     -12.950  -5.901  -5.737  1.00  0.00     0.135 A 
ATOM     69  C   UNL     1     -10.792  -4.987  -6.193  1.00  0.00     0.135 A 
ATOM     70  F   UNL     1     -13.795  -6.679  -5.041  1.00  0.00    -0.206 F 
ATOM     71  C   UNL     1     -13.470  -5.248  -6.857  1.00  0.00     0.059 A 
ATOM     72  C   UNL     1     -11.301  -4.283  -7.281  1.00  0.00     0.059 A 
ATOM     73  F   UNL     1      -9.466  -4.894  -6.030  1.00  0.00    -0.206 F 
ATOM     74  C   UNL     1     -12.631  -4.454  -7.632  1.00  0.00     0.060 A 
BRANCH  74  75
ATOM     75  S   UNL     1     -13.269  -3.701  -9.141  1.00  0.00     0.124 S 
ATOM     76  O   UNL     1     -13.401  -4.864 -10.011  1.00  0.00    -0.237 OA
ATOM     77  O   UNL     1     -14.517  -3.101  -8.681  1.00  0.00    -0.237 OA
ATOM     78  O   UNL     1     -12.223  -2.751  -9.508  1.00  0.00    -0.744 OA
ENDBRANCH  74  75
ENDBRANCH  53  67
BRANCH  54  79
ATOM     79  C   UNL     1      -4.977  -9.983  -8.502  1.00  0.00     0.058 A 
ATOM     80  C   UNL     1      -5.270 -10.450  -9.793  1.00  0.00     0.135 A 
ATOM     81  C   UNL     1      -3.867  -9.118  -8.387  1.00  0.00     0.135 A 
ATOM     82  F   UNL     1      -6.311 -11.272  -9.993  1.00  0.00    -0.206 F 
ATOM     83  C   UNL     1      -4.556 -10.025 -10.916  1.00  0.00     0.059 A 
ATOM     84  C   UNL     1      -3.131  -8.692  -9.490  1.00  0.00     0.059 A 
ATOM     85  F   UNL     1      -3.522  -8.579  -7.208  1.00  0.00    -0.206 F 
ATOM     86  C   UNL     1      -3.505  -9.122 -10.756  1.00  0.00     0.060 A 
BRANCH  86  87
ATOM     87  S   UNL     1      -2.731  -8.397 -12.220  1.00  0.00     0.124 S 
ATOM     88  O   UNL     1      -1.960  -9.520 -12.740  1.00  0.00    -0.237 OA
ATOM     89  O   UNL     1      -3.889  -7.996 -13.012  1.00  0.00    -0.237 OA
ATOM     90  O   UNL     1      -1.942  -7.295 -11.675  1.00  0.00    -0.744 OA
ENDBRANCH  86  87
ENDBRANCH  54  79
BRANCH  66  91
ATOM     91  C   UNL     1      -9.780 -12.376  -5.071  1.00  0.00     0.058 A 
ATOM     92  C   UNL     1      -8.560 -12.735  -4.470  1.00  0.00     0.135 A 
ATOM     93  C   UNL     1     -10.819 -13.316  -5.004  1.00  0.00     0.135 A 
ATOM     94  F   UNL     1      -7.548 -11.863  -4.385  1.00  0.00    -0.206 F 
ATOM     95  C   UNL     1      -8.366 -13.985  -3.878  1.00  0.00     0.059 A 
ATOM     96  C   UNL     1     -10.660 -14.558  -4.390  1.00  0.00     0.059 A 
ATOM     97  F   UNL     1     -12.032 -13.015  -5.499  1.00  0.00    -0.206 F 
ATOM     98  C   UNL     1      -9.423 -14.893  -3.845  1.00  0.00     0.060 A 
BRANCH  98  99
ATOM     99  S   UNL     1      -9.188 -16.485  -3.026  1.00  0.00     0.124 S 
ATOM    100  O   UNL     1      -8.329 -17.192  -3.970  1.00  0.00    -0.237 OA
ATOM    101  O   UNL     1      -8.562 -16.106  -1.762  1.00  0.00    -0.237 OA
ATOM    102  O   UNL     1     -10.546 -17.010  -2.904  1.00  0.00    -0.744 OA
ENDBRANCH  98  99
ENDBRANCH  66  91
ENDBRANCH  40  41
ENDBRANCH  32  35
ENDBRANCH  30  31
ENDBRANCH   1  30
TORSDOF 17
