REMARK SMILES Cc1nn(C)c(=O)c(C(=O)N[C@H]2C=C[C@H](C(=O)NCCCNC(=O)c3ccc(-c4c5nc(c(-c6c(F)cc(S(=O)(=O)[O-])cc6F)c6ccc([nH]6)c(-c6c(F)cc(S(=O)(=O)[O-])cc6F)c6nc(c(-c7c(F)cc(S(=O)(=O)[O-])cc7F)c7ccc4[nH]7)C=C6)C=C5)cc3)C2)c1C
REMARK SMILES IDX 20 1 19 2 18 3 16 4 17 5 15 7 12 8 13 9 91 10 14 11 11 12
REMARK SMILES IDX 9 13 10 14 8 16 1 17 2 18 3 19 92 20 4 21 93 22 5 23 6 24
REMARK SMILES IDX 7 25 21 26 22 27 23 28 24 30 25 31 26 32 90 33 27 34 89 35
REMARK SMILES IDX 28 36 29 37 30 38 83 39 31 40 88 41 82 42 84 43 32 44 87 45
REMARK SMILES IDX 81 46 80 47 33 49 67 50 46 51 66 52 47 53 50 54 65 55 85 56
REMARK SMILES IDX 48 57 49 58 64 60 86 61 51 62 34 63 35 64 44 65 36 66 37 67
REMARK SMILES IDX 43 68 45 69 38 70 39 71 40 72 41 73 42 74 68 75 69 76 78 77
REMARK SMILES IDX 70 78 71 79 77 80 79 81 72 82 73 83 74 84 75 85 76 86 52 87
REMARK SMILES IDX 53 88 62 89 54 90 55 91 61 92 63 93 56 94 57 95 58 96 59 97
REMARK SMILES IDX 60 98
REMARK H PARENT 18 6 11 15 22 29 84 48 50 59
REMARK Flexibility Score: inf
ROOT
ATOM      1  C   UNL     1       4.854   0.271  -0.422  1.00  0.00     0.042 C 
ENDROOT
BRANCH   1   2
ATOM      2  C   UNL     1       3.508  -0.060   0.209  1.00  0.00     0.117 C 
BRANCH   2   3
ATOM      3  N   UNL     1       3.400   0.482   1.549  1.00  0.00    -0.356 N 
ATOM      4  C   UNL     1       2.804   1.630   1.979  1.00  0.00     0.227 C 
ATOM      5  O   UNL     1       2.917   1.924   3.170  1.00  0.00    -0.274 OA
ATOM      6  H   UNL     1       3.820  -0.061   2.255  1.00  0.00     0.163 HD
BRANCH   4   7
ATOM      7  C   UNL     1       1.931   2.418   1.001  1.00  0.00     0.103 C 
ATOM      8  C   UNL     1       2.074   4.503  -0.305  1.00  0.00     0.106 C 
ATOM      9  C   UNL     1       1.317   4.692   0.966  1.00  0.00    -0.006 C 
ATOM     10  C   UNL     1       2.667   3.099  -0.165  1.00  0.00     0.047 C 
ATOM     11  C   UNL     1       1.243   3.566   1.680  1.00  0.00    -0.016 C 
BRANCH   8  12
ATOM     12  N   UNL     1       1.191   4.845  -1.410  1.00  0.00    -0.346 N 
ATOM     13  C   UNL     1       0.307   4.239  -2.244  1.00  0.00     0.257 C 
ATOM     14  O   UNL     1      -0.414   4.963  -2.933  1.00  0.00    -0.269 OA
ATOM     15  H   UNL     1       1.253   5.806  -1.615  1.00  0.00     0.164 HD
BRANCH  13  16
ATOM     16  C   UNL     1       0.171   2.771  -2.350  1.00  0.00     0.111 A 
ATOM     17  C   UNL     1      -0.523  -0.361  -0.494  1.00  0.00     0.069 C 
ATOM     18  C   UNL     1      -0.544   0.598  -1.663  1.00  0.00     0.062 A 
ATOM     19  N   UNL     1      -0.492   0.063  -2.839  1.00  0.00    -0.175 NA
ATOM     20  C   UNL     1      -0.505   2.067  -1.424  1.00  0.00    -0.010 A 
ATOM     21  N   UNL     1      -0.243   0.910  -3.883  1.00  0.00    -0.232 N 
ATOM     22  C   UNL     1      -1.300   2.635  -0.291  1.00  0.00     0.047 C 
ATOM     23  C   UNL     1      -0.458   0.369  -5.212  1.00  0.00     0.178 C 
ATOM     24  C   UNL     1       0.356   2.156  -3.705  1.00  0.00     0.279 A 
ATOM     25  O   UNL     1       0.923   2.768  -4.607  1.00  0.00    -0.267 OA
ENDBRANCH  13  16
ENDBRANCH   8  12
ENDBRANCH   4   7
ENDBRANCH   2   3
ENDBRANCH   1   2
BRANCH   1  26
ATOM     26  C   UNL     1       6.048  -0.222   0.386  1.00  0.00     0.118 C 
BRANCH  26  27
ATOM     27  N   UNL     1       6.095  -1.672   0.496  1.00  0.00    -0.352 N 
ATOM     28  C   UNL     1       7.139  -2.522   0.224  1.00  0.00     0.251 C 
ATOM     29  H   UNL     1       5.266  -2.103   0.809  1.00  0.00     0.163 HD
ATOM     30  O   UNL     1       6.959  -3.736   0.227  1.00  0.00    -0.269 OA
BRANCH  28  31
ATOM     31  C   UNL     1       8.465  -1.959  -0.102  1.00  0.00     0.039 A 
ATOM     32  C   UNL     1       9.146  -2.437  -1.224  1.00  0.00     0.014 A 
ATOM     33  C   UNL     1       9.017  -0.941   0.681  1.00  0.00     0.014 A 
ATOM     34  C   UNL     1      10.354  -1.847  -1.597  1.00  0.00     0.010 A 
ATOM     35  C   UNL     1      10.181  -0.305   0.265  1.00  0.00     0.010 A 
ATOM     36  C   UNL     1      10.863  -0.755  -0.875  1.00  0.00    -0.014 A 
BRANCH  36  37
ATOM     37  C   UNL     1      12.125  -0.088  -1.277  1.00  0.00     0.031 A 
ATOM     38  C   UNL     1      13.322  -0.151  -0.370  1.00  0.00     0.074 A 
ATOM     39  C   UNL     1      12.181   0.604  -2.431  1.00  0.00     0.049 A 
ATOM     40  N   UNL     1      14.492   0.419  -0.504  1.00  0.00    -0.248 NA
ATOM     41  C   UNL     1      13.176  -0.940   0.865  1.00  0.00     0.031 C 
ATOM     42  C   UNL     1      11.078   0.756  -3.382  1.00  0.00     0.029 A 
ATOM     43  N   UNL     1      13.211   1.305  -3.004  1.00  0.00    -0.354 N 
ATOM     44  C   UNL     1      15.217   0.060   0.625  1.00  0.00     0.074 A 
ATOM     45  C   UNL     1      14.335  -0.719   1.466  1.00  0.00     0.031 C 
ATOM     46  C   UNL     1      11.504   1.465  -4.440  1.00  0.00     0.029 A 
ATOM     47  C   UNL     1      12.896   1.850  -4.226  1.00  0.00     0.049 A 
ATOM     48  H   UNL     1      14.094   1.409  -2.579  1.00  0.00     0.167 HD
ATOM     49  C   UNL     1      16.511   0.327   0.921  1.00  0.00     0.037 A 
ATOM     50  C   UNL     1      13.648   2.571  -5.079  1.00  0.00     0.037 A 
ATOM     51  C   UNL     1      17.390   1.086   0.074  1.00  0.00     0.049 A 
ATOM     52  C   UNL     1      15.073   2.885  -4.715  1.00  0.00     0.074 A 
ATOM     53  C   UNL     1      18.721   1.405   0.276  1.00  0.00     0.029 A 
ATOM     54  N   UNL     1      17.026   1.640  -1.145  1.00  0.00    -0.354 N 
ATOM     55  N   UNL     1      15.746   2.533  -3.645  1.00  0.00    -0.248 NA
ATOM     56  C   UNL     1      15.839   3.698  -5.670  1.00  0.00     0.031 C 
ATOM     57  C   UNL     1      19.155   2.173  -0.810  1.00  0.00     0.029 A 
ATOM     58  C   UNL     1      18.104   2.304  -1.705  1.00  0.00     0.049 A 
ATOM     59  H   UNL     1      16.132   1.571  -1.553  1.00  0.00     0.167 HD
ATOM     60  C   UNL     1      17.020   3.064  -3.806  1.00  0.00     0.074 A 
ATOM     61  C   UNL     1      17.027   3.754  -5.081  1.00  0.00     0.031 C 
ATOM     62  C   UNL     1      18.088   2.986  -2.975  1.00  0.00     0.037 A 
BRANCH  49  63
ATOM     63  C   UNL     1      17.045  -0.229   2.211  1.00  0.00     0.058 A 
ATOM     64  C   UNL     1      17.269  -1.607   2.373  1.00  0.00     0.135 A 
ATOM     65  C   UNL     1      17.328   0.613   3.298  1.00  0.00     0.135 A 
ATOM     66  F   UNL     1      16.995  -2.458   1.371  1.00  0.00    -0.206 F 
ATOM     67  C   UNL     1      17.716  -2.134   3.579  1.00  0.00     0.059 A 
ATOM     68  C   UNL     1      17.802   0.109   4.506  1.00  0.00     0.059 A 
ATOM     69  F   UNL     1      17.130   1.937   3.197  1.00  0.00    -0.206 F 
ATOM     70  C   UNL     1      17.973  -1.268   4.643  1.00  0.00     0.060 A 
BRANCH  70  71
ATOM     71  S   UNL     1      18.528  -1.972   6.209  1.00  0.00     0.124 S 
ATOM     72  O   UNL     1      17.294  -2.567   6.713  1.00  0.00    -0.237 OA
ATOM     73  O   UNL     1      19.557  -2.915   5.782  1.00  0.00    -0.237 OA
ATOM     74  O   UNL     1      19.014  -0.812   6.950  1.00  0.00    -0.744 OA
ENDBRANCH  70  71
ENDBRANCH  49  63
BRANCH  50  75
ATOM     75  C   UNL     1      13.080   2.997  -6.384  1.00  0.00     0.058 A 
ATOM     76  C   UNL     1      13.477   2.364  -7.571  1.00  0.00     0.135 A 
ATOM     77  C   UNL     1      12.107   4.004  -6.472  1.00  0.00     0.135 A 
ATOM     78  F   UNL     1      14.409   1.400  -7.536  1.00  0.00    -0.206 F 
ATOM     79  C   UNL     1      12.929   2.712  -8.800  1.00  0.00     0.059 A 
ATOM     80  C   UNL     1      11.531   4.357  -7.688  1.00  0.00     0.059 A 
ATOM     81  F   UNL     1      11.685   4.630  -5.362  1.00  0.00    -0.206 F 
ATOM     82  C   UNL     1      11.951   3.706  -8.848  1.00  0.00     0.060 A 
BRANCH  82  83
ATOM     83  S   UNL     1      11.196   4.095 -10.442  1.00  0.00     0.124 S 
ATOM     84  O   UNL     1      12.286   4.784 -11.123  1.00  0.00    -0.237 OA
ATOM     85  O   UNL     1      10.861   2.769 -10.952  1.00  0.00    -0.237 OA
ATOM     86  O   UNL     1      10.053   4.927 -10.078  1.00  0.00    -0.744 OA
ENDBRANCH  82  83
ENDBRANCH  50  75
BRANCH  62  87
ATOM     87  C   UNL     1      19.359   3.652  -3.419  1.00  0.00     0.058 A 
ATOM     88  C   UNL     1      19.515   5.044  -3.358  1.00  0.00     0.135 A 
ATOM     89  C   UNL     1      20.455   2.883  -3.844  1.00  0.00     0.135 A 
ATOM     90  F   UNL     1      18.493   5.822  -2.966  1.00  0.00    -0.206 F 
ATOM     91  C   UNL     1      20.712   5.655  -3.712  1.00  0.00     0.059 A 
ATOM     92  C   UNL     1      21.669   3.472  -4.183  1.00  0.00     0.059 A 
ATOM     93  F   UNL     1      20.357   1.546  -3.911  1.00  0.00    -0.206 F 
ATOM     94  C   UNL     1      21.786   4.860  -4.119  1.00  0.00     0.060 A 
BRANCH  94  95
ATOM     95  S   UNL     1      23.350   5.663  -4.528  1.00  0.00     0.124 S 
ATOM     96  O   UNL     1      23.042   6.266  -5.820  1.00  0.00    -0.237 OA
ATOM     97  O   UNL     1      23.521   6.596  -3.418  1.00  0.00    -0.237 OA
ATOM     98  O   UNL     1      24.302   4.557  -4.561  1.00  0.00    -0.744 OA
ENDBRANCH  94  95
ENDBRANCH  62  87
ENDBRANCH  36  37
ENDBRANCH  28  31
ENDBRANCH  26  27
ENDBRANCH   1  26
TORSDOF 15
