REMARK SMILES O=C(CC1CC[NH+](C[C@H]2COc3ccccc3O2)CC1)NCCCNC(=O)c1ccc(-c2c3nc(c(-c4c(F)cc(S(=O)(=O)[O-])cc4F)c4ccc([nH]4)c(-c4c(F)cc(S(=O)(=O)[O-])cc4F)c4nc(c(-c5c(F)cc(S(=O)(=O)[O-])cc5F)c5ccc2[nH]5)C=C4)C=C3)cc1
REMARK SMILES IDX 23 1 22 2 21 3 1 4 2 5 3 7 4 8 5 9 20 10 6 11 19 12 7 13
REMARK SMILES IDX 8 15 9 16 10 17 18 18 11 19 17 20 12 21 16 22 13 23 15 24
REMARK SMILES IDX 14 25 24 26 25 27 26 28 27 30 28 31 29 32 93 33 30 34 92 35
REMARK SMILES IDX 31 36 32 37 33 38 86 39 34 40 91 41 85 42 87 43 35 44 90 45
REMARK SMILES IDX 84 46 83 47 36 49 70 50 49 51 69 52 50 53 53 54 68 55 88 56
REMARK SMILES IDX 51 57 52 58 67 60 89 61 54 62 37 63 38 64 47 65 39 66 40 67
REMARK SMILES IDX 46 68 48 69 41 70 42 71 43 72 44 73 45 74 71 75 72 76 81 77
REMARK SMILES IDX 73 78 74 79 80 80 82 81 75 82 76 83 77 84 78 85 79 86 55 87
REMARK SMILES IDX 56 88 65 89 57 90 58 91 64 92 66 93 59 94 60 95 61 96 62 97
REMARK SMILES IDX 63 98
REMARK H PARENT 21 6 7 14 25 29 87 48 53 59
REMARK Flexibility Score: inf
ROOT
ATOM      1  C   UNL     1       8.989   9.236   0.620  1.00  0.00     0.042 C 
ENDROOT
BRANCH   1   2
ATOM      2  C   UNL     1       8.241   9.761  -0.601  1.00  0.00     0.117 C 
BRANCH   2   3
ATOM      3  N   UNL     1       7.759   8.694  -1.456  1.00  0.00    -0.356 N 
ATOM      4  O   UNL     1       5.565   9.363  -1.531  1.00  0.00    -0.275 OA
ATOM      5  C   UNL     1       6.455   8.595  -1.879  1.00  0.00     0.220 C 
ATOM      6  H   UNL     1       8.398   8.005  -1.749  1.00  0.00     0.163 HD
BRANCH   5   7
ATOM      7  C   UNL     1       6.173   7.409  -2.789  1.00  0.00     0.104 C 
BRANCH   7   8
ATOM      8  C   UNL     1       6.998   7.418  -4.098  1.00  0.00     0.009 C 
ATOM      9  C   UNL     1       6.174   6.944  -5.305  1.00  0.00     0.066 C 
ATOM     10  C   UNL     1       8.239   6.515  -4.052  1.00  0.00     0.066 C 
ATOM     11  C   UNL     1       5.809   5.459  -5.224  1.00  0.00     0.262 C 
ATOM     12  C   UNL     1       7.871   5.041  -3.881  1.00  0.00     0.262 C 
ATOM     13  N   UNL     1       6.913   4.566  -4.875  1.00  0.00    -0.332 N 
ATOM     14  H   UNL     1       7.449   4.588  -5.742  1.00  0.00     0.348 HD
BRANCH  13  15
ATOM     15  C   UNL     1       6.515   3.161  -4.648  1.00  0.00     0.311 C 
BRANCH  15  16
ATOM     16  C   UNL     1       5.889   2.718  -3.291  1.00  0.00     0.265 C 
ATOM     17  C   UNL     1       4.548   3.390  -3.003  1.00  0.00     0.281 C 
ATOM     18  O   UNL     1       5.727   1.284  -3.357  1.00  0.00    -0.477 OA
ATOM     19  O   UNL     1       3.932   2.943  -1.797  1.00  0.00    -0.486 OA
ATOM     20  C   UNL     1       4.937   0.801  -2.348  1.00  0.00     0.162 A 
ATOM     21  C   UNL     1       4.061   1.599  -1.612  1.00  0.00     0.161 A 
ATOM     22  C   UNL     1       5.021  -0.563  -2.076  1.00  0.00     0.050 A 
ATOM     23  C   UNL     1       3.269   1.040  -0.611  1.00  0.00     0.050 A 
ATOM     24  C   UNL     1       4.233  -1.124  -1.066  1.00  0.00     0.004 A 
ATOM     25  C   UNL     1       3.353  -0.324  -0.338  1.00  0.00     0.004 A 
ENDBRANCH  15  16
ENDBRANCH  13  15
ENDBRANCH   7   8
ENDBRANCH   5   7
ENDBRANCH   2   3
ENDBRANCH   1   2
BRANCH   1  26
ATOM     26  C   UNL     1      10.212   8.373   0.313  1.00  0.00     0.118 C 
BRANCH  26  27
ATOM     27  N   UNL     1      11.258   9.082  -0.409  1.00  0.00    -0.352 N 
ATOM     28  C   UNL     1      12.576   9.303  -0.075  1.00  0.00     0.251 C 
ATOM     29  H   UNL     1      10.980   9.465  -1.272  1.00  0.00     0.163 HD
ATOM     30  O   UNL     1      13.259  10.041  -0.775  1.00  0.00    -0.269 OA
BRANCH  28  31
ATOM     31  C   UNL     1      13.161   8.685   1.139  1.00  0.00     0.039 A 
ATOM     32  C   UNL     1      13.934   9.482   1.988  1.00  0.00     0.014 A 
ATOM     33  C   UNL     1      12.956   7.338   1.443  1.00  0.00     0.014 A 
ATOM     34  C   UNL     1      14.421   8.953   3.187  1.00  0.00     0.010 A 
ATOM     35  C   UNL     1      13.385   6.830   2.670  1.00  0.00     0.010 A 
ATOM     36  C   UNL     1      14.107   7.637   3.563  1.00  0.00    -0.014 A 
BRANCH  36  37
ATOM     37  C   UNL     1      14.477   7.107   4.904  1.00  0.00     0.031 A 
ATOM     38  C   UNL     1      15.417   5.940   5.036  1.00  0.00     0.074 A 
ATOM     39  C   UNL     1      13.901   7.633   6.005  1.00  0.00     0.049 A 
ATOM     40  N   UNL     1      15.780   5.290   6.112  1.00  0.00    -0.248 NA
ATOM     41  C   UNL     1      16.010   5.421   3.794  1.00  0.00     0.031 C 
ATOM     42  C   UNL     1      12.943   8.741   6.010  1.00  0.00     0.029 A 
ATOM     43  N   UNL     1      14.023   7.298   7.331  1.00  0.00    -0.354 N 
ATOM     44  C   UNL     1      16.634   4.282   5.680  1.00  0.00     0.074 A 
ATOM     45  C   UNL     1      16.698   4.378   4.237  1.00  0.00     0.031 C 
ATOM     46  C   UNL     1      12.577   9.003   7.274  1.00  0.00     0.029 A 
ATOM     47  C   UNL     1      13.235   8.054   8.167  1.00  0.00     0.049 A 
ATOM     48  H   UNL     1      14.619   6.583   7.653  1.00  0.00     0.167 HD
ATOM     49  C   UNL     1      17.316   3.373   6.419  1.00  0.00     0.037 A 
ATOM     50  C   UNL     1      13.045   7.983   9.500  1.00  0.00     0.037 A 
ATOM     51  C   UNL     1      17.257   3.291   7.857  1.00  0.00     0.049 A 
ATOM     52  C   UNL     1      13.790   6.945  10.294  1.00  0.00     0.074 A 
ATOM     53  C   UNL     1      17.955   2.440   8.697  1.00  0.00     0.029 A 
ATOM     54  N   UNL     1      16.451   4.076   8.667  1.00  0.00    -0.354 N 
ATOM     55  N   UNL     1      14.644   6.042   9.875  1.00  0.00    -0.248 NA
ATOM     56  C   UNL     1      13.547   6.915  11.743  1.00  0.00     0.031 C 
ATOM     57  C   UNL     1      17.531   2.674  10.009  1.00  0.00     0.029 A 
ATOM     58  C   UNL     1      16.610   3.709   9.995  1.00  0.00     0.049 A 
ATOM     59  H   UNL     1      15.853   4.790   8.347  1.00  0.00     0.167 HD
ATOM     60  C   UNL     1      15.056   5.353  11.010  1.00  0.00     0.074 A 
ATOM     61  C   UNL     1      14.372   5.954  12.136  1.00  0.00     0.031 C 
ATOM     62  C   UNL     1      15.923   4.314  11.109  1.00  0.00     0.037 A 
BRANCH  49  63
ATOM     63  C   UNL     1      18.185   2.387   5.686  1.00  0.00     0.058 A 
ATOM     64  C   UNL     1      19.371   2.781   5.045  1.00  0.00     0.135 A 
ATOM     65  C   UNL     1      17.854   1.022   5.663  1.00  0.00     0.135 A 
ATOM     66  F   UNL     1      19.731   4.074   5.026  1.00  0.00    -0.206 F 
ATOM     67  C   UNL     1      20.180   1.864   4.383  1.00  0.00     0.059 A 
ATOM     68  C   UNL     1      18.664   0.082   5.031  1.00  0.00     0.059 A 
ATOM     69  F   UNL     1      16.733   0.588   6.260  1.00  0.00    -0.206 F 
ATOM     70  C   UNL     1      19.818   0.516   4.381  1.00  0.00     0.060 A 
BRANCH  70  71
ATOM     71  S   UNL     1      20.882  -0.660   3.518  1.00  0.00     0.124 S 
ATOM     72  O   UNL     1      20.618  -0.320   2.123  1.00  0.00    -0.237 OA
ATOM     73  O   UNL     1      22.207  -0.306   4.016  1.00  0.00    -0.237 OA
ATOM     74  O   UNL     1      20.378  -1.959   3.953  1.00  0.00    -0.744 OA
ENDBRANCH  70  71
ENDBRANCH  49  63
BRANCH  50  75
ATOM     75  C   UNL     1      12.109   8.927  10.169  1.00  0.00     0.058 A 
ATOM     76  C   UNL     1      12.585   9.928  11.029  1.00  0.00     0.135 A 
ATOM     77  C   UNL     1      10.723   8.854   9.956  1.00  0.00     0.135 A 
ATOM     78  F   UNL     1      13.900  10.033  11.272  1.00  0.00    -0.206 F 
ATOM     79  C   UNL     1      11.722  10.812  11.667  1.00  0.00     0.059 A 
ATOM     80  C   UNL     1       9.842   9.745  10.560  1.00  0.00     0.059 A 
ATOM     81  F   UNL     1      10.217   7.925   9.131  1.00  0.00    -0.206 F 
ATOM     82  C   UNL     1      10.351  10.715  11.423  1.00  0.00     0.060 A 
BRANCH  82  83
ATOM     83  S   UNL     1       9.244  11.900  12.219  1.00  0.00     0.124 S 
ATOM     84  O   UNL     1       9.271  11.443  13.603  1.00  0.00    -0.237 OA
ATOM     85  O   UNL     1       9.913  13.169  11.951  1.00  0.00    -0.237 OA
ATOM     86  O   UNL     1       7.981  11.705  11.514  1.00  0.00    -0.744 OA
ENDBRANCH  82  83
ENDBRANCH  50  75
BRANCH  62  87
ATOM     87  C   UNL     1      16.202   3.772  12.486  1.00  0.00     0.058 A 
ATOM     88  C   UNL     1      15.246   3.026  13.192  1.00  0.00     0.135 A 
ATOM     89  C   UNL     1      17.459   3.959  13.084  1.00  0.00     0.135 A 
ATOM     90  F   UNL     1      14.025   2.824  12.671  1.00  0.00    -0.206 F 
ATOM     91  C   UNL     1      15.519   2.502  14.452  1.00  0.00     0.059 A 
ATOM     92  C   UNL     1      17.764   3.419  14.330  1.00  0.00     0.059 A 
ATOM     93  F   UNL     1      18.413   4.658  12.449  1.00  0.00    -0.206 F 
ATOM     94  C   UNL     1      16.782   2.700  15.011  1.00  0.00     0.060 A 
BRANCH  94  95
ATOM     95  S   UNL     1      17.134   1.982  16.630  1.00  0.00     0.124 S 
ATOM     96  O   UNL     1      16.354   2.844  17.511  1.00  0.00    -0.237 OA
ATOM     97  O   UNL     1      16.641   0.617  16.479  1.00  0.00    -0.237 OA
ATOM     98  O   UNL     1      18.584   2.109  16.751  1.00  0.00    -0.744 OA
ENDBRANCH  94  95
ENDBRANCH  62  87
ENDBRANCH  36  37
ENDBRANCH  28  31
ENDBRANCH  26  27
ENDBRANCH   1  26
TORSDOF 16
