REMARK SMILES O=Cc1[nH]nc2cc(C(=O)NCCCNC(=O)c3ccc(-c4c5nc(c(-c6c(F)cc(S(=O)(=O)[O-])cc6F)c6ccc([nH]6)c(-c6c(F)cc(S(=O)(=O)[O-])cc6F)c6nc(c(-c7c(F)cc(S(=O)(=O)[O-])cc7F)c7ccc4[nH]7)C=C6)C=C5)cc3)ccc12
REMARK SMILES IDX 14 1 13 2 12 3 11 4 9 5 10 6 8 8 3 9 4 10 86 11 5 12 6 14
REMARK SMILES IDX 85 15 7 16 84 17 2 18 1 19 15 20 16 21 17 23 18 24 19 25
REMARK SMILES IDX 83 26 20 27 82 28 21 29 22 30 23 31 76 32 24 33 81 34 75 35
REMARK SMILES IDX 77 36 25 37 80 38 74 39 73 40 26 42 60 43 39 44 59 45 40 46
REMARK SMILES IDX 43 47 58 48 78 49 41 50 42 51 57 53 79 54 44 55 27 56 28 57
REMARK SMILES IDX 37 58 29 59 30 60 36 61 38 62 31 63 32 64 33 65 34 66 35 67
REMARK SMILES IDX 61 68 62 69 71 70 63 71 64 72 70 73 72 74 65 75 66 76 67 77
REMARK SMILES IDX 68 78 69 79 45 80 46 81 55 82 47 83 48 84 54 85 56 86 49 87
REMARK SMILES IDX 50 88 51 89 52 90 53 91
REMARK H PARENT 11 7 4 13 15 22 77 41 43 52
REMARK Flexibility Score: inf
ROOT
ATOM      1  C   UNL     1       0.365  -5.114  -7.471  1.00  0.00     0.118 C 
ENDROOT
BRANCH   1   2
ATOM      2  C   UNL     1       0.418  -4.258  -6.206  1.00  0.00     0.042 C 
BRANCH   2   3
ATOM      3  C   UNL     1       0.411  -5.094  -4.928  1.00  0.00     0.118 C 
BRANCH   3   4
ATOM      4  N   UNL     1       1.720  -5.668  -4.677  1.00  0.00    -0.352 N 
ATOM      5  C   UNL     1       2.771  -5.317  -3.874  1.00  0.00     0.251 C 
ATOM      6  O   UNL     1       3.746  -6.072  -3.892  1.00  0.00    -0.269 OA
ATOM      7  H   UNL     1       1.888  -6.486  -5.198  1.00  0.00     0.163 HD
BRANCH   5   8
ATOM      8  C   UNL     1       2.793  -4.134  -2.958  1.00  0.00     0.042 A 
ATOM      9  C   UNL     1       3.116  -1.111  -0.214  1.00  0.00     0.105 A 
ATOM     10  N   UNL     1       4.192  -1.648   0.443  1.00  0.00    -0.274 N 
ATOM     11  C   UNL     1       2.864  -2.015  -1.217  1.00  0.00     0.030 A 
ATOM     12  N   UNL     1       4.586  -2.853  -0.002  1.00  0.00    -0.175 NA
ATOM     13  H   UNL     1       4.644  -1.185   1.185  1.00  0.00     0.190 HD
ATOM     14  C   UNL     1       3.787  -3.107  -1.051  1.00  0.00     0.094 A 
ATOM     15  C   UNL     1       1.912  -1.886  -2.221  1.00  0.00     0.013 A 
ATOM     16  C   UNL     1       3.759  -4.211  -1.917  1.00  0.00     0.044 A 
ATOM     17  C   UNL     1       1.950  -2.985  -3.112  1.00  0.00     0.015 A 
BRANCH   9  18
ATOM     18  C   UNL     1       2.483   0.123   0.157  1.00  0.00     0.280 C 
ATOM     19  O   UNL     1       1.398   0.517  -0.258  1.00  0.00    -0.296 OA
ENDBRANCH   9  18
ENDBRANCH   5   8
ENDBRANCH   3   4
ENDBRANCH   2   3
ENDBRANCH   1   2
BRANCH   1  20
ATOM     20  N   UNL     1      -0.926  -5.779  -7.618  1.00  0.00    -0.352 N 
ATOM     21  C   UNL     1      -1.869  -5.654  -8.610  1.00  0.00     0.251 C 
ATOM     22  H   UNL     1      -1.155  -6.412  -6.900  1.00  0.00     0.163 HD
ATOM     23  O   UNL     1      -2.998  -6.098  -8.438  1.00  0.00    -0.269 OA
BRANCH  21  24
ATOM     24  C   UNL     1      -1.515  -4.979  -9.875  1.00  0.00     0.039 A 
ATOM     25  C   UNL     1      -2.410  -4.066 -10.440  1.00  0.00     0.014 A 
ATOM     26  C   UNL     1      -0.302  -5.261 -10.507  1.00  0.00     0.014 A 
ATOM     27  C   UNL     1      -2.055  -3.381 -11.605  1.00  0.00     0.010 A 
ATOM     28  C   UNL     1       0.080  -4.525 -11.621  1.00  0.00     0.010 A 
ATOM     29  C   UNL     1      -0.791  -3.579 -12.182  1.00  0.00    -0.014 A 
BRANCH  29  30
ATOM     30  C   UNL     1      -0.340  -2.824 -13.379  1.00  0.00     0.031 A 
ATOM     31  C   UNL     1      -0.004  -3.571 -14.640  1.00  0.00     0.074 A 
ATOM     32  C   UNL     1      -0.122  -1.497 -13.292  1.00  0.00     0.049 A 
ATOM     33  N   UNL     1       0.588  -3.142 -15.723  1.00  0.00    -0.248 NA
ATOM     34  C   UNL     1      -0.351  -5.002 -14.671  1.00  0.00     0.031 C 
ATOM     35  C   UNL     1      -0.383  -0.671 -12.112  1.00  0.00     0.029 A 
ATOM     36  N   UNL     1       0.399  -0.614 -14.205  1.00  0.00    -0.354 N 
ATOM     37  C   UNL     1       0.708  -4.251 -16.552  1.00  0.00     0.074 A 
ATOM     38  C   UNL     1       0.171  -5.382 -15.827  1.00  0.00     0.031 C 
ATOM     39  C   UNL     1      -0.021   0.596 -12.372  1.00  0.00     0.029 A 
ATOM     40  C   UNL     1       0.546   0.663 -13.715  1.00  0.00     0.049 A 
ATOM     41  H   UNL     1       0.644  -0.870 -15.123  1.00  0.00     0.167 HD
ATOM     42  C   UNL     1       1.205  -4.315 -17.810  1.00  0.00     0.037 A 
ATOM     43  C   UNL     1       1.102   1.757 -14.273  1.00  0.00     0.037 A 
ATOM     44  C   UNL     1       1.715  -3.176 -18.526  1.00  0.00     0.049 A 
ATOM     45  C   UNL     1       1.666   1.659 -15.666  1.00  0.00     0.074 A 
ATOM     46  C   UNL     1       2.198  -3.122 -19.822  1.00  0.00     0.029 A 
ATOM     47  N   UNL     1       1.808  -1.892 -18.009  1.00  0.00    -0.354 N 
ATOM     48  N   UNL     1       1.733   0.613 -16.455  1.00  0.00    -0.248 NA
ATOM     49  C   UNL     1       2.230   2.886 -16.247  1.00  0.00     0.031 C 
ATOM     50  C   UNL     1       2.628  -1.816 -20.071  1.00  0.00     0.029 A 
ATOM     51  C   UNL     1       2.357  -1.042 -18.953  1.00  0.00     0.049 A 
ATOM     52  H   UNL     1       1.526  -1.625 -17.105  1.00  0.00     0.167 HD
ATOM     53  C   UNL     1       2.309   1.063 -17.637  1.00  0.00     0.074 A 
ATOM     54  C   UNL     1       2.574   2.476 -17.461  1.00  0.00     0.031 C 
ATOM     55  C   UNL     1       2.588   0.370 -18.769  1.00  0.00     0.037 A 
BRANCH  42  56
ATOM     56  C   UNL     1       1.222  -5.658 -18.489  1.00  0.00     0.058 A 
ATOM     57  C   UNL     1       0.037  -6.299 -18.886  1.00  0.00     0.135 A 
ATOM     58  C   UNL     1       2.438  -6.296 -18.780  1.00  0.00     0.135 A 
ATOM     59  F   UNL     1      -1.155  -5.742 -18.621  1.00  0.00    -0.206 F 
ATOM     60  C   UNL     1       0.056  -7.539 -19.516  1.00  0.00     0.059 A 
ATOM     61  C   UNL     1       2.483  -7.522 -19.438  1.00  0.00     0.059 A 
ATOM     62  F   UNL     1       3.602  -5.729 -18.424  1.00  0.00    -0.206 F 
ATOM     63  C   UNL     1       1.285  -8.142 -19.788  1.00  0.00     0.060 A 
BRANCH  63  64
ATOM     64  S   UNL     1       1.289  -9.749 -20.611  1.00  0.00     0.124 S 
ATOM     65  O   UNL     1       0.805 -10.622 -19.546  1.00  0.00    -0.237 OA
ATOM     66  O   UNL     1       0.367  -9.533 -21.721  1.00  0.00    -0.237 OA
ATOM     67  O   UNL     1       2.687  -9.936 -20.987  1.00  0.00    -0.744 OA
ENDBRANCH  63  64
ENDBRANCH  42  56
BRANCH  43  68
ATOM     68  C   UNL     1       1.148   3.037 -13.515  1.00  0.00     0.058 A 
ATOM     69  C   UNL     1       0.361   4.132 -13.899  1.00  0.00     0.135 A 
ATOM     70  C   UNL     1       1.965   3.186 -12.383  1.00  0.00     0.135 A 
ATOM     71  F   UNL     1      -0.432   4.042 -14.978  1.00  0.00    -0.206 F 
ATOM     72  C   UNL     1       0.393   5.335 -13.201  1.00  0.00     0.059 A 
ATOM     73  C   UNL     1       1.994   4.370 -11.651  1.00  0.00     0.059 A 
ATOM     74  F   UNL     1       2.724   2.163 -11.961  1.00  0.00    -0.206 F 
ATOM     75  C   UNL     1       1.211   5.443 -12.075  1.00  0.00     0.060 A 
BRANCH  75  76
ATOM     76  S   UNL     1       1.211   6.995 -11.151  1.00  0.00     0.124 S 
ATOM     77  O   UNL     1       1.925   7.880 -12.063  1.00  0.00    -0.237 OA
ATOM     78  O   UNL     1      -0.216   7.256 -10.993  1.00  0.00    -0.237 OA
ATOM     79  O   UNL     1       1.918   6.653  -9.920  1.00  0.00    -0.744 OA
ENDBRANCH  75  76
ENDBRANCH  43  68
BRANCH  55  80
ATOM     80  C   UNL     1       3.157   1.127 -19.936  1.00  0.00     0.058 A 
ATOM     81  C   UNL     1       4.491   1.557 -19.963  1.00  0.00     0.135 A 
ATOM     82  C   UNL     1       2.379   1.325 -21.090  1.00  0.00     0.135 A 
ATOM     83  F   UNL     1       5.274   1.401 -18.883  1.00  0.00    -0.206 F 
ATOM     84  C   UNL     1       5.037   2.156 -21.094  1.00  0.00     0.059 A 
ATOM     85  C   UNL     1       2.911   1.895 -22.241  1.00  0.00     0.059 A 
ATOM     86  F   UNL     1       1.097   0.925 -21.118  1.00  0.00    -0.206 F 
ATOM     87  C   UNL     1       4.242   2.309 -22.233  1.00  0.00     0.060 A 
BRANCH  87  88
ATOM     88  S   UNL     1       4.989   3.009 -23.720  1.00  0.00     0.124 S 
ATOM     89  O   UNL     1       5.141   4.410 -23.342  1.00  0.00    -0.237 OA
ATOM     90  O   UNL     1       6.227   2.245 -23.835  1.00  0.00    -0.237 OA
ATOM     91  O   UNL     1       3.997   2.742 -24.757  1.00  0.00    -0.744 OA
ENDBRANCH  87  88
ENDBRANCH  55  80
ENDBRANCH  29  30
ENDBRANCH  21  24
ENDBRANCH   1  20
TORSDOF 14
