REMARK SMILES CC[NH+]1CC[NH+]([C@@H]2CC(=O)N(c3ccc(C(=O)NCCCNC(=O)c4ccc(-c5c6nc(c(-c7c(F)cc(S(=O)(=O)[O-])cc7F)c7ccc([nH]7)c(-c7c(F)cc(S(=O)(=O)[O-])cc7F)c7nc(c(-c8c(F)cc(S(=O)(=O)[O-])cc8F)c8ccc5[nH]8)C=C7)C=C6)cc4)cc3)C2=O)CC1
REMARK SMILES IDX 20 1 19 2 18 3 16 4 17 5 15 7 12 8 13 9 92 10 14 11 91 12
REMARK SMILES IDX 11 13 7 14 8 15 93 16 9 17 94 18 10 19 6 20 3 21 4 22 96 23
REMARK SMILES IDX 5 25 95 26 2 28 1 29 21 30 22 31 23 32 24 34 25 35 26 36
REMARK SMILES IDX 90 37 27 38 89 39 28 40 29 41 30 42 83 43 31 44 88 45 82 46
REMARK SMILES IDX 84 47 32 48 87 49 81 50 80 51 33 53 67 54 46 55 66 56 47 57
REMARK SMILES IDX 50 58 65 59 85 60 48 61 49 62 64 64 86 65 51 66 34 67 35 68
REMARK SMILES IDX 44 69 36 70 37 71 43 72 45 73 38 74 39 75 40 76 41 77 42 78
REMARK SMILES IDX 68 79 69 80 78 81 70 82 71 83 77 84 79 85 72 86 73 87 74 88
REMARK SMILES IDX 75 89 76 90 52 91 53 92 62 93 54 94 55 95 61 96 63 97 56 98
REMARK SMILES IDX 57 99 58 100 59 101 60 102
REMARK H PARENT 18 6 3 24 6 27 22 33 84 52 50 63
REMARK Flexibility Score: inf
ROOT
ATOM      1  C   UNL     1       3.347 -12.616  -1.982  1.00  0.00     0.042 C 
ENDROOT
BRANCH   1   2
ATOM      2  C   UNL     1       1.946 -12.129  -2.355  1.00  0.00     0.118 C 
BRANCH   2   3
ATOM      3  N   UNL     1       1.084 -12.057  -1.190  1.00  0.00    -0.352 N 
ATOM      4  C   UNL     1       0.731 -11.014  -0.373  1.00  0.00     0.251 C 
ATOM      5  O   UNL     1      -0.099 -11.234   0.510  1.00  0.00    -0.269 OA
ATOM      6  H   UNL     1       0.677 -12.918  -0.939  1.00  0.00     0.163 HD
BRANCH   4   7
ATOM      7  C   UNL     1       1.264  -9.632  -0.538  1.00  0.00     0.039 A 
ATOM      8  C   UNL     1       2.119  -6.968  -0.826  1.00  0.00     0.052 A 
ATOM      9  C   UNL     1       0.939  -7.254  -0.133  1.00  0.00     0.027 A 
ATOM     10  C   UNL     1       2.884  -8.011  -1.339  1.00  0.00     0.027 A 
ATOM     11  C   UNL     1       0.500  -8.576  -0.019  1.00  0.00     0.016 A 
ATOM     12  C   UNL     1       2.486  -9.330  -1.140  1.00  0.00     0.016 A 
BRANCH   8  13
ATOM     13  N   UNL     1       2.577  -5.651  -0.975  1.00  0.00    -0.245 N 
ATOM     14  C   UNL     1       3.261  -3.473  -0.460  1.00  0.00     0.285 C 
ATOM     15  C   UNL     1       3.453  -3.716  -1.950  1.00  0.00     0.176 C 
ATOM     16  C   UNL     1       2.703  -4.782   0.078  1.00  0.00     0.292 C 
ATOM     17  C   UNL     1       3.026  -5.133  -2.162  1.00  0.00     0.240 C 
ATOM     18  O   UNL     1       2.449  -5.001   1.257  1.00  0.00    -0.267 OA
ATOM     19  O   UNL     1       3.047  -5.673  -3.260  1.00  0.00    -0.274 OA
BRANCH  14  20
ATOM     20  N   UNL     1       2.446  -2.332  -0.023  1.00  0.00    -0.315 N 
ATOM     21  N   UNL     1       0.989  -0.496  -1.902  1.00  0.00    -0.326 N 
ATOM     22  C   UNL     1       2.436  -0.384  -1.682  1.00  0.00     0.324 C 
ATOM     23  C   UNL     1       0.478  -1.827  -1.559  1.00  0.00     0.324 C 
ATOM     24  H   UNL     1       0.865  -0.395  -2.909  1.00  0.00     0.348 HD
ATOM     25  C   UNL     1       2.986  -1.018  -0.381  1.00  0.00     0.325 C 
ATOM     26  C   UNL     1       0.997  -2.421  -0.238  1.00  0.00     0.325 C 
ATOM     27  H   UNL     1       2.540  -2.418   0.989  1.00  0.00     0.349 HD
BRANCH  21  28
ATOM     28  C   UNL     1       0.190   0.611  -1.374  1.00  0.00     0.259 C 
ATOM     29  C   UNL     1       0.390   1.028   0.077  1.00  0.00     0.071 C 
ENDBRANCH  21  28
ENDBRANCH  14  20
ENDBRANCH   8  13
ENDBRANCH   4   7
ENDBRANCH   2   3
ENDBRANCH   1   2
BRANCH   1  30
ATOM     30  C   UNL     1       3.412 -14.114  -1.718  1.00  0.00     0.118 C 
BRANCH  30  31
ATOM     31  N   UNL     1       3.191 -14.879  -2.934  1.00  0.00    -0.352 N 
ATOM     32  C   UNL     1       3.978 -15.830  -3.529  1.00  0.00     0.251 C 
ATOM     33  H   UNL     1       2.347 -14.685  -3.402  1.00  0.00     0.163 HD
ATOM     34  O   UNL     1       3.728 -16.174  -4.682  1.00  0.00    -0.269 OA
BRANCH  32  35
ATOM     35  C   UNL     1       5.117 -16.434  -2.803  1.00  0.00     0.039 A 
ATOM     36  C   UNL     1       6.281 -16.730  -3.518  1.00  0.00     0.014 A 
ATOM     37  C   UNL     1       5.026 -16.765  -1.447  1.00  0.00     0.014 A 
ATOM     38  C   UNL     1       7.363 -17.324  -2.866  1.00  0.00     0.010 A 
ATOM     39  C   UNL     1       6.131 -17.292  -0.783  1.00  0.00     0.010 A 
ATOM     40  C   UNL     1       7.305 -17.590  -1.488  1.00  0.00    -0.014 A 
BRANCH  40  41
ATOM     41  C   UNL     1       8.465 -18.184  -0.779  1.00  0.00     0.031 A 
ATOM     42  C   UNL     1       8.365 -19.558  -0.175  1.00  0.00     0.074 A 
ATOM     43  C   UNL     1       9.594 -17.462  -0.643  1.00  0.00     0.049 A 
ATOM     44  N   UNL     1       9.261 -20.227   0.504  1.00  0.00    -0.248 NA
ATOM     45  C   UNL     1       7.082 -20.262  -0.331  1.00  0.00     0.031 C 
ATOM     46  C   UNL     1       9.788 -16.096  -1.138  1.00  0.00     0.029 A 
ATOM     47  N   UNL     1      10.788 -17.769  -0.043  1.00  0.00    -0.354 N 
ATOM     48  C   UNL     1       8.648 -21.422   0.867  1.00  0.00     0.074 A 
ATOM     49  C   UNL     1       7.289 -21.365   0.375  1.00  0.00     0.031 C 
ATOM     50  C   UNL     1      11.033 -15.693  -0.841  1.00  0.00     0.029 A 
ATOM     51  C   UNL     1      11.714 -16.755  -0.108  1.00  0.00     0.049 A 
ATOM     52  H   UNL     1      10.965 -18.633   0.394  1.00  0.00     0.167 HD
ATOM     53  C   UNL     1       9.178 -22.477   1.530  1.00  0.00     0.037 A 
ATOM     54  C   UNL     1      12.971 -16.688   0.371  1.00  0.00     0.037 A 
ATOM     55  C   UNL     1      10.541 -22.535   1.992  1.00  0.00     0.049 A 
ATOM     56  C   UNL     1      13.545 -17.881   1.084  1.00  0.00     0.074 A 
ATOM     57  C   UNL     1      11.196 -23.583   2.615  1.00  0.00     0.029 A 
ATOM     58  N   UNL     1      11.459 -21.499   1.885  1.00  0.00    -0.354 N 
ATOM     59  N   UNL     1      12.975 -19.031   1.355  1.00  0.00    -0.248 NA
ATOM     60  C   UNL     1      14.935 -17.773   1.546  1.00  0.00     0.031 C 
ATOM     61  C   UNL     1      12.498 -23.167   2.919  1.00  0.00     0.029 A 
ATOM     62  C   UNL     1      12.668 -21.876   2.446  1.00  0.00     0.049 A 
ATOM     63  H   UNL     1      11.277 -20.625   1.470  1.00  0.00     0.167 HD
ATOM     64  C   UNL     1      13.941 -19.791   2.004  1.00  0.00     0.074 A 
ATOM     65  C   UNL     1      15.137 -18.975   2.067  1.00  0.00     0.031 C 
ATOM     66  C   UNL     1      13.847 -21.048   2.503  1.00  0.00     0.037 A 
BRANCH  53  67
ATOM     67  C   UNL     1       8.283 -23.658   1.791  1.00  0.00     0.058 A 
ATOM     68  C   UNL     1       7.864 -24.508   0.755  1.00  0.00     0.135 A 
ATOM     69  C   UNL     1       7.865 -23.964   3.096  1.00  0.00     0.135 A 
ATOM     70  F   UNL     1       8.222 -24.255  -0.514  1.00  0.00    -0.206 F 
ATOM     71  C   UNL     1       7.037 -25.601   0.998  1.00  0.00     0.059 A 
ATOM     72  C   UNL     1       7.060 -25.068   3.367  1.00  0.00     0.059 A 
ATOM     73  F   UNL     1       8.237 -23.186   4.125  1.00  0.00    -0.206 F 
ATOM     74  C   UNL     1       6.639 -25.872   2.308  1.00  0.00     0.060 A 
BRANCH  74  75
ATOM     75  S   UNL     1       5.569 -27.294   2.608  1.00  0.00     0.124 S 
ATOM     76  O   UNL     1       4.290 -26.808   2.100  1.00  0.00    -0.237 OA
ATOM     77  O   UNL     1       6.208 -28.340   1.815  1.00  0.00    -0.237 OA
ATOM     78  O   UNL     1       5.642 -27.476   4.054  1.00  0.00    -0.744 OA
ENDBRANCH  74  75
ENDBRANCH  53  67
BRANCH  54  79
ATOM     79  C   UNL     1      13.775 -15.456   0.165  1.00  0.00     0.058 A 
ATOM     80  C   UNL     1      14.848 -15.435  -0.738  1.00  0.00     0.135 A 
ATOM     81  C   UNL     1      13.470 -14.266   0.845  1.00  0.00     0.135 A 
ATOM     82  F   UNL     1      15.180 -16.549  -1.409  1.00  0.00    -0.206 F 
ATOM     83  C   UNL     1      15.598 -14.284  -0.953  1.00  0.00     0.059 A 
ATOM     84  C   UNL     1      14.190 -13.096   0.630  1.00  0.00     0.059 A 
ATOM     85  F   UNL     1      12.440 -14.229   1.705  1.00  0.00    -0.206 F 
ATOM     86  C   UNL     1      15.259 -13.117  -0.265  1.00  0.00     0.060 A 
BRANCH  86  87
ATOM     87  S   UNL     1      16.201 -11.612  -0.594  1.00  0.00     0.124 S 
ATOM     88  O   UNL     1      17.445 -11.883   0.116  1.00  0.00    -0.237 OA
ATOM     89  O   UNL     1      16.283 -11.612  -2.052  1.00  0.00    -0.237 OA
ATOM     90  O   UNL     1      15.363 -10.561  -0.024  1.00  0.00    -0.744 OA
ENDBRANCH  86  87
ENDBRANCH  54  79
BRANCH  66  91
ATOM     91  C   UNL     1      15.078 -21.625   3.144  1.00  0.00     0.058 A 
ATOM     92  C   UNL     1      15.526 -21.188   4.401  1.00  0.00     0.135 A 
ATOM     93  C   UNL     1      15.798 -22.649   2.509  1.00  0.00     0.135 A 
ATOM     94  F   UNL     1      14.877 -20.207   5.046  1.00  0.00    -0.206 F 
ATOM     95  C   UNL     1      16.663 -21.728   4.993  1.00  0.00     0.059 A 
ATOM     96  C   UNL     1      16.923 -23.222   3.095  1.00  0.00     0.059 A 
ATOM     97  F   UNL     1      15.405 -23.110   1.311  1.00  0.00    -0.206 F 
ATOM     98  C   UNL     1      17.356 -22.744   4.331  1.00  0.00     0.060 A 
BRANCH  98  99
ATOM     99  S   UNL     1      18.819 -23.450   5.118  1.00  0.00     0.124 S 
ATOM    100  O   UNL     1      19.807 -22.400   4.895  1.00  0.00    -0.237 OA
ATOM    101  O   UNL     1      18.380 -23.623   6.500  1.00  0.00    -0.237 OA
ATOM    102  O   UNL     1      19.038 -24.688   4.377  1.00  0.00    -0.744 OA
ENDBRANCH  98  99
ENDBRANCH  66  91
ENDBRANCH  40  41
ENDBRANCH  32  35
ENDBRANCH  30  31
ENDBRANCH   1  30
TORSDOF 16
