REMARK SMILES C=C1C=C[C@H](C(=O)NCCCNC(=O)c2ccc(-c3c4nc(c(-c5c(F)cc(S(=O)(=O)[O-])cc5F)c5ccc([nH]5)c(-c5c(F)cc(S(=O)(=O)[O-])cc5F)c5nc(c(-c6c(F)cc(S(=O)(=O)[O-])cc6F)c6ccc3[nH]6)C=C5)C=C4)cc2)C(=S)N1
REMARK SMILES IDX 12 1 13 2 14 3 11 5 10 6 9 7 8 8 6 9 7 10 5 12 1 13 2 14
REMARK SMILES IDX 3 15 83 16 4 17 81 18 82 20 15 21 16 22 80 23 17 24 79 25
REMARK SMILES IDX 18 26 19 27 20 28 73 29 21 30 78 31 72 32 74 33 22 34 77 35
REMARK SMILES IDX 71 36 70 37 23 39 57 40 36 41 56 42 37 43 40 44 55 45 75 46
REMARK SMILES IDX 38 47 39 48 54 50 76 51 41 52 24 53 25 54 34 55 26 56 27 57
REMARK SMILES IDX 33 58 35 59 28 60 29 61 30 62 31 63 32 64 58 65 59 66 68 67
REMARK SMILES IDX 60 68 61 69 67 70 69 71 62 72 63 73 64 74 65 75 66 76 42 77
REMARK SMILES IDX 43 78 52 79 44 80 45 81 51 82 53 83 46 84 47 85 48 86 49 87
REMARK SMILES IDX 50 88
REMARK H PARENT 12 4 8 11 83 19 74 38 40 49
REMARK Flexibility Score: inf
ROOT
ATOM      1  N   UNL     1      -0.584   7.598   0.711  1.00  0.00    -0.352 N 
ATOM      2  C   UNL     1      -0.343   8.706   1.486  1.00  0.00     0.251 C 
ATOM      3  O   UNL     1      -0.485   8.627   2.706  1.00  0.00    -0.269 OA
ATOM      4  H   UNL     1      -0.987   6.836   1.185  1.00  0.00     0.163 HD
ENDROOT
BRANCH   1   5
ATOM      5  C   UNL     1      -0.332   7.383  -0.706  1.00  0.00     0.118 C 
BRANCH   5   6
ATOM      6  C   UNL     1       0.383   6.062  -0.988  1.00  0.00     0.042 C 
BRANCH   6   7
ATOM      7  C   UNL     1      -0.435   4.817  -0.641  1.00  0.00     0.117 C 
BRANCH   7   8
ATOM      8  N   UNL     1      -1.603   4.706  -1.498  1.00  0.00    -0.355 N 
ATOM      9  C   UNL     1      -1.992   3.785  -2.417  1.00  0.00     0.233 C 
ATOM     10  O   UNL     1      -2.958   4.104  -3.122  1.00  0.00    -0.274 OA
ATOM     11  H   UNL     1      -2.240   5.449  -1.391  1.00  0.00     0.163 HD
BRANCH   9  12
ATOM     12  C   UNL     1      -1.363   2.391  -2.563  1.00  0.00     0.159 C 
ATOM     13  C   UNL     1       1.102   0.066   0.010  1.00  0.00     0.037 C 
ATOM     14  C   UNL     1       0.344   0.782  -0.828  1.00  0.00     0.031 C 
ATOM     15  C   UNL     1       0.911   1.629  -1.852  1.00  0.00     0.022 C 
ATOM     16  N   UNL     1      -1.021   0.709  -0.741  1.00  0.00    -0.350 N 
ATOM     17  C   UNL     1       0.142   2.378  -2.657  1.00  0.00    -0.004 C 
ATOM     18  C   UNL     1      -1.906   1.389  -1.536  1.00  0.00     0.096 C 
ATOM     19  H   UNL     1      -1.397   0.118  -0.049  1.00  0.00     0.167 HD
ATOM     20  S   UNL     1      -3.539   1.030  -1.373  1.00  0.00    -0.064 S 
ENDBRANCH   9  12
ENDBRANCH   7   8
ENDBRANCH   6   7
ENDBRANCH   5   6
ENDBRANCH   1   5
BRANCH   2  21
ATOM     21  C   UNL     1       0.106   9.977   0.875  1.00  0.00     0.039 A 
ATOM     22  C   UNL     1       1.103  10.716   1.518  1.00  0.00     0.014 A 
ATOM     23  C   UNL     1      -0.462  10.458  -0.308  1.00  0.00     0.014 A 
ATOM     24  C   UNL     1       1.568  11.905   0.948  1.00  0.00     0.010 A 
ATOM     25  C   UNL     1       0.054  11.603  -0.913  1.00  0.00     0.010 A 
ATOM     26  C   UNL     1       1.071  12.344  -0.290  1.00  0.00    -0.014 A 
BRANCH  26  27
ATOM     27  C   UNL     1       1.595  13.575  -0.940  1.00  0.00     0.031 A 
ATOM     28  C   UNL     1       0.683  14.750  -1.185  1.00  0.00     0.074 A 
ATOM     29  C   UNL     1       2.875  13.619  -1.362  1.00  0.00     0.049 A 
ATOM     30  N   UNL     1       0.935  15.878  -1.799  1.00  0.00    -0.248 NA
ATOM     31  C   UNL     1      -0.700  14.632  -0.696  1.00  0.00     0.031 C 
ATOM     32  C   UNL     1       3.849  12.534  -1.221  1.00  0.00     0.029 A 
ATOM     33  N   UNL     1       3.576  14.609  -2.006  1.00  0.00    -0.354 N 
ATOM     34  C   UNL     1      -0.257  16.594  -1.783  1.00  0.00     0.074 A 
ATOM     35  C   UNL     1      -1.245  15.752  -1.146  1.00  0.00     0.031 C 
ATOM     36  C   UNL     1       5.023  12.925  -1.743  1.00  0.00     0.029 A 
ATOM     37  C   UNL     1       4.877  14.269  -2.295  1.00  0.00     0.049 A 
ATOM     38  H   UNL     1       3.183  15.482  -2.239  1.00  0.00     0.167 HD
ATOM     39  C   UNL     1      -0.500  17.848  -2.236  1.00  0.00     0.037 A 
ATOM     40  C   UNL     1       5.841  14.954  -2.942  1.00  0.00     0.037 A 
ATOM     41  C   UNL     1       0.494  18.691  -2.850  1.00  0.00     0.049 A 
ATOM     42  C   UNL     1       5.542  16.340  -3.449  1.00  0.00     0.074 A 
ATOM     43  C   UNL     1       0.359  19.994  -3.295  1.00  0.00     0.029 A 
ATOM     44  N   UNL     1       1.805  18.316  -3.109  1.00  0.00    -0.354 N 
ATOM     45  N   UNL     1       4.425  17.024  -3.372  1.00  0.00    -0.248 NA
ATOM     46  C   UNL     1       6.637  17.053  -4.123  1.00  0.00     0.031 C 
ATOM     47  C   UNL     1       1.571  20.389  -3.871  1.00  0.00     0.029 A 
ATOM     48  C   UNL     1       2.482  19.355  -3.727  1.00  0.00     0.049 A 
ATOM     49  H   UNL     1       2.196  17.440  -2.886  1.00  0.00     0.167 HD
ATOM     50  C   UNL     1       4.694  18.259  -3.954  1.00  0.00     0.074 A 
ATOM     51  C   UNL     1       6.080  18.230  -4.371  1.00  0.00     0.031 C 
ATOM     52  C   UNL     1       3.868  19.321  -4.124  1.00  0.00     0.037 A 
BRANCH  39  53
ATOM     53  C   UNL     1      -1.896  18.390  -2.086  1.00  0.00     0.058 A 
ATOM     54  C   UNL     1      -2.432  18.713  -0.828  1.00  0.00     0.135 A 
ATOM     55  C   UNL     1      -2.692  18.638  -3.216  1.00  0.00     0.135 A 
ATOM     56  F   UNL     1      -1.723  18.484   0.289  1.00  0.00    -0.206 F 
ATOM     57  C   UNL     1      -3.715  19.234  -0.695  1.00  0.00     0.059 A 
ATOM     58  C   UNL     1      -3.966  19.188  -3.109  1.00  0.00     0.059 A 
ATOM     59  F   UNL     1      -2.231  18.350  -4.444  1.00  0.00    -0.206 F 
ATOM     60  C   UNL     1      -4.474  19.471  -1.842  1.00  0.00     0.060 A 
BRANCH  60  61
ATOM     61  S   UNL     1      -6.131  20.161  -1.650  1.00  0.00     0.124 S 
ATOM     62  O   UNL     1      -6.854  19.028  -1.083  1.00  0.00    -0.237 OA
ATOM     63  O   UNL     1      -5.898  21.281  -0.744  1.00  0.00    -0.237 OA
ATOM     64  O   UNL     1      -6.508  20.527  -3.012  1.00  0.00    -0.744 OA
ENDBRANCH  60  61
ENDBRANCH  39  53
BRANCH  40  65
ATOM     65  C   UNL     1       7.186  14.346  -3.137  1.00  0.00     0.058 A 
ATOM     66  C   UNL     1       8.312  14.852  -2.470  1.00  0.00     0.135 A 
ATOM     67  C   UNL     1       7.374  13.250  -3.994  1.00  0.00     0.135 A 
ATOM     68  F   UNL     1       8.187  15.903  -1.645  1.00  0.00    -0.206 F 
ATOM     69  C   UNL     1       9.579  14.309  -2.660  1.00  0.00     0.059 A 
ATOM     70  C   UNL     1       8.626  12.671  -4.178  1.00  0.00     0.059 A 
ATOM     71  F   UNL     1       6.328  12.717  -4.644  1.00  0.00    -0.206 F 
ATOM     72  C   UNL     1       9.725  13.216  -3.516  1.00  0.00     0.060 A 
BRANCH  72  73
ATOM     73  S   UNL     1      11.367  12.494  -3.726  1.00  0.00     0.124 S 
ATOM     74  O   UNL     1      12.039  13.517  -4.519  1.00  0.00    -0.237 OA
ATOM     75  O   UNL     1      11.819  12.356  -2.345  1.00  0.00    -0.237 OA
ATOM     76  O   UNL     1      11.095  11.237  -4.417  1.00  0.00    -0.744 OA
ENDBRANCH  72  73
ENDBRANCH  40  65
BRANCH  52  77
ATOM     77  C   UNL     1       4.448  20.565  -4.741  1.00  0.00     0.058 A 
ATOM     78  C   UNL     1       4.793  20.632  -6.100  1.00  0.00     0.135 A 
ATOM     79  C   UNL     1       4.611  21.727  -3.967  1.00  0.00     0.135 A 
ATOM     80  F   UNL     1       4.664  19.550  -6.884  1.00  0.00    -0.206 F 
ATOM     81  C   UNL     1       5.303  21.798  -6.664  1.00  0.00     0.059 A 
ATOM     82  C   UNL     1       5.088  22.912  -4.518  1.00  0.00     0.059 A 
ATOM     83  F   UNL     1       4.287  21.723  -2.665  1.00  0.00    -0.206 F 
ATOM     84  C   UNL     1       5.443  22.934  -5.865  1.00  0.00     0.060 A 
BRANCH  84  85
ATOM     85  S   UNL     1       6.074  24.449  -6.618  1.00  0.00     0.124 S 
ATOM     86  O   UNL     1       7.483  24.119  -6.806  1.00  0.00    -0.237 OA
ATOM     87  O   UNL     1       5.277  24.546  -7.837  1.00  0.00    -0.237 OA
ATOM     88  O   UNL     1       5.798  25.470  -5.612  1.00  0.00    -0.744 OA
ENDBRANCH  84  85
ENDBRANCH  52  77
ENDBRANCH  26  27
ENDBRANCH   2  21
TORSDOF 13
