REMARK SMILES C[C@H](C(=O)NCCCNC(=O)c1ccc(-c2c3nc(c(-c4c(F)cc(S(=O)(=O)[O-])cc4F)c4ccc([nH]4)c(-c4c(F)cc(S(=O)(=O)[O-])cc4F)c4nc(c(-c5c(F)cc(S(=O)(=O)[O-])cc5F)c5ccc2[nH]5)C=C4)C=C3)cc1)c1ccc2c3cc(Cl)ccc3n(C(=O)c3ccc(Cl)cc3)c2c1
REMARK SMILES IDX 7 1 6 2 5 3 3 4 4 5 2 7 1 8 78 9 79 10 100 11 80 12 99 13
REMARK SMILES IDX 81 14 89 15 82 16 88 17 83 18 87 19 84 20 86 21 85 22 90 23
REMARK SMILES IDX 91 24 92 25 93 26 98 27 94 28 97 29 95 30 96 31 8 32 9 33
REMARK SMILES IDX 10 34 11 36 12 37 13 38 77 39 14 40 76 41 15 42 16 43 17 44
REMARK SMILES IDX 70 45 18 46 75 47 69 48 71 49 19 50 74 51 68 52 67 53 20 55
REMARK SMILES IDX 54 56 33 57 53 58 34 59 37 60 52 61 72 62 35 63 36 64 51 66
REMARK SMILES IDX 73 67 38 68 21 69 22 70 31 71 23 72 24 73 30 74 32 75 25 76
REMARK SMILES IDX 26 77 27 78 28 79 29 80 55 81 56 82 65 83 57 84 58 85 64 86
REMARK SMILES IDX 66 87 59 88 60 89 61 90 62 91 63 92 39 93 40 94 49 95 41 96
REMARK SMILES IDX 42 97 48 98 50 99 43 100 44 101 45 102 46 103 47 104
REMARK H PARENT 5 6 9 35 71 54 37 65
REMARK Flexibility Score: inf
ROOT
ATOM      1  C   UNL     1      -0.825   2.546   1.451  1.00  0.00     0.042 C 
ENDROOT
BRANCH   1   2
ATOM      2  C   UNL     1       0.535   2.421   0.769  1.00  0.00     0.117 C 
BRANCH   2   3
ATOM      3  N   UNL     1       1.100   1.090   0.884  1.00  0.00    -0.356 N 
ATOM      4  C   UNL     1       1.231   0.120  -0.071  1.00  0.00     0.227 C 
ATOM      5  O   UNL     1       1.773  -0.938   0.256  1.00  0.00    -0.274 OA
ATOM      6  H   UNL     1       1.437   0.850   1.778  1.00  0.00     0.163 HD
BRANCH   4   7
ATOM      7  C   UNL     1       0.737   0.388  -1.501  1.00  0.00     0.105 C 
ATOM      8  C   UNL     1       1.332  -0.636  -2.475  1.00  0.00     0.023 C 
BRANCH   7   9
ATOM      9  C   UNL     1      -0.783   0.389  -1.598  1.00  0.00    -0.034 A 
ATOM     10  C   UNL     1      -1.464   1.500  -2.099  1.00  0.00     0.005 A 
ATOM     11  C   UNL     1      -1.516  -0.731  -1.173  1.00  0.00     0.032 A 
ATOM     12  C   UNL     1      -2.862   1.517  -2.162  1.00  0.00     0.011 A 
ATOM     13  C   UNL     1      -2.925  -0.708  -1.222  1.00  0.00     0.057 A 
ATOM     14  C   UNL     1      -3.604   0.399  -1.723  1.00  0.00     0.008 A 
ATOM     15  N   UNL     1      -3.870  -1.684  -0.868  1.00  0.00    -0.276 N 
ATOM     16  C   UNL     1      -4.996   0.122  -1.631  1.00  0.00     0.009 A 
ATOM     17  C   UNL     1      -5.149  -1.142  -1.045  1.00  0.00     0.057 A 
ATOM     18  C   UNL     1      -6.139   0.884  -1.960  1.00  0.00     0.031 A 
ATOM     19  C   UNL     1      -6.429  -1.608  -0.683  1.00  0.00     0.029 A 
ATOM     20  C   UNL     1      -7.404   0.390  -1.652  1.00  0.00     0.041 A 
ATOM     21  C   UNL     1      -7.549  -0.830  -1.007  1.00  0.00     0.023 A 
ATOM     22  Cl  UNL     1      -8.795   1.319  -2.055  1.00  0.00    -0.084 Cl
BRANCH  15  23
ATOM     23  C   UNL     1      -3.513  -2.964  -0.369  1.00  0.00     0.262 C 
ATOM     24  O   UNL     1      -2.473  -3.013   0.290  1.00  0.00    -0.268 OA
BRANCH  23  25
ATOM     25  C   UNL     1      -4.193  -4.276  -0.595  1.00  0.00     0.040 A 
ATOM     26  C   UNL     1      -3.699  -5.382   0.128  1.00  0.00     0.015 A 
ATOM     27  C   UNL     1      -5.177  -4.501  -1.564  1.00  0.00     0.015 A 
ATOM     28  C   UNL     1      -4.184  -6.672  -0.094  1.00  0.00     0.021 A 
ATOM     29  C   UNL     1      -5.688  -5.793  -1.763  1.00  0.00     0.021 A 
ATOM     30  C   UNL     1      -5.186  -6.872  -1.035  1.00  0.00     0.041 A 
ATOM     31  Cl  UNL     1      -5.780  -8.460  -1.323  1.00  0.00    -0.084 Cl
ENDBRANCH  23  25
ENDBRANCH  15  23
ENDBRANCH   7   9
ENDBRANCH   4   7
ENDBRANCH   2   3
ENDBRANCH   1   2
BRANCH   1  32
ATOM     32  C   UNL     1      -0.779   2.466   2.976  1.00  0.00     0.118 C 
BRANCH  32  33
ATOM     33  N   UNL     1       0.033   3.521   3.566  1.00  0.00    -0.352 N 
ATOM     34  C   UNL     1      -0.259   4.458   4.524  1.00  0.00     0.251 C 
ATOM     35  H   UNL     1       0.952   3.570   3.217  1.00  0.00     0.163 HD
ATOM     36  O   UNL     1       0.545   5.370   4.711  1.00  0.00    -0.269 OA
BRANCH  34  37
ATOM     37  C   UNL     1      -1.505   4.402   5.323  1.00  0.00     0.039 A 
ATOM     38  C   UNL     1      -2.100   5.611   5.699  1.00  0.00     0.014 A 
ATOM     39  C   UNL     1      -2.053   3.197   5.771  1.00  0.00     0.014 A 
ATOM     40  C   UNL     1      -3.257   5.610   6.481  1.00  0.00     0.010 A 
ATOM     41  C   UNL     1      -3.248   3.193   6.494  1.00  0.00     0.010 A 
ATOM     42  C   UNL     1      -3.859   4.399   6.864  1.00  0.00    -0.014 A 
BRANCH  42  43
ATOM     43  C   UNL     1      -5.133   4.404   7.631  1.00  0.00     0.031 A 
ATOM     44  C   UNL     1      -5.191   3.878   9.040  1.00  0.00     0.074 A 
ATOM     45  C   UNL     1      -6.251   4.871   7.040  1.00  0.00     0.049 A 
ATOM     46  N   UNL     1      -6.208   3.839   9.864  1.00  0.00    -0.248 NA
ATOM     47  C   UNL     1      -3.954   3.303   9.590  1.00  0.00     0.031 C 
ATOM     48  C   UNL     1      -6.337   5.350   5.658  1.00  0.00     0.029 A 
ATOM     49  N   UNL     1      -7.526   5.025   7.523  1.00  0.00    -0.354 N 
ATOM     50  C   UNL     1      -5.738   3.235  11.024  1.00  0.00     0.074 A 
ATOM     51  C   UNL     1      -4.358   2.875  10.779  1.00  0.00     0.031 C 
ATOM     52  C   UNL     1      -7.586   5.777   5.417  1.00  0.00     0.029 A 
ATOM     53  C   UNL     1      -8.397   5.577   6.613  1.00  0.00     0.049 A 
ATOM     54  H   UNL     1      -7.791   4.766   8.435  1.00  0.00     0.167 HD
ATOM     55  C   UNL     1      -6.389   3.021  12.194  1.00  0.00     0.037 A 
ATOM     56  C   UNL     1      -9.701   5.893   6.730  1.00  0.00     0.037 A 
ATOM     57  C   UNL     1      -7.759   3.396  12.438  1.00  0.00     0.049 A 
ATOM     58  C   UNL     1     -10.395   5.666   8.044  1.00  0.00     0.074 A 
ATOM     59  C   UNL     1      -8.491   3.274  13.606  1.00  0.00     0.029 A 
ATOM     60  N   UNL     1      -8.606   3.963  11.496  1.00  0.00    -0.354 N 
ATOM     61  N   UNL     1      -9.912   5.160   9.154  1.00  0.00    -0.248 NA
ATOM     62  C   UNL     1     -11.806   6.065   8.126  1.00  0.00     0.031 C 
ATOM     63  C   UNL     1      -9.792   3.729  13.360  1.00  0.00     0.029 A 
ATOM     64  C   UNL     1      -9.858   4.178  12.051  1.00  0.00     0.049 A 
ATOM     65  H   UNL     1      -8.354   4.181  10.570  1.00  0.00     0.167 HD
ATOM     66  C   UNL     1     -10.957   5.194  10.072  1.00  0.00     0.074 A 
ATOM     67  C   UNL     1     -12.088   5.793   9.393  1.00  0.00     0.031 C 
ATOM     68  C   UNL     1     -10.979   4.765  11.358  1.00  0.00     0.037 A 
BRANCH  55  69
ATOM     69  C   UNL     1      -5.623   2.356  13.307  1.00  0.00     0.058 A 
ATOM     70  C   UNL     1      -4.588   3.020  13.987  1.00  0.00     0.135 A 
ATOM     71  C   UNL     1      -5.949   1.056  13.726  1.00  0.00     0.135 A 
ATOM     72  F   UNL     1      -4.225   4.260  13.621  1.00  0.00    -0.206 F 
ATOM     73  C   UNL     1      -3.886   2.409  15.022  1.00  0.00     0.059 A 
ATOM     74  C   UNL     1      -5.278   0.435  14.777  1.00  0.00     0.059 A 
ATOM     75  F   UNL     1      -6.930   0.375  13.114  1.00  0.00    -0.206 F 
ATOM     76  C   UNL     1      -4.238   1.115  15.409  1.00  0.00     0.060 A 
BRANCH  76  77
ATOM     77  S   UNL     1      -3.319   0.339  16.756  1.00  0.00     0.124 S 
ATOM     78  O   UNL     1      -2.050   0.034  16.104  1.00  0.00    -0.237 OA
ATOM     79  O   UNL     1      -3.279   1.398  17.758  1.00  0.00    -0.237 OA
ATOM     80  O   UNL     1      -4.139  -0.818  17.104  1.00  0.00    -0.744 OA
ENDBRANCH  76  77
ENDBRANCH  55  69
BRANCH  56  81
ATOM     81  C   UNL     1     -10.423   6.491   5.576  1.00  0.00     0.058 A 
ATOM     82  C   UNL     1     -10.810   7.839   5.587  1.00  0.00     0.135 A 
ATOM     83  C   UNL     1     -10.720   5.734   4.433  1.00  0.00     0.135 A 
ATOM     84  F   UNL     1     -10.552   8.603   6.660  1.00  0.00    -0.206 F 
ATOM     85  C   UNL     1     -11.482   8.413   4.513  1.00  0.00     0.059 A 
ATOM     86  C   UNL     1     -11.368   6.292   3.335  1.00  0.00     0.059 A 
ATOM     87  F   UNL     1     -10.354   4.445   4.366  1.00  0.00    -0.206 F 
ATOM     88  C   UNL     1     -11.754   7.631   3.389  1.00  0.00     0.060 A 
BRANCH  88  89
ATOM     89  S   UNL     1     -12.578   8.399   1.977  1.00  0.00     0.124 S 
ATOM     90  O   UNL     1     -13.948   8.510   2.462  1.00  0.00    -0.237 OA
ATOM     91  O   UNL     1     -11.845   9.654   1.839  1.00  0.00    -0.237 OA
ATOM     92  O   UNL     1     -12.364   7.436   0.901  1.00  0.00    -0.744 OA
ENDBRANCH  88  89
ENDBRANCH  56  81
BRANCH  68  93
ATOM     93  C   UNL     1     -12.267   4.943  12.114  1.00  0.00     0.058 A 
ATOM     94  C   UNL     1     -13.400   4.164  11.830  1.00  0.00     0.135 A 
ATOM     95  C   UNL     1     -12.368   5.897  13.139  1.00  0.00     0.135 A 
ATOM     96  F   UNL     1     -13.359   3.241  10.857  1.00  0.00    -0.206 F 
ATOM     97  C   UNL     1     -14.601   4.354  12.507  1.00  0.00     0.059 A 
ATOM     98  C   UNL     1     -13.550   6.085  13.848  1.00  0.00     0.059 A 
ATOM     99  F   UNL     1     -11.311   6.660  13.460  1.00  0.00    -0.206 F 
ATOM    100  C   UNL     1     -14.668   5.322  13.510  1.00  0.00     0.060 A 
BRANCH 100 101
ATOM    101  S   UNL     1     -16.232   5.564  14.379  1.00  0.00     0.124 S 
ATOM    102  O   UNL     1     -17.006   6.303  13.387  1.00  0.00    -0.237 OA
ATOM    103  O   UNL     1     -16.668   4.194  14.630  1.00  0.00    -0.237 OA
ATOM    104  O   UNL     1     -15.846   6.320  15.566  1.00  0.00    -0.744 OA
ENDBRANCH 100 101
ENDBRANCH  68  93
ENDBRANCH  42  43
ENDBRANCH  34  37
ENDBRANCH  32  33
ENDBRANCH   1  32
TORSDOF 16
