REMARK SMILES CCCCCCOC(=O)Nc1cccc(-c2ccc([C@@H](C)C(=O)NCCCNC(=O)c3ccc(-c4c5nc(c(-c6c(F)cc(S(=O)(=O)[O-])cc6F)c6ccc([nH]6)c(-c6c(F)cc(S(=O)(=O)[O-])cc6F)c6nc(c(-c7c(F)cc(S(=O)(=O)[O-])cc7F)c7ccc4[nH]7)C=C6)C=C5)cc3)cc2F)c1
REMARK SMILES IDX 20 1 21 2 19 3 16 4 17 5 98 6 18 7 97 8 99 9 15 10 11 11
REMARK SMILES IDX 12 12 100 13 13 14 14 15 10 16 8 17 9 18 7 20 6 21 5 22 4 23
REMARK SMILES IDX 3 24 2 25 1 26 22 27 23 28 24 29 25 31 26 32 27 33 28 34
REMARK SMILES IDX 29 35 30 37 31 38 32 39 96 40 33 41 95 42 34 43 35 44 36 45
REMARK SMILES IDX 89 46 37 47 94 48 88 49 90 50 38 51 93 52 87 53 86 54 39 56
REMARK SMILES IDX 73 57 52 58 72 59 53 60 56 61 71 62 91 63 54 64 55 65 70 67
REMARK SMILES IDX 92 68 57 69 40 70 41 71 50 72 42 73 43 74 49 75 51 76 44 77
REMARK SMILES IDX 45 78 46 79 47 80 48 81 74 82 75 83 84 84 76 85 77 86 83 87
REMARK SMILES IDX 85 88 78 89 79 90 80 91 81 92 82 93 58 94 59 95 68 96 60 97
REMARK SMILES IDX 61 98 67 99 69 100 62 101 63 102 64 103 65 104 66 105
REMARK H PARENT 10 19 24 30 28 36 90 55 56 66
REMARK Flexibility Score: inf
ROOT
ATOM      1  C   UNL     1      -6.152 -10.700  -1.497  1.00  0.00     0.105 C 
ATOM      2  C   UNL     1      -6.898 -12.006  -1.236  1.00  0.00     0.023 C 
ENDROOT
BRANCH   1   3
ATOM      3  C   UNL     1      -5.024 -10.379  -0.530  1.00  0.00    -0.033 A 
ATOM      4  C   UNL     1      -2.918  -9.546   1.220  1.00  0.00     0.018 A 
ATOM      5  C   UNL     1      -4.125 -10.057   1.717  1.00  0.00     0.012 A 
ATOM      6  C   UNL     1      -2.776  -9.523  -0.178  1.00  0.00     0.131 A 
ATOM      7  C   UNL     1      -5.143 -10.498   0.859  1.00  0.00     0.005 A 
ATOM      8  C   UNL     1      -3.808  -9.905  -1.036  1.00  0.00     0.044 A 
ATOM      9  F   UNL     1      -1.625  -9.124  -0.743  1.00  0.00    -0.206 F 
BRANCH   4  10
ATOM     10  C   UNL     1      -1.867  -9.036   2.127  1.00  0.00    -0.013 A 
ATOM     11  C   UNL     1      -0.061  -7.439   2.575  1.00  0.00     0.045 A 
ATOM     12  C   UNL     1       0.243  -8.097   3.762  1.00  0.00     0.026 A 
ATOM     13  C   UNL     1      -1.117  -7.899   1.781  1.00  0.00     0.035 A 
ATOM     14  C   UNL     1      -0.529  -9.184   4.166  1.00  0.00     0.003 A 
ATOM     15  C   UNL     1      -1.565  -9.655   3.351  1.00  0.00     0.009 A 
BRANCH  11  16
ATOM     16  N   UNL     1       0.775  -6.401   2.143  1.00  0.00    -0.291 N 
ATOM     17  C   UNL     1       0.473  -5.421   1.234  1.00  0.00     0.411 C 
ATOM     18  O   UNL     1       1.337  -4.901   0.549  1.00  0.00    -0.224 OA
ATOM     19  H   UNL     1       1.678  -6.373   2.535  1.00  0.00     0.173 HD
BRANCH  17  20
ATOM     20  O   UNL     1      -0.832  -5.046   1.285  1.00  0.00    -0.449 OA
BRANCH  20  21
ATOM     21  C   UNL     1      -1.249  -3.909   0.513  1.00  0.00     0.235 C 
BRANCH  21  22
ATOM     22  C   UNL     1      -1.001  -2.584   1.242  1.00  0.00     0.042 C 
BRANCH  22  23
ATOM     23  C   UNL     1       0.456  -2.109   1.284  1.00  0.00     0.003 C 
BRANCH  23  24
ATOM     24  C   UNL     1       1.112  -1.903  -0.088  1.00  0.00    -0.000 C 
BRANCH  24  25
ATOM     25  C   UNL     1       0.571  -0.720  -0.889  1.00  0.00    -0.003 C 
ATOM     26  C   UNL     1       0.942   0.621  -0.277  1.00  0.00     0.004 C 
ENDBRANCH  24  25
ENDBRANCH  23  24
ENDBRANCH  22  23
ENDBRANCH  21  22
ENDBRANCH  20  21
ENDBRANCH  17  20
ENDBRANCH  11  16
ENDBRANCH   4  10
ENDBRANCH   1   3
BRANCH   1  27
ATOM     27  C   UNL     1      -7.058  -9.498  -1.806  1.00  0.00     0.227 C 
ATOM     28  O   UNL     1      -6.956  -8.915  -2.892  1.00  0.00    -0.274 OA
ATOM     29  N   UNL     1      -8.002  -9.019  -0.951  1.00  0.00    -0.356 N 
ATOM     30  H   UNL     1      -8.540  -8.281  -1.318  1.00  0.00     0.163 HD
BRANCH  29  31
ATOM     31  C   UNL     1      -8.358  -9.399   0.401  1.00  0.00     0.117 C 
BRANCH  31  32
ATOM     32  C   UNL     1      -7.708  -8.498   1.446  1.00  0.00     0.042 C 
BRANCH  32  33
ATOM     33  C   UNL     1      -8.470  -7.207   1.704  1.00  0.00     0.118 C 
BRANCH  33  34
ATOM     34  N   UNL     1      -9.742  -7.449   2.370  1.00  0.00    -0.352 N 
ATOM     35  C   UNL     1     -10.218  -7.000   3.576  1.00  0.00     0.251 C 
ATOM     36  H   UNL     1     -10.362  -8.030   1.873  1.00  0.00     0.163 HD
ATOM     37  O   UNL     1     -11.230  -7.523   4.038  1.00  0.00    -0.269 OA
BRANCH  35  38
ATOM     38  C   UNL     1      -9.541  -5.912   4.322  1.00  0.00     0.039 A 
ATOM     39  C   UNL     1      -9.596  -5.924   5.720  1.00  0.00     0.014 A 
ATOM     40  C   UNL     1      -8.928  -4.841   3.667  1.00  0.00     0.014 A 
ATOM     41  C   UNL     1      -9.024  -4.880   6.453  1.00  0.00     0.010 A 
ATOM     42  C   UNL     1      -8.277  -3.850   4.398  1.00  0.00     0.010 A 
ATOM     43  C   UNL     1      -8.350  -3.838   5.798  1.00  0.00    -0.014 A 
BRANCH  43  44
ATOM     44  C   UNL     1      -7.793  -2.685   6.552  1.00  0.00     0.031 A 
ATOM     45  C   UNL     1      -8.351  -1.303   6.319  1.00  0.00     0.074 A 
ATOM     46  C   UNL     1      -6.776  -2.870   7.416  1.00  0.00     0.049 A 
ATOM     47  N   UNL     1      -7.968  -0.158   6.824  1.00  0.00    -0.248 NA
ATOM     48  C   UNL     1      -9.471  -1.189   5.369  1.00  0.00     0.031 C 
ATOM     49  C   UNL     1      -6.126  -4.152   7.699  1.00  0.00     0.029 A 
ATOM     50  N   UNL     1      -6.109  -1.978   8.216  1.00  0.00    -0.354 N 
ATOM     51  C   UNL     1      -8.787   0.806   6.246  1.00  0.00     0.074 A 
ATOM     52  C   UNL     1      -9.642   0.122   5.301  1.00  0.00     0.031 C 
ATOM     53  C   UNL     1      -5.176  -3.967   8.630  1.00  0.00     0.029 A 
ATOM     54  C   UNL     1      -5.124  -2.553   8.985  1.00  0.00     0.049 A 
ATOM     55  H   UNL     1      -6.315  -1.015   8.237  1.00  0.00     0.167 HD
ATOM     56  C   UNL     1      -8.848   2.135   6.501  1.00  0.00     0.037 A 
ATOM     57  C   UNL     1      -4.279  -1.999   9.876  1.00  0.00     0.037 A 
ATOM     58  C   UNL     1      -8.019   2.804   7.468  1.00  0.00     0.049 A 
ATOM     59  C   UNL     1      -4.373  -0.520  10.148  1.00  0.00     0.074 A 
ATOM     60  C   UNL     1      -8.013   4.142   7.822  1.00  0.00     0.029 A 
ATOM     61  N   UNL     1      -7.057   2.180   8.249  1.00  0.00    -0.354 N 
ATOM     62  N   UNL     1      -5.174   0.370   9.611  1.00  0.00    -0.248 NA
ATOM     63  C   UNL     1      -3.459   0.025  11.161  1.00  0.00     0.031 C 
ATOM     64  C   UNL     1      -7.029   4.332   8.798  1.00  0.00     0.029 A 
ATOM     65  C   UNL     1      -6.454   3.104   9.085  1.00  0.00     0.049 A 
ATOM     66  H   UNL     1      -6.836   1.222   8.214  1.00  0.00     0.167 HD
ATOM     67  C   UNL     1      -4.889   1.572  10.252  1.00  0.00     0.074 A 
ATOM     68  C   UNL     1      -3.849   1.290  11.220  1.00  0.00     0.031 C 
ATOM     69  C   UNL     1      -5.438   2.797  10.059  1.00  0.00     0.037 A 
BRANCH  56  70
ATOM     70  C   UNL     1      -9.862   2.945   5.738  1.00  0.00     0.058 A 
ATOM     71  C   UNL     1     -11.240   2.805   5.972  1.00  0.00     0.135 A 
ATOM     72  C   UNL     1      -9.456   3.891   4.783  1.00  0.00     0.135 A 
ATOM     73  F   UNL     1     -11.687   1.902   6.859  1.00  0.00    -0.206 F 
ATOM     74  C   UNL     1     -12.179   3.550   5.267  1.00  0.00     0.059 A 
ATOM     75  C   UNL     1     -10.377   4.670   4.087  1.00  0.00     0.059 A 
ATOM     76  F   UNL     1      -8.152   4.067   4.517  1.00  0.00    -0.206 F 
ATOM     77  C   UNL     1     -11.738   4.481   4.326  1.00  0.00     0.060 A 
BRANCH  77  78
ATOM     78  S   UNL     1     -12.970   5.447   3.428  1.00  0.00     0.124 S 
ATOM     79  O   UNL     1     -13.516   4.447   2.516  1.00  0.00    -0.237 OA
ATOM     80  O   UNL     1     -13.862   5.886   4.496  1.00  0.00    -0.237 OA
ATOM     81  O   UNL     1     -12.182   6.504   2.800  1.00  0.00    -0.744 OA
ENDBRANCH  77  78
ENDBRANCH  56  70
BRANCH  57  82
ATOM     82  C   UNL     1      -3.297  -2.843  10.607  1.00  0.00     0.058 A 
ATOM     83  C   UNL     1      -3.433  -3.078  11.984  1.00  0.00     0.135 A 
ATOM     84  C   UNL     1      -2.195  -3.416   9.954  1.00  0.00     0.135 A 
ATOM     85  F   UNL     1      -4.469  -2.550  12.655  1.00  0.00    -0.206 F 
ATOM     86  C   UNL     1      -2.495  -3.818  12.696  1.00  0.00     0.059 A 
ATOM     87  C   UNL     1      -1.258  -4.185  10.638  1.00  0.00     0.059 A 
ATOM     88  F   UNL     1      -2.030  -3.241   8.634  1.00  0.00    -0.206 F 
ATOM     89  C   UNL     1      -1.407  -4.365  12.013  1.00  0.00     0.060 A 
BRANCH  89  90
ATOM     90  S   UNL     1      -0.203  -5.341  12.940  1.00  0.00     0.124 S 
ATOM     91  O   UNL     1       0.526  -4.301  13.657  1.00  0.00    -0.237 OA
ATOM     92  O   UNL     1      -1.060  -6.198  13.752  1.00  0.00    -0.237 OA
ATOM     93  O   UNL     1       0.546  -6.029  11.893  1.00  0.00    -0.744 OA
ENDBRANCH  89  90
ENDBRANCH  57  82
BRANCH  69  94
ATOM     94  C   UNL     1      -4.972   3.907  10.961  1.00  0.00     0.058 A 
ATOM     95  C   UNL     1      -3.693   4.473  10.846  1.00  0.00     0.135 A 
ATOM     96  C   UNL     1      -5.832   4.421  11.946  1.00  0.00     0.135 A 
ATOM     97  F   UNL     1      -2.833   4.016   9.922  1.00  0.00    -0.206 F 
ATOM     98  C   UNL     1      -3.265   5.479  11.705  1.00  0.00     0.059 A 
ATOM     99  C   UNL     1      -5.436   5.448  12.796  1.00  0.00     0.059 A 
ATOM    100  F   UNL     1      -7.071   3.926  12.088  1.00  0.00    -0.206 F 
ATOM    101  C   UNL     1      -4.143   5.956  12.682  1.00  0.00     0.060 A 
BRANCH 101 102
ATOM    102  S   UNL     1      -3.577   7.260  13.794  1.00  0.00     0.124 S 
ATOM    103  O   UNL     1      -2.711   6.515  14.702  1.00  0.00    -0.237 OA
ATOM    104  O   UNL     1      -2.901   8.179  12.884  1.00  0.00    -0.237 OA
ATOM    105  O   UNL     1      -4.815   7.766  14.380  1.00  0.00    -0.744 OA
ENDBRANCH 101 102
ENDBRANCH  69  94
ENDBRANCH  43  44
ENDBRANCH  35  38
ENDBRANCH  33  34
ENDBRANCH  32  33
ENDBRANCH  31  32
ENDBRANCH  29  31
ENDBRANCH   1  27
TORSDOF 22
