REMARK SMILES O=C(Nc1cccc(C(=O)NCCCNC(=O)c2ccc(-c3c4nc(c(-c5c(F)cc(S(=O)(=O)[O-])cc5F)c5ccc([nH]5)c(-c5c(F)cc(S(=O)(=O)[O-])cc5F)c5nc(c(-c6c(F)cc(S(=O)(=O)[O-])cc6F)c6ccc3[nH]6)C=C5)C=C4)cc2)c1)Nc1cc(Cl)c(Cl)cc1Cl
REMARK SMILES IDX 13 1 12 2 11 3 9 4 10 5 8 7 4 8 5 9 84 10 6 11 7 12 3 13
REMARK SMILES IDX 1 14 2 15 85 16 86 19 87 20 93 21 88 22 92 23 94 24 89 25
REMARK SMILES IDX 90 26 91 27 14 28 15 29 16 30 17 32 18 33 19 34 83 35 20 36
REMARK SMILES IDX 82 37 21 38 22 39 23 40 76 41 24 42 81 43 75 44 77 45 25 46
REMARK SMILES IDX 80 47 74 48 73 49 26 51 60 52 39 53 59 54 40 55 43 56 58 57
REMARK SMILES IDX 78 58 41 59 42 60 57 62 79 63 44 64 27 65 28 66 37 67 29 68
REMARK SMILES IDX 30 69 36 70 38 71 31 72 32 73 33 74 34 75 35 76 61 77 62 78
REMARK SMILES IDX 71 79 63 80 64 81 70 82 72 83 65 84 66 85 67 86 68 87 69 88
REMARK SMILES IDX 45 89 46 90 55 91 47 92 48 93 54 94 56 95 49 96 50 97 51 98
REMARK SMILES IDX 52 99 53 100
REMARK H PARENT 11 6 3 17 85 18 15 31 77 50 43 61
REMARK Flexibility Score: inf
ROOT
ATOM      1  C   UNL     1       4.539   3.857   0.025  1.00  0.00     0.042 C 
ENDROOT
BRANCH   1   2
ATOM      2  C   UNL     1       5.526   3.026  -0.796  1.00  0.00     0.118 C 
BRANCH   2   3
ATOM      3  N   UNL     1       6.771   2.805  -0.083  1.00  0.00    -0.352 N 
ATOM      4  C   UNL     1       7.247   1.778   0.689  1.00  0.00     0.251 C 
ATOM      5  O   UNL     1       8.406   1.882   1.095  1.00  0.00    -0.269 OA
ATOM      6  H   UNL     1       7.407   3.550  -0.174  1.00  0.00     0.163 HD
BRANCH   4   7
ATOM      7  C   UNL     1       6.479   0.543   1.032  1.00  0.00     0.041 A 
ATOM      8  C   UNL     1       4.461  -0.809   1.244  1.00  0.00     0.043 A 
ATOM      9  C   UNL     1       5.204  -1.857   1.786  1.00  0.00     0.026 A 
ATOM     10  C   UNL     1       5.093   0.403   0.934  1.00  0.00     0.040 A 
ATOM     11  C   UNL     1       6.584  -1.730   1.918  1.00  0.00     0.003 A 
ATOM     12  C   UNL     1       7.216  -0.546   1.528  1.00  0.00     0.014 A 
BRANCH   8  13
ATOM     13  N   UNL     1       3.085  -1.006   1.043  1.00  0.00    -0.308 N 
ATOM     14  O   UNL     1       1.036  -0.616   0.207  1.00  0.00    -0.248 OA
ATOM     15  C   UNL     1       2.247  -0.451   0.104  1.00  0.00     0.323 C 
ATOM     16  N   UNL     1       2.875   0.086  -0.996  1.00  0.00    -0.306 N 
ATOM     17  H   UNL     1       2.656  -1.634   1.668  1.00  0.00     0.171 HD
ATOM     18  H   UNL     1       3.853  -0.017  -1.046  1.00  0.00     0.171 HD
BRANCH  16  19
ATOM     19  C   UNL     1       2.248   0.770  -2.061  1.00  0.00     0.063 A 
ATOM     20  C   UNL     1       2.768   0.511  -3.338  1.00  0.00     0.049 A 
ATOM     21  C   UNL     1       1.192   1.689  -1.933  1.00  0.00     0.066 A 
ATOM     22  C   UNL     1       2.194   1.086  -4.477  1.00  0.00     0.061 A 
ATOM     23  C   UNL     1       0.623   2.268  -3.075  1.00  0.00     0.044 A 
ATOM     24  Cl  UNL     1       0.661   2.310  -0.410  1.00  0.00    -0.082 Cl
ATOM     25  Cl  UNL     1       2.872   0.666  -6.011  1.00  0.00    -0.083 Cl
ATOM     26  C   UNL     1       1.109   1.955  -4.346  1.00  0.00     0.061 A 
ATOM     27  Cl  UNL     1       0.347   2.690  -5.710  1.00  0.00    -0.083 Cl
ENDBRANCH  16  19
ENDBRANCH   8  13
ENDBRANCH   4   7
ENDBRANCH   2   3
ENDBRANCH   1   2
BRANCH   1  28
ATOM     28  C   UNL     1       4.836   5.357   0.004  1.00  0.00     0.118 C 
BRANCH  28  29
ATOM     29  N   UNL     1       4.627   5.925  -1.319  1.00  0.00    -0.352 N 
ATOM     30  C   UNL     1       3.853   6.977  -1.733  1.00  0.00     0.251 C 
ATOM     31  H   UNL     1       5.126   5.477  -2.040  1.00  0.00     0.163 HD
ATOM     32  O   UNL     1       3.645   7.104  -2.939  1.00  0.00    -0.269 OA
BRANCH  30  33
ATOM     33  C   UNL     1       3.274   7.952  -0.778  1.00  0.00     0.039 A 
ATOM     34  C   UNL     1       2.039   8.527  -1.095  1.00  0.00     0.014 A 
ATOM     35  C   UNL     1       3.962   8.380   0.362  1.00  0.00     0.014 A 
ATOM     36  C   UNL     1       1.487   9.505  -0.265  1.00  0.00     0.010 A 
ATOM     37  C   UNL     1       3.380   9.313   1.225  1.00  0.00     0.010 A 
ATOM     38  C   UNL     1       2.145   9.897   0.912  1.00  0.00    -0.014 A 
BRANCH  38  39
ATOM     39  C   UNL     1       1.534  10.914   1.806  1.00  0.00     0.031 A 
ATOM     40  C   UNL     1       2.173  12.265   1.988  1.00  0.00     0.074 A 
ATOM     41  C   UNL     1       0.402  10.609   2.469  1.00  0.00     0.049 A 
ATOM     42  N   UNL     1       1.756  13.286   2.694  1.00  0.00    -0.248 NA
ATOM     43  C   UNL     1       3.458  12.493   1.310  1.00  0.00     0.031 C 
ATOM     44  C   UNL     1      -0.276   9.311   2.428  1.00  0.00     0.029 A 
ATOM     45  N   UNL     1      -0.382  11.366   3.302  1.00  0.00    -0.354 N 
ATOM     46  C   UNL     1       2.728  14.271   2.554  1.00  0.00     0.074 A 
ATOM     47  C   UNL     1       3.779  13.708   1.733  1.00  0.00     0.031 C 
ATOM     48  C   UNL     1      -1.391   9.373   3.173  1.00  0.00     0.029 A 
ATOM     49  C   UNL     1      -1.498  10.705   3.759  1.00  0.00     0.049 A 
ATOM     50  H   UNL     1      -0.167  12.295   3.548  1.00  0.00     0.167 HD
ATOM     51  C   UNL     1       2.734  15.534   3.045  1.00  0.00     0.037 A 
ATOM     52  C   UNL     1      -2.501  11.129   4.551  1.00  0.00     0.037 A 
ATOM     53  C   UNL     1       1.671  16.099   3.837  1.00  0.00     0.049 A 
ATOM     54  C   UNL     1      -2.500  12.550   5.038  1.00  0.00     0.074 A 
ATOM     55  C   UNL     1       1.550  17.388   4.326  1.00  0.00     0.029 A 
ATOM     56  N   UNL     1       0.543  15.408   4.256  1.00  0.00    -0.354 N 
ATOM     57  N   UNL     1      -1.608  13.490   4.834  1.00  0.00    -0.248 NA
ATOM     58  C   UNL     1      -3.648  12.973   5.850  1.00  0.00     0.031 C 
ATOM     59  C   UNL     1       0.363  17.468   5.066  1.00  0.00     0.029 A 
ATOM     60  C   UNL     1      -0.272  16.238   5.008  1.00  0.00     0.049 A 
ATOM     61  H   UNL     1       0.350  14.465   4.049  1.00  0.00     0.167 HD
ATOM     62  C   UNL     1      -2.093  14.620   5.481  1.00  0.00     0.074 A 
ATOM     63  C   UNL     1      -3.369  14.252   6.062  1.00  0.00     0.031 C 
ATOM     64  C   UNL     1      -1.532  15.851   5.589  1.00  0.00     0.037 A 
BRANCH  51  65
ATOM     65  C   UNL     1       3.926  16.398   2.731  1.00  0.00     0.058 A 
ATOM     66  C   UNL     1       4.146  16.906   1.441  1.00  0.00     0.135 A 
ATOM     67  C   UNL     1       4.842  16.748   3.736  1.00  0.00     0.135 A 
ATOM     68  F   UNL     1       3.310  16.592   0.439  1.00  0.00    -0.206 F 
ATOM     69  C   UNL     1       5.248  17.705   1.151  1.00  0.00     0.059 A 
ATOM     70  C   UNL     1       5.938  17.566   3.474  1.00  0.00     0.059 A 
ATOM     71  F   UNL     1       4.679  16.292   4.988  1.00  0.00    -0.206 F 
ATOM     72  C   UNL     1       6.141  18.027   2.174  1.00  0.00     0.060 A 
BRANCH  72  73
ATOM     73  S   UNL     1       7.566  19.064   1.783  1.00  0.00     0.124 S 
ATOM     74  O   UNL     1       8.434  18.116   1.090  1.00  0.00    -0.237 OA
ATOM     75  O   UNL     1       6.977  20.108   0.951  1.00  0.00    -0.237 OA
ATOM     76  O   UNL     1       8.036  19.503   3.093  1.00  0.00    -0.744 OA
ENDBRANCH  72  73
ENDBRANCH  51  65
BRANCH  52  77
ATOM     77  C   UNL     1      -3.612  10.203   4.893  1.00  0.00     0.058 A 
ATOM     78  C   UNL     1      -4.881  10.358   4.317  1.00  0.00     0.135 A 
ATOM     79  C   UNL     1      -3.421   9.134   5.780  1.00  0.00     0.135 A 
ATOM     80  F   UNL     1      -5.112  11.369   3.465  1.00  0.00    -0.206 F 
ATOM     81  C   UNL     1      -5.928   9.494   4.619  1.00  0.00     0.059 A 
ATOM     82  C   UNL     1      -4.446   8.243   6.081  1.00  0.00     0.059 A 
ATOM     83  F   UNL     1      -2.218   8.933   6.342  1.00  0.00    -0.206 F 
ATOM     84  C   UNL     1      -5.700   8.437   5.502  1.00  0.00     0.060 A 
BRANCH  84  85
ATOM     85  S   UNL     1      -7.048   7.286   5.846  1.00  0.00     0.124 S 
ATOM     86  O   UNL     1      -7.865   8.061   6.772  1.00  0.00    -0.237 OA
ATOM     87  O   UNL     1      -7.617   7.069   4.520  1.00  0.00    -0.237 OA
ATOM     88  O   UNL     1      -6.362   6.132   6.421  1.00  0.00    -0.744 OA
ENDBRANCH  84  85
ENDBRANCH  52  77
BRANCH  64  89
ATOM     89  C   UNL     1      -2.307  16.882   6.360  1.00  0.00     0.058 A 
ATOM     90  C   UNL     1      -2.407  16.827   7.760  1.00  0.00     0.135 A 
ATOM     91  C   UNL     1      -2.953  17.936   5.696  1.00  0.00     0.135 A 
ATOM     92  F   UNL     1      -1.811  15.836   8.441  1.00  0.00    -0.206 F 
ATOM     93  C   UNL     1      -3.156  17.758   8.470  1.00  0.00     0.059 A 
ATOM     94  C   UNL     1      -3.687  18.892   6.389  1.00  0.00     0.059 A 
ATOM     95  F   UNL     1      -2.877  18.041   4.359  1.00  0.00    -0.206 F 
ATOM     96  C   UNL     1      -3.800  18.783   7.775  1.00  0.00     0.060 A 
BRANCH  96  97
ATOM     97  S   UNL     1      -4.777  19.984   8.703  1.00  0.00     0.124 S 
ATOM     98  O   UNL     1      -6.007  19.236   8.944  1.00  0.00    -0.237 OA
ATOM     99  O   UNL     1      -3.945  20.232   9.876  1.00  0.00    -0.237 OA
ATOM    100  O   UNL     1      -4.896  21.108   7.779  1.00  0.00    -0.744 OA
ENDBRANCH  96  97
ENDBRANCH  64  89
ENDBRANCH  38  39
ENDBRANCH  30  33
ENDBRANCH  28  29
ENDBRANCH   1  28
TORSDOF 15
