REMARK SMILES COc1cc2c(cc1OC)[C@H](C(=O)NCCCNC(=O)c1ccc(-c3c4nc(c(-c5c(F)cc(S(=O)(=O)[O-])cc5F)c5ccc([nH]5)c(-c5c(F)cc(S(=O)(=O)[O-])cc5F)c5nc(c(-c6c(F)cc(S(=O)(=O)[O-])cc6F)c6ccc3[nH]6)C=C5)C=C4)cc1)[C@H](c1cccc(Cl)c1)N(C)C2=O
REMARK SMILES IDX 17 1 16 2 15 3 14 4 12 5 13 6 11 8 3 9 4 10 8 11 5 12 7 13
REMARK SMILES IDX 6 14 97 15 95 16 98 17 87 18 96 19 2 20 1 21 9 22 10 23
REMARK SMILES IDX 88 24 89 25 94 26 90 27 92 28 91 29 93 30 18 31 19 32 20 34
REMARK SMILES IDX 21 35 22 36 86 37 23 38 85 39 24 40 25 41 26 42 79 43 27 44
REMARK SMILES IDX 84 45 78 46 80 47 28 48 83 49 77 50 76 51 29 53 63 54 42 55
REMARK SMILES IDX 62 56 43 57 46 58 61 59 81 60 44 61 45 62 60 64 82 65 47 66
REMARK SMILES IDX 30 67 31 68 40 69 32 70 33 71 39 72 41 73 34 74 35 75 36 76
REMARK SMILES IDX 37 77 38 78 64 79 65 80 74 81 66 82 67 83 73 84 75 85 68 86
REMARK SMILES IDX 69 87 70 88 71 89 72 90 48 91 49 92 58 93 50 94 51 95 57 96
REMARK SMILES IDX 59 97 52 98 53 99 54 100 55 101 56 102
REMARK H PARENT 14 7 18 33 80 52 46 63
REMARK Flexibility Score: inf
ROOT
ATOM      1  C   UNL     1      -3.264  -0.039   7.764  1.00  0.00     0.118 C 
ENDROOT
BRANCH   1   2
ATOM      2  C   UNL     1      -2.208  -0.864   7.040  1.00  0.00     0.042 C 
BRANCH   2   3
ATOM      3  C   UNL     1      -1.106  -0.046   6.391  1.00  0.00     0.117 C 
BRANCH   3   4
ATOM      4  N   UNL     1      -0.379   0.777   7.342  1.00  0.00    -0.355 N 
ATOM      5  C   UNL     1       0.932   1.145   7.373  1.00  0.00     0.230 C 
ATOM      6  O   UNL     1       1.296   1.725   8.399  1.00  0.00    -0.274 OA
ATOM      7  H   UNL     1      -0.923   1.126   8.085  1.00  0.00     0.163 HD
BRANCH   5   8
ATOM      8  C   UNL     1       1.910   0.699   6.300  1.00  0.00     0.136 C 
ATOM      9  C   UNL     1       1.117   0.924   2.048  1.00  0.00     0.161 A 
ATOM     10  C   UNL     1       2.273   0.320   2.551  1.00  0.00     0.064 A 
ATOM     11  C   UNL     1       0.247   1.581   2.933  1.00  0.00     0.161 A 
ATOM     12  C   UNL     1       2.517   0.310   3.929  1.00  0.00     0.048 A 
ATOM     13  C   UNL     1       0.522   1.599   4.305  1.00  0.00     0.056 A 
ATOM     14  C   UNL     1       1.595   0.878   4.827  1.00  0.00    -0.016 A 
ATOM     15  C   UNL     1       3.839  -0.179   4.442  1.00  0.00     0.254 C 
ATOM     16  N   UNL     1       4.227   0.283   5.707  1.00  0.00    -0.333 N 
ATOM     17  O   UNL     1       4.538  -0.896   3.734  1.00  0.00    -0.269 OA
ATOM     18  C   UNL     1       3.366   1.213   6.488  1.00  0.00     0.132 C 
ATOM     19  C   UNL     1       5.543  -0.050   6.219  1.00  0.00     0.147 C 
BRANCH   9  20
ATOM     20  O   UNL     1       0.859   0.999   0.704  1.00  0.00    -0.493 OA
ATOM     21  C   UNL     1       1.200  -0.169  -0.038  1.00  0.00     0.278 C 
ENDBRANCH   9  20
BRANCH  11  22
ATOM     22  O   UNL     1      -0.889   2.267   2.588  1.00  0.00    -0.493 OA
ATOM     23  C   UNL     1      -1.701   1.637   1.601  1.00  0.00     0.278 C 
ENDBRANCH  11  22
BRANCH  18  24
ATOM     24  C   UNL     1       3.563   2.693   6.096  1.00  0.00    -0.023 A 
ATOM     25  C   UNL     1       2.977   3.714   6.867  1.00  0.00     0.006 A 
ATOM     26  C   UNL     1       4.252   3.087   4.934  1.00  0.00     0.026 A 
ATOM     27  C   UNL     1       2.984   5.048   6.450  1.00  0.00     0.002 A 
ATOM     28  C   UNL     1       4.271   4.424   4.525  1.00  0.00     0.041 A 
ATOM     29  C   UNL     1       3.620   5.403   5.267  1.00  0.00     0.020 A 
ATOM     30  Cl  UNL     1       5.090   4.861   3.075  1.00  0.00    -0.084 Cl
ENDBRANCH  18  24
ENDBRANCH   5   8
ENDBRANCH   3   4
ENDBRANCH   2   3
ENDBRANCH   1   2
BRANCH   1  31
ATOM     31  N   UNL     1      -3.986   0.891   6.904  1.00  0.00    -0.352 N 
ATOM     32  C   UNL     1      -5.339   1.000   6.668  1.00  0.00     0.251 C 
ATOM     33  H   UNL     1      -3.422   1.538   6.420  1.00  0.00     0.163 HD
ATOM     34  O   UNL     1      -5.755   1.782   5.825  1.00  0.00    -0.269 OA
BRANCH  32  35
ATOM     35  C   UNL     1      -6.278   0.129   7.408  1.00  0.00     0.039 A 
ATOM     36  C   UNL     1      -7.268  -0.557   6.701  1.00  0.00     0.014 A 
ATOM     37  C   UNL     1      -6.140  -0.057   8.785  1.00  0.00     0.014 A 
ATOM     38  C   UNL     1      -8.052  -1.507   7.360  1.00  0.00     0.010 A 
ATOM     39  C   UNL     1      -6.845  -1.076   9.413  1.00  0.00     0.010 A 
ATOM     40  C   UNL     1      -7.808  -1.815   8.709  1.00  0.00    -0.014 A 
BRANCH  40  41
ATOM     41  C   UNL     1      -8.534  -2.909   9.404  1.00  0.00     0.031 A 
ATOM     42  C   UNL     1      -9.350  -2.608  10.632  1.00  0.00     0.074 A 
ATOM     43  C   UNL     1      -8.374  -4.184   8.996  1.00  0.00     0.049 A 
ATOM     44  N   UNL     1      -9.958  -3.434  11.444  1.00  0.00    -0.248 NA
ATOM     45  C   UNL     1      -9.457  -1.194  11.026  1.00  0.00     0.031 C 
ATOM     46  C   UNL     1      -7.542  -4.617   7.871  1.00  0.00     0.029 A 
ATOM     47  N   UNL     1      -8.887  -5.355   9.495  1.00  0.00    -0.354 N 
ATOM     48  C   UNL     1     -10.489  -2.646  12.457  1.00  0.00     0.074 A 
ATOM     49  C   UNL     1     -10.082  -1.284  12.190  1.00  0.00     0.031 C 
ATOM     50  C   UNL     1      -7.614  -5.952   7.756  1.00  0.00     0.029 A 
ATOM     51  C   UNL     1      -8.467  -6.476   8.818  1.00  0.00     0.049 A 
ATOM     52  H   UNL     1      -9.499  -5.389  10.265  1.00  0.00     0.167 HD
ATOM     53  C   UNL     1     -11.266  -3.016  13.503  1.00  0.00     0.037 A 
ATOM     54  C   UNL     1      -8.732  -7.779   9.031  1.00  0.00     0.037 A 
ATOM     55  C   UNL     1     -11.707  -4.366  13.737  1.00  0.00     0.049 A 
ATOM     56  C   UNL     1      -9.649  -8.166  10.158  1.00  0.00     0.074 A 
ATOM     57  C   UNL     1     -12.569  -4.834  14.712  1.00  0.00     0.029 A 
ATOM     58  N   UNL     1     -11.319  -5.465  12.984  1.00  0.00    -0.354 N 
ATOM     59  N   UNL     1     -10.212  -7.396  11.059  1.00  0.00    -0.248 NA
ATOM     60  C   UNL     1      -9.978  -9.591  10.290  1.00  0.00     0.031 C 
ATOM     61  C   UNL     1     -12.677  -6.222  14.569  1.00  0.00     0.029 A 
ATOM     62  C   UNL     1     -11.913  -6.613  13.481  1.00  0.00     0.049 A 
ATOM     63  H   UNL     1     -10.710  -5.433  12.210  1.00  0.00     0.167 HD
ATOM     64  C   UNL     1     -10.974  -8.242  11.858  1.00  0.00     0.074 A 
ATOM     65  C   UNL     1     -10.812  -9.579  11.322  1.00  0.00     0.031 C 
ATOM     66  C   UNL     1     -11.738  -7.937  12.936  1.00  0.00     0.037 A 
BRANCH  53  67
ATOM     67  C   UNL     1     -11.689  -1.938  14.462  1.00  0.00     0.058 A 
ATOM     68  C   UNL     1     -12.595  -0.931  14.089  1.00  0.00     0.135 A 
ATOM     69  C   UNL     1     -11.171  -1.900  15.767  1.00  0.00     0.135 A 
ATOM     70  F   UNL     1     -13.109  -0.911  12.849  1.00  0.00    -0.206 F 
ATOM     71  C   UNL     1     -12.931   0.104  14.955  1.00  0.00     0.059 A 
ATOM     72  C   UNL     1     -11.517  -0.890  16.661  1.00  0.00     0.059 A 
ATOM     73  F   UNL     1     -10.304  -2.838  16.179  1.00  0.00    -0.206 F 
ATOM     74  C   UNL     1     -12.379   0.121  16.236  1.00  0.00     0.060 A 
BRANCH  74  75
ATOM     75  S   UNL     1     -12.794   1.489  17.338  1.00  0.00     0.124 S 
ATOM     76  O   UNL     1     -11.962   2.559  16.796  1.00  0.00    -0.237 OA
ATOM     77  O   UNL     1     -14.231   1.637  17.129  1.00  0.00    -0.237 OA
ATOM     78  O   UNL     1     -12.403   0.994  18.654  1.00  0.00    -0.744 OA
ENDBRANCH  74  75
ENDBRANCH  53  67
BRANCH  54  79
ATOM     79  C   UNL     1      -8.137  -8.803   8.133  1.00  0.00     0.058 A 
ATOM     80  C   UNL     1      -8.916  -9.452   7.164  1.00  0.00     0.135 A 
ATOM     81  C   UNL     1      -6.769  -9.110   8.187  1.00  0.00     0.135 A 
ATOM     82  F   UNL     1     -10.230  -9.195   7.077  1.00  0.00    -0.206 F 
ATOM     83  C   UNL     1      -8.360 -10.369   6.278  1.00  0.00     0.059 A 
ATOM     84  C   UNL     1      -6.186 -10.009   7.299  1.00  0.00     0.059 A 
ATOM     85  F   UNL     1      -5.979  -8.502   9.085  1.00  0.00    -0.206 F 
ATOM     86  C   UNL     1      -6.991 -10.635   6.348  1.00  0.00     0.060 A 
BRANCH  86  87
ATOM     87  S   UNL     1      -6.263 -11.759   5.135  1.00  0.00     0.124 S 
ATOM     88  O   UNL     1      -6.714 -13.055   5.627  1.00  0.00    -0.237 OA
ATOM     89  O   UNL     1      -6.870 -11.301   3.889  1.00  0.00    -0.237 OA
ATOM     90  O   UNL     1      -4.831 -11.499   5.257  1.00  0.00    -0.744 OA
ENDBRANCH  86  87
ENDBRANCH  54  79
BRANCH  66  91
ATOM     91  C   UNL     1     -12.474  -9.066  13.601  1.00  0.00     0.058 A 
ATOM     92  C   UNL     1     -11.808 -10.002  14.407  1.00  0.00     0.135 A 
ATOM     93  C   UNL     1     -13.868  -9.178  13.475  1.00  0.00     0.135 A 
ATOM     94  F   UNL     1     -10.475  -9.941  14.553  1.00  0.00    -0.206 F 
ATOM     95  C   UNL     1     -12.498 -11.022  15.053  1.00  0.00     0.059 A 
ATOM     96  C   UNL     1     -14.580 -10.177  14.131  1.00  0.00     0.059 A 
ATOM     97  F   UNL     1     -14.552  -8.302  12.723  1.00  0.00    -0.206 F 
ATOM     98  C   UNL     1     -13.885 -11.101  14.910  1.00  0.00     0.060 A 
BRANCH  98  99
ATOM     99  S   UNL     1     -14.774 -12.407  15.783  1.00  0.00     0.124 S 
ATOM    100  O   UNL     1     -14.463 -13.572  14.962  1.00  0.00    -0.237 OA
ATOM    101  O   UNL     1     -14.156 -12.378  17.105  1.00  0.00    -0.237 OA
ATOM    102  O   UNL     1     -16.163 -11.959  15.738  1.00  0.00    -0.744 OA
ENDBRANCH  98  99
ENDBRANCH  66  91
ENDBRANCH  40  41
ENDBRANCH  32  35
ENDBRANCH   1  31
TORSDOF 16
