REMARK SMILES COc1ccc([C@@H]2Nc3c(C(=O)NCCCNC(=O)c4ccc(-c5c6nc(c(-c7c(F)cc(S(=O)(=O)[O-])cc7F)c7ccc([nH]7)c(-c7c(F)cc(S(=O)(=O)[O-])cc7F)c7nc(c(-c8c(F)cc(S(=O)(=O)[O-])cc8F)c8ccc5[nH]8)C=C7)C=C6)cc4)cccc3[C@@H]3[C@H]4CC[C@H](C4)[C@H]32)cc1[N+](=O)[O-]
REMARK SMILES IDX 15 1 14 2 13 3 11 4 12 5 10 7 7 8 8 9 96 10 9 11 90 13 94 14
REMARK SMILES IDX 89 15 91 16 93 17 95 18 86 19 88 20 92 21 87 22 6 23 3 24
REMARK SMILES IDX 4 25 98 26 5 27 97 28 2 29 1 30 99 31 100 32 101 33 16 34
REMARK SMILES IDX 17 35 18 36 19 38 20 39 21 40 85 41 22 42 84 43 23 44 24 45
REMARK SMILES IDX 25 46 78 47 26 48 83 49 77 50 79 51 27 52 82 53 76 54 75 55
REMARK SMILES IDX 28 57 62 58 41 59 61 60 42 61 45 62 60 63 80 64 43 65 44 66
REMARK SMILES IDX 59 68 81 69 46 70 29 71 30 72 39 73 31 74 32 75 38 76 40 77
REMARK SMILES IDX 33 78 34 79 35 80 36 81 37 82 63 83 64 84 73 85 65 86 66 87
REMARK SMILES IDX 72 88 74 89 67 90 68 91 69 92 70 93 71 94 47 95 48 96 57 97
REMARK SMILES IDX 49 98 50 99 56 100 58 101 51 102 52 103 53 104 54 105 55 106
REMARK H PARENT 13 6 8 12 17 37 79 56 45 67
REMARK Flexibility Score: inf
ROOT
ATOM      1  C   UNL     1       0.857   9.839  -2.977  1.00  0.00     0.042 C 
ENDROOT
BRANCH   1   2
ATOM      2  C   UNL     1       1.171   9.786  -1.489  1.00  0.00     0.118 C 
BRANCH   2   3
ATOM      3  N   UNL     1       1.022  11.053  -0.787  1.00  0.00    -0.352 N 
ATOM      4  C   UNL     1       0.492  11.337   0.449  1.00  0.00     0.253 C 
ATOM      5  O   UNL     1       0.521  12.502   0.845  1.00  0.00    -0.269 OA
ATOM      6  H   UNL     1       1.356  11.837  -1.280  1.00  0.00     0.163 HD
BRANCH   4   7
ATOM      7  C   UNL     1      -0.193  10.309   1.269  1.00  0.00     0.063 A 
ATOM      8  C   UNL     1       2.075   7.238   1.389  1.00  0.00     0.114 C 
ATOM      9  N   UNL     1       1.623   8.627   1.215  1.00  0.00    -0.377 N 
ATOM     10  C   UNL     1       1.349   6.714   2.621  1.00  0.00     0.027 C 
ATOM     11  C   UNL     1       0.310   9.025   1.541  1.00  0.00     0.051 A 
ATOM     12  H   UNL     1       2.253   9.296   0.863  1.00  0.00     0.161 HD
ATOM     13  C   UNL     1      -0.131   6.667   2.209  1.00  0.00     0.030 C 
ATOM     14  C   UNL     1       1.553   5.363   3.309  1.00  0.00    -0.005 C 
ATOM     15  C   UNL     1      -0.578   8.098   2.180  1.00  0.00    -0.020 A 
ATOM     16  C   UNL     1      -0.677   5.512   3.078  1.00  0.00    -0.003 C 
ATOM     17  C   UNL     1       1.220   4.174   2.399  1.00  0.00     0.004 C 
ATOM     18  C   UNL     1       0.319   5.409   4.236  1.00  0.00     0.008 C 
ATOM     19  C   UNL     1      -1.445  10.700   1.786  1.00  0.00     0.016 A 
ATOM     20  C   UNL     1      -1.830   8.491   2.659  1.00  0.00     0.006 A 
ATOM     21  C   UNL     1      -0.319   4.206   2.324  1.00  0.00     0.004 C 
ATOM     22  C   UNL     1      -2.245   9.806   2.495  1.00  0.00     0.001 A 
BRANCH   8  23
ATOM     23  C   UNL     1       3.579   7.124   1.507  1.00  0.00    -0.018 A 
ATOM     24  C   UNL     1       6.329   6.583   1.881  1.00  0.00     0.196 A 
ATOM     25  C   UNL     1       5.650   7.459   2.735  1.00  0.00     0.054 A 
ATOM     26  C   UNL     1       5.640   5.996   0.816  1.00  0.00     0.311 A 
ATOM     27  C   UNL     1       4.292   7.738   2.544  1.00  0.00     0.010 A 
ATOM     28  C   UNL     1       4.274   6.276   0.624  1.00  0.00     0.095 A 
BRANCH  24  29
ATOM     29  O   UNL     1       7.611   6.276   2.241  1.00  0.00    -0.490 OA
ATOM     30  C   UNL     1       8.583   6.990   1.479  1.00  0.00     0.278 C 
ENDBRANCH  24  29
BRANCH  26  31
ATOM     31  N   UNL     1       6.280   5.049  -0.101  1.00  0.00     0.066 N 
ATOM     32  O   UNL     1       5.790   4.946  -1.235  1.00  0.00    -0.258 OA
ATOM     33  O   UNL     1       7.252   4.395   0.298  1.00  0.00    -0.258 OA
ENDBRANCH  26  31
ENDBRANCH   8  23
ENDBRANCH   4   7
ENDBRANCH   2   3
ENDBRANCH   1   2
BRANCH   1  34
ATOM     34  C   UNL     1       1.563  10.942  -3.750  1.00  0.00     0.118 C 
BRANCH  34  35
ATOM     35  N   UNL     1       3.017  10.842  -3.733  1.00  0.00    -0.352 N 
ATOM     36  C   UNL     1       3.910  10.252  -4.601  1.00  0.00     0.251 C 
ATOM     37  H   UNL     1       3.439  11.277  -2.957  1.00  0.00     0.163 HD
ATOM     38  O   UNL     1       5.092  10.192  -4.289  1.00  0.00    -0.269 OA
BRANCH  36  39
ATOM     39  C   UNL     1       3.451   9.650  -5.876  1.00  0.00     0.039 A 
ATOM     40  C   UNL     1       4.003   8.434  -6.292  1.00  0.00     0.014 A 
ATOM     41  C   UNL     1       2.493  10.274  -6.670  1.00  0.00     0.014 A 
ATOM     42  C   UNL     1       3.513   7.798  -7.440  1.00  0.00     0.010 A 
ATOM     43  C   UNL     1       1.925   9.589  -7.739  1.00  0.00     0.010 A 
ATOM     44  C   UNL     1       2.424   8.341  -8.139  1.00  0.00    -0.014 A 
BRANCH  44  45
ATOM     45  C   UNL     1       1.779   7.651  -9.291  1.00  0.00     0.031 A 
ATOM     46  C   UNL     1       1.657   8.369 -10.613  1.00  0.00     0.074 A 
ATOM     47  C   UNL     1       1.186   6.451  -9.119  1.00  0.00     0.049 A 
ATOM     48  N   UNL     1       0.929   8.066 -11.655  1.00  0.00    -0.248 NA
ATOM     49  C   UNL     1       2.415   9.624 -10.760  1.00  0.00     0.031 C 
ATOM     50  C   UNL     1       1.186   5.669  -7.880  1.00  0.00     0.029 A 
ATOM     51  N   UNL     1       0.437   5.690  -9.984  1.00  0.00    -0.354 N 
ATOM     52  C   UNL     1       1.091   9.117 -12.551  1.00  0.00     0.074 A 
ATOM     53  C   UNL     1       1.964  10.081 -11.919  1.00  0.00     0.031 C 
ATOM     54  C   UNL     1       0.485   4.539  -8.068  1.00  0.00     0.029 A 
ATOM     55  C   UNL     1      -0.060   4.536  -9.421  1.00  0.00     0.049 A 
ATOM     56  H   UNL     1       0.272   5.946 -10.921  1.00  0.00     0.167 HD
ATOM     57  C   UNL     1       0.573   9.259 -13.793  1.00  0.00     0.037 A 
ATOM     58  C   UNL     1      -0.882   3.596  -9.927  1.00  0.00     0.037 A 
ATOM     59  C   UNL     1      -0.215   8.252 -14.453  1.00  0.00     0.049 A 
ATOM     60  C   UNL     1      -1.397   3.751 -11.334  1.00  0.00     0.074 A 
ATOM     61  C   UNL     1      -0.688   8.250 -15.753  1.00  0.00     0.029 A 
ATOM     62  N   UNL     1      -0.629   7.064 -13.872  1.00  0.00    -0.354 N 
ATOM     63  N   UNL     1      -1.182   4.724 -12.187  1.00  0.00    -0.248 NA
ATOM     64  C   UNL     1      -2.268   2.684 -11.849  1.00  0.00     0.031 C 
ATOM     65  C   UNL     1      -1.415   7.073 -15.950  1.00  0.00     0.029 A 
ATOM     66  C   UNL     1      -1.363   6.326 -14.784  1.00  0.00     0.049 A 
ATOM     67  H   UNL     1      -0.430   6.787 -12.948  1.00  0.00     0.167 HD
ATOM     68  C   UNL     1      -1.858   4.367 -13.348  1.00  0.00     0.074 A 
ATOM     69  C   UNL     1      -2.488   3.090 -13.092  1.00  0.00     0.031 C 
ATOM     70  C   UNL     1      -1.949   5.037 -14.522  1.00  0.00     0.037 A 
BRANCH  57  71
ATOM     71  C   UNL     1       0.850  10.534 -14.539  1.00  0.00     0.058 A 
ATOM     72  C   UNL     1       2.116  10.819 -15.071  1.00  0.00     0.135 A 
ATOM     73  C   UNL     1      -0.188  11.447 -14.789  1.00  0.00     0.135 A 
ATOM     74  F   UNL     1       3.147   9.988 -14.848  1.00  0.00    -0.206 F 
ATOM     75  C   UNL     1       2.349  11.972 -15.813  1.00  0.00     0.059 A 
ATOM     76  C   UNL     1       0.016  12.594 -15.551  1.00  0.00     0.059 A 
ATOM     77  F   UNL     1      -1.418  11.223 -14.301  1.00  0.00    -0.206 F 
ATOM     78  C   UNL     1       1.292  12.852 -16.051  1.00  0.00     0.060 A 
BRANCH  78  79
ATOM     79  S   UNL     1       1.602  14.323 -17.050  1.00  0.00     0.124 S 
ATOM     80  O   UNL     1       2.344  15.160 -16.112  1.00  0.00    -0.237 OA
ATOM     81  O   UNL     1       2.374  13.786 -18.166  1.00  0.00    -0.237 OA
ATOM     82  O   UNL     1       0.262  14.794 -17.387  1.00  0.00    -0.744 OA
ENDBRANCH  78  79
ENDBRANCH  57  71
BRANCH  58  83
ATOM     83  C   UNL     1      -1.276   2.416  -9.110  1.00  0.00     0.058 A 
ATOM     84  C   UNL     1      -0.804   1.134  -9.428  1.00  0.00     0.135 A 
ATOM     85  C   UNL     1      -2.152   2.537  -8.020  1.00  0.00     0.135 A 
ATOM     86  F   UNL     1       0.032   0.966 -10.464  1.00  0.00    -0.206 F 
ATOM     87  C   UNL     1      -1.212   0.008  -8.720  1.00  0.00     0.059 A 
ATOM     88  C   UNL     1      -2.555   1.429  -7.280  1.00  0.00     0.059 A 
ATOM     89  F   UNL     1      -2.618   3.744  -7.661  1.00  0.00    -0.206 F 
ATOM     90  C   UNL     1      -2.095   0.166  -7.651  1.00  0.00     0.060 A 
BRANCH  90  91
ATOM     91  S   UNL     1      -2.619  -1.298  -6.732  1.00  0.00     0.124 S 
ATOM     92  O   UNL     1      -3.595  -1.881  -7.644  1.00  0.00    -0.237 OA
ATOM     93  O   UNL     1      -1.367  -2.033  -6.580  1.00  0.00    -0.237 OA
ATOM     94  O   UNL     1      -3.162  -0.740  -5.497  1.00  0.00    -0.744 OA
ENDBRANCH  90  91
ENDBRANCH  58  83
BRANCH  70  95
ATOM     95  C   UNL     1      -2.701   4.384 -15.645  1.00  0.00     0.058 A 
ATOM     96  C   UNL     1      -4.103   4.351 -15.671  1.00  0.00     0.135 A 
ATOM     97  C   UNL     1      -2.007   3.869 -16.752  1.00  0.00     0.135 A 
ATOM     98  F   UNL     1      -4.809   4.824 -14.632  1.00  0.00    -0.206 F 
ATOM     99  C   UNL     1      -4.793   3.824 -16.757  1.00  0.00     0.059 A 
ATOM    100  C   UNL     1      -2.678   3.358 -17.858  1.00  0.00     0.059 A 
ATOM    101  F   UNL     1      -0.665   3.887 -16.777  1.00  0.00    -0.206 F 
ATOM    102  C   UNL     1      -4.072   3.337 -17.849  1.00  0.00     0.060 A 
BRANCH 102 103
ATOM    103  S   UNL     1      -4.980   2.720 -19.283  1.00  0.00     0.124 S 
ATOM    104  O   UNL     1      -5.443   1.423 -18.802  1.00  0.00    -0.237 OA
ATOM    105  O   UNL     1      -6.012   3.737 -19.460  1.00  0.00    -0.237 OA
ATOM    106  O   UNL     1      -3.966   2.676 -20.333  1.00  0.00    -0.744 OA
ENDBRANCH 102 103
ENDBRANCH  70  95
ENDBRANCH  44  45
ENDBRANCH  36  39
ENDBRANCH  34  35
ENDBRANCH   1  34
TORSDOF 16
