REMARK SMILES Cc1c(C(=O)NCCCNC(=O)c2ccc(-c3c4nc(c(-c5c(F)cc(S(=O)(=O)[O-])cc5F)c5ccc([nH]5)c(-c5c(F)cc(S(=O)(=O)[O-])cc5F)c5nc(c(-c6c(F)cc(S(=O)(=O)[O-])cc6F)c6ccc3[nH]6)C=C5)C=C4)cc2)cccc1-n1c(C)cc(/C=C2/C(=O)NC(=S)N=C2O)c1C
REMARK SMILES IDX 8 1 7 2 6 3 4 4 5 5 3 7 1 8 2 9 82 10 79 11 81 12 80 13
REMARK SMILES IDX 83 14 84 15 98 16 85 17 86 18 87 19 99 20 88 21 89 22 90 23
REMARK SMILES IDX 96 24 91 25 92 26 95 27 93 28 94 30 97 31 9 33 10 34 11 35
REMARK SMILES IDX 12 37 13 38 14 39 78 40 15 41 77 42 16 43 17 44 18 45 71 46
REMARK SMILES IDX 19 47 76 48 70 49 72 50 20 51 75 52 69 53 68 54 21 56 55 57
REMARK SMILES IDX 34 58 54 59 35 60 38 61 53 62 73 63 36 64 37 65 52 67 74 68
REMARK SMILES IDX 39 69 22 70 23 71 32 72 24 73 25 74 31 75 33 76 26 77 27 78
REMARK SMILES IDX 28 79 29 80 30 81 56 82 57 83 66 84 58 85 59 86 65 87 67 88
REMARK SMILES IDX 60 89 61 90 62 91 63 92 64 93 40 94 41 95 50 96 42 97 43 98
REMARK SMILES IDX 49 99 51 100 44 101 45 102 46 103 47 104 48 105
REMARK H PARENT 6 6 92 29 97 32 10 36 72 55 38 66
REMARK Flexibility Score: inf
ROOT
ATOM      1  C   UNL     1       4.266  -1.501   0.318  1.00  0.00     0.042 C 
ENDROOT
BRANCH   1   2
ATOM      2  C   UNL     1       3.309  -2.107  -0.715  1.00  0.00     0.118 C 
BRANCH   2   3
ATOM      3  N   UNL     1       2.148  -2.707  -0.070  1.00  0.00    -0.352 N 
ATOM      4  C   UNL     1       0.860  -2.314   0.187  1.00  0.00     0.251 C 
ATOM      5  O   UNL     1       0.140  -3.145   0.751  1.00  0.00    -0.269 OA
ATOM      6  H   UNL     1       2.334  -3.615   0.263  1.00  0.00     0.163 HD
BRANCH   4   7
ATOM      7  C   UNL     1       0.219  -1.011  -0.195  1.00  0.00     0.044 A 
ATOM      8  C   UNL     1       2.111   0.553   0.490  1.00  0.00     0.047 C 
ATOM      9  C   UNL     1       0.748   0.287  -0.051  1.00  0.00    -0.014 A 
ATOM     10  C   UNL     1      -0.069   1.395  -0.386  1.00  0.00     0.049 A 
ATOM     11  C   UNL     1      -1.141  -1.132  -0.566  1.00  0.00     0.014 A 
ATOM     12  C   UNL     1      -1.408   1.256  -0.753  1.00  0.00     0.027 A 
ATOM     13  C   UNL     1      -1.948  -0.019  -0.828  1.00  0.00     0.003 A 
BRANCH  10  14
ATOM     14  N   UNL     1       0.437   2.711  -0.256  1.00  0.00    -0.318 N 
ATOM     15  C   UNL     1       1.216   3.353  -1.203  1.00  0.00     0.020 A 
ATOM     16  C   UNL     1       0.486   3.428   0.939  1.00  0.00     0.027 A 
ATOM     17  C   UNL     1       1.604   2.742  -2.506  1.00  0.00     0.065 C 
ATOM     18  C   UNL     1       1.575   4.576  -0.675  1.00  0.00     0.031 A 
ATOM     19  C   UNL     1       1.111   4.636   0.667  1.00  0.00    -0.003 A 
ATOM     20  C   UNL     1       0.005   2.816   2.218  1.00  0.00     0.065 C 
BRANCH  19  21
ATOM     21  C   UNL     1       1.473   5.694   1.557  1.00  0.00     0.029 C 
ATOM     22  C   UNL     1       0.856   6.234   2.624  1.00  0.00     0.102 C 
ATOM     23  C   UNL     1       1.642   7.233   3.392  1.00  0.00     0.262 C 
ATOM     24  C   UNL     1      -0.451   5.944   3.213  1.00  0.00     0.226 C 
ATOM     25  O   UNL     1       2.635   7.813   2.968  1.00  0.00    -0.269 OA
ATOM     26  N   UNL     1       1.173   7.450   4.660  1.00  0.00    -0.297 N 
ATOM     27  N   UNL     1      -0.845   6.249   4.395  1.00  0.00    -0.184 NA
ATOM     28  C   UNL     1       0.017   6.944   5.200  1.00  0.00     0.203 C 
ATOM     29  H   UNL     1       1.719   8.026   5.242  1.00  0.00     0.172 HD
ATOM     30  S   UNL     1      -0.296   7.278   6.813  1.00  0.00    -0.038 S 
BRANCH  24  31
ATOM     31  O   UNL     1      -1.349   5.366   2.414  1.00  0.00    -0.493 OA
ATOM     32  H   UNL     1      -1.113   5.123   1.541  1.00  0.00     0.295 HD
ENDBRANCH  24  31
ENDBRANCH  19  21
ENDBRANCH  10  14
ENDBRANCH   4   7
ENDBRANCH   2   3
ENDBRANCH   1   2
BRANCH   1  33
ATOM     33  C   UNL     1       5.590  -2.206   0.525  1.00  0.00     0.118 C 
BRANCH  33  34
ATOM     34  N   UNL     1       6.713  -1.262   0.467  1.00  0.00    -0.352 N 
ATOM     35  C   UNL     1       8.024  -1.461   0.873  1.00  0.00     0.251 C 
ATOM     36  H   UNL     1       6.509  -0.375   0.091  1.00  0.00     0.163 HD
ATOM     37  O   UNL     1       8.871  -0.600   0.770  1.00  0.00    -0.269 OA
BRANCH  35  38
ATOM     38  C   UNL     1       8.331  -2.798   1.416  1.00  0.00     0.039 A 
ATOM     39  C   UNL     1       9.012  -3.697   0.594  1.00  0.00     0.014 A 
ATOM     40  C   UNL     1       7.593  -3.224   2.513  1.00  0.00     0.014 A 
ATOM     41  C   UNL     1       8.781  -5.063   0.747  1.00  0.00     0.010 A 
ATOM     42  C   UNL     1       7.272  -4.564   2.579  1.00  0.00     0.010 A 
ATOM     43  C   UNL     1       7.831  -5.486   1.672  1.00  0.00    -0.014 A 
BRANCH  43  44
ATOM     44  C   UNL     1       7.285  -6.840   1.766  1.00  0.00     0.031 A 
ATOM     45  C   UNL     1       7.439  -7.585   3.045  1.00  0.00     0.074 A 
ATOM     46  C   UNL     1       6.524  -7.373   0.783  1.00  0.00     0.049 A 
ATOM     47  N   UNL     1       7.026  -8.787   3.255  1.00  0.00    -0.248 NA
ATOM     48  C   UNL     1       8.164  -7.032   4.187  1.00  0.00     0.031 C 
ATOM     49  C   UNL     1       5.538  -8.442   0.929  1.00  0.00     0.029 A 
ATOM     50  N   UNL     1       6.629  -7.199  -0.595  1.00  0.00    -0.354 N 
ATOM     51  C   UNL     1       7.205  -9.084   4.586  1.00  0.00     0.074 A 
ATOM     52  C   UNL     1       7.990  -7.991   5.098  1.00  0.00     0.031 C 
ATOM     53  C   UNL     1       5.289  -8.984  -0.270  1.00  0.00     0.029 A 
ATOM     54  C   UNL     1       6.222  -8.402  -1.213  1.00  0.00     0.049 A 
ATOM     55  H   UNL     1       6.933  -6.383  -1.056  1.00  0.00     0.167 HD
ATOM     56  C   UNL     1       6.593 -10.190   5.097  1.00  0.00     0.037 A 
ATOM     57  C   UNL     1       7.079  -9.128  -1.994  1.00  0.00     0.037 A 
ATOM     58  C   UNL     1       6.153 -11.075   4.014  1.00  0.00     0.049 A 
ATOM     59  C   UNL     1       7.434 -10.502  -1.459  1.00  0.00     0.074 A 
ATOM     60  C   UNL     1       4.953 -11.366   3.390  1.00  0.00     0.029 A 
ATOM     61  N   UNL     1       7.136 -11.664   3.240  1.00  0.00    -0.354 N 
ATOM     62  N   UNL     1       6.947 -11.024  -0.367  1.00  0.00    -0.248 NA
ATOM     63  C   UNL     1       8.451 -11.359  -2.076  1.00  0.00     0.031 C 
ATOM     64  C   UNL     1       5.245 -12.093   2.195  1.00  0.00     0.029 A 
ATOM     65  C   UNL     1       6.617 -12.254   2.108  1.00  0.00     0.049 A 
ATOM     66  H   UNL     1       8.093 -11.663   3.471  1.00  0.00     0.167 HD
ATOM     67  C   UNL     1       7.657 -12.155  -0.059  1.00  0.00     0.074 A 
ATOM     68  C   UNL     1       8.549 -12.358  -1.183  1.00  0.00     0.031 C 
ATOM     69  C   UNL     1       7.540 -12.807   1.131  1.00  0.00     0.037 A 
BRANCH  56  70
ATOM     70  C   UNL     1       6.287 -10.459   6.561  1.00  0.00     0.058 A 
ATOM     71  C   UNL     1       5.462 -11.553   6.918  1.00  0.00     0.135 A 
ATOM     72  C   UNL     1       6.659  -9.644   7.652  1.00  0.00     0.135 A 
ATOM     73  F   UNL     1       5.032 -12.432   6.002  1.00  0.00    -0.206 F 
ATOM     74  C   UNL     1       5.007 -11.779   8.222  1.00  0.00     0.059 A 
ATOM     75  C   UNL     1       6.234  -9.861   8.963  1.00  0.00     0.059 A 
ATOM     76  F   UNL     1       7.432  -8.566   7.522  1.00  0.00    -0.206 F 
ATOM     77  C   UNL     1       5.385 -10.916   9.239  1.00  0.00     0.060 A 
BRANCH  77  78
ATOM     78  S   UNL     1       4.737 -11.153  10.900  1.00  0.00     0.124 S 
ATOM     79  O   UNL     1       3.307 -10.945  10.697  1.00  0.00    -0.237 OA
ATOM     80  O   UNL     1       5.147 -12.521  11.200  1.00  0.00    -0.237 OA
ATOM     81  O   UNL     1       5.410 -10.117  11.680  1.00  0.00    -0.744 OA
ENDBRANCH  77  78
ENDBRANCH  56  70
BRANCH  57  82
ATOM     82  C   UNL     1       7.997  -8.259  -2.777  1.00  0.00     0.058 A 
ATOM     83  C   UNL     1       7.422  -7.463  -3.785  1.00  0.00     0.135 A 
ATOM     84  C   UNL     1       9.225  -7.855  -2.235  1.00  0.00     0.135 A 
ATOM     85  F   UNL     1       6.260  -7.828  -4.351  1.00  0.00    -0.206 F 
ATOM     86  C   UNL     1       7.930  -6.207  -4.085  1.00  0.00     0.059 A 
ATOM     87  C   UNL     1       9.760  -6.604  -2.534  1.00  0.00     0.059 A 
ATOM     88  F   UNL     1       9.818  -8.587  -1.281  1.00  0.00    -0.206 F 
ATOM     89  C   UNL     1       9.050  -5.758  -3.388  1.00  0.00     0.060 A 
BRANCH  89  90
ATOM     90  S   UNL     1       9.393  -3.984  -3.417  1.00  0.00     0.124 S 
ATOM     91  O   UNL     1       9.572  -3.729  -4.841  1.00  0.00    -0.237 OA
ATOM     92  O   UNL     1       8.168  -3.450  -2.824  1.00  0.00    -0.237 OA
ATOM     93  O   UNL     1      10.591  -3.860  -2.595  1.00  0.00    -0.744 OA
ENDBRANCH  89  90
ENDBRANCH  57  82
BRANCH  69  94
ATOM     94  C   UNL     1       8.356 -14.017   1.469  1.00  0.00     0.058 A 
ATOM     95  C   UNL     1       8.314 -15.174   0.677  1.00  0.00     0.135 A 
ATOM     96  C   UNL     1       9.098 -14.095   2.665  1.00  0.00     0.135 A 
ATOM     97  F   UNL     1       7.631 -15.183  -0.479  1.00  0.00    -0.206 F 
ATOM     98  C   UNL     1       8.962 -16.350   1.056  1.00  0.00     0.059 A 
ATOM     99  C   UNL     1       9.717 -15.268   3.085  1.00  0.00     0.059 A 
ATOM    100  F   UNL     1       9.254 -13.018   3.451  1.00  0.00    -0.206 F 
ATOM    101  C   UNL     1       9.651 -16.391   2.268  1.00  0.00     0.060 A 
BRANCH 101 102
ATOM    102  S   UNL     1      10.432 -17.928   2.799  1.00  0.00     0.124 S 
ATOM    103  O   UNL     1       9.537 -18.948   2.259  1.00  0.00    -0.237 OA
ATOM    104  O   UNL     1      11.737 -17.829   2.152  1.00  0.00    -0.237 OA
ATOM    105  O   UNL     1      10.439 -17.817   4.253  1.00  0.00    -0.744 OA
ENDBRANCH 101 102
ENDBRANCH  69  94
ENDBRANCH  43  44
ENDBRANCH  35  38
ENDBRANCH  33  34
ENDBRANCH   1  33
TORSDOF 16
