REMARK SMILES Cc1ccc2c(=O)c3cccc(CC(=O)NCCCNC(=O)c4ccc(-c5c6nc(c(-c7c(F)cc(S(=O)(=O)[O-])cc7F)c7ccc([nH]7)c(-c7c(F)cc(S(=O)(=O)[O-])cc7F)c7nc(c(-c8c(F)cc(S(=O)(=O)[O-])cc8F)c8ccc5[nH]8)C=C7)C=C6)cc4)c3oc2c1C
REMARK SMILES IDX 19 1 18 2 17 3 16 4 14 5 15 6 13 8 12 9 1 10 2 11 3 12 92 13
REMARK SMILES IDX 4 14 91 15 93 16 5 17 90 18 6 19 89 20 7 21 8 22 9 23 11 24
REMARK SMILES IDX 10 25 20 26 21 27 22 29 23 30 24 31 88 32 25 33 87 34 26 35
REMARK SMILES IDX 27 36 28 37 81 38 29 39 86 40 80 41 82 42 30 43 85 44 79 45
REMARK SMILES IDX 78 46 31 48 65 49 44 50 64 51 45 52 48 53 63 54 83 55 46 56
REMARK SMILES IDX 47 57 62 59 84 60 49 61 32 62 33 63 42 64 34 65 35 66 41 67
REMARK SMILES IDX 43 68 36 69 37 70 38 71 39 72 40 73 66 74 67 75 76 76 68 77
REMARK SMILES IDX 69 78 75 79 77 80 70 81 71 82 72 83 73 84 74 85 50 86 51 87
REMARK SMILES IDX 60 88 52 89 53 90 59 91 61 92 54 93 55 94 56 95 57 96 58 97
REMARK H PARENT 16 7 20 28 82 47 48 58
REMARK Flexibility Score: inf
ROOT
ATOM      1  C   UNL     1       2.695   2.261   8.422  1.00  0.00     0.118 C 
ENDROOT
BRANCH   1   2
ATOM      2  C   UNL     1       1.193   2.075   8.603  1.00  0.00     0.042 C 
BRANCH   2   3
ATOM      3  C   UNL     1       0.380   3.338   8.343  1.00  0.00     0.117 C 
BRANCH   3   4
ATOM      4  N   UNL     1       0.421   3.743   6.950  1.00  0.00    -0.356 N 
ATOM      5  C   UNL     1      -0.514   3.579   5.970  1.00  0.00     0.224 C 
ATOM      6  O   UNL     1      -0.273   4.050   4.856  1.00  0.00    -0.275 OA
ATOM      7  H   UNL     1       1.245   4.205   6.672  1.00  0.00     0.163 HD
BRANCH   5   8
ATOM      8  C   UNL     1      -1.847   2.918   6.276  1.00  0.00     0.139 C 
BRANCH   8   9
ATOM      9  C   UNL     1      -1.774   1.451   6.639  1.00  0.00     0.005 A 
ATOM     10  C   UNL     1       0.925  -0.013  -0.022  1.00  0.00     0.045 C 
ATOM     11  C   UNL     1       0.467  -0.430   1.351  1.00  0.00    -0.044 A 
ATOM     12  C   UNL     1       0.575  -1.794   1.678  1.00  0.00     0.005 A 
ATOM     13  C   UNL     1       0.004   0.483   2.328  1.00  0.00    -0.005 A 
ATOM     14  C   UNL     1       0.200  -2.262   2.933  1.00  0.00     0.016 A 
ATOM     15  C   UNL     1      -0.387  -0.005   3.596  1.00  0.00     0.141 A 
ATOM     16  C   UNL     1      -0.085   1.967   2.074  1.00  0.00     0.049 C 
ATOM     17  C   UNL     1      -0.286  -1.365   3.882  1.00  0.00     0.066 A 
ATOM     18  O   UNL     1      -0.861   0.915   4.508  1.00  0.00    -0.455 OA
ATOM     19  C   UNL     1      -0.700  -1.849   5.202  1.00  0.00     0.200 A 
ATOM     20  C   UNL     1      -1.269   0.486   5.749  1.00  0.00     0.142 A 
ATOM     21  O   UNL     1      -0.643  -3.037   5.497  1.00  0.00    -0.288 OA
ATOM     22  C   UNL     1      -1.208  -0.850   6.148  1.00  0.00     0.066 A 
ATOM     23  C   UNL     1      -1.635  -1.246   7.419  1.00  0.00     0.016 A 
ATOM     24  C   UNL     1      -2.243   1.034   7.900  1.00  0.00     0.008 A 
ATOM     25  C   UNL     1      -2.159  -0.301   8.294  1.00  0.00     0.001 A 
ENDBRANCH   8   9
ENDBRANCH   5   8
ENDBRANCH   3   4
ENDBRANCH   2   3
ENDBRANCH   1   2
BRANCH   1  26
ATOM     26  N   UNL     1       3.283   3.169   9.402  1.00  0.00    -0.352 N 
ATOM     27  C   UNL     1       4.304   2.961  10.300  1.00  0.00     0.251 C 
ATOM     28  H   UNL     1       2.886   4.070   9.424  1.00  0.00     0.163 HD
ATOM     29  O   UNL     1       4.549   3.815  11.147  1.00  0.00    -0.269 OA
BRANCH  27  30
ATOM     30  C   UNL     1       5.079   1.701  10.266  1.00  0.00     0.039 A 
ATOM     31  C   UNL     1       5.492   1.151   9.053  1.00  0.00     0.014 A 
ATOM     32  C   UNL     1       5.376   1.048  11.466  1.00  0.00     0.014 A 
ATOM     33  C   UNL     1       6.016  -0.137   9.024  1.00  0.00     0.010 A 
ATOM     34  C   UNL     1       5.996  -0.205  11.440  1.00  0.00     0.010 A 
ATOM     35  C   UNL     1       6.267  -0.836  10.216  1.00  0.00    -0.014 A 
BRANCH  35  36
ATOM     36  C   UNL     1       6.789  -2.228  10.152  1.00  0.00     0.031 A 
ATOM     37  C   UNL     1       5.972  -3.380  10.683  1.00  0.00     0.074 A 
ATOM     38  C   UNL     1       7.972  -2.463   9.550  1.00  0.00     0.049 A 
ATOM     39  N   UNL     1       6.261  -4.657  10.699  1.00  0.00    -0.248 NA
ATOM     40  C   UNL     1       4.663  -3.059  11.275  1.00  0.00     0.031 C 
ATOM     41  C   UNL     1       8.844  -1.435   8.976  1.00  0.00     0.029 A 
ATOM     42  N   UNL     1       8.633  -3.637   9.292  1.00  0.00    -0.354 N 
ATOM     43  C   UNL     1       5.180  -5.287  11.306  1.00  0.00     0.074 A 
ATOM     44  C   UNL     1       4.246  -4.250  11.684  1.00  0.00     0.031 C 
ATOM     45  C   UNL     1       9.893  -2.026   8.386  1.00  0.00     0.029 A 
ATOM     46  C   UNL     1       9.809  -3.467   8.599  1.00  0.00     0.049 A 
ATOM     47  H   UNL     1       8.298  -4.518   9.576  1.00  0.00     0.167 HD
ATOM     48  C   UNL     1       4.976  -6.611  11.511  1.00  0.00     0.037 A 
ATOM     49  C   UNL     1      10.727  -4.365   8.192  1.00  0.00     0.037 A 
ATOM     50  C   UNL     1       5.900  -7.642  11.112  1.00  0.00     0.049 A 
ATOM     51  C   UNL     1      10.508  -5.821   8.493  1.00  0.00     0.074 A 
ATOM     52  C   UNL     1       5.779  -9.012  11.270  1.00  0.00     0.029 A 
ATOM     53  N   UNL     1       7.111  -7.421  10.472  1.00  0.00    -0.354 N 
ATOM     54  N   UNL     1       9.482  -6.396   9.075  1.00  0.00    -0.248 NA
ATOM     55  C   UNL     1      11.573  -6.750   8.094  1.00  0.00     0.031 C 
ATOM     56  C   UNL     1       6.937  -9.615  10.771  1.00  0.00     0.029 A 
ATOM     57  C   UNL     1       7.756  -8.627  10.250  1.00  0.00     0.049 A 
ATOM     58  H   UNL     1       7.460  -6.537  10.213  1.00  0.00     0.167 HD
ATOM     59  C   UNL     1       9.770  -7.756   9.093  1.00  0.00     0.074 A 
ATOM     60  C   UNL     1      11.057  -7.919   8.449  1.00  0.00     0.031 C 
ATOM     61  C   UNL     1       9.036  -8.776   9.602  1.00  0.00     0.037 A 
BRANCH  48  62
ATOM     62  C   UNL     1       3.703  -7.034  12.197  1.00  0.00     0.058 A 
ATOM     63  C   UNL     1       2.459  -6.961  11.552  1.00  0.00     0.135 A 
ATOM     64  C   UNL     1       3.737  -7.589  13.488  1.00  0.00     0.135 A 
ATOM     65  F   UNL     1       2.364  -6.425  10.325  1.00  0.00    -0.206 F 
ATOM     66  C   UNL     1       1.292  -7.409  12.166  1.00  0.00     0.059 A 
ATOM     67  C   UNL     1       2.587  -8.068  14.110  1.00  0.00     0.059 A 
ATOM     68  F   UNL     1       4.900  -7.683  14.152  1.00  0.00    -0.206 F 
ATOM     69  C   UNL     1       1.368  -7.965  13.444  1.00  0.00     0.060 A 
BRANCH  69  70
ATOM     70  S   UNL     1      -0.154  -8.556  14.215  1.00  0.00     0.124 S 
ATOM     71  O   UNL     1      -0.871  -7.305  14.443  1.00  0.00    -0.237 OA
ATOM     72  O   UNL     1      -0.709  -9.424  13.181  1.00  0.00    -0.237 OA
ATOM     73  O   UNL     1       0.313  -9.237  15.418  1.00  0.00    -0.744 OA
ENDBRANCH  69  70
ENDBRANCH  48  62
BRANCH  49  74
ATOM     74  C   UNL     1      11.938  -3.906   7.459  1.00  0.00     0.058 A 
ATOM     75  C   UNL     1      12.130  -4.231   6.109  1.00  0.00     0.135 A 
ATOM     76  C   UNL     1      12.915  -3.117   8.087  1.00  0.00     0.135 A 
ATOM     77  F   UNL     1      11.229  -4.989   5.466  1.00  0.00    -0.206 F 
ATOM     78  C   UNL     1      13.252  -3.799   5.409  1.00  0.00     0.059 A 
ATOM     79  C   UNL     1      14.029  -2.647   7.401  1.00  0.00     0.059 A 
ATOM     80  F   UNL     1      12.772  -2.767   9.375  1.00  0.00    -0.206 F 
ATOM     81  C   UNL     1      14.194  -3.002   6.063  1.00  0.00     0.060 A 
BRANCH  81  82
ATOM     82  S   UNL     1      15.620  -2.408   5.129  1.00  0.00     0.124 S 
ATOM     83  O   UNL     1      16.372  -3.641   4.925  1.00  0.00    -0.237 OA
ATOM     84  O   UNL     1      14.991  -1.839   3.942  1.00  0.00    -0.237 OA
ATOM     85  O   UNL     1      16.233  -1.438   6.031  1.00  0.00    -0.744 OA
ENDBRANCH  81  82
ENDBRANCH  49  74
BRANCH  61  86
ATOM     86  C   UNL     1       9.591 -10.167   9.469  1.00  0.00     0.058 A 
ATOM     87  C   UNL     1      10.681 -10.600  10.240  1.00  0.00     0.135 A 
ATOM     88  C   UNL     1       8.981 -11.099   8.614  1.00  0.00     0.135 A 
ATOM     89  F   UNL     1      11.305  -9.747  11.068  1.00  0.00    -0.206 F 
ATOM     90  C   UNL     1      11.157 -11.905  10.156  1.00  0.00     0.059 A 
ATOM     91  C   UNL     1       9.422 -12.417   8.536  1.00  0.00     0.059 A 
ATOM     92  F   UNL     1       7.930 -10.739   7.861  1.00  0.00    -0.206 F 
ATOM     93  C   UNL     1      10.516 -12.808   9.306  1.00  0.00     0.060 A 
BRANCH  93  94
ATOM     94  S   UNL     1      11.118 -14.508   9.245  1.00  0.00     0.124 S 
ATOM     95  O   UNL     1      12.404 -14.342   8.576  1.00  0.00    -0.237 OA
ATOM     96  O   UNL     1      11.181 -14.865  10.659  1.00  0.00    -0.237 OA
ATOM     97  O   UNL     1      10.095 -15.206   8.473  1.00  0.00    -0.744 OA
ENDBRANCH  93  94
ENDBRANCH  61  86
ENDBRANCH  35  36
ENDBRANCH  27  30
ENDBRANCH   1  26
TORSDOF 14
