REMARK SMILES C[C@@H](CNc1cccc(F)c1C(=O)NCCCNC(=O)c1ccc(-c2c3nc(c(-c4c(F)cc(S(=O)(=O)[O-])cc4F)c4ccc([nH]4)c(-c4c(F)cc(S(=O)(=O)[O-])cc4F)c4nc(c(-c5c(F)cc(S(=O)(=O)[O-])cc5F)c5ccc2[nH]5)C=C4)C=C3)cc1)[NH+]1CCCCC1
REMARK SMILES IDX 15 1 14 2 12 3 13 4 11 6 5 7 6 8 7 9 9 10 8 11 10 12 4 13
REMARK SMILES IDX 3 15 2 16 1 17 87 18 88 19 92 20 89 22 91 23 90 24 16 25
REMARK SMILES IDX 17 26 18 27 19 28 20 30 21 31 22 32 86 33 23 34 85 35 24 36
REMARK SMILES IDX 25 37 26 38 79 39 27 40 84 41 78 42 80 43 28 44 83 45 77 46
REMARK SMILES IDX 76 47 29 49 63 50 42 51 62 52 43 53 46 54 61 55 81 56 44 57
REMARK SMILES IDX 45 58 60 60 82 61 47 62 30 63 31 64 40 65 32 66 33 67 39 68
REMARK SMILES IDX 41 69 34 70 35 71 36 72 37 73 38 74 64 75 65 76 74 77 66 78
REMARK SMILES IDX 67 79 73 80 75 81 68 82 69 83 70 84 71 85 72 86 48 87 49 88
REMARK SMILES IDX 58 89 50 90 51 91 57 92 59 93 52 94 53 95 54 96 55 97 56 98
REMARK H PARENT 14 5 4 14 87 21 18 29 80 48 46 59
REMARK Flexibility Score: inf
ROOT
ATOM      1  C   UNL     1      -4.230  -2.832   3.687  1.00  0.00     0.118 C 
ENDROOT
BRANCH   1   2
ATOM      2  N   UNL     1      -3.008  -2.097   3.423  1.00  0.00    -0.352 N 
ATOM      3  C   UNL     1      -1.751  -2.435   2.992  1.00  0.00     0.256 C 
ATOM      4  O   UNL     1      -0.943  -1.499   3.003  1.00  0.00    -0.269 OA
ATOM      5  H   UNL     1      -3.103  -1.131   3.591  1.00  0.00     0.163 HD
BRANCH   3   6
ATOM      6  C   UNL     1      -1.315  -3.775   2.471  1.00  0.00     0.098 A 
ATOM      7  C   UNL     1      -0.225  -3.824   1.547  1.00  0.00     0.050 A 
ATOM      8  C   UNL     1       0.192  -5.072   1.045  1.00  0.00     0.027 A 
ATOM      9  C   UNL     1      -0.442  -6.255   1.412  1.00  0.00     0.005 A 
ATOM     10  C   UNL     1      -1.889  -4.988   2.867  1.00  0.00     0.138 A 
ATOM     11  C   UNL     1      -1.483  -6.210   2.325  1.00  0.00     0.040 A 
ATOM     12  F   UNL     1      -2.810  -5.062   3.832  1.00  0.00    -0.206 F 
BRANCH   7  13
ATOM     13  N   UNL     1       0.433  -2.667   1.142  1.00  0.00    -0.378 N 
ATOM     14  H   UNL     1       0.506  -1.939   1.801  1.00  0.00     0.160 HD
BRANCH  13  15
ATOM     15  C   UNL     1       1.022  -2.437  -0.168  1.00  0.00     0.177 C 
BRANCH  15  16
ATOM     16  C   UNL     1       0.423  -1.156  -0.845  1.00  0.00     0.200 C 
ATOM     17  C   UNL     1       0.991   0.080  -0.117  1.00  0.00     0.077 C 
BRANCH  16  18
ATOM     18  N   UNL     1      -1.071  -1.140  -0.901  1.00  0.00    -0.331 N 
ATOM     19  C   UNL     1      -1.611   0.087  -1.506  1.00  0.00     0.262 C 
ATOM     20  C   UNL     1      -1.609  -2.331  -1.583  1.00  0.00     0.262 C 
ATOM     21  H   UNL     1      -1.381  -1.159   0.070  1.00  0.00     0.348 HD
ATOM     22  C   UNL     1      -3.142   0.115  -1.483  1.00  0.00     0.062 C 
ATOM     23  C   UNL     1      -3.136  -2.374  -1.539  1.00  0.00     0.062 C 
ATOM     24  C   UNL     1      -3.737  -1.117  -2.147  1.00  0.00     0.012 C 
ENDBRANCH  16  18
ENDBRANCH  15  16
ENDBRANCH  13  15
ENDBRANCH   7  13
ENDBRANCH   3   6
ENDBRANCH   1   2
BRANCH   1  25
ATOM     25  C   UNL     1      -4.343  -3.169   5.177  1.00  0.00     0.042 C 
BRANCH  25  26
ATOM     26  C   UNL     1      -4.734  -1.974   6.049  1.00  0.00     0.118 C 
BRANCH  26  27
ATOM     27  N   UNL     1      -6.114  -1.566   5.825  1.00  0.00    -0.352 N 
ATOM     28  C   UNL     1      -7.176  -1.513   6.693  1.00  0.00     0.251 C 
ATOM     29  H   UNL     1      -6.317  -1.282   4.904  1.00  0.00     0.163 HD
ATOM     30  O   UNL     1      -8.310  -1.374   6.241  1.00  0.00    -0.269 OA
BRANCH  28  31
ATOM     31  C   UNL     1      -6.974  -1.621   8.156  1.00  0.00     0.039 A 
ATOM     32  C   UNL     1      -7.905  -2.342   8.912  1.00  0.00     0.014 A 
ATOM     33  C   UNL     1      -5.918  -0.967   8.796  1.00  0.00     0.014 A 
ATOM     34  C   UNL     1      -7.749  -2.446  10.297  1.00  0.00     0.010 A 
ATOM     35  C   UNL     1      -5.726  -1.126  10.168  1.00  0.00     0.010 A 
ATOM     36  C   UNL     1      -6.642  -1.862  10.934  1.00  0.00    -0.014 A 
BRANCH  36  37
ATOM     37  C   UNL     1      -6.429  -2.011  12.398  1.00  0.00     0.031 A 
ATOM     38  C   UNL     1      -6.467  -0.806  13.298  1.00  0.00     0.074 A 
ATOM     39  C   UNL     1      -6.154  -3.228  12.908  1.00  0.00     0.049 A 
ATOM     40  N   UNL     1      -6.236  -0.728  14.583  1.00  0.00    -0.248 NA
ATOM     41  C   UNL     1      -6.785   0.485  12.667  1.00  0.00     0.031 C 
ATOM     42  C   UNL     1      -6.060  -4.467  12.133  1.00  0.00     0.029 A 
ATOM     43  N   UNL     1      -5.901  -3.625  14.197  1.00  0.00    -0.354 N 
ATOM     44  C   UNL     1      -6.372   0.616  14.913  1.00  0.00     0.074 A 
ATOM     45  C   UNL     1      -6.652   1.325  13.684  1.00  0.00     0.031 C 
ATOM     46  C   UNL     1      -5.804  -5.489  12.964  1.00  0.00     0.029 A 
ATOM     47  C   UNL     1      -5.673  -4.976  14.325  1.00  0.00     0.049 A 
ATOM     48  H   UNL     1      -5.884  -3.002  14.960  1.00  0.00     0.167 HD
ATOM     49  C   UNL     1      -6.297   1.201  16.133  1.00  0.00     0.037 A 
ATOM     50  C   UNL     1      -5.387  -5.718  15.412  1.00  0.00     0.037 A 
ATOM     51  C   UNL     1      -6.040   0.484  17.355  1.00  0.00     0.049 A 
ATOM     52  C   UNL     1      -5.290  -5.045  16.753  1.00  0.00     0.074 A 
ATOM     53  C   UNL     1      -5.977   0.979  18.646  1.00  0.00     0.029 A 
ATOM     54  N   UNL     1      -5.809  -0.882  17.440  1.00  0.00    -0.354 N 
ATOM     55  N   UNL     1      -5.449  -3.777  17.050  1.00  0.00    -0.248 NA
ATOM     56  C   UNL     1      -4.976  -5.899  17.907  1.00  0.00     0.031 C 
ATOM     57  C   UNL     1      -5.671  -0.080  19.507  1.00  0.00     0.029 A 
ATOM     58  C   UNL     1      -5.589  -1.244  18.759  1.00  0.00     0.049 A 
ATOM     59  H   UNL     1      -5.802  -1.502  16.676  1.00  0.00     0.167 HD
ATOM     60  C   UNL     1      -5.274  -3.684  18.426  1.00  0.00     0.074 A 
ATOM     61  C   UNL     1      -5.010  -5.026  18.905  1.00  0.00     0.031 C 
ATOM     62  C   UNL     1      -5.329  -2.586  19.220  1.00  0.00     0.037 A 
BRANCH  49  63
ATOM     63  C   UNL     1      -6.513   2.688  16.211  1.00  0.00     0.058 A 
ATOM     64  C   UNL     1      -5.458   3.552  16.542  1.00  0.00     0.135 A 
ATOM     65  C   UNL     1      -7.782   3.256  16.005  1.00  0.00     0.135 A 
ATOM     66  F   UNL     1      -4.223   3.067  16.746  1.00  0.00    -0.206 F 
ATOM     67  C   UNL     1      -5.653   4.924  16.673  1.00  0.00     0.059 A 
ATOM     68  C   UNL     1      -7.994   4.628  16.104  1.00  0.00     0.059 A 
ATOM     69  F   UNL     1      -8.822   2.478  15.666  1.00  0.00    -0.206 F 
ATOM     70  C   UNL     1      -6.926   5.453  16.451  1.00  0.00     0.060 A 
BRANCH  70  71
ATOM     71  S   UNL     1      -7.155   7.239  16.582  1.00  0.00     0.124 S 
ATOM     72  O   UNL     1      -7.038   7.453  18.020  1.00  0.00    -0.237 OA
ATOM     73  O   UNL     1      -6.054   7.750  15.770  1.00  0.00    -0.237 OA
ATOM     74  O   UNL     1      -8.486   7.451  16.020  1.00  0.00    -0.744 OA
ENDBRANCH  70  71
ENDBRANCH  49  63
BRANCH  50  75
ATOM     75  C   UNL     1      -5.217  -7.189  15.274  1.00  0.00     0.058 A 
ATOM     76  C   UNL     1      -4.106  -7.740  14.618  1.00  0.00     0.135 A 
ATOM     77  C   UNL     1      -6.198  -8.071  15.751  1.00  0.00     0.135 A 
ATOM     78  F   UNL     1      -3.143  -6.939  14.134  1.00  0.00    -0.206 F 
ATOM     79  C   UNL     1      -3.988  -9.110  14.412  1.00  0.00     0.059 A 
ATOM     80  C   UNL     1      -6.091  -9.448  15.578  1.00  0.00     0.059 A 
ATOM     81  F   UNL     1      -7.273  -7.591  16.395  1.00  0.00    -0.206 F 
ATOM     82  C   UNL     1      -4.991  -9.956  14.890  1.00  0.00     0.060 A 
BRANCH  82  83
ATOM     83  S   UNL     1      -4.835 -11.729  14.585  1.00  0.00     0.124 S 
ATOM     84  O   UNL     1      -5.030 -11.795  13.140  1.00  0.00    -0.237 OA
ATOM     85  O   UNL     1      -3.481 -12.002  15.056  1.00  0.00    -0.237 OA
ATOM     86  O   UNL     1      -5.906 -12.306  15.391  1.00  0.00    -0.744 OA
ENDBRANCH  82  83
ENDBRANCH  50  75
BRANCH  62  87
ATOM     87  C   UNL     1      -5.116  -2.781  20.695  1.00  0.00     0.058 A 
ATOM     88  C   UNL     1      -6.185  -2.633  21.594  1.00  0.00     0.135 A 
ATOM     89  C   UNL     1      -3.842  -3.034  21.227  1.00  0.00     0.135 A 
ATOM     90  F   UNL     1      -7.423  -2.386  21.138  1.00  0.00    -0.206 F 
ATOM     91  C   UNL     1      -5.995  -2.708  22.969  1.00  0.00     0.059 A 
ATOM     92  C   UNL     1      -3.633  -3.139  22.599  1.00  0.00     0.059 A 
ATOM     93  F   UNL     1      -2.790  -3.196  20.409  1.00  0.00    -0.206 F 
ATOM     94  C   UNL     1      -4.713  -2.957  23.462  1.00  0.00     0.060 A 
BRANCH  94  95
ATOM     95  S   UNL     1      -4.484  -3.056  25.250  1.00  0.00     0.124 S 
ATOM     96  O   UNL     1      -4.649  -1.663  25.651  1.00  0.00    -0.237 OA
ATOM     97  O   UNL     1      -5.556  -3.962  25.649  1.00  0.00    -0.237 OA
ATOM     98  O   UNL     1      -3.134  -3.595  25.390  1.00  0.00    -0.744 OA
ENDBRANCH  94  95
ENDBRANCH  62  87
ENDBRANCH  36  37
ENDBRANCH  28  31
ENDBRANCH  26  27
ENDBRANCH  25  26
ENDBRANCH   1  25
TORSDOF 17
