REMARK SMILES [NH3+][C@H](Cc1ccc(O)c(F)c1)C(=O)NCCCNC(=O)c1ccc(-c2c3nc(c(-c4c(F)cc(S(=O)(=O)[O-])cc4F)c4ccc([nH]4)c(-c4c(F)cc(S(=O)(=O)[O-])cc4F)c4nc(c(-c5c(F)cc(S(=O)(=O)[O-])cc5F)c5ccc2[nH]5)C=C4)C=C3)cc1
REMARK SMILES IDX 16 1 15 2 14 3 12 4 13 5 2 7 1 8 3 12 4 13 5 14 11 15 6 16
REMARK SMILES IDX 9 17 7 18 10 19 8 20 17 22 18 23 19 24 20 26 21 27 22 28
REMARK SMILES IDX 86 29 23 30 85 31 24 32 25 33 26 34 79 35 27 36 84 37 78 38
REMARK SMILES IDX 80 39 28 40 83 41 77 42 76 43 29 45 63 46 42 47 62 48 43 49
REMARK SMILES IDX 46 50 61 51 81 52 44 53 45 54 60 56 82 57 47 58 30 59 31 60
REMARK SMILES IDX 40 61 32 62 33 63 39 64 41 65 34 66 35 67 36 68 37 69 38 70
REMARK SMILES IDX 64 71 65 72 74 73 66 74 67 75 73 76 75 77 68 78 69 79 70 80
REMARK SMILES IDX 71 81 72 82 48 83 49 84 58 85 50 86 51 87 57 88 59 89 52 90
REMARK SMILES IDX 53 91 54 92 55 93 56 94
REMARK H PARENT 14 6 1 9 1 10 1 11 8 21 18 25 80 44 46 55
REMARK Flexibility Score: inf
ROOT
ATOM      1  C   UNL     1      -1.531   2.245   1.281  1.00  0.00     0.042 C 
ENDROOT
BRANCH   1   2
ATOM      2  C   UNL     1      -1.264   0.961   2.058  1.00  0.00     0.118 C 
BRANCH   2   3
ATOM      3  N   UNL     1      -1.712  -0.217   1.339  1.00  0.00    -0.351 N 
ATOM      4  C   UNL     1      -1.011  -1.231   0.749  1.00  0.00     0.278 C 
ATOM      5  O   UNL     1      -1.661  -2.085   0.138  1.00  0.00    -0.268 OA
ATOM      6  H   UNL     1      -2.689  -0.299   1.262  1.00  0.00     0.163 HD
BRANCH   4   7
ATOM      7  C   UNL     1       0.528  -1.323   0.852  1.00  0.00     0.275 C 
BRANCH   7   8
ATOM      8  N   UNL     1       0.911  -1.593   2.258  1.00  0.00    -0.347 N 
ATOM      9  H   UNL     1       0.378  -2.389   2.608  1.00  0.00     0.345 HD
ATOM     10  H   UNL     1       0.711  -0.772   2.829  1.00  0.00     0.345 HD
ATOM     11  H   UNL     1       1.908  -1.804   2.304  1.00  0.00     0.345 HD
ENDBRANCH   7   8
BRANCH   7  12
ATOM     12  C   UNL     1       1.223  -0.147   0.124  1.00  0.00     0.111 C 
BRANCH  12  13
ATOM     13  C   UNL     1       2.608   0.204   0.619  1.00  0.00    -0.038 A 
ATOM     14  C   UNL     1       2.775   1.007   1.761  1.00  0.00     0.008 A 
ATOM     15  C   UNL     1       3.747  -0.276  -0.038  1.00  0.00     0.047 A 
ATOM     16  C   UNL     1       4.046   1.288   2.267  1.00  0.00     0.049 A 
ATOM     17  C   UNL     1       5.015   0.020   0.460  1.00  0.00     0.165 A 
ATOM     18  C   UNL     1       5.165   0.784   1.615  1.00  0.00     0.151 A 
ATOM     19  F   UNL     1       6.091  -0.454  -0.185  1.00  0.00    -0.203 F 
BRANCH  18  20
ATOM     20  O   UNL     1       6.418   1.025   2.101  1.00  0.00    -0.505 OA
ATOM     21  H   UNL     1       6.529   1.538   2.877  1.00  0.00     0.293 HD
ENDBRANCH  18  20
ENDBRANCH  12  13
ENDBRANCH   7  12
ENDBRANCH   4   7
ENDBRANCH   2   3
ENDBRANCH   1   2
BRANCH   1  22
ATOM     22  C   UNL     1      -3.009   2.600   1.182  1.00  0.00     0.118 C 
BRANCH  22  23
ATOM     23  N   UNL     1      -3.586   2.927   2.480  1.00  0.00    -0.352 N 
ATOM     24  C   UNL     1      -4.096   4.114   2.946  1.00  0.00     0.251 C 
ATOM     25  H   UNL     1      -3.613   2.182   3.123  1.00  0.00     0.163 HD
ATOM     26  O   UNL     1      -4.332   4.240   4.146  1.00  0.00    -0.269 OA
BRANCH  24  27
ATOM     27  C   UNL     1      -4.340   5.239   2.018  1.00  0.00     0.039 A 
ATOM     28  C   UNL     1      -3.990   6.533   2.414  1.00  0.00     0.014 A 
ATOM     29  C   UNL     1      -4.916   5.025   0.763  1.00  0.00     0.014 A 
ATOM     30  C   UNL     1      -4.140   7.595   1.520  1.00  0.00     0.010 A 
ATOM     31  C   UNL     1      -4.987   6.068  -0.155  1.00  0.00     0.010 A 
ATOM     32  C   UNL     1      -4.594   7.364   0.211  1.00  0.00    -0.014 A 
BRANCH  32  33
ATOM     33  C   UNL     1      -4.640   8.454  -0.797  1.00  0.00     0.031 A 
ATOM     34  C   UNL     1      -5.950   8.868  -1.409  1.00  0.00     0.074 A 
ATOM     35  C   UNL     1      -3.489   9.015  -1.219  1.00  0.00     0.049 A 
ATOM     36  N   UNL     1      -6.178   9.731  -2.365  1.00  0.00    -0.248 NA
ATOM     37  C   UNL     1      -7.162   8.208  -0.896  1.00  0.00     0.031 C 
ATOM     38  C   UNL     1      -2.151   8.665  -0.734  1.00  0.00     0.029 A 
ATOM     39  N   UNL     1      -3.254   9.985  -2.160  1.00  0.00    -0.354 N 
ATOM     40  C   UNL     1      -7.552   9.710  -2.577  1.00  0.00     0.074 A 
ATOM     41  C   UNL     1      -8.100   8.710  -1.686  1.00  0.00     0.031 C 
ATOM     42  C   UNL     1      -1.241   9.422  -1.367  1.00  0.00     0.029 A 
ATOM     43  C   UNL     1      -1.921  10.276  -2.335  1.00  0.00     0.049 A 
ATOM     44  H   UNL     1      -3.973  10.431  -2.664  1.00  0.00     0.167 HD
ATOM     45  C   UNL     1      -8.290  10.468  -3.422  1.00  0.00     0.037 A 
ATOM     46  C   UNL     1      -1.313  11.122  -3.189  1.00  0.00     0.037 A 
ATOM     47  C   UNL     1      -7.737  11.472  -4.295  1.00  0.00     0.049 A 
ATOM     48  C   UNL     1      -2.153  11.937  -4.135  1.00  0.00     0.074 A 
ATOM     49  C   UNL     1      -8.406  12.335  -5.146  1.00  0.00     0.029 A 
ATOM     50  N   UNL     1      -6.384  11.743  -4.437  1.00  0.00    -0.354 N 
ATOM     51  N   UNL     1      -3.457  11.953  -4.273  1.00  0.00    -0.248 NA
ATOM     52  C   UNL     1      -1.440  12.849  -5.039  1.00  0.00     0.031 C 
ATOM     53  C   UNL     1      -7.456  13.089  -5.841  1.00  0.00     0.029 A 
ATOM     54  C   UNL     1      -6.196  12.738  -5.383  1.00  0.00     0.049 A 
ATOM     55  H   UNL     1      -5.663  11.295  -3.939  1.00  0.00     0.167 HD
ATOM     56  C   UNL     1      -3.723  12.892  -5.263  1.00  0.00     0.074 A 
ATOM     57  C   UNL     1      -2.445  13.435  -5.676  1.00  0.00     0.031 C 
ATOM     58  C   UNL     1      -4.917  13.269  -5.785  1.00  0.00     0.037 A 
BRANCH  45  59
ATOM     59  C   UNL     1      -9.778  10.243  -3.446  1.00  0.00     0.058 A 
ATOM     60  C   UNL     1     -10.597  10.605  -2.364  1.00  0.00     0.135 A 
ATOM     61  C   UNL     1     -10.400   9.696  -4.580  1.00  0.00     0.135 A 
ATOM     62  F   UNL     1     -10.055  11.119  -1.248  1.00  0.00    -0.206 F 
ATOM     63  C   UNL     1     -11.973  10.406  -2.394  1.00  0.00     0.059 A 
ATOM     64  C   UNL     1     -11.779   9.516  -4.644  1.00  0.00     0.059 A 
ATOM     65  F   UNL     1      -9.666   9.331  -5.644  1.00  0.00    -0.206 F 
ATOM     66  C   UNL     1     -12.555   9.861  -3.539  1.00  0.00     0.060 A 
BRANCH  66  67
ATOM     67  S   UNL     1     -14.344   9.615  -3.561  1.00  0.00     0.124 S 
ATOM     68  O   UNL     1     -14.495   8.497  -2.635  1.00  0.00    -0.237 OA
ATOM     69  O   UNL     1     -14.840  10.903  -3.086  1.00  0.00    -0.237 OA
ATOM     70  O   UNL     1     -14.629   9.314  -4.960  1.00  0.00    -0.744 OA
ENDBRANCH  66  67
ENDBRANCH  45  59
BRANCH  46  71
ATOM     71  C   UNL     1       0.170  11.245  -3.184  1.00  0.00     0.058 A 
ATOM     72  C   UNL     1       0.795  12.416  -2.730  1.00  0.00     0.135 A 
ATOM     73  C   UNL     1       0.992  10.194  -3.619  1.00  0.00     0.135 A 
ATOM     74  F   UNL     1       0.053  13.452  -2.310  1.00  0.00    -0.206 F 
ATOM     75  C   UNL     1       2.180  12.548  -2.722  1.00  0.00     0.059 A 
ATOM     76  C   UNL     1       2.380  10.291  -3.595  1.00  0.00     0.059 A 
ATOM     77  F   UNL     1       0.445   9.045  -4.047  1.00  0.00    -0.206 F 
ATOM     78  C   UNL     1       2.964  11.477  -3.153  1.00  0.00     0.060 A 
BRANCH  78  79
ATOM     79  S   UNL     1       4.761  11.640  -3.090  1.00  0.00     0.124 S 
ATOM     80  O   UNL     1       5.010  12.574  -4.181  1.00  0.00    -0.237 OA
ATOM     81  O   UNL     1       4.973  12.160  -1.742  1.00  0.00    -0.237 OA
ATOM     82  O   UNL     1       5.230  10.274  -3.306  1.00  0.00    -0.744 OA
ENDBRANCH  78  79
ENDBRANCH  46  71
BRANCH  58  83
ATOM     83  C   UNL     1      -4.903  14.336  -6.846  1.00  0.00     0.058 A 
ATOM     84  C   UNL     1      -4.430  14.081  -8.142  1.00  0.00     0.135 A 
ATOM     85  C   UNL     1      -5.418  15.615  -6.576  1.00  0.00     0.135 A 
ATOM     86  F   UNL     1      -3.919  12.879  -8.451  1.00  0.00    -0.206 F 
ATOM     87  C   UNL     1      -4.448  15.063  -9.128  1.00  0.00     0.059 A 
ATOM     88  C   UNL     1      -5.474  16.602  -7.555  1.00  0.00     0.059 A 
ATOM     89  F   UNL     1      -5.892  15.909  -5.355  1.00  0.00    -0.206 F 
ATOM     90  C   UNL     1      -4.976  16.319  -8.826  1.00  0.00     0.060 A 
BRANCH  90  91
ATOM     91  S   UNL     1      -5.029  17.570 -10.126  1.00  0.00     0.124 S 
ATOM     92  O   UNL     1      -3.620  17.931 -10.244  1.00  0.00    -0.237 OA
ATOM     93  O   UNL     1      -5.590  16.828 -11.251  1.00  0.00    -0.237 OA
ATOM     94  O   UNL     1      -5.896  18.604  -9.570  1.00  0.00    -0.744 OA
ENDBRANCH  90  91
ENDBRANCH  58  83
ENDBRANCH  32  33
ENDBRANCH  24  27
ENDBRANCH  22  23
ENDBRANCH   1  22
TORSDOF 17
