REMARK SMILES O=C(NCCCNC(=O)[C@@H](Cc1c[nH]c2ccccc12)Nc1ncnc2ccccc12)c1ccc(-c2c3nc(c(-c4c(F)cc(S(=O)(=O)[O-])cc4F)c4ccc([nH]4)c(-c4c(F)cc(S(=O)(=O)[O-])cc4F)c4nc(c(-c5c(F)cc(S(=O)(=O)[O-])cc5F)c5ccc2[nH]5)C=C4)C=C3)cc1
REMARK SMILES IDX 4 1 3 2 1 3 2 4 32 6 33 7 97 8 34 9 96 10 35 11 36 12 37 13
REMARK SMILES IDX 90 14 38 15 95 16 89 17 91 18 39 19 94 20 88 21 87 22 40 24
REMARK SMILES IDX 74 25 53 26 73 27 54 28 57 29 72 30 92 31 55 32 56 33 71 35
REMARK SMILES IDX 93 36 58 37 41 38 42 39 51 40 43 41 44 42 50 43 52 44 45 45
REMARK SMILES IDX 46 46 47 47 48 48 49 49 75 50 76 51 85 52 77 53 78 54 84 55
REMARK SMILES IDX 86 56 79 57 80 58 81 59 82 60 83 61 59 62 60 63 69 64 61 65
REMARK SMILES IDX 62 66 68 67 70 68 63 69 64 70 65 71 66 72 67 73 5 74 6 75
REMARK SMILES IDX 7 76 8 77 9 79 10 80 11 81 12 82 13 83 20 84 14 85 15 86
REMARK SMILES IDX 19 87 16 89 18 90 17 91 21 92 22 94 23 95 31 96 24 97 26 98
REMARK SMILES IDX 30 99 25 100 27 101 29 102 28 103
REMARK H PARENT 3 5 91 23 57 34 7 78 14 88 21 93
REMARK Flexibility Score: inf
ROOT
ATOM      1  C   UNL     1       3.315  -0.425  -1.913  1.00  0.00     0.118 C 
ENDROOT
BRANCH   1   2
ATOM      2  N   UNL     1       2.045  -0.040  -1.320  1.00  0.00    -0.352 N 
ATOM      3  O   UNL     1       0.498   0.479   0.190  1.00  0.00    -0.269 OA
ATOM      4  C   UNL     1       1.701   0.445  -0.081  1.00  0.00     0.251 C 
ATOM      5  H   UNL     1       1.278  -0.148  -1.928  1.00  0.00     0.163 HD
BRANCH   4   6
ATOM      6  C   UNL     1       2.678   0.908   0.948  1.00  0.00     0.039 A 
ATOM      7  C   UNL     1       3.866   1.571   0.650  1.00  0.00     0.014 A 
ATOM      8  C   UNL     1       2.306   0.797   2.299  1.00  0.00     0.014 A 
ATOM      9  C   UNL     1       4.707   2.028   1.679  1.00  0.00     0.010 A 
ATOM     10  C   UNL     1       3.113   1.320   3.325  1.00  0.00     0.010 A 
ATOM     11  C   UNL     1       4.342   1.925   3.033  1.00  0.00    -0.014 A 
BRANCH  11  12
ATOM     12  C   UNL     1       5.216   2.499   4.108  1.00  0.00     0.031 A 
ATOM     13  C   UNL     1       5.767   1.641   5.226  1.00  0.00     0.074 A 
ATOM     14  C   UNL     1       5.527   3.814   4.094  1.00  0.00     0.049 A 
ATOM     15  N   UNL     1       6.537   1.986   6.231  1.00  0.00    -0.248 NA
ATOM     16  C   UNL     1       5.396   0.219   5.226  1.00  0.00     0.031 C 
ATOM     17  C   UNL     1       5.044   4.785   3.109  1.00  0.00     0.029 A 
ATOM     18  N   UNL     1       6.331   4.562   4.923  1.00  0.00    -0.354 N 
ATOM     19  C   UNL     1       6.715   0.837   6.997  1.00  0.00     0.074 A 
ATOM     20  C   UNL     1       5.955  -0.212   6.349  1.00  0.00     0.031 C 
ATOM     21  C   UNL     1       5.606   5.979   3.353  1.00  0.00     0.029 A 
ATOM     22  C   UNL     1       6.441   5.881   4.546  1.00  0.00     0.049 A 
ATOM     23  H   UNL     1       6.785   4.188   5.712  1.00  0.00     0.167 HD
ATOM     24  C   UNL     1       7.445   0.664   8.129  1.00  0.00     0.037 A 
ATOM     25  C   UNL     1       7.124   6.907   5.094  1.00  0.00     0.037 A 
ATOM     26  C   UNL     1       8.235   1.690   8.764  1.00  0.00     0.049 A 
ATOM     27  C   UNL     1       7.938   6.686   6.338  1.00  0.00     0.074 A 
ATOM     28  C   UNL     1       9.054   1.578   9.877  1.00  0.00     0.029 A 
ATOM     29  N   UNL     1       8.310   3.011   8.352  1.00  0.00    -0.354 N 
ATOM     30  N   UNL     1       8.122   5.581   7.018  1.00  0.00    -0.248 NA
ATOM     31  C   UNL     1       8.636   7.857   6.891  1.00  0.00     0.031 C 
ATOM     32  C   UNL     1       9.591   2.838  10.161  1.00  0.00     0.029 A 
ATOM     33  C   UNL     1       9.145   3.727   9.198  1.00  0.00     0.049 A 
ATOM     34  H   UNL     1       7.840   3.386   7.573  1.00  0.00     0.167 HD
ATOM     35  C   UNL     1       8.972   5.918   8.066  1.00  0.00     0.074 A 
ATOM     36  C   UNL     1       9.278   7.326   7.923  1.00  0.00     0.031 C 
ATOM     37  C   UNL     1       9.454   5.127   9.056  1.00  0.00     0.037 A 
BRANCH  24  38
ATOM     38  C   UNL     1       7.420  -0.696   8.777  1.00  0.00     0.058 A 
ATOM     39  C   UNL     1       8.087  -1.796   8.217  1.00  0.00     0.135 A 
ATOM     40  C   UNL     1       6.763  -0.886  10.005  1.00  0.00     0.135 A 
ATOM     41  F   UNL     1       8.723  -1.674   7.041  1.00  0.00    -0.206 F 
ATOM     42  C   UNL     1       8.077  -3.044   8.833  1.00  0.00     0.059 A 
ATOM     43  C   UNL     1       6.761  -2.119  10.652  1.00  0.00     0.059 A 
ATOM     44  F   UNL     1       6.116   0.134  10.590  1.00  0.00    -0.206 F 
ATOM     45  C   UNL     1       7.408  -3.196  10.049  1.00  0.00     0.060 A 
BRANCH  45  46
ATOM     46  S   UNL     1       7.394  -4.824  10.831  1.00  0.00     0.124 S 
ATOM     47  O   UNL     1       6.439  -5.540   9.991  1.00  0.00    -0.237 OA
ATOM     48  O   UNL     1       8.786  -5.244  10.706  1.00  0.00    -0.237 OA
ATOM     49  O   UNL     1       6.947  -4.543  12.192  1.00  0.00    -0.744 OA
ENDBRANCH  45  46
ENDBRANCH  24  38
BRANCH  25  50
ATOM     50  C   UNL     1       7.079   8.249   4.453  1.00  0.00     0.058 A 
ATOM     51  C   UNL     1       8.204   8.769   3.795  1.00  0.00     0.135 A 
ATOM     52  C   UNL     1       5.913   9.030   4.474  1.00  0.00     0.135 A 
ATOM     53  F   UNL     1       9.345   8.065   3.760  1.00  0.00    -0.206 F 
ATOM     54  C   UNL     1       8.178  10.019   3.186  1.00  0.00     0.059 A 
ATOM     55  C   UNL     1       5.854  10.271   3.849  1.00  0.00     0.059 A 
ATOM     56  F   UNL     1       4.808   8.571   5.081  1.00  0.00    -0.206 F 
ATOM     57  C   UNL     1       6.996  10.761   3.214  1.00  0.00     0.060 A 
BRANCH  57  58
ATOM     58  S   UNL     1       6.949  12.354   2.365  1.00  0.00     0.124 S 
ATOM     59  O   UNL     1       7.681  13.204   3.296  1.00  0.00    -0.237 OA
ATOM     60  O   UNL     1       7.626  12.053   1.107  1.00  0.00    -0.237 OA
ATOM     61  O   UNL     1       5.520  12.627   2.247  1.00  0.00    -0.744 OA
ENDBRANCH  57  58
ENDBRANCH  25  50
BRANCH  37  62
ATOM     62  C   UNL     1      10.396   5.755  10.047  1.00  0.00     0.058 A 
ATOM     63  C   UNL     1       9.949   6.655  11.027  1.00  0.00     0.135 A 
ATOM     64  C   UNL     1      11.763   5.436  10.028  1.00  0.00     0.135 A 
ATOM     65  F   UNL     1       8.653   7.000  11.086  1.00  0.00    -0.206 F 
ATOM     66  C   UNL     1      10.828   7.241  11.933  1.00  0.00     0.059 A 
ATOM     67  C   UNL     1      12.657   5.991  10.940  1.00  0.00     0.059 A 
ATOM     68  F   UNL     1      12.244   4.573   9.118  1.00  0.00    -0.206 F 
ATOM     69  C   UNL     1      12.182   6.906  11.879  1.00  0.00     0.060 A 
BRANCH  69  70
ATOM     70  S   UNL     1      13.317   7.661  13.064  1.00  0.00     0.124 S 
ATOM     71  O   UNL     1      13.470   9.003  12.508  1.00  0.00    -0.237 OA
ATOM     72  O   UNL     1      12.565   7.578  14.315  1.00  0.00    -0.237 OA
ATOM     73  O   UNL     1      14.498   6.812  12.994  1.00  0.00    -0.744 OA
ENDBRANCH  69  70
ENDBRANCH  37  62
ENDBRANCH  11  12
ENDBRANCH   4   6
ENDBRANCH   1   2
BRANCH   1  74
ATOM     74  C   UNL     1       3.723  -1.846  -1.543  1.00  0.00     0.042 C 
BRANCH  74  75
ATOM     75  C   UNL     1       3.581  -2.904  -2.639  1.00  0.00     0.117 C 
BRANCH  75  76
ATOM     76  N   UNL     1       4.514  -2.707  -3.741  1.00  0.00    -0.354 N 
ATOM     77  C   UNL     1       5.587  -3.397  -4.215  1.00  0.00     0.242 C 
ATOM     78  H   UNL     1       4.325  -1.891  -4.260  1.00  0.00     0.163 HD
ATOM     79  O   UNL     1       6.205  -2.839  -5.137  1.00  0.00    -0.273 OA
BRANCH  77  80
ATOM     80  C   UNL     1       6.100  -4.761  -3.692  1.00  0.00     0.174 C 
BRANCH  80  81
ATOM     81  C   UNL     1       7.110  -4.615  -2.546  1.00  0.00     0.072 C 
BRANCH  81  82
ATOM     82  C   UNL     1       6.642  -4.079  -1.236  1.00  0.00    -0.020 A 
ATOM     83  C   UNL     1       5.896  -4.739  -0.278  1.00  0.00     0.087 A 
ATOM     84  C   UNL     1       6.963  -2.792  -0.697  1.00  0.00     0.003 A 
ATOM     85  N   UNL     1       5.749  -3.909   0.802  1.00  0.00    -0.361 N 
ATOM     86  C   UNL     1       6.370  -2.706   0.564  1.00  0.00     0.046 A 
ATOM     87  C   UNL     1       7.668  -1.673  -1.190  1.00  0.00     0.010 A 
ATOM     88  H   UNL     1       5.268  -4.141   1.629  1.00  0.00     0.166 HD
ATOM     89  C   UNL     1       6.433  -1.549   1.349  1.00  0.00     0.026 A 
ATOM     90  C   UNL     1       7.737  -0.509  -0.420  1.00  0.00     0.001 A 
ATOM     91  C   UNL     1       7.130  -0.453   0.832  1.00  0.00     0.002 A 
ENDBRANCH  81  82
ENDBRANCH  80  81
BRANCH  80  92
ATOM     92  N   UNL     1       5.042  -5.771  -3.465  1.00  0.00    -0.358 N 
ATOM     93  H   UNL     1       4.458  -5.723  -2.673  1.00  0.00     0.162 HD
BRANCH  92  94
ATOM     94  C   UNL     1       4.893  -6.793  -4.404  1.00  0.00     0.137 A 
ATOM     95  N   UNL     1       3.710  -6.756  -5.038  1.00  0.00    -0.219 NA
ATOM     96  C   UNL     1       5.869  -7.769  -4.691  1.00  0.00     0.043 A 
ATOM     97  C   UNL     1       3.529  -7.652  -6.014  1.00  0.00     0.224 A 
ATOM     98  C   UNL     1       5.564  -8.631  -5.755  1.00  0.00     0.076 A 
ATOM     99  C   UNL     1       7.082  -7.969  -3.987  1.00  0.00     0.014 A 
ATOM    100  N   UNL     1       4.407  -8.576  -6.421  1.00  0.00    -0.236 NA
ATOM    101  C   UNL     1       6.495  -9.596  -6.128  1.00  0.00     0.029 A 
ATOM    102  C   UNL     1       8.004  -8.939  -4.377  1.00  0.00     0.001 A 
ATOM    103  C   UNL     1       7.714  -9.749  -5.462  1.00  0.00     0.002 A 
ENDBRANCH  92  94
ENDBRANCH  80  92
ENDBRANCH  77  80
ENDBRANCH  75  76
ENDBRANCH  74  75
ENDBRANCH   1  74
TORSDOF 17
