REMARK SMILES CC(C)n1cc(C(=O)NCCCNC(=O)c2ccc(-c3c4nc(c(-c5c(F)cc(S(=O)(=O)[O-])cc5F)c5ccc([nH]5)c(-c5c(F)cc(S(=O)(=O)[O-])cc5F)c5nc(c(-c6c(F)cc(S(=O)(=O)[O-])cc6F)c6ccc3[nH]6)C=C5)C=C4)cc2)c2ccccc2c1=O
REMARK SMILES IDX 12 1 11 2 10 3 9 4 7 5 8 6 6 8 4 9 5 10 88 11 87 12 89 13
REMARK SMILES IDX 82 14 86 15 83 16 85 17 84 18 2 19 1 20 3 21 13 22 14 23
REMARK SMILES IDX 15 25 16 26 17 27 81 28 18 29 80 30 19 31 20 32 21 33 74 34
REMARK SMILES IDX 22 35 79 36 73 37 75 38 23 39 78 40 72 41 71 42 24 44 58 45
REMARK SMILES IDX 37 46 57 47 38 48 41 49 56 50 76 51 39 52 40 53 55 55 77 56
REMARK SMILES IDX 42 57 25 58 26 59 35 60 27 61 28 62 34 63 36 64 29 65 30 66
REMARK SMILES IDX 31 67 32 68 33 69 59 70 60 71 69 72 61 73 62 74 68 75 70 76
REMARK SMILES IDX 63 77 64 78 65 79 66 80 67 81 43 82 44 83 53 84 45 85 46 86
REMARK SMILES IDX 52 87 54 88 47 89 48 90 49 91 50 92 51 93
REMARK H PARENT 9 7 13 24 75 43 41 54
REMARK Flexibility Score: inf
ROOT
ATOM      1  C   UNL     1      -1.180   6.497   0.312  1.00  0.00     0.118 C 
ENDROOT
BRANCH   1   2
ATOM      2  C   UNL     1      -0.765   5.096   0.747  1.00  0.00     0.042 C 
BRANCH   2   3
ATOM      3  C   UNL     1      -1.547   4.596   1.962  1.00  0.00     0.118 C 
BRANCH   3   4
ATOM      4  N   UNL     1      -2.913   4.270   1.587  1.00  0.00    -0.352 N 
ATOM      5  C   UNL     1      -3.550   3.137   1.178  1.00  0.00     0.253 C 
ATOM      6  O   UNL     1      -4.718   3.302   0.822  1.00  0.00    -0.269 OA
ATOM      7  H   UNL     1      -3.517   5.046   1.641  1.00  0.00     0.163 HD
BRANCH   5   8
ATOM      8  C   UNL     1      -2.928   1.761   1.228  1.00  0.00     0.064 A 
ATOM      9  N   UNL     1      -0.915   0.420   1.276  1.00  0.00    -0.312 N 
ATOM     10  C   UNL     1      -1.602   1.605   1.072  1.00  0.00     0.104 A 
ATOM     11  C   UNL     1      -1.591  -0.779   1.522  1.00  0.00     0.258 A 
ATOM     12  C   UNL     1      -3.072  -0.726   1.456  1.00  0.00     0.048 A 
ATOM     13  O   UNL     1      -1.033  -1.846   1.766  1.00  0.00    -0.269 OA
ATOM     14  C   UNL     1      -3.732   0.510   1.343  1.00  0.00     0.001 A 
ATOM     15  C   UNL     1      -3.781  -1.940   1.470  1.00  0.00     0.014 A 
ATOM     16  C   UNL     1      -5.136   0.475   1.272  1.00  0.00     0.010 A 
ATOM     17  C   UNL     1      -5.167  -1.943   1.364  1.00  0.00     0.001 A 
ATOM     18  C   UNL     1      -5.844  -0.734   1.271  1.00  0.00     0.001 A 
BRANCH   9  19
ATOM     19  C   UNL     1       0.566   0.374   1.248  1.00  0.00     0.084 C 
ATOM     20  C   UNL     1       1.068  -0.087  -0.121  1.00  0.00     0.031 C 
ATOM     21  C   UNL     1       1.274   1.670   1.667  1.00  0.00     0.031 C 
ENDBRANCH   9  19
ENDBRANCH   5   8
ENDBRANCH   3   4
ENDBRANCH   2   3
ENDBRANCH   1   2
BRANCH   1  22
ATOM     22  N   UNL     1      -0.734   7.519   1.251  1.00  0.00    -0.352 N 
ATOM     23  C   UNL     1       0.122   8.580   1.051  1.00  0.00     0.251 C 
ATOM     24  H   UNL     1      -1.098   7.440   2.163  1.00  0.00     0.163 HD
ATOM     25  O   UNL     1       0.548   9.211   2.006  1.00  0.00    -0.269 OA
BRANCH  23  26
ATOM     26  C   UNL     1       0.538   8.923  -0.327  1.00  0.00     0.039 A 
ATOM     27  C   UNL     1      -0.405   8.958  -1.355  1.00  0.00     0.014 A 
ATOM     28  C   UNL     1       1.885   9.173  -0.597  1.00  0.00     0.014 A 
ATOM     29  C   UNL     1       0.023   9.043  -2.673  1.00  0.00     0.010 A 
ATOM     30  C   UNL     1       2.300   9.360  -1.919  1.00  0.00     0.010 A 
ATOM     31  C   UNL     1       1.381   9.237  -2.973  1.00  0.00    -0.014 A 
BRANCH  31  32
ATOM     32  C   UNL     1       1.811   9.280  -4.396  1.00  0.00     0.031 A 
ATOM     33  C   UNL     1       2.744   8.233  -4.948  1.00  0.00     0.074 A 
ATOM     34  C   UNL     1       1.301  10.227  -5.208  1.00  0.00     0.049 A 
ATOM     35  N   UNL     1       3.214   8.107  -6.163  1.00  0.00    -0.248 NA
ATOM     36  C   UNL     1       3.215   7.193  -4.018  1.00  0.00     0.031 C 
ATOM     37  C   UNL     1       0.373  11.282  -4.791  1.00  0.00     0.029 A 
ATOM     38  N   UNL     1       1.464  10.444  -6.552  1.00  0.00    -0.354 N 
ATOM     39  C   UNL     1       4.044   6.992  -6.141  1.00  0.00     0.074 A 
ATOM     40  C   UNL     1       4.043   6.494  -4.783  1.00  0.00     0.031 C 
ATOM     41  C   UNL     1       0.005  11.995  -5.865  1.00  0.00     0.029 A 
ATOM     42  C   UNL     1       0.727  11.501  -7.032  1.00  0.00     0.049 A 
ATOM     43  H   UNL     1       2.052   9.895  -7.119  1.00  0.00     0.167 HD
ATOM     44  C   UNL     1       4.731   6.426  -7.162  1.00  0.00     0.037 A 
ATOM     45  C   UNL     1       0.653  12.029  -8.269  1.00  0.00     0.037 A 
ATOM     46  C   UNL     1       4.706   6.915  -8.517  1.00  0.00     0.049 A 
ATOM     47  C   UNL     1       1.467  11.416  -9.372  1.00  0.00     0.074 A 
ATOM     48  C   UNL     1       5.354   6.402  -9.627  1.00  0.00     0.029 A 
ATOM     49  N   UNL     1       3.996   8.026  -8.949  1.00  0.00    -0.354 N 
ATOM     50  N   UNL     1       2.247  10.362  -9.330  1.00  0.00    -0.248 NA
ATOM     51  C   UNL     1       1.402  12.068 -10.686  1.00  0.00     0.031 C 
ATOM     52  C   UNL     1       5.077   7.231 -10.719  1.00  0.00     0.029 A 
ATOM     53  C   UNL     1       4.211   8.229 -10.302  1.00  0.00     0.049 A 
ATOM     54  H   UNL     1       3.424   8.588  -8.377  1.00  0.00     0.167 HD
ATOM     55  C   UNL     1       2.758  10.217 -10.614  1.00  0.00     0.074 A 
ATOM     56  C   UNL     1       2.180  11.278 -11.415  1.00  0.00     0.031 C 
ATOM     57  C   UNL     1       3.630   9.292 -11.085  1.00  0.00     0.037 A 
BRANCH  44  58
ATOM     58  C   UNL     1       5.579   5.218  -6.863  1.00  0.00     0.058 A 
ATOM     59  C   UNL     1       5.009   3.966  -6.583  1.00  0.00     0.135 A 
ATOM     60  C   UNL     1       6.980   5.299  -6.925  1.00  0.00     0.135 A 
ATOM     61  F   UNL     1       3.676   3.834  -6.494  1.00  0.00    -0.206 F 
ATOM     62  C   UNL     1       5.798   2.842  -6.359  1.00  0.00     0.059 A 
ATOM     63  C   UNL     1       7.788   4.182  -6.730  1.00  0.00     0.059 A 
ATOM     64  F   UNL     1       7.579   6.472  -7.188  1.00  0.00    -0.206 F 
ATOM     65  C   UNL     1       7.187   2.959  -6.439  1.00  0.00     0.060 A 
BRANCH  65  66
ATOM     66  S   UNL     1       8.191   1.484  -6.160  1.00  0.00     0.124 S 
ATOM     67  O   UNL     1       7.971   1.249  -4.736  1.00  0.00    -0.237 OA
ATOM     68  O   UNL     1       7.577   0.517  -7.064  1.00  0.00    -0.237 OA
ATOM     69  O   UNL     1       9.537   1.913  -6.523  1.00  0.00    -0.744 OA
ENDBRANCH  65  66
ENDBRANCH  44  58
BRANCH  45  70
ATOM     70  C   UNL     1      -0.220  13.208  -8.514  1.00  0.00     0.058 A 
ATOM     71  C   UNL     1      -1.379  13.101  -9.295  1.00  0.00     0.135 A 
ATOM     72  C   UNL     1       0.067  14.456  -7.937  1.00  0.00     0.135 A 
ATOM     73  F   UNL     1      -1.692  11.932  -9.874  1.00  0.00    -0.206 F 
ATOM     74  C   UNL     1      -2.222  14.188  -9.499  1.00  0.00     0.059 A 
ATOM     75  C   UNL     1      -0.776  15.550  -8.101  1.00  0.00     0.059 A 
ATOM     76  F   UNL     1       1.157  14.608  -7.169  1.00  0.00    -0.206 F 
ATOM     77  C   UNL     1      -1.916  15.407  -8.890  1.00  0.00     0.060 A 
BRANCH  77  78
ATOM     78  S   UNL     1      -3.053  16.793  -9.110  1.00  0.00     0.124 S 
ATOM     79  O   UNL     1      -2.849  17.119 -10.516  1.00  0.00    -0.237 OA
ATOM     80  O   UNL     1      -4.337  16.188  -8.773  1.00  0.00    -0.237 OA
ATOM     81  O   UNL     1      -2.565  17.783  -8.155  1.00  0.00    -0.744 OA
ENDBRANCH  77  78
ENDBRANCH  45  70
BRANCH  57  82
ATOM     82  C   UNL     1       4.008   9.373 -12.538  1.00  0.00     0.058 A 
ATOM     83  C   UNL     1       4.860  10.379 -13.019  1.00  0.00     0.135 A 
ATOM     84  C   UNL     1       3.572   8.393 -13.445  1.00  0.00     0.135 A 
ATOM     85  F   UNL     1       5.299  11.344 -12.195  1.00  0.00    -0.206 F 
ATOM     86  C   UNL     1       5.253  10.421 -14.352  1.00  0.00     0.059 A 
ATOM     87  C   UNL     1       3.976   8.398 -14.776  1.00  0.00     0.059 A 
ATOM     88  F   UNL     1       2.764   7.403 -13.033  1.00  0.00    -0.206 F 
ATOM     89  C   UNL     1       4.811   9.422 -15.222  1.00  0.00     0.060 A 
BRANCH  89  90
ATOM     90  S   UNL     1       5.368   9.466 -16.938  1.00  0.00     0.124 S 
ATOM     91  O   UNL     1       4.648  10.627 -17.451  1.00  0.00    -0.237 OA
ATOM     92  O   UNL     1       6.811   9.630 -16.791  1.00  0.00    -0.237 OA
ATOM     93  O   UNL     1       4.939   8.176 -17.470  1.00  0.00    -0.744 OA
ENDBRANCH  89  90
ENDBRANCH  57  82
ENDBRANCH  31  32
ENDBRANCH  23  26
ENDBRANCH   1  22
TORSDOF 14
