REMARK SMILES CC(C)c1ccc2c(c1)C(=O)C[C@@H]1[C@@]2(C)CCC[C@]1(C)C(=O)NCCCNC(=O)c1ccc(-c2c3nc(c(-c4c(F)cc(S(=O)(=O)[O-])cc4F)c4ccc([nH]4)c(-c4c(F)cc(S(=O)(=O)[O-])cc4F)c4nc(c(-c5c(F)cc(S(=O)(=O)[O-])cc5F)c5ccc2[nH]5)C=C4)C=C3)cc1
REMARK SMILES IDX 26 1 25 2 24 3 23 4 21 5 22 6 19 8 4 9 5 10 9 11 6 12 8 13
REMARK SMILES IDX 7 14 10 15 14 16 12 17 11 18 13 19 16 20 15 21 17 22 18 23
REMARK SMILES IDX 20 24 2 25 1 26 3 27 27 28 28 29 29 31 30 32 31 33 95 34
REMARK SMILES IDX 32 35 94 36 33 37 34 38 35 39 88 40 36 41 93 42 87 43 89 44
REMARK SMILES IDX 37 45 92 46 86 47 85 48 38 50 72 51 51 52 71 53 52 54 55 55
REMARK SMILES IDX 70 56 90 57 53 58 54 59 69 61 91 62 56 63 39 64 40 65 49 66
REMARK SMILES IDX 41 67 42 68 48 69 50 70 43 71 44 72 45 73 46 74 47 75 73 76
REMARK SMILES IDX 74 77 83 78 75 79 76 80 82 81 84 82 77 83 78 84 79 85 80 86
REMARK SMILES IDX 81 87 57 88 58 89 67 90 59 91 60 92 66 93 68 94 61 95 62 96
REMARK SMILES IDX 63 97 64 98 65 99
REMARK H PARENT 23 7 27 30 89 49 55 60
REMARK Flexibility Score: inf
ROOT
ATOM      1  C   UNL     1      -5.888   1.662   6.701  1.00  0.00     0.118 C 
ENDROOT
BRANCH   1   2
ATOM      2  C   UNL     1      -6.955   2.070   5.694  1.00  0.00     0.042 C 
BRANCH   2   3
ATOM      3  C   UNL     1      -6.525   1.867   4.249  1.00  0.00     0.117 C 
BRANCH   3   4
ATOM      4  N   UNL     1      -6.071   0.515   3.963  1.00  0.00    -0.356 N 
ATOM      5  C   UNL     1      -6.958  -0.524   3.948  1.00  0.00     0.226 C 
ATOM      6  O   UNL     1      -7.254  -1.068   5.009  1.00  0.00    -0.274 OA
ATOM      7  H   UNL     1      -5.118   0.348   3.780  1.00  0.00     0.163 HD
BRANCH   5   8
ATOM      8  C   UNL     1      -7.378  -1.061   2.560  1.00  0.00     0.050 C 
ATOM      9  C   UNL     1      -1.024  -0.270   1.250  1.00  0.00    -0.045 A 
ATOM     10  C   UNL     1      -1.743   0.739   0.610  1.00  0.00     0.004 A 
ATOM     11  C   UNL     1      -1.744  -1.348   1.777  1.00  0.00     0.016 A 
ATOM     12  C   UNL     1      -3.135   0.661   0.494  1.00  0.00     0.005 A 
ATOM     13  C   UNL     1      -3.147  -1.423   1.657  1.00  0.00     0.022 A 
ATOM     14  C   UNL     1      -3.879  -0.415   1.027  1.00  0.00    -0.031 A 
ATOM     15  C   UNL     1      -3.814  -2.618   2.192  1.00  0.00     0.163 C 
ATOM     16  C   UNL     1      -5.401  -0.499   0.814  1.00  0.00    -0.003 C 
ATOM     17  C   UNL     1      -5.266  -2.521   2.543  1.00  0.00     0.086 C 
ATOM     18  O   UNL     1      -3.162  -3.630   2.443  1.00  0.00    -0.294 OA
ATOM     19  C   UNL     1      -6.148  -1.565   1.713  1.00  0.00     0.022 C 
ATOM     20  C   UNL     1      -6.015   0.921   0.934  1.00  0.00     0.012 C 
ATOM     21  C   UNL     1      -5.590  -0.945  -0.668  1.00  0.00     0.017 C 
ATOM     22  C   UNL     1      -7.528   1.003   0.964  1.00  0.00     0.002 C 
ATOM     23  C   UNL     1      -8.244  -0.042   1.800  1.00  0.00     0.017 C 
ATOM     24  C   UNL     1      -8.316  -2.276   2.846  1.00  0.00     0.022 C 
BRANCH   9  25
ATOM     25  C   UNL     1       0.488  -0.221   1.377  1.00  0.00     0.013 C 
ATOM     26  C   UNL     1       1.176  -0.009   0.024  1.00  0.00     0.012 C 
ATOM     27  C   UNL     1       0.921   0.854   2.376  1.00  0.00     0.012 C 
ENDBRANCH   9  25
ENDBRANCH   5   8
ENDBRANCH   3   4
ENDBRANCH   2   3
ENDBRANCH   1   2
BRANCH   1  28
ATOM     28  N   UNL     1      -4.700   2.512   6.639  1.00  0.00    -0.352 N 
ATOM     29  C   UNL     1      -4.374   3.622   7.385  1.00  0.00     0.251 C 
ATOM     30  H   UNL     1      -4.033   2.251   5.964  1.00  0.00     0.163 HD
ATOM     31  O   UNL     1      -3.424   4.329   7.059  1.00  0.00    -0.269 OA
BRANCH  29  32
ATOM     32  C   UNL     1      -5.208   3.977   8.549  1.00  0.00     0.039 A 
ATOM     33  C   UNL     1      -5.575   2.990   9.461  1.00  0.00     0.014 A 
ATOM     34  C   UNL     1      -5.687   5.281   8.690  1.00  0.00     0.014 A 
ATOM     35  C   UNL     1      -6.603   3.241  10.356  1.00  0.00     0.010 A 
ATOM     36  C   UNL     1      -6.633   5.562   9.681  1.00  0.00     0.010 A 
ATOM     37  C   UNL     1      -7.150   4.528  10.477  1.00  0.00    -0.014 A 
BRANCH  37  38
ATOM     38  C   UNL     1      -8.275   4.749  11.425  1.00  0.00     0.031 A 
ATOM     39  C   UNL     1      -9.623   5.208  10.931  1.00  0.00     0.074 A 
ATOM     40  C   UNL     1      -8.099   4.449  12.728  1.00  0.00     0.049 A 
ATOM     41  N   UNL     1     -10.710   5.455  11.618  1.00  0.00    -0.248 NA
ATOM     42  C   UNL     1      -9.774   5.427   9.483  1.00  0.00     0.031 C 
ATOM     43  C   UNL     1      -6.847   3.970  13.320  1.00  0.00     0.029 A 
ATOM     44  N   UNL     1      -8.977   4.460  13.780  1.00  0.00    -0.354 N 
ATOM     45  C   UNL     1     -11.659   5.883  10.696  1.00  0.00     0.074 A 
ATOM     46  C   UNL     1     -11.016   5.885   9.400  1.00  0.00     0.031 C 
ATOM     47  C   UNL     1      -7.057   3.660  14.607  1.00  0.00     0.029 A 
ATOM     48  C   UNL     1      -8.432   3.998  14.955  1.00  0.00     0.049 A 
ATOM     49  H   UNL     1      -9.909   4.769  13.703  1.00  0.00     0.167 HD
ATOM     50  C   UNL     1     -12.951   6.231  10.910  1.00  0.00     0.037 A 
ATOM     51  C   UNL     1      -8.969   3.875  16.183  1.00  0.00     0.037 A 
ATOM     52  C   UNL     1     -13.596   6.187  12.197  1.00  0.00     0.049 A 
ATOM     53  C   UNL     1     -10.392   4.297  16.399  1.00  0.00     0.074 A 
ATOM     54  C   UNL     1     -14.902   6.517  12.517  1.00  0.00     0.029 A 
ATOM     55  N   UNL     1     -12.989   5.775  13.374  1.00  0.00    -0.354 N 
ATOM     56  N   UNL     1     -11.259   4.741  15.521  1.00  0.00    -0.248 NA
ATOM     57  C   UNL     1     -10.905   4.223  17.773  1.00  0.00     0.031 C 
ATOM     58  C   UNL     1     -15.075   6.335  13.893  1.00  0.00     0.029 A 
ATOM     59  C   UNL     1     -13.889   5.854  14.424  1.00  0.00     0.049 A 
ATOM     60  H   UNL     1     -12.056   5.471  13.452  1.00  0.00     0.167 HD
ATOM     61  C   UNL     1     -12.422   4.999  16.235  1.00  0.00     0.074 A 
ATOM     62  C   UNL     1     -12.154   4.639  17.614  1.00  0.00     0.031 C 
ATOM     63  C   UNL     1     -13.601   5.496  15.791  1.00  0.00     0.037 A 
BRANCH  50  64
ATOM     64  C   UNL     1     -13.758   6.704   9.731  1.00  0.00     0.058 A 
ATOM     65  C   UNL     1     -14.226   5.815   8.752  1.00  0.00     0.135 A 
ATOM     66  C   UNL     1     -14.118   8.057   9.612  1.00  0.00     0.135 A 
ATOM     67  F   UNL     1     -13.897   4.514   8.806  1.00  0.00    -0.206 F 
ATOM     68  C   UNL     1     -15.010   6.252   7.687  1.00  0.00     0.059 A 
ATOM     69  C   UNL     1     -14.920   8.512   8.569  1.00  0.00     0.059 A 
ATOM     70  F   UNL     1     -13.697   8.950  10.521  1.00  0.00    -0.206 F 
ATOM     71  C   UNL     1     -15.352   7.603   7.605  1.00  0.00     0.060 A 
BRANCH  71  72
ATOM     72  S   UNL     1     -16.379   8.150   6.223  1.00  0.00     0.124 S 
ATOM     73  O   UNL     1     -15.440   8.057   5.109  1.00  0.00    -0.237 OA
ATOM     74  O   UNL     1     -17.456   7.165   6.226  1.00  0.00    -0.237 OA
ATOM     75  O   UNL     1     -16.769   9.504   6.603  1.00  0.00    -0.744 OA
ENDBRANCH  71  72
ENDBRANCH  50  64
BRANCH  51  76
ATOM     76  C   UNL     1      -8.141   3.342  17.296  1.00  0.00     0.058 A 
ATOM     77  C   UNL     1      -8.385   2.071  17.832  1.00  0.00     0.135 A 
ATOM     78  C   UNL     1      -7.056   4.073  17.806  1.00  0.00     0.135 A 
ATOM     79  F   UNL     1      -9.415   1.339  17.381  1.00  0.00    -0.206 F 
ATOM     80  C   UNL     1      -7.581   1.539  18.835  1.00  0.00     0.059 A 
ATOM     81  C   UNL     1      -6.222   3.552  18.789  1.00  0.00     0.059 A 
ATOM     82  F   UNL     1      -6.772   5.289  17.313  1.00  0.00    -0.206 F 
ATOM     83  C   UNL     1      -6.497   2.285  19.301  1.00  0.00     0.060 A 
BRANCH  83  84
ATOM     84  S   UNL     1      -5.414   1.556  20.549  1.00  0.00     0.124 S 
ATOM     85  O   UNL     1      -6.243   1.648  21.745  1.00  0.00    -0.237 OA
ATOM     86  O   UNL     1      -5.200   0.211  20.022  1.00  0.00    -0.237 OA
ATOM     87  O   UNL     1      -4.241   2.424  20.524  1.00  0.00    -0.744 OA
ENDBRANCH  83  84
ENDBRANCH  51  76
BRANCH  63  88
ATOM     88  C   UNL     1     -14.695   5.675  16.803  1.00  0.00     0.058 A 
ATOM     89  C   UNL     1     -14.674   6.737  17.719  1.00  0.00     0.135 A 
ATOM     90  C   UNL     1     -15.801   4.811  16.819  1.00  0.00     0.135 A 
ATOM     91  F   UNL     1     -13.633   7.585  17.747  1.00  0.00    -0.206 F 
ATOM     92  C   UNL     1     -15.707   6.930  18.628  1.00  0.00     0.059 A 
ATOM     93  C   UNL     1     -16.856   4.998  17.705  1.00  0.00     0.059 A 
ATOM     94  F   UNL     1     -15.870   3.784  15.957  1.00  0.00    -0.206 F 
ATOM     95  C   UNL     1     -16.797   6.056  18.611  1.00  0.00     0.060 A 
BRANCH  95  96
ATOM     96  S   UNL     1     -18.151   6.343  19.770  1.00  0.00     0.124 S 
ATOM     97  O   UNL     1     -17.555   5.913  21.030  1.00  0.00    -0.237 OA
ATOM     98  O   UNL     1     -18.380   7.778  19.633  1.00  0.00    -0.237 OA
ATOM     99  O   UNL     1     -19.221   5.492  19.259  1.00  0.00    -0.744 OA
ENDBRANCH  95  96
ENDBRANCH  63  88
ENDBRANCH  37  38
ENDBRANCH  29  32
ENDBRANCH   1  28
TORSDOF 14
