REMARK SMILES Cc1cc2c(=O)cc(-c3ccc(F)cc3)oc2c(C(=O)NCCCNC(=O)c2ccc(-c3c4nc(c(-c5c(F)cc(S(=O)(=O)[O-])cc5F)c5ccc([nH]5)c(-c5c(F)cc(S(=O)(=O)[O-])cc5F)c5nc(c(-c6c(F)cc(S(=O)(=O)[O-])cc6F)c6ccc3[nH]6)C=C5)C=C4)cc2)c1C
REMARK SMILES IDX 24 1 23 2 22 3 21 4 19 5 20 6 18 8 1 9 2 10 3 11 94 12 4 13
REMARK SMILES IDX 95 14 5 15 17 16 6 17 7 18 16 19 8 20 9 21 10 22 15 23 11 24
REMARK SMILES IDX 14 25 12 26 13 27 25 28 26 29 27 31 28 32 29 33 93 34 30 35
REMARK SMILES IDX 92 36 31 37 32 38 33 39 86 40 34 41 91 42 85 43 87 44 35 45
REMARK SMILES IDX 90 46 84 47 83 48 36 50 70 51 49 52 69 53 50 54 53 55 68 56
REMARK SMILES IDX 88 57 51 58 52 59 67 61 89 62 54 63 37 64 38 65 47 66 39 67
REMARK SMILES IDX 40 68 46 69 48 70 41 71 42 72 43 73 44 74 45 75 71 76 72 77
REMARK SMILES IDX 81 78 73 79 74 80 80 81 82 82 75 83 76 84 77 85 78 86 79 87
REMARK SMILES IDX 55 88 56 89 65 90 57 91 58 92 64 93 66 94 59 95 60 96 61 97
REMARK SMILES IDX 62 98 63 99
REMARK H PARENT 21 7 25 30 87 49 53 60
REMARK Flexibility Score: inf
ROOT
ATOM      1  C   UNL     1      -2.162   4.850   3.485  1.00  0.00     0.118 C 
ENDROOT
BRANCH   1   2
ATOM      2  C   UNL     1      -1.351   3.701   2.904  1.00  0.00     0.042 C 
BRANCH   2   3
ATOM      3  C   UNL     1      -0.386   3.025   3.885  1.00  0.00     0.118 C 
BRANCH   3   4
ATOM      4  N   UNL     1      -0.991   1.829   4.445  1.00  0.00    -0.352 N 
ATOM      5  C   UNL     1      -1.061   0.486   4.178  1.00  0.00     0.255 C 
ATOM      6  O   UNL     1      -1.911  -0.081   4.879  1.00  0.00    -0.269 OA
ATOM      7  H   UNL     1      -1.502   2.047   5.257  1.00  0.00     0.163 HD
BRANCH   5   8
ATOM      8  C   UNL     1      -0.274  -0.366   3.199  1.00  0.00     0.086 A 
ATOM      9  C   UNL     1       1.105  -0.744  -0.418  1.00  0.00     0.044 C 
ATOM     10  C   UNL     1       0.667  -1.029   1.000  1.00  0.00    -0.046 A 
ATOM     11  C   UNL     1       0.776  -2.348   1.437  1.00  0.00     0.019 A 
ATOM     12  C   UNL     1       0.128  -0.028   1.867  1.00  0.00    -0.032 A 
ATOM     13  C   UNL     1       0.398  -2.688   2.726  1.00  0.00     0.066 A 
ATOM     14  C   UNL     1      -0.010   1.344   1.283  1.00  0.00     0.045 C 
ATOM     15  C   UNL     1       0.489  -4.099   3.130  1.00  0.00     0.193 A 
ATOM     16  C   UNL     1      -0.093  -1.725   3.614  1.00  0.00     0.151 A 
ATOM     17  O   UNL     1       0.918  -4.975   2.389  1.00  0.00    -0.289 OA
ATOM     18  C   UNL     1       0.035  -4.425   4.478  1.00  0.00     0.100 A 
ATOM     19  O   UNL     1      -0.401  -2.092   4.916  1.00  0.00    -0.455 OA
ATOM     20  C   UNL     1      -0.355  -3.428   5.279  1.00  0.00     0.138 A 
BRANCH  20  21
ATOM     21  C   UNL     1      -0.805  -3.735   6.647  1.00  0.00     0.018 A 
ATOM     22  C   UNL     1      -2.069  -3.321   7.091  1.00  0.00     0.015 A 
ATOM     23  C   UNL     1       0.006  -4.493   7.511  1.00  0.00     0.015 A 
ATOM     24  C   UNL     1      -2.526  -3.688   8.360  1.00  0.00     0.040 A 
ATOM     25  C   UNL     1      -0.449  -4.854   8.780  1.00  0.00     0.040 A 
ATOM     26  C   UNL     1      -1.714  -4.454   9.189  1.00  0.00     0.123 A 
ATOM     27  F   UNL     1      -2.157  -4.817  10.400  1.00  0.00    -0.207 F 
ENDBRANCH  20  21
ENDBRANCH   5   8
ENDBRANCH   3   4
ENDBRANCH   2   3
ENDBRANCH   1   2
BRANCH   1  28
ATOM     28  N   UNL     1      -1.397   6.084   3.573  1.00  0.00    -0.352 N 
ATOM     29  C   UNL     1      -1.630   7.314   2.994  1.00  0.00     0.251 C 
ATOM     30  H   UNL     1      -0.587   6.033   4.132  1.00  0.00     0.163 HD
ATOM     31  O   UNL     1      -0.762   8.173   3.043  1.00  0.00    -0.269 OA
BRANCH  29  32
ATOM     32  C   UNL     1      -2.909   7.587   2.289  1.00  0.00     0.039 A 
ATOM     33  C   UNL     1      -4.125   7.120   2.789  1.00  0.00     0.014 A 
ATOM     34  C   UNL     1      -2.891   8.335   1.106  1.00  0.00     0.014 A 
ATOM     35  C   UNL     1      -5.280   7.233   2.023  1.00  0.00     0.010 A 
ATOM     36  C   UNL     1      -4.076   8.537   0.387  1.00  0.00     0.010 A 
ATOM     37  C   UNL     1      -5.274   7.944   0.813  1.00  0.00    -0.014 A 
BRANCH  37  38
ATOM     38  C   UNL     1      -6.532   8.056   0.025  1.00  0.00     0.031 A 
ATOM     39  C   UNL     1      -6.634   7.472  -1.360  1.00  0.00     0.074 A 
ATOM     40  C   UNL     1      -7.609   8.640   0.588  1.00  0.00     0.049 A 
ATOM     41  N   UNL     1      -7.657   7.462  -2.177  1.00  0.00    -0.248 NA
ATOM     42  C   UNL     1      -5.431   6.823  -1.904  1.00  0.00     0.031 C 
ATOM     43  C   UNL     1      -7.635   9.241   1.923  1.00  0.00     0.029 A 
ATOM     44  N   UNL     1      -8.892   8.798   0.129  1.00  0.00    -0.354 N 
ATOM     45  C   UNL     1      -7.216   6.834  -3.337  1.00  0.00     0.074 A 
ATOM     46  C   UNL     1      -5.824   6.499  -3.128  1.00  0.00     0.031 C 
ATOM     47  C   UNL     1      -8.884   9.641   2.201  1.00  0.00     0.029 A 
ATOM     48  C   UNL     1      -9.731   9.394   1.040  1.00  0.00     0.049 A 
ATOM     49  H   UNL     1      -9.183   8.512  -0.767  1.00  0.00     0.167 HD
ATOM     50  C   UNL     1      -7.910   6.555  -4.467  1.00  0.00     0.037 A 
ATOM     51  C   UNL     1     -11.035   9.722   0.952  1.00  0.00     0.037 A 
ATOM     52  C   UNL     1      -9.305   6.866  -4.656  1.00  0.00     0.049 A 
ATOM     53  C   UNL     1     -11.779   9.421  -0.314  1.00  0.00     0.074 A 
ATOM     54  C   UNL     1     -10.107   6.592  -5.750  1.00  0.00     0.029 A 
ATOM     55  N   UNL     1     -10.105   7.520  -3.729  1.00  0.00    -0.354 N 
ATOM     56  N   UNL     1     -11.345   8.824  -1.399  1.00  0.00    -0.248 NA
ATOM     57  C   UNL     1     -13.182   9.848  -0.379  1.00  0.00     0.031 C 
ATOM     58  C   UNL     1     -11.380   7.119  -5.502  1.00  0.00     0.029 A 
ATOM     59  C   UNL     1     -11.384   7.681  -4.236  1.00  0.00     0.049 A 
ATOM     60  H   UNL     1      -9.806   7.824  -2.841  1.00  0.00     0.167 HD
ATOM     61  C   UNL     1     -12.420   8.807  -2.279  1.00  0.00     0.074 A 
ATOM     62  C   UNL     1     -13.532   9.432  -1.589  1.00  0.00     0.031 C 
ATOM     63  C   UNL     1     -12.476   8.323  -3.544  1.00  0.00     0.037 A 
BRANCH  50  64
ATOM     64  C   UNL     1      -7.165   5.901  -5.600  1.00  0.00     0.058 A 
ATOM     65  C   UNL     1      -6.755   4.560  -5.543  1.00  0.00     0.135 A 
ATOM     66  C   UNL     1      -6.872   6.624  -6.769  1.00  0.00     0.135 A 
ATOM     67  F   UNL     1      -6.995   3.826  -4.445  1.00  0.00    -0.206 F 
ATOM     68  C   UNL     1      -6.050   3.969  -6.588  1.00  0.00     0.059 A 
ATOM     69  C   UNL     1      -6.190   6.046  -7.836  1.00  0.00     0.059 A 
ATOM     70  F   UNL     1      -7.242   7.909  -6.879  1.00  0.00    -0.206 F 
ATOM     71  C   UNL     1      -5.767   4.722  -7.728  1.00  0.00     0.060 A 
BRANCH  71  72
ATOM     72  S   UNL     1      -4.828   3.948  -9.062  1.00  0.00     0.124 S 
ATOM     73  O   UNL     1      -3.494   3.875  -8.473  1.00  0.00    -0.237 OA
ATOM     74  O   UNL     1      -5.516   2.672  -9.229  1.00  0.00    -0.237 OA
ATOM     75  O   UNL     1      -4.973   4.886 -10.171  1.00  0.00    -0.744 OA
ENDBRANCH  71  72
ENDBRANCH  50  64
BRANCH  51  76
ATOM     76  C   UNL     1     -11.695  10.372   2.114  1.00  0.00     0.058 A 
ATOM     77  C   UNL     1     -12.595   9.664   2.921  1.00  0.00     0.135 A 
ATOM     78  C   UNL     1     -11.359  11.681   2.497  1.00  0.00     0.135 A 
ATOM     79  F   UNL     1     -12.953   8.414   2.590  1.00  0.00    -0.206 F 
ATOM     80  C   UNL     1     -13.123  10.220   4.082  1.00  0.00     0.059 A 
ATOM     81  C   UNL     1     -11.855  12.250   3.665  1.00  0.00     0.059 A 
ATOM     82  F   UNL     1     -10.490  12.394   1.763  1.00  0.00    -0.206 F 
ATOM     83  C   UNL     1     -12.733  11.508   4.454  1.00  0.00     0.060 A 
BRANCH  83  84
ATOM     84  S   UNL     1     -13.327  12.172   6.025  1.00  0.00     0.124 S 
ATOM     85  O   UNL     1     -14.728  12.437   5.723  1.00  0.00    -0.237 OA
ATOM     86  O   UNL     1     -13.069  11.065   6.941  1.00  0.00    -0.237 OA
ATOM     87  O   UNL     1     -12.490  13.351   6.230  1.00  0.00    -0.744 OA
ENDBRANCH  83  84
ENDBRANCH  51  76
BRANCH  63  88
ATOM     88  C   UNL     1     -13.781   8.457  -4.274  1.00  0.00     0.058 A 
ATOM     89  C   UNL     1     -14.205   9.692  -4.789  1.00  0.00     0.135 A 
ATOM     90  C   UNL     1     -14.585   7.332  -4.517  1.00  0.00     0.135 A 
ATOM     91  F   UNL     1     -13.477  10.799  -4.576  1.00  0.00    -0.206 F 
ATOM     92  C   UNL     1     -15.389   9.809  -5.510  1.00  0.00     0.059 A 
ATOM     93  C   UNL     1     -15.761   7.422  -5.255  1.00  0.00     0.059 A 
ATOM     94  F   UNL     1     -14.219   6.127  -4.052  1.00  0.00    -0.206 F 
ATOM     95  C   UNL     1     -16.158   8.667  -5.742  1.00  0.00     0.060 A 
BRANCH  95  96
ATOM     96  S   UNL     1     -17.669   8.828  -6.717  1.00  0.00     0.124 S 
ATOM     97  O   UNL     1     -18.552   9.514  -5.779  1.00  0.00    -0.237 OA
ATOM     98  O   UNL     1     -17.220   9.618  -7.859  1.00  0.00    -0.237 OA
ATOM     99  O   UNL     1     -18.027   7.446  -7.020  1.00  0.00    -0.744 OA
ENDBRANCH  95  96
ENDBRANCH  63  88
ENDBRANCH  37  38
ENDBRANCH  29  32
ENDBRANCH   1  28
TORSDOF 14
