REMARK SMILES O=C(NCCCNC(=O)c1cc2nn[nH]n2n1)c1ccc(-c2c3nc(c(-c4c(F)cc(S(=O)(=O)[O-])cc4F)c4ccc([nH]4)c(-c4c(F)cc(S(=O)(=O)[O-])cc4F)c4nc(c(-c5c(F)cc(S(=O)(=O)[O-])cc5F)c5ccc2[nH]5)C=C4)C=C3)cc1
REMARK SMILES IDX 1 1 2 2 3 3 18 5 19 6 83 7 20 8 82 9 21 10 22 11 23 12 76 13
REMARK SMILES IDX 24 14 81 15 75 16 77 17 25 18 80 19 74 20 73 21 26 23 60 24
REMARK SMILES IDX 39 25 59 26 40 27 43 28 58 29 78 30 41 31 42 32 57 34 79 35
REMARK SMILES IDX 44 36 27 37 28 38 37 39 29 40 30 41 36 42 38 43 31 44 32 45
REMARK SMILES IDX 33 46 34 47 35 48 61 49 62 50 71 51 63 52 64 53 70 54 72 55
REMARK SMILES IDX 65 56 66 57 67 58 68 59 69 60 45 61 46 62 55 63 47 64 48 65
REMARK SMILES IDX 54 66 56 67 49 68 50 69 51 70 52 71 53 72 4 73 5 74 6 75
REMARK SMILES IDX 7 76 8 77 9 79 10 80 11 81 17 82 12 83 16 84 13 85 15 86
REMARK SMILES IDX 14 87
REMARK H PARENT 3 4 77 22 43 33 7 78 15 88
REMARK Flexibility Score: inf
ROOT
ATOM      1  O   UNL     1       1.148   0.538   0.602  1.00  0.00    -0.269 OA
ATOM      2  C   UNL     1       2.183   0.211   0.013  1.00  0.00     0.251 C 
ATOM      3  N   UNL     1       3.223   1.089   0.146  1.00  0.00    -0.352 N 
ATOM      4  H   UNL     1       2.943   1.936   0.562  1.00  0.00     0.163 HD
ENDROOT
BRANCH   2   5
ATOM      5  C   UNL     1       2.178  -1.037  -0.803  1.00  0.00     0.039 A 
ATOM      6  C   UNL     1       3.268  -1.602  -1.466  1.00  0.00     0.014 A 
ATOM      7  C   UNL     1       0.922  -1.667  -0.934  1.00  0.00     0.014 A 
ATOM      8  C   UNL     1       3.093  -2.724  -2.285  1.00  0.00     0.010 A 
ATOM      9  C   UNL     1       0.744  -2.784  -1.746  1.00  0.00     0.010 A 
ATOM     10  C   UNL     1       1.826  -3.298  -2.452  1.00  0.00    -0.014 A 
BRANCH  10  11
ATOM     11  C   UNL     1       1.690  -4.504  -3.275  1.00  0.00     0.031 A 
ATOM     12  C   UNL     1       2.399  -5.715  -2.757  1.00  0.00     0.074 A 
ATOM     13  C   UNL     1       0.859  -4.612  -4.335  1.00  0.00     0.049 A 
ATOM     14  N   UNL     1       3.351  -6.392  -3.313  1.00  0.00    -0.248 NA
ATOM     15  C   UNL     1       2.056  -6.179  -1.404  1.00  0.00     0.031 C 
ATOM     16  C   UNL     1      -0.149  -3.654  -4.798  1.00  0.00     0.029 A 
ATOM     17  N   UNL     1       0.677  -5.672  -5.178  1.00  0.00    -0.354 N 
ATOM     18  C   UNL     1       3.609  -7.475  -2.470  1.00  0.00     0.074 A 
ATOM     19  C   UNL     1       2.876  -7.221  -1.257  1.00  0.00     0.031 C 
ATOM     20  C   UNL     1      -0.971  -4.260  -5.687  1.00  0.00     0.029 A 
ATOM     21  C   UNL     1      -0.469  -5.596  -5.964  1.00  0.00     0.049 A 
ATOM     22  H   UNL     1       1.305  -6.428  -5.226  1.00  0.00     0.167 HD
ATOM     23  C   UNL     1       4.273  -8.588  -2.895  1.00  0.00     0.037 A 
ATOM     24  C   UNL     1      -0.994  -6.577  -6.744  1.00  0.00     0.037 A 
ATOM     25  C   UNL     1       4.972  -8.345  -4.128  1.00  0.00     0.049 A 
ATOM     26  C   UNL     1       0.093  -7.549  -7.024  1.00  0.00     0.074 A 
ATOM     27  C   UNL     1       5.991  -7.499  -4.519  1.00  0.00     0.029 A 
ATOM     28  N   UNL     1       4.410  -8.813  -5.289  1.00  0.00    -0.354 N 
ATOM     29  N   UNL     1       1.150  -7.282  -7.741  1.00  0.00    -0.248 NA
ATOM     30  C   UNL     1       0.209  -8.702  -6.145  1.00  0.00     0.031 C 
ATOM     31  C   UNL     1       5.660  -7.120  -5.852  1.00  0.00     0.029 A 
ATOM     32  C   UNL     1       4.492  -7.799  -6.206  1.00  0.00     0.049 A 
ATOM     33  H   UNL     1       4.023  -9.707  -5.435  1.00  0.00     0.167 HD
ATOM     34  C   UNL     1       2.185  -7.955  -7.109  1.00  0.00     0.074 A 
ATOM     35  C   UNL     1       1.531  -8.879  -6.187  1.00  0.00     0.031 C 
ATOM     36  C   UNL     1       3.474  -7.517  -7.194  1.00  0.00     0.037 A 
BRANCH  23  37
ATOM     37  C   UNL     1       4.049  -9.991  -2.377  1.00  0.00     0.058 A 
ATOM     38  C   UNL     1       4.921 -11.028  -2.778  1.00  0.00     0.135 A 
ATOM     39  C   UNL     1       2.856 -10.410  -1.752  1.00  0.00     0.135 A 
ATOM     40  F   UNL     1       6.088 -10.748  -3.381  1.00  0.00    -0.206 F 
ATOM     41  C   UNL     1       4.591 -12.378  -2.647  1.00  0.00     0.059 A 
ATOM     42  C   UNL     1       2.530 -11.750  -1.564  1.00  0.00     0.059 A 
ATOM     43  F   UNL     1       1.905  -9.543  -1.382  1.00  0.00    -0.206 F 
ATOM     44  C   UNL     1       3.381 -12.727  -2.057  1.00  0.00     0.060 A 
BRANCH  44  45
ATOM     45  S   UNL     1       2.894 -14.462  -2.004  1.00  0.00     0.124 S 
ATOM     46  O   UNL     1       2.653 -14.739  -3.416  1.00  0.00    -0.237 OA
ATOM     47  O   UNL     1       4.074 -15.091  -1.421  1.00  0.00    -0.237 OA
ATOM     48  O   UNL     1       1.710 -14.452  -1.151  1.00  0.00    -0.744 OA
ENDBRANCH  44  45
ENDBRANCH  23  37
BRANCH  24  49
ATOM     49  C   UNL     1      -2.430  -6.911  -6.965  1.00  0.00     0.058 A 
ATOM     50  C   UNL     1      -2.835  -7.789  -7.988  1.00  0.00     0.135 A 
ATOM     51  C   UNL     1      -3.404  -6.607  -5.992  1.00  0.00     0.135 A 
ATOM     52  F   UNL     1      -1.967  -8.157  -8.943  1.00  0.00    -0.206 F 
ATOM     53  C   UNL     1      -4.112  -8.365  -8.020  1.00  0.00     0.059 A 
ATOM     54  C   UNL     1      -4.684  -7.162  -6.007  1.00  0.00     0.059 A 
ATOM     55  F   UNL     1      -3.107  -5.831  -4.939  1.00  0.00    -0.206 F 
ATOM     56  C   UNL     1      -5.025  -8.059  -7.011  1.00  0.00     0.060 A 
BRANCH  56  57
ATOM     57  S   UNL     1      -6.612  -8.927  -6.947  1.00  0.00     0.124 S 
ATOM     58  O   UNL     1      -7.310  -8.365  -8.099  1.00  0.00    -0.237 OA
ATOM     59  O   UNL     1      -6.207 -10.323  -7.067  1.00  0.00    -0.237 OA
ATOM     60  O   UNL     1      -7.154  -8.548  -5.645  1.00  0.00    -0.744 OA
ENDBRANCH  56  57
ENDBRANCH  24  49
BRANCH  36  61
ATOM     61  C   UNL     1       3.824  -6.476  -8.224  1.00  0.00     0.058 A 
ATOM     62  C   UNL     1       3.356  -5.151  -8.202  1.00  0.00     0.135 A 
ATOM     63  C   UNL     1       4.838  -6.785  -9.144  1.00  0.00     0.135 A 
ATOM     64  F   UNL     1       2.455  -4.751  -7.293  1.00  0.00    -0.206 F 
ATOM     65  C   UNL     1       3.869  -4.179  -9.064  1.00  0.00     0.059 A 
ATOM     66  C   UNL     1       5.385  -5.826  -9.991  1.00  0.00     0.059 A 
ATOM     67  F   UNL     1       5.364  -8.022  -9.174  1.00  0.00    -0.206 F 
ATOM     68  C   UNL     1       4.894  -4.524  -9.945  1.00  0.00     0.060 A 
BRANCH  68  69
ATOM     69  S   UNL     1       5.655  -3.235 -10.957  1.00  0.00     0.124 S 
ATOM     70  O   UNL     1       4.615  -2.964 -11.944  1.00  0.00    -0.237 OA
ATOM     71  O   UNL     1       5.899  -2.172  -9.986  1.00  0.00    -0.237 OA
ATOM     72  O   UNL     1       6.860  -3.876 -11.479  1.00  0.00    -0.744 OA
ENDBRANCH  68  69
ENDBRANCH  36  61
ENDBRANCH  10  11
ENDBRANCH   2   5
BRANCH   3  73
ATOM     73  C   UNL     1       4.636   1.078  -0.173  1.00  0.00     0.118 C 
BRANCH  73  74
ATOM     74  C   UNL     1       4.980   1.609  -1.564  1.00  0.00     0.042 C 
BRANCH  74  75
ATOM     75  C   UNL     1       4.462   3.015  -1.876  1.00  0.00     0.118 C 
BRANCH  75  76
ATOM     76  N   UNL     1       5.031   4.042  -1.017  1.00  0.00    -0.351 N 
ATOM     77  C   UNL     1       5.851   5.110  -1.307  1.00  0.00     0.271 C 
ATOM     78  H   UNL     1       4.788   3.960  -0.066  1.00  0.00     0.163 HD
ATOM     79  O   UNL     1       6.289   5.764  -0.361  1.00  0.00    -0.267 OA
BRANCH  77  80
ATOM     80  C   UNL     1       6.164   5.444  -2.705  1.00  0.00     0.154 A 
ATOM     81  C   UNL     1       5.253   5.540  -3.823  1.00  0.00     0.089 A 
ATOM     82  N   UNL     1       7.427   5.786  -3.076  1.00  0.00    -0.143 NA
ATOM     83  C   UNL     1       6.050   5.909  -4.869  1.00  0.00     0.199 A 
ATOM     84  N   UNL     1       7.277   6.028  -4.362  1.00  0.00    -0.135 N 
ATOM     85  N   UNL     1       6.082   6.206  -6.188  1.00  0.00    -0.109 NA
ATOM     86  N   UNL     1       8.055   6.433  -5.346  1.00  0.00    -0.177 N 
ATOM     87  N   UNL     1       7.296   6.471  -6.503  1.00  0.00    -0.050 NA
ATOM     88  H   UNL     1       9.008   6.667  -5.271  1.00  0.00     0.216 HD
ENDBRANCH  77  80
ENDBRANCH  75  76
ENDBRANCH  74  75
ENDBRANCH  73  74
ENDBRANCH   3  73
TORSDOF 13
