REMARK SMILES O=C(NCCCNC(=O)c1cccnc1SCC(=O)c1ccccc1Cl)c1ccc(-c2c3nc(c(-c4c(F)cc(S(=O)(=O)[O-])cc4F)c4ccc([nH]4)c(-c4c(F)cc(S(=O)(=O)[O-])cc4F)c4nc(c(-c5c(F)cc(S(=O)(=O)[O-])cc5F)c5ccc2[nH]5)C=C4)C=C3)cc1
REMARK SMILES IDX 5 1 4 2 3 3 1 4 2 5 27 7 28 8 92 9 29 10 91 11 30 12 31 13
REMARK SMILES IDX 32 14 85 15 33 16 90 17 84 18 86 19 34 20 89 21 83 22 82 23
REMARK SMILES IDX 35 25 69 26 48 27 68 28 49 29 52 30 67 31 87 32 50 33 51 34
REMARK SMILES IDX 66 36 88 37 53 38 36 39 37 40 46 41 38 42 39 43 45 44 47 45
REMARK SMILES IDX 40 46 41 47 42 48 43 49 44 50 70 51 71 52 80 53 72 54 73 55
REMARK SMILES IDX 79 56 81 57 74 58 75 59 76 60 77 61 78 62 54 63 55 64 64 65
REMARK SMILES IDX 56 66 57 67 63 68 65 69 58 70 59 71 60 72 61 73 62 74 6 75
REMARK SMILES IDX 7 76 8 77 9 79 10 80 11 81 15 82 12 83 14 84 13 85 16 86
REMARK SMILES IDX 17 87 18 88 19 89 20 90 21 91 25 92 22 93 24 94 26 95 23 96
REMARK H PARENT 3 6 86 24 52 35 7 78
REMARK Flexibility Score: inf
ROOT
ATOM      1  C   UNL     1       4.925   0.118  -2.460  1.00  0.00     0.042 C 
ENDROOT
BRANCH   1   2
ATOM      2  C   UNL     1       4.559   0.938  -1.229  1.00  0.00     0.118 C 
BRANCH   2   3
ATOM      3  N   UNL     1       3.154   0.819  -0.855  1.00  0.00    -0.352 N 
ATOM      4  O   UNL     1       1.292   0.012   0.098  1.00  0.00    -0.269 OA
ATOM      5  C   UNL     1       2.520   0.076   0.112  1.00  0.00     0.251 C 
ATOM      6  H   UNL     1       2.547   1.373  -1.396  1.00  0.00     0.163 HD
BRANCH   5   7
ATOM      7  C   UNL     1       3.280  -0.661   1.148  1.00  0.00     0.039 A 
ATOM      8  C   UNL     1       4.420  -0.118   1.734  1.00  0.00     0.014 A 
ATOM      9  C   UNL     1       2.803  -1.901   1.593  1.00  0.00     0.014 A 
ATOM     10  C   UNL     1       5.176  -0.877   2.620  1.00  0.00     0.010 A 
ATOM     11  C   UNL     1       3.507  -2.620   2.568  1.00  0.00     0.010 A 
ATOM     12  C   UNL     1       4.723  -2.131   3.062  1.00  0.00    -0.014 A 
BRANCH  12  13
ATOM     13  C   UNL     1       5.527  -2.857   4.081  1.00  0.00     0.031 A 
ATOM     14  C   UNL     1       6.181  -4.176   3.771  1.00  0.00     0.074 A 
ATOM     15  C   UNL     1       5.735  -2.265   5.275  1.00  0.00     0.049 A 
ATOM     16  N   UNL     1       7.001  -4.879   4.511  1.00  0.00    -0.248 NA
ATOM     17  C   UNL     1       5.871  -4.794   2.473  1.00  0.00     0.031 C 
ATOM     18  C   UNL     1       5.122  -1.004   5.706  1.00  0.00     0.029 A 
ATOM     19  N   UNL     1       6.546  -2.612   6.324  1.00  0.00    -0.354 N 
ATOM     20  C   UNL     1       7.294  -6.024   3.780  1.00  0.00     0.074 A 
ATOM     21  C   UNL     1       6.543  -5.936   2.546  1.00  0.00     0.031 C 
ATOM     22  C   UNL     1       5.635  -0.646   6.891  1.00  0.00     0.029 A 
ATOM     23  C   UNL     1       6.574  -1.673   7.329  1.00  0.00     0.049 A 
ATOM     24  H   UNL     1       7.058  -3.452   6.356  1.00  0.00     0.167 HD
ATOM     25  C   UNL     1       8.121  -7.048   4.103  1.00  0.00     0.037 A 
ATOM     26  C   UNL     1       7.281  -1.635   8.473  1.00  0.00     0.037 A 
ATOM     27  C   UNL     1       8.881  -7.123   5.325  1.00  0.00     0.049 A 
ATOM     28  C   UNL     1       8.230  -2.754   8.781  1.00  0.00     0.074 A 
ATOM     29  C   UNL     1       9.742  -8.122   5.747  1.00  0.00     0.029 A 
ATOM     30  N   UNL     1       8.881  -6.154   6.318  1.00  0.00    -0.354 N 
ATOM     31  N   UNL     1       8.493  -3.826   8.072  1.00  0.00    -0.248 NA
ATOM     32  C   UNL     1       8.977  -2.663  10.042  1.00  0.00     0.031 C 
ATOM     33  C   UNL     1      10.249  -7.765   7.003  1.00  0.00     0.029 A 
ATOM     34  C   UNL     1       9.726  -6.531   7.350  1.00  0.00     0.049 A 
ATOM     35  H   UNL     1       8.357  -5.320   6.293  1.00  0.00     0.167 HD
ATOM     36  C   UNL     1       9.426  -4.544   8.807  1.00  0.00     0.074 A 
ATOM     37  C   UNL     1       9.712  -3.766   9.996  1.00  0.00     0.031 C 
ATOM     38  C   UNL     1       9.985  -5.748   8.531  1.00  0.00     0.037 A 
BRANCH  25  39
ATOM     39  C   UNL     1       8.248  -8.178   3.120  1.00  0.00     0.058 A 
ATOM     40  C   UNL     1       8.997  -8.041   1.940  1.00  0.00     0.135 A 
ATOM     41  C   UNL     1       7.654  -9.423   3.378  1.00  0.00     0.135 A 
ATOM     42  F   UNL     1       9.571  -6.866   1.637  1.00  0.00    -0.206 F 
ATOM     43  C   UNL     1       9.139  -9.095   1.043  1.00  0.00     0.059 A 
ATOM     44  C   UNL     1       7.798 -10.497   2.504  1.00  0.00     0.059 A 
ATOM     45  F   UNL     1       6.926  -9.607   4.491  1.00  0.00    -0.206 F 
ATOM     46  C   UNL     1       8.533 -10.319   1.332  1.00  0.00     0.060 A 
BRANCH  46  47
ATOM     47  S   UNL     1       8.732 -11.682   0.164  1.00  0.00     0.124 S 
ATOM     48  O   UNL     1       7.802 -11.297  -0.893  1.00  0.00    -0.237 OA
ATOM     49  O   UNL     1      10.149 -11.600  -0.179  1.00  0.00    -0.237 OA
ATOM     50  O   UNL     1       8.348 -12.855   0.943  1.00  0.00    -0.744 OA
ENDBRANCH  46  47
ENDBRANCH  25  39
BRANCH  26  51
ATOM     51  C   UNL     1       7.113  -0.489   9.403  1.00  0.00     0.058 A 
ATOM     52  C   UNL     1       8.115   0.481   9.549  1.00  0.00     0.135 A 
ATOM     53  C   UNL     1       5.928  -0.325  10.136  1.00  0.00     0.135 A 
ATOM     54  F   UNL     1       9.266   0.365   8.870  1.00  0.00    -0.206 F 
ATOM     55  C   UNL     1       7.952   1.571  10.398  1.00  0.00     0.059 A 
ATOM     56  C   UNL     1       5.732   0.768  10.972  1.00  0.00     0.059 A 
ATOM     57  F   UNL     1       4.933  -1.218  10.013  1.00  0.00    -0.206 F 
ATOM     58  C   UNL     1       6.755   1.706  11.104  1.00  0.00     0.060 A 
BRANCH  58  59
ATOM     59  S   UNL     1       6.513   3.156  12.155  1.00  0.00     0.124 S 
ATOM     60  O   UNL     1       7.199   2.748  13.375  1.00  0.00    -0.237 OA
ATOM     61  O   UNL     1       7.157   4.214  11.383  1.00  0.00    -0.237 OA
ATOM     62  O   UNL     1       5.060   3.257  12.247  1.00  0.00    -0.744 OA
ENDBRANCH  58  59
ENDBRANCH  26  51
BRANCH  38  63
ATOM     63  C   UNL     1      10.949  -6.290   9.544  1.00  0.00     0.058 A 
ATOM     64  C   UNL     1      10.497  -6.841  10.754  1.00  0.00     0.135 A 
ATOM     65  C   UNL     1      12.331  -6.263   9.306  1.00  0.00     0.135 A 
ATOM     66  F   UNL     1       9.184  -6.882  11.028  1.00  0.00    -0.206 F 
ATOM     67  C   UNL     1      11.386  -7.317  11.710  1.00  0.00     0.059 A 
ATOM     68  C   UNL     1      13.238  -6.752  10.241  1.00  0.00     0.059 A 
ATOM     69  F   UNL     1      12.810  -5.754   8.161  1.00  0.00    -0.206 F 
ATOM     70  C   UNL     1      12.756  -7.260  11.448  1.00  0.00     0.060 A 
BRANCH  70  71
ATOM     71  S   UNL     1      13.908  -7.878  12.693  1.00  0.00     0.124 S 
ATOM     72  O   UNL     1      13.967  -6.753  13.620  1.00  0.00    -0.237 OA
ATOM     73  O   UNL     1      13.230  -9.073  13.189  1.00  0.00    -0.237 OA
ATOM     74  O   UNL     1      15.126  -8.130  11.929  1.00  0.00    -0.744 OA
ENDBRANCH  70  71
ENDBRANCH  38  63
ENDBRANCH  12  13
ENDBRANCH   5   7
ENDBRANCH   2   3
ENDBRANCH   1   2
BRANCH   1  75
ATOM     75  C   UNL     1       4.162   0.512  -3.713  1.00  0.00     0.118 C 
BRANCH  75  76
ATOM     76  N   UNL     1       4.313   1.915  -4.070  1.00  0.00    -0.352 N 
ATOM     77  C   UNL     1       4.973   2.452  -5.141  1.00  0.00     0.254 C 
ATOM     78  H   UNL     1       3.885   2.560  -3.463  1.00  0.00     0.163 HD
ATOM     79  O   UNL     1       4.709   3.578  -5.549  1.00  0.00    -0.269 OA
BRANCH  77  80
ATOM     80  C   UNL     1       5.872   1.633  -5.934  1.00  0.00     0.072 A 
ATOM     81  C   UNL     1       5.232   0.906  -6.957  1.00  0.00     0.018 A 
ATOM     82  C   UNL     1       7.254   1.571  -5.799  1.00  0.00     0.109 A 
ATOM     83  C   UNL     1       5.968   0.080  -7.788  1.00  0.00     0.021 A 
ATOM     84  N   UNL     1       7.960   0.729  -6.612  1.00  0.00    -0.249 NA
ATOM     85  C   UNL     1       7.324   0.017  -7.569  1.00  0.00     0.112 A 
BRANCH  82  86
ATOM     86  S   UNL     1       8.401   2.393  -4.718  1.00  0.00    -0.097 SA
BRANCH  86  87
ATOM     87  C   UNL     1       7.693   3.867  -3.993  1.00  0.00     0.157 C 
BRANCH  87  88
ATOM     88  C   UNL     1       7.115   5.019  -4.782  1.00  0.00     0.174 C 
ATOM     89  O   UNL     1       6.049   5.507  -4.372  1.00  0.00    -0.293 OA
BRANCH  88  90
ATOM     90  C   UNL     1       7.867   5.902  -5.732  1.00  0.00     0.037 A 
ATOM     91  C   UNL     1       7.731   7.283  -5.444  1.00  0.00     0.013 A 
ATOM     92  C   UNL     1       8.537   5.557  -6.909  1.00  0.00     0.051 A 
ATOM     93  C   UNL     1       8.243   8.275  -6.284  1.00  0.00     0.001 A 
ATOM     94  C   UNL     1       9.088   6.561  -7.731  1.00  0.00     0.021 A 
ATOM     95  Cl  UNL     1       8.643   3.980  -7.572  1.00  0.00    -0.084 Cl
ATOM     96  C   UNL     1       8.934   7.911  -7.428  1.00  0.00     0.002 A 
ENDBRANCH  88  90
ENDBRANCH  87  88
ENDBRANCH  86  87
ENDBRANCH  82  86
ENDBRANCH  77  80
ENDBRANCH  75  76
ENDBRANCH   1  75
TORSDOF 17
