REMARK SMILES COc1cc(Cl)ccc1-c1ccc(CC(=O)NCCCNC(=O)c2ccc(-c3c4nc(c(-c5c(F)cc(S(=O)(=O)[O-])cc5F)c5ccc([nH]5)c(-c5c(F)cc(S(=O)(=O)[O-])cc5F)c5nc(c(-c6c(F)cc(S(=O)(=O)[O-])cc6F)c6ccc3[nH]6)C=C5)C=C4)cc2)cc1
REMARK SMILES IDX 19 1 18 2 17 3 15 4 16 5 14 7 13 8 10 9 11 10 91 11 12 12
REMARK SMILES IDX 90 13 9 14 3 15 4 16 5 17 8 18 6 19 7 20 2 21 1 22 20 23
REMARK SMILES IDX 21 24 22 25 23 27 24 28 25 29 89 30 26 31 88 32 27 33 28 34
REMARK SMILES IDX 29 35 82 36 30 37 87 38 81 39 83 40 31 41 86 42 80 43 79 44
REMARK SMILES IDX 32 46 66 47 45 48 65 49 46 50 49 51 64 52 84 53 47 54 48 55
REMARK SMILES IDX 63 57 85 58 50 59 33 60 34 61 43 62 35 63 36 64 42 65 44 66
REMARK SMILES IDX 37 67 38 68 39 69 40 70 41 71 67 72 68 73 77 74 69 75 70 76
REMARK SMILES IDX 76 77 78 78 71 79 72 80 73 81 74 82 75 83 51 84 52 85 61 86
REMARK SMILES IDX 53 87 54 88 60 89 62 90 55 91 56 92 57 93 58 94 59 95
REMARK H PARENT 17 6 21 26 83 45 49 56
REMARK Flexibility Score: inf
ROOT
ATOM      1  C   UNL     1      -5.259   4.275   1.142  1.00  0.00     0.042 C 
ENDROOT
BRANCH   1   2
ATOM      2  C   UNL     1      -6.298   3.237   0.722  1.00  0.00     0.117 C 
BRANCH   2   3
ATOM      3  N   UNL     1      -6.847   3.505  -0.595  1.00  0.00    -0.356 N 
ATOM      4  C   UNL     1      -6.549   2.912  -1.788  1.00  0.00     0.224 C 
ATOM      5  O   UNL     1      -7.109   3.328  -2.805  1.00  0.00    -0.275 OA
ATOM      6  H   UNL     1      -7.529   4.214  -0.633  1.00  0.00     0.163 HD
BRANCH   4   7
ATOM      7  C   UNL     1      -5.591   1.735  -1.838  1.00  0.00     0.135 C 
BRANCH   7   8
ATOM      8  C   UNL     1      -4.149   2.101  -1.588  1.00  0.00    -0.039 A 
ATOM      9  C   UNL     1      -1.460   2.825  -1.064  1.00  0.00    -0.015 A 
ATOM     10  C   UNL     1      -2.164   3.388  -2.140  1.00  0.00     0.009 A 
ATOM     11  C   UNL     1      -2.126   1.883  -0.267  1.00  0.00     0.009 A 
ATOM     12  C   UNL     1      -3.492   3.032  -2.401  1.00  0.00     0.005 A 
ATOM     13  C   UNL     1      -3.444   1.511  -0.533  1.00  0.00     0.005 A 
BRANCH   9  14
ATOM     14  C   UNL     1      -0.072   3.225  -0.762  1.00  0.00     0.024 A 
ATOM     15  C   UNL     1       0.982   2.291  -0.653  1.00  0.00     0.128 A 
ATOM     16  C   UNL     1       2.286   2.709  -0.365  1.00  0.00     0.067 A 
ATOM     17  C   UNL     1       2.547   4.059  -0.146  1.00  0.00     0.044 A 
ATOM     18  C   UNL     1       0.226   4.583  -0.533  1.00  0.00     0.014 A 
ATOM     19  Cl  UNL     1       4.153   4.569   0.200  1.00  0.00    -0.084 Cl
ATOM     20  C   UNL     1       1.524   4.998  -0.223  1.00  0.00     0.021 A 
BRANCH  15  21
ATOM     21  O   UNL     1       0.716   0.970  -0.931  1.00  0.00    -0.496 OA
ATOM     22  C   UNL     1       1.158   0.086   0.098  1.00  0.00     0.278 C 
ENDBRANCH  15  21
ENDBRANCH   9  14
ENDBRANCH   7   8
ENDBRANCH   4   7
ENDBRANCH   2   3
ENDBRANCH   1   2
BRANCH   1  23
ATOM     23  C   UNL     1      -5.832   5.670   1.383  1.00  0.00     0.118 C 
BRANCH  23  24
ATOM     24  N   UNL     1      -6.785   5.702   2.484  1.00  0.00    -0.352 N 
ATOM     25  C   UNL     1      -6.799   6.461   3.627  1.00  0.00     0.251 C 
ATOM     26  H   UNL     1      -7.542   5.079   2.393  1.00  0.00     0.163 HD
ATOM     27  O   UNL     1      -7.607   6.187   4.515  1.00  0.00    -0.269 OA
BRANCH  25  28
ATOM     28  C   UNL     1      -5.855   7.585   3.811  1.00  0.00     0.039 A 
ATOM     29  C   UNL     1      -5.285   7.784   5.072  1.00  0.00     0.014 A 
ATOM     30  C   UNL     1      -5.563   8.470   2.769  1.00  0.00     0.014 A 
ATOM     31  C   UNL     1      -4.378   8.828   5.271  1.00  0.00     0.010 A 
ATOM     32  C   UNL     1      -4.607   9.469   2.950  1.00  0.00     0.010 A 
ATOM     33  C   UNL     1      -4.005   9.660   4.203  1.00  0.00    -0.014 A 
BRANCH  33  34
ATOM     34  C   UNL     1      -2.984  10.726   4.376  1.00  0.00     0.031 A 
ATOM     35  C   UNL     1      -3.359  12.174   4.205  1.00  0.00     0.074 A 
ATOM     36  C   UNL     1      -1.703  10.385   4.623  1.00  0.00     0.049 A 
ATOM     37  N   UNL     1      -2.594  13.235   4.240  1.00  0.00    -0.248 NA
ATOM     38  C   UNL     1      -4.776  12.465   3.936  1.00  0.00     0.031 C 
ATOM     39  C   UNL     1      -1.206   9.015   4.768  1.00  0.00     0.029 A 
ATOM     40  N   UNL     1      -0.583  11.161   4.783  1.00  0.00    -0.354 N 
ATOM     41  C   UNL     1      -3.430  14.315   3.985  1.00  0.00     0.074 A 
ATOM     42  C   UNL     1      -4.753  13.777   3.749  1.00  0.00     0.031 C 
ATOM     43  C   UNL     1       0.113   9.048   5.015  1.00  0.00     0.029 A 
ATOM     44  C   UNL     1       0.565  10.436   5.006  1.00  0.00     0.049 A 
ATOM     45  H   UNL     1      -0.599  12.145   4.742  1.00  0.00     0.167 HD
ATOM     46  C   UNL     1      -3.128  15.636   3.968  1.00  0.00     0.037 A 
ATOM     47  C   UNL     1       1.838  10.842   5.174  1.00  0.00     0.037 A 
ATOM     48  C   UNL     1      -1.814  16.167   4.227  1.00  0.00     0.049 A 
ATOM     49  C   UNL     1       2.150  12.314   5.149  1.00  0.00     0.074 A 
ATOM     50  C   UNL     1      -1.418  17.492   4.286  1.00  0.00     0.029 A 
ATOM     51  N   UNL     1      -0.683  15.402   4.468  1.00  0.00    -0.354 N 
ATOM     52  N   UNL     1       1.335  13.325   4.962  1.00  0.00    -0.248 NA
ATOM     53  C   UNL     1       3.551  12.701   5.362  1.00  0.00     0.031 C 
ATOM     54  C   UNL     1      -0.039  17.527   4.522  1.00  0.00     0.029 A 
ATOM     55  C   UNL     1       0.415  16.225   4.659  1.00  0.00     0.049 A 
ATOM     56  H   UNL     1      -0.663  14.418   4.500  1.00  0.00     0.167 HD
ATOM     57  C   UNL     1       2.120  14.469   5.063  1.00  0.00     0.074 A 
ATOM     58  C   UNL     1       3.471  14.025   5.338  1.00  0.00     0.031 C 
ATOM     59  C   UNL     1       1.754  15.769   4.940  1.00  0.00     0.037 A 
BRANCH  46  60
ATOM     60  C   UNL     1      -4.241  16.603   3.664  1.00  0.00     0.058 A 
ATOM     61  C   UNL     1      -5.281  16.840   4.578  1.00  0.00     0.135 A 
ATOM     62  C   UNL     1      -4.250  17.329   2.462  1.00  0.00     0.135 A 
ATOM     63  F   UNL     1      -5.330  16.164   5.737  1.00  0.00    -0.206 F 
ATOM     64  C   UNL     1      -6.306  17.737   4.297  1.00  0.00     0.059 A 
ATOM     65  C   UNL     1      -5.250  18.253   2.173  1.00  0.00     0.059 A 
ATOM     66  F   UNL     1      -3.279  17.144   1.553  1.00  0.00    -0.206 F 
ATOM     67  C   UNL     1      -6.283  18.438   3.091  1.00  0.00     0.060 A 
BRANCH  67  68
ATOM     68  S   UNL     1      -7.621  19.599   2.743  1.00  0.00     0.124 S 
ATOM     69  O   UNL     1      -8.725  18.691   2.450  1.00  0.00    -0.237 OA
ATOM     70  O   UNL     1      -7.726  20.340   3.996  1.00  0.00    -0.237 OA
ATOM     71  O   UNL     1      -7.120  20.365   1.606  1.00  0.00    -0.744 OA
ENDBRANCH  67  68
ENDBRANCH  46  60
BRANCH  47  72
ATOM     72  C   UNL     1       2.912   9.839   5.408  1.00  0.00     0.058 A 
ATOM     73  C   UNL     1       3.525   9.723   6.664  1.00  0.00     0.135 A 
ATOM     74  C   UNL     1       3.337   8.971   4.390  1.00  0.00     0.135 A 
ATOM     75  F   UNL     1       3.156  10.534   7.668  1.00  0.00    -0.206 F 
ATOM     76  C   UNL     1       4.532   8.794   6.901  1.00  0.00     0.059 A 
ATOM     77  C   UNL     1       4.325   8.016   4.609  1.00  0.00     0.059 A 
ATOM     78  F   UNL     1       2.769   9.029   3.176  1.00  0.00    -0.206 F 
ATOM     79  C   UNL     1       4.925   7.943   5.866  1.00  0.00     0.060 A 
BRANCH  79  80
ATOM     80  S   UNL     1       6.199   6.707   6.201  1.00  0.00     0.124 S 
ATOM     81  O   UNL     1       7.402   7.531   6.245  1.00  0.00    -0.237 OA
ATOM     82  O   UNL     1       5.759   6.150   7.476  1.00  0.00    -0.237 OA
ATOM     83  O   UNL     1       6.095   5.801   5.061  1.00  0.00    -0.744 OA
ENDBRANCH  79  80
ENDBRANCH  47  72
BRANCH  59  84
ATOM     84  C   UNL     1       2.821  16.810   5.136  1.00  0.00     0.058 A 
ATOM     85  C   UNL     1       3.817  17.037   4.174  1.00  0.00     0.135 A 
ATOM     86  C   UNL     1       2.815  17.626   6.279  1.00  0.00     0.135 A 
ATOM     87  F   UNL     1       3.872  16.280   3.067  1.00  0.00    -0.206 F 
ATOM     88  C   UNL     1       4.784  18.021   4.348  1.00  0.00     0.059 A 
ATOM     89  C   UNL     1       3.756  18.634   6.462  1.00  0.00     0.059 A 
ATOM     90  F   UNL     1       1.878  17.457   7.226  1.00  0.00    -0.206 F 
ATOM     91  C   UNL     1       4.744  18.817   5.495  1.00  0.00     0.060 A 
BRANCH  91  92
ATOM     92  S   UNL     1       5.983  20.115   5.693  1.00  0.00     0.124 S 
ATOM     93  O   UNL     1       7.169  19.339   6.041  1.00  0.00    -0.237 OA
ATOM     94  O   UNL     1       5.998  20.738   4.373  1.00  0.00    -0.237 OA
ATOM     95  O   UNL     1       5.438  20.945   6.764  1.00  0.00    -0.744 OA
ENDBRANCH  91  92
ENDBRANCH  59  84
ENDBRANCH  33  34
ENDBRANCH  25  28
ENDBRANCH  23  24
ENDBRANCH   1  23
TORSDOF 16
