REMARK SMILES Cc1nc(C(=O)NCCCNC(=O)c2ccc(-c3c4nc(c(-c5c(F)cc(S(=O)(=O)[O-])cc5F)c5ccc([nH]5)c(-c5c(F)cc(S(=O)(=O)[O-])cc5F)c5nc(c(-c6c(F)cc(S(=O)(=O)[O-])cc6F)c6ccc3[nH]6)C=C5)C=C4)cc2)nn1-c1cccc(C(F)(F)F)c1
REMARK SMILES IDX 9 1 8 2 7 3 5 4 6 5 4 7 1 8 2 9 3 10 81 11 80 12 82 13 83 14
REMARK SMILES IDX 91 15 84 16 86 17 85 18 87 19 88 20 89 21 90 22 10 23 11 24
REMARK SMILES IDX 12 25 13 27 14 28 15 29 79 30 16 31 78 32 17 33 18 34 19 35
REMARK SMILES IDX 72 36 20 37 77 38 71 39 73 40 21 41 76 42 70 43 69 44 22 46
REMARK SMILES IDX 56 47 35 48 55 49 36 50 39 51 54 52 74 53 37 54 38 55 53 57
REMARK SMILES IDX 75 58 40 59 23 60 24 61 33 62 25 63 26 64 32 65 34 66 27 67
REMARK SMILES IDX 28 68 29 69 30 70 31 71 57 72 58 73 67 74 59 75 60 76 66 77
REMARK SMILES IDX 68 78 61 79 62 80 63 81 64 82 65 83 41 84 42 85 51 86 43 87
REMARK SMILES IDX 44 88 50 89 52 90 45 91 46 92 47 93 48 94 49 95
REMARK H PARENT 7 6 11 26 73 45 39 56
REMARK Flexibility Score: inf
ROOT
ATOM      1  C   UNL     1      -2.271  -0.246   6.381  1.00  0.00     0.042 C 
ENDROOT
BRANCH   1   2
ATOM      2  C   UNL     1      -0.793  -0.647   6.340  1.00  0.00     0.118 C 
BRANCH   2   3
ATOM      3  N   UNL     1      -0.576  -1.981   5.792  1.00  0.00    -0.349 N 
ATOM      4  C   UNL     1      -0.168  -2.400   4.536  1.00  0.00     0.290 C 
ATOM      5  O   UNL     1      -0.078  -3.616   4.358  1.00  0.00    -0.266 OA
ATOM      6  H   UNL     1      -0.750  -2.713   6.427  1.00  0.00     0.163 HD
BRANCH   4   7
ATOM      7  C   UNL     1       0.117  -1.424   3.460  1.00  0.00     0.239 A 
ATOM      8  C   UNL     1       0.776  -0.447   0.083  1.00  0.00     0.090 C 
ATOM      9  C   UNL     1       0.374  -0.618   1.499  1.00  0.00     0.130 A 
ATOM     10  N   UNL     1       0.234  -1.771   2.125  1.00  0.00    -0.207 NA
ATOM     11  N   UNL     1       0.253   0.399   2.422  1.00  0.00    -0.217 N 
ATOM     12  N   UNL     1       0.317  -0.114   3.663  1.00  0.00    -0.140 NA
BRANCH  11  13
ATOM     13  C   UNL     1      -0.041   1.773   2.276  1.00  0.00     0.067 A 
ATOM     14  C   UNL     1       0.419   2.666   3.256  1.00  0.00     0.028 A 
ATOM     15  C   UNL     1      -0.907   2.216   1.271  1.00  0.00     0.041 A 
ATOM     16  C   UNL     1       0.051   4.007   3.208  1.00  0.00     0.003 A 
ATOM     17  C   UNL     1      -1.324   3.559   1.250  1.00  0.00     0.058 A 
ATOM     18  C   UNL     1      -0.818   4.450   2.212  1.00  0.00     0.013 A 
BRANCH  17  19
ATOM     19  C   UNL     1      -2.340   4.046   0.245  1.00  0.00     0.416 C 
ATOM     20  F   UNL     1      -3.416   4.634   0.837  1.00  0.00    -0.166 F 
ATOM     21  F   UNL     1      -1.823   4.978  -0.602  1.00  0.00    -0.166 F 
ATOM     22  F   UNL     1      -2.840   3.058  -0.545  1.00  0.00    -0.166 F 
ENDBRANCH  17  19
ENDBRANCH  11  13
ENDBRANCH   4   7
ENDBRANCH   2   3
ENDBRANCH   1   2
BRANCH   1  23
ATOM     23  C   UNL     1      -2.977  -0.828   7.598  1.00  0.00     0.118 C 
BRANCH  23  24
ATOM     24  N   UNL     1      -2.507  -0.232   8.852  1.00  0.00    -0.352 N 
ATOM     25  C   UNL     1      -2.889  -0.520  10.150  1.00  0.00     0.251 C 
ATOM     26  H   UNL     1      -1.824   0.471   8.757  1.00  0.00     0.163 HD
ATOM     27  O   UNL     1      -2.636   0.258  11.054  1.00  0.00    -0.269 OA
BRANCH  25  28
ATOM     28  C   UNL     1      -3.631  -1.768  10.413  1.00  0.00     0.039 A 
ATOM     29  C   UNL     1      -4.722  -1.775  11.284  1.00  0.00     0.014 A 
ATOM     30  C   UNL     1      -3.256  -2.926   9.739  1.00  0.00     0.014 A 
ATOM     31  C   UNL     1      -5.494  -2.930  11.385  1.00  0.00     0.010 A 
ATOM     32  C   UNL     1      -4.103  -4.009   9.722  1.00  0.00     0.010 A 
ATOM     33  C   UNL     1      -5.205  -4.037  10.569  1.00  0.00    -0.014 A 
BRANCH  33  34
ATOM     34  C   UNL     1      -6.139  -5.162  10.499  1.00  0.00     0.031 A 
ATOM     35  C   UNL     1      -7.563  -4.777  10.281  1.00  0.00     0.074 A 
ATOM     36  C   UNL     1      -5.762  -6.457  10.417  1.00  0.00     0.049 A 
ATOM     37  N   UNL     1      -8.550  -4.920  11.102  1.00  0.00    -0.248 NA
ATOM     38  C   UNL     1      -7.909  -4.019   9.066  1.00  0.00     0.031 C 
ATOM     39  C   UNL     1      -4.405  -7.002  10.315  1.00  0.00     0.029 A 
ATOM     40  N   UNL     1      -6.536  -7.570  10.277  1.00  0.00    -0.354 N 
ATOM     41  C   UNL     1      -9.684  -4.501  10.414  1.00  0.00     0.074 A 
ATOM     42  C   UNL     1      -9.209  -3.781   9.261  1.00  0.00     0.031 C 
ATOM     43  C   UNL     1      -4.462  -8.276   9.872  1.00  0.00     0.029 A 
ATOM     44  C   UNL     1      -5.850  -8.692   9.819  1.00  0.00     0.049 A 
ATOM     45  H   UNL     1      -7.499  -7.580  10.481  1.00  0.00     0.167 HD
ATOM     46  C   UNL     1     -10.916  -5.006  10.709  1.00  0.00     0.037 A 
ATOM     47  C   UNL     1      -6.385  -9.864   9.390  1.00  0.00     0.037 A 
ATOM     48  C   UNL     1     -10.923  -5.652  12.000  1.00  0.00     0.049 A 
ATOM     49  C   UNL     1      -7.750  -9.954   9.973  1.00  0.00     0.074 A 
ATOM     50  C   UNL     1     -10.547  -5.266  13.275  1.00  0.00     0.029 A 
ATOM     51  N   UNL     1     -10.989  -7.025  12.041  1.00  0.00    -0.354 N 
ATOM     52  N   UNL     1      -7.986 -10.093  11.250  1.00  0.00    -0.248 NA
ATOM     53  C   UNL     1      -8.859  -9.428   9.191  1.00  0.00     0.031 C 
ATOM     54  C   UNL     1      -9.898  -6.410  13.826  1.00  0.00     0.029 A 
ATOM     55  C   UNL     1      -9.999  -7.443  12.894  1.00  0.00     0.049 A 
ATOM     56  H   UNL     1     -11.623  -7.597  11.552  1.00  0.00     0.167 HD
ATOM     57  C   UNL     1      -9.069  -9.264  11.498  1.00  0.00     0.074 A 
ATOM     58  C   UNL     1      -9.625  -8.962  10.180  1.00  0.00     0.031 C 
ATOM     59  C   UNL     1      -9.247  -8.665  12.714  1.00  0.00     0.037 A 
BRANCH  46  60
ATOM     60  C   UNL     1     -11.995  -5.253   9.680  1.00  0.00     0.058 A 
ATOM     61  C   UNL     1     -13.290  -5.614  10.107  1.00  0.00     0.135 A 
ATOM     62  C   UNL     1     -11.738  -5.434   8.302  1.00  0.00     0.135 A 
ATOM     63  F   UNL     1     -13.640  -5.499  11.398  1.00  0.00    -0.206 F 
ATOM     64  C   UNL     1     -14.230  -6.182   9.246  1.00  0.00     0.059 A 
ATOM     65  C   UNL     1     -12.679  -5.943   7.416  1.00  0.00     0.059 A 
ATOM     66  F   UNL     1     -10.530  -5.225   7.765  1.00  0.00    -0.206 F 
ATOM     67  C   UNL     1     -13.907  -6.356   7.903  1.00  0.00     0.060 A 
BRANCH  67  68
ATOM     68  S   UNL     1     -15.075  -7.180   6.809  1.00  0.00     0.124 S 
ATOM     69  O   UNL     1     -15.004  -8.553   7.293  1.00  0.00    -0.237 OA
ATOM     70  O   UNL     1     -16.314  -6.463   7.094  1.00  0.00    -0.237 OA
ATOM     71  O   UNL     1     -14.513  -6.944   5.482  1.00  0.00    -0.744 OA
ENDBRANCH  67  68
ENDBRANCH  46  60
BRANCH  47  72
ATOM     72  C   UNL     1      -5.911 -10.753   8.291  1.00  0.00     0.058 A 
ATOM     73  C   UNL     1      -6.514 -12.005   8.062  1.00  0.00     0.135 A 
ATOM     74  C   UNL     1      -5.056 -10.289   7.270  1.00  0.00     0.135 A 
ATOM     75  F   UNL     1      -7.351 -12.528   8.971  1.00  0.00    -0.206 F 
ATOM     76  C   UNL     1      -6.338 -12.715   6.868  1.00  0.00     0.059 A 
ATOM     77  C   UNL     1      -4.851 -10.987   6.080  1.00  0.00     0.059 A 
ATOM     78  F   UNL     1      -4.461  -9.090   7.350  1.00  0.00    -0.206 F 
ATOM     79  C   UNL     1      -5.523 -12.184   5.871  1.00  0.00     0.060 A 
BRANCH  79  80
ATOM     80  S   UNL     1      -5.457 -12.984   4.250  1.00  0.00     0.124 S 
ATOM     81  O   UNL     1      -4.697 -14.195   4.540  1.00  0.00    -0.237 OA
ATOM     82  O   UNL     1      -6.870 -13.176   3.942  1.00  0.00    -0.237 OA
ATOM     83  O   UNL     1      -4.770 -12.002   3.415  1.00  0.00    -0.744 OA
ENDBRANCH  79  80
ENDBRANCH  47  72
BRANCH  59  84
ATOM     84  C   UNL     1      -8.445  -9.150  13.896  1.00  0.00     0.058 A 
ATOM     85  C   UNL     1      -7.040  -9.159  13.970  1.00  0.00     0.135 A 
ATOM     86  C   UNL     1      -9.144  -9.489  15.066  1.00  0.00     0.135 A 
ATOM     87  F   UNL     1      -6.287  -8.739  12.944  1.00  0.00    -0.206 F 
ATOM     88  C   UNL     1      -6.367  -9.542  15.133  1.00  0.00     0.059 A 
ATOM     89  C   UNL     1      -8.494  -9.838  16.246  1.00  0.00     0.059 A 
ATOM     90  F   UNL     1     -10.487  -9.441  15.086  1.00  0.00    -0.206 F 
ATOM     91  C   UNL     1      -7.103  -9.882  16.267  1.00  0.00     0.060 A 
BRANCH  91  92
ATOM     92  S   UNL     1      -6.233 -10.326  17.785  1.00  0.00     0.124 S 
ATOM     93  O   UNL     1      -5.682 -11.635  17.451  1.00  0.00    -0.237 OA
ATOM     94  O   UNL     1      -5.260  -9.246  17.923  1.00  0.00    -0.237 OA
ATOM     95  O   UNL     1      -7.288 -10.334  18.795  1.00  0.00    -0.744 OA
ENDBRANCH  91  92
ENDBRANCH  59  84
ENDBRANCH  33  34
ENDBRANCH  25  28
ENDBRANCH  23  24
ENDBRANCH   1  23
TORSDOF 15
