REMARK SMILES NS(=O)(=O)c1ccc(-n2nc(C(F)(F)F)cc2-c2ccc(C(=O)NCCCNC(=O)c3ccc(-c4c5nc(c(-c6c(F)cc(S(=O)(=O)[O-])cc6F)c6ccc([nH]6)c(-c6c(F)cc(S(=O)(=O)[O-])cc6F)c6nc(c(-c7c(F)cc(S(=O)(=O)[O-])cc7F)c7ccc4[nH]7)C=C6)C=C5)cc3)cc2)cc1
REMARK SMILES IDX 25 1 24 2 22 3 23 4 21 6 18 7 19 8 98 9 20 10 97 11 17 12
REMARK SMILES IDX 9 13 10 14 11 15 16 16 8 17 5 18 6 19 100 20 7 21 99 22 2 23
REMARK SMILES IDX 3 24 4 25 1 26 12 29 13 30 14 31 15 32 26 33 27 34 28 35
REMARK SMILES IDX 29 36 30 38 31 39 32 40 96 41 33 42 95 43 34 44 35 45 36 46
REMARK SMILES IDX 89 47 37 48 94 49 88 50 90 51 38 52 93 53 87 54 86 55 39 57
REMARK SMILES IDX 73 58 52 59 72 60 53 61 56 62 71 63 91 64 54 65 55 66 70 68
REMARK SMILES IDX 92 69 57 70 40 71 41 72 50 73 42 74 43 75 49 76 51 77 44 78
REMARK SMILES IDX 45 79 46 80 47 81 48 82 74 83 75 84 84 85 76 86 77 87 83 88
REMARK SMILES IDX 85 89 78 90 79 91 80 92 81 93 82 94 58 95 59 96 68 97 60 98
REMARK SMILES IDX 61 99 67 100 69 101 62 102 63 103 64 104 65 105 66 106
REMARK H PARENT 24 5 1 27 1 28 28 37 90 56 56 67
REMARK Flexibility Score: inf
ROOT
ATOM      1  C   UNL     1       8.941   4.717  -4.374  1.00  0.00     0.118 C 
ENDROOT
BRANCH   1   2
ATOM      2  N   UNL     1       8.033   3.834  -5.092  1.00  0.00    -0.352 N 
ATOM      3  C   UNL     1       6.659   3.772  -5.122  1.00  0.00     0.251 C 
ATOM      4  O   UNL     1       6.126   3.041  -5.954  1.00  0.00    -0.269 OA
ATOM      5  H   UNL     1       8.481   3.163  -5.655  1.00  0.00     0.163 HD
BRANCH   3   6
ATOM      6  C   UNL     1       5.798   4.589  -4.222  1.00  0.00     0.039 A 
ATOM      7  C   UNL     1       4.119   6.170  -2.618  1.00  0.00     0.000 A 
ATOM      8  C   UNL     1       3.669   5.702  -3.858  1.00  0.00     0.011 A 
ATOM      9  C   UNL     1       5.389   5.826  -2.172  1.00  0.00     0.011 A 
ATOM     10  C   UNL     1       4.508   4.918  -4.658  1.00  0.00     0.014 A 
ATOM     11  C   UNL     1       6.196   5.007  -2.952  1.00  0.00     0.014 A 
BRANCH   7  12
ATOM     12  C   UNL     1       3.265   6.960  -1.748  1.00  0.00     0.075 A 
ATOM     13  N   UNL     1       2.119   6.492  -1.122  1.00  0.00    -0.233 N 
ATOM     14  N   UNL     1       1.412   7.504  -0.553  1.00  0.00    -0.163 NA
ATOM     15  C   UNL     1       2.233   8.574  -0.620  1.00  0.00     0.167 A 
ATOM     16  C   UNL     1       3.386   8.281  -1.385  1.00  0.00     0.064 A 
BRANCH  13  17
ATOM     17  C   UNL     1       1.678   5.145  -1.045  1.00  0.00     0.065 A 
ATOM     18  C   UNL     1       0.879   2.487  -1.214  1.00  0.00     0.082 A 
ATOM     19  C   UNL     1       2.211   2.782  -0.927  1.00  0.00     0.024 A 
ATOM     20  C   UNL     1      -0.069   3.509  -1.356  1.00  0.00     0.024 A 
ATOM     21  C   UNL     1       2.609   4.113  -0.844  1.00  0.00     0.030 A 
ATOM     22  C   UNL     1       0.327   4.846  -1.249  1.00  0.00     0.030 A 
BRANCH  18  23
ATOM     23  S   UNL     1       0.398   0.800  -1.436  1.00  0.00     0.238 S 
ATOM     24  O   UNL     1       1.088   0.290  -2.607  1.00  0.00    -0.207 OA
ATOM     25  O   UNL     1      -1.018   0.684  -1.246  1.00  0.00    -0.207 OA
BRANCH  23  26
ATOM     26  N   UNL     1       1.096   0.027  -0.114  1.00  0.00    -0.225 NA
ATOM     27  H   UNL     1       0.876  -0.969  -0.147  1.00  0.00     0.137 HD
ATOM     28  H   UNL     1       0.728   0.429   0.748  1.00  0.00     0.137 HD
ENDBRANCH  23  26
ENDBRANCH  18  23
ENDBRANCH  13  17
BRANCH  15  29
ATOM     29  C   UNL     1       1.937   9.896   0.034  1.00  0.00     0.435 C 
ATOM     30  F   UNL     1       0.710  10.386  -0.280  1.00  0.00    -0.164 F 
ATOM     31  F   UNL     1       2.009   9.826   1.390  1.00  0.00    -0.164 F 
ATOM     32  F   UNL     1       2.837  10.851  -0.340  1.00  0.00    -0.164 F 
ENDBRANCH  15  29
ENDBRANCH   7  12
ENDBRANCH   3   6
ENDBRANCH   1   2
BRANCH   1  33
ATOM     33  C   UNL     1       9.473   4.097  -3.074  1.00  0.00     0.042 C 
BRANCH  33  34
ATOM     34  C   UNL     1      10.666   3.183  -3.272  1.00  0.00     0.118 C 
BRANCH  34  35
ATOM     35  N   UNL     1      11.859   3.913  -3.702  1.00  0.00    -0.352 N 
ATOM     36  C   UNL     1      13.019   3.422  -4.270  1.00  0.00     0.251 C 
ATOM     37  H   UNL     1      11.831   4.888  -3.569  1.00  0.00     0.163 HD
ATOM     38  O   UNL     1      14.047   4.089  -4.245  1.00  0.00    -0.269 OA
BRANCH  36  39
ATOM     39  C   UNL     1      12.999   2.082  -4.880  1.00  0.00     0.039 A 
ATOM     40  C   UNL     1      14.065   1.191  -4.729  1.00  0.00     0.014 A 
ATOM     41  C   UNL     1      11.848   1.698  -5.553  1.00  0.00     0.014 A 
ATOM     42  C   UNL     1      13.916  -0.119  -5.186  1.00  0.00     0.010 A 
ATOM     43  C   UNL     1      11.625   0.369  -5.789  1.00  0.00     0.010 A 
ATOM     44  C   UNL     1      12.678  -0.533  -5.699  1.00  0.00    -0.014 A 
BRANCH  44  45
ATOM     45  C   UNL     1      12.443  -1.915  -6.114  1.00  0.00     0.031 A 
ATOM     46  C   UNL     1      12.784  -2.968  -5.117  1.00  0.00     0.074 A 
ATOM     47  C   UNL     1      11.743  -2.229  -7.227  1.00  0.00     0.049 A 
ATOM     48  N   UNL     1      13.704  -3.873  -5.193  1.00  0.00    -0.248 NA
ATOM     49  C   UNL     1      12.075  -2.949  -3.828  1.00  0.00     0.031 C 
ATOM     50  C   UNL     1      11.039  -1.329  -8.154  1.00  0.00     0.029 A 
ATOM     51  N   UNL     1      11.403  -3.457  -7.697  1.00  0.00    -0.354 N 
ATOM     52  C   UNL     1      13.550  -4.676  -4.063  1.00  0.00     0.074 A 
ATOM     53  C   UNL     1      12.666  -3.956  -3.182  1.00  0.00     0.031 C 
ATOM     54  C   UNL     1      10.164  -2.037  -8.897  1.00  0.00     0.029 A 
ATOM     55  C   UNL     1      10.396  -3.446  -8.653  1.00  0.00     0.049 A 
ATOM     56  H   UNL     1      11.834  -4.286  -7.387  1.00  0.00     0.167 HD
ATOM     57  C   UNL     1      13.980  -5.970  -4.035  1.00  0.00     0.037 A 
ATOM     58  C   UNL     1       9.778  -4.518  -9.200  1.00  0.00     0.037 A 
ATOM     59  C   UNL     1      14.882  -6.246  -5.126  1.00  0.00     0.049 A 
ATOM     60  C   UNL     1      10.679  -5.680  -9.000  1.00  0.00     0.074 A 
ATOM     61  C   UNL     1      16.091  -5.724  -5.544  1.00  0.00     0.029 A 
ATOM     62  N   UNL     1      14.392  -6.948  -6.202  1.00  0.00    -0.354 N 
ATOM     63  N   UNL     1      11.855  -5.798  -9.556  1.00  0.00    -0.248 NA
ATOM     64  C   UNL     1      10.457  -6.521  -7.835  1.00  0.00     0.031 C 
ATOM     65  C   UNL     1      16.019  -5.719  -6.969  1.00  0.00     0.029 A 
ATOM     66  C   UNL     1      14.798  -6.290  -7.336  1.00  0.00     0.049 A 
ATOM     67  H   UNL     1      13.851  -7.769  -6.165  1.00  0.00     0.167 HD
ATOM     68  C   UNL     1      12.651  -6.394  -8.589  1.00  0.00     0.074 A 
ATOM     69  C   UNL     1      11.712  -6.915  -7.599  1.00  0.00     0.031 C 
ATOM     70  C   UNL     1      13.999  -6.170  -8.538  1.00  0.00     0.037 A 
BRANCH  57  71
ATOM     71  C   UNL     1      13.329  -7.079  -3.236  1.00  0.00     0.058 A 
ATOM     72  C   UNL     1      13.967  -8.334  -3.137  1.00  0.00     0.135 A 
ATOM     73  C   UNL     1      11.987  -7.048  -2.796  1.00  0.00     0.135 A 
ATOM     74  F   UNL     1      15.242  -8.486  -3.532  1.00  0.00    -0.206 F 
ATOM     75  C   UNL     1      13.300  -9.484  -2.709  1.00  0.00     0.059 A 
ATOM     76  C   UNL     1      11.320  -8.168  -2.311  1.00  0.00     0.059 A 
ATOM     77  F   UNL     1      11.222  -5.956  -2.910  1.00  0.00    -0.206 F 
ATOM     78  C   UNL     1      11.968  -9.392  -2.316  1.00  0.00     0.060 A 
BRANCH  78  79
ATOM     79  S   UNL     1      11.061 -10.888  -1.887  1.00  0.00     0.124 S 
ATOM     80  O   UNL     1      10.913 -11.518  -3.194  1.00  0.00    -0.237 OA
ATOM     81  O   UNL     1      11.975 -11.545  -0.959  1.00  0.00    -0.237 OA
ATOM     82  O   UNL     1       9.832 -10.374  -1.289  1.00  0.00    -0.744 OA
ENDBRANCH  78  79
ENDBRANCH  57  71
BRANCH  58  83
ATOM     83  C   UNL     1       8.355  -4.639  -9.599  1.00  0.00     0.058 A 
ATOM     84  C   UNL     1       7.918  -5.699 -10.408  1.00  0.00     0.135 A 
ATOM     85  C   UNL     1       7.348  -3.874  -8.973  1.00  0.00     0.135 A 
ATOM     86  F   UNL     1       8.811  -6.487 -11.026  1.00  0.00    -0.206 F 
ATOM     87  C   UNL     1       6.565  -6.020 -10.545  1.00  0.00     0.059 A 
ATOM     88  C   UNL     1       5.992  -4.167  -9.104  1.00  0.00     0.059 A 
ATOM     89  F   UNL     1       7.659  -2.873  -8.135  1.00  0.00    -0.206 F 
ATOM     90  C   UNL     1       5.609  -5.261  -9.870  1.00  0.00     0.060 A 
BRANCH  90  91
ATOM     91  S   UNL     1       3.881  -5.793  -9.892  1.00  0.00     0.124 S 
ATOM     92  O   UNL     1       3.496  -5.507 -11.270  1.00  0.00    -0.237 OA
ATOM     93  O   UNL     1       3.990  -7.205  -9.541  1.00  0.00    -0.237 OA
ATOM     94  O   UNL     1       3.253  -4.950  -8.879  1.00  0.00    -0.744 OA
ENDBRANCH  90  91
ENDBRANCH  58  83
BRANCH  70  95
ATOM     95  C   UNL     1      14.664  -5.519  -9.727  1.00  0.00     0.058 A 
ATOM     96  C   UNL     1      14.412  -4.205 -10.159  1.00  0.00     0.135 A 
ATOM     97  C   UNL     1      15.723  -6.199 -10.350  1.00  0.00     0.135 A 
ATOM     98  F   UNL     1      13.491  -3.445  -9.553  1.00  0.00    -0.206 F 
ATOM     99  C   UNL     1      15.151  -3.608 -11.182  1.00  0.00     0.059 A 
ATOM    100  C   UNL     1      16.494  -5.613 -11.352  1.00  0.00     0.059 A 
ATOM    101  F   UNL     1      16.058  -7.435  -9.943  1.00  0.00    -0.206 F 
ATOM    102  C   UNL     1      16.195  -4.319 -11.771  1.00  0.00     0.060 A 
BRANCH 102 103
ATOM    103  S   UNL     1      17.212  -3.510 -13.026  1.00  0.00     0.124 S 
ATOM    104  O   UNL     1      16.316  -3.481 -14.177  1.00  0.00    -0.237 OA
ATOM    105  O   UNL     1      17.502  -2.215 -12.416  1.00  0.00    -0.237 OA
ATOM    106  O   UNL     1      18.366  -4.398 -13.155  1.00  0.00    -0.744 OA
ENDBRANCH 102 103
ENDBRANCH  70  95
ENDBRANCH  44  45
ENDBRANCH  36  39
ENDBRANCH  34  35
ENDBRANCH  33  34
ENDBRANCH   1  33
TORSDOF 18
