REMARK SMILES Cc1nc(-c2ccc3c(c2)CCN3S(=O)(=O)c2ccc(F)c(C(=O)NCCCNC(=O)c3ccc(-c4c5nc(c(-c6c(F)cc(S(=O)(=O)[O-])cc6F)c6ccc([nH]6)c(-c6c(F)cc(S(=O)(=O)[O-])cc6F)c6nc(c(-c7c(F)cc(S(=O)(=O)[O-])cc7F)c7ccc4[nH]7)C=C6)C=C5)cc3)c2)cs1
REMARK SMILES IDX 27 1 26 2 25 3 23 4 24 5 22 7 17 8 18 9 98 10 19 11 20 12
REMARK SMILES IDX 21 13 14 14 15 15 16 16 13 17 5 18 6 19 10 20 7 21 9 22 8 23
REMARK SMILES IDX 11 24 12 25 4 26 1 27 2 28 3 29 100 30 99 31 28 32 29 33
REMARK SMILES IDX 30 34 31 36 32 37 33 38 97 39 34 40 96 41 35 42 36 43 37 44
REMARK SMILES IDX 90 45 38 46 95 47 89 48 91 49 39 50 94 51 88 52 87 53 40 55
REMARK SMILES IDX 74 56 53 57 73 58 54 59 57 60 72 61 92 62 55 63 56 64 71 66
REMARK SMILES IDX 93 67 58 68 41 69 42 70 51 71 43 72 44 73 50 74 52 75 45 76
REMARK SMILES IDX 46 77 47 78 48 79 49 80 75 81 76 82 85 83 77 84 78 85 84 86
REMARK SMILES IDX 86 87 79 88 80 89 81 90 82 91 83 92 59 93 60 94 69 95 61 96
REMARK SMILES IDX 62 97 68 98 70 99 63 100 64 101 65 102 66 103 67 104
REMARK H PARENT 25 6 29 35 91 54 57 65
REMARK Flexibility Score: inf
ROOT
ATOM      1  C   UNL     1      -0.328  -8.341  -6.890  1.00  0.00     0.042 C 
ENDROOT
BRANCH   1   2
ATOM      2  C   UNL     1      -0.672  -7.869  -5.479  1.00  0.00     0.118 C 
BRANCH   2   3
ATOM      3  N   UNL     1      -0.073  -8.710  -4.461  1.00  0.00    -0.352 N 
ATOM      4  C   UNL     1       1.001  -8.627  -3.623  1.00  0.00     0.254 C 
ATOM      5  O   UNL     1       1.068  -9.539  -2.790  1.00  0.00    -0.269 OA
ATOM      6  H   UNL     1      -0.566  -9.555  -4.345  1.00  0.00     0.163 HD
BRANCH   4   7
ATOM      7  C   UNL     1       2.074  -7.586  -3.593  1.00  0.00     0.076 A 
ATOM      8  C   UNL     1       4.062  -6.804  -2.389  1.00  0.00     0.089 A 
ATOM      9  C   UNL     1       4.251  -5.779  -3.316  1.00  0.00     0.025 A 
ATOM     10  C   UNL     1       3.022  -7.729  -2.548  1.00  0.00     0.039 A 
ATOM     11  C   UNL     1       3.322  -5.616  -4.332  1.00  0.00     0.041 A 
ATOM     12  C   UNL     1       2.248  -6.504  -4.463  1.00  0.00     0.136 A 
ATOM     13  F   UNL     1       1.423  -6.235  -5.474  1.00  0.00    -0.206 F 
BRANCH   8  14
ATOM     14  S   UNL     1       5.139  -6.856  -0.985  1.00  0.00     0.264 S 
ATOM     15  O   UNL     1       6.375  -6.222  -1.394  1.00  0.00    -0.201 OA
ATOM     16  O   UNL     1       5.164  -8.219  -0.486  1.00  0.00    -0.201 OA
BRANCH  14  17
ATOM     17  N   UNL     1       4.422  -5.895   0.236  1.00  0.00    -0.266 N 
ATOM     18  C   UNL     1       2.081  -2.383   0.066  1.00  0.00     0.001 A 
ATOM     19  C   UNL     1       1.776  -3.417  -0.832  1.00  0.00     0.012 A 
ATOM     20  C   UNL     1       3.136  -2.555   0.972  1.00  0.00     0.016 A 
ATOM     21  C   UNL     1       2.520  -4.601  -0.847  1.00  0.00     0.028 A 
ATOM     22  C   UNL     1       3.874  -3.738   0.926  1.00  0.00    -0.021 A 
ATOM     23  C   UNL     1       3.621  -4.731  -0.021  1.00  0.00     0.055 A 
ATOM     24  C   UNL     1       4.866  -4.211   1.940  1.00  0.00     0.060 C 
ATOM     25  C   UNL     1       5.430  -5.477   1.281  1.00  0.00     0.140 C 
BRANCH  18  26
ATOM     26  C   UNL     1       1.215  -1.217   0.098  1.00  0.00     0.081 A 
ATOM     27  C   UNL     1      -2.213   0.029  -0.010  1.00  0.00     0.079 C 
ATOM     28  C   UNL     1      -0.741  -0.181   0.046  1.00  0.00     0.090 A 
ATOM     29  N   UNL     1      -0.160  -1.360   0.013  1.00  0.00    -0.242 NA
ATOM     30  S   UNL     1       0.326   1.163   0.155  1.00  0.00    -0.127 S 
ATOM     31  C   UNL     1       1.664   0.086   0.172  1.00  0.00     0.095 A 
ENDBRANCH  18  26
ENDBRANCH  14  17
ENDBRANCH   8  14
ENDBRANCH   4   7
ENDBRANCH   2   3
ENDBRANCH   1   2
BRANCH   1  32
ATOM     32  C   UNL     1      -1.246  -9.469  -7.372  1.00  0.00     0.118 C 
BRANCH  32  33
ATOM     33  N   UNL     1      -2.646  -9.049  -7.442  1.00  0.00    -0.352 N 
ATOM     34  C   UNL     1      -3.456  -8.795  -8.521  1.00  0.00     0.251 C 
ATOM     35  H   UNL     1      -3.081  -8.929  -6.567  1.00  0.00     0.163 HD
ATOM     36  O   UNL     1      -4.511  -8.189  -8.356  1.00  0.00    -0.269 OA
BRANCH  34  37
ATOM     37  C   UNL     1      -3.063  -9.246  -9.870  1.00  0.00     0.039 A 
ATOM     38  C   UNL     1      -3.287  -8.407 -10.965  1.00  0.00     0.014 A 
ATOM     39  C   UNL     1      -2.493 -10.506 -10.055  1.00  0.00     0.014 A 
ATOM     40  C   UNL     1      -2.854  -8.800 -12.233  1.00  0.00     0.010 A 
ATOM     41  C   UNL     1      -1.982 -10.856 -11.298  1.00  0.00     0.010 A 
ATOM     42  C   UNL     1      -2.151 -10.004 -12.399  1.00  0.00    -0.014 A 
BRANCH  42  43
ATOM     43  C   UNL     1      -1.555 -10.387 -13.703  1.00  0.00     0.031 A 
ATOM     44  C   UNL     1      -1.992 -11.651 -14.390  1.00  0.00     0.074 A 
ATOM     45  C   UNL     1      -0.559  -9.640 -14.219  1.00  0.00     0.049 A 
ATOM     46  N   UNL     1      -1.509 -12.212 -15.467  1.00  0.00    -0.248 NA
ATOM     47  C   UNL     1      -3.100 -12.398 -13.770  1.00  0.00     0.031 C 
ATOM     48  C   UNL     1      -0.024  -8.414 -13.620  1.00  0.00     0.029 A 
ATOM     49  N   UNL     1       0.193  -9.804 -15.356  1.00  0.00    -0.354 N 
ATOM     50  C   UNL     1      -2.243 -13.378 -15.648  1.00  0.00     0.074 A 
ATOM     51  C   UNL     1      -3.165 -13.476 -14.539  1.00  0.00     0.031 C 
ATOM     52  C   UNL     1       0.945  -7.924 -14.408  1.00  0.00     0.029 A 
ATOM     53  C   UNL     1       1.142  -8.826 -15.538  1.00  0.00     0.049 A 
ATOM     54  H   UNL     1       0.064 -10.553 -15.982  1.00  0.00     0.167 HD
ATOM     55  C   UNL     1      -2.171 -14.270 -16.663  1.00  0.00     0.037 A 
ATOM     56  C   UNL     1       2.077  -8.678 -16.497  1.00  0.00     0.037 A 
ATOM     57  C   UNL     1      -1.264 -14.148 -17.774  1.00  0.00     0.049 A 
ATOM     58  C   UNL     1       2.162  -9.702 -17.595  1.00  0.00     0.074 A 
ATOM     59  C   UNL     1      -1.149 -14.970 -18.880  1.00  0.00     0.029 A 
ATOM     60  N   UNL     1      -0.317 -13.144 -17.920  1.00  0.00    -0.354 N 
ATOM     61  N   UNL     1       1.423 -10.770 -17.781  1.00  0.00    -0.248 NA
ATOM     62  C   UNL     1       3.206  -9.509 -18.611  1.00  0.00     0.031 C 
ATOM     63  C   UNL     1      -0.096 -14.496 -19.667  1.00  0.00     0.029 A 
ATOM     64  C   UNL     1       0.407 -13.344 -19.083  1.00  0.00     0.049 A 
ATOM     65  H   UNL     1      -0.180 -12.400 -17.290  1.00  0.00     0.167 HD
ATOM     66  C   UNL     1       1.899 -11.365 -18.944  1.00  0.00     0.074 A 
ATOM     67  C   UNL     1       2.980 -10.531 -19.427  1.00  0.00     0.031 C 
ATOM     68  C   UNL     1       1.478 -12.500 -19.554  1.00  0.00     0.037 A 
BRANCH  55  69
ATOM     69  C   UNL     1      -3.105 -15.449 -16.637  1.00  0.00     0.058 A 
ATOM     70  C   UNL     1      -2.609 -16.752 -16.469  1.00  0.00     0.135 A 
ATOM     71  C   UNL     1      -4.485 -15.297 -16.851  1.00  0.00     0.135 A 
ATOM     72  F   UNL     1      -1.300 -16.955 -16.254  1.00  0.00    -0.206 F 
ATOM     73  C   UNL     1      -3.444 -17.862 -16.535  1.00  0.00     0.059 A 
ATOM     74  C   UNL     1      -5.343 -16.392 -16.891  1.00  0.00     0.059 A 
ATOM     75  F   UNL     1      -5.015 -14.072 -16.997  1.00  0.00    -0.206 F 
ATOM     76  C   UNL     1      -4.810 -17.672 -16.748  1.00  0.00     0.060 A 
BRANCH  76  77
ATOM     77  S   UNL     1      -5.883 -19.123 -16.809  1.00  0.00     0.124 S 
ATOM     78  O   UNL     1      -5.456 -19.760 -18.050  1.00  0.00    -0.237 OA
ATOM     79  O   UNL     1      -5.524 -19.819 -15.578  1.00  0.00    -0.237 OA
ATOM     80  O   UNL     1      -7.226 -18.550 -16.826  1.00  0.00    -0.744 OA
ENDBRANCH  76  77
ENDBRANCH  55  69
BRANCH  56  81
ATOM     81  C   UNL     1       2.986  -7.500 -16.466  1.00  0.00     0.058 A 
ATOM     82  C   UNL     1       3.958  -7.351 -15.464  1.00  0.00     0.135 A 
ATOM     83  C   UNL     1       2.866  -6.474 -17.415  1.00  0.00     0.135 A 
ATOM     84  F   UNL     1       4.108  -8.297 -14.524  1.00  0.00    -0.206 F 
ATOM     85  C   UNL     1       4.756  -6.214 -15.386  1.00  0.00     0.059 A 
ATOM     86  C   UNL     1       3.672  -5.340 -17.375  1.00  0.00     0.059 A 
ATOM     87  F   UNL     1       1.959  -6.577 -18.399  1.00  0.00    -0.206 F 
ATOM     88  C   UNL     1       4.602  -5.211 -16.344  1.00  0.00     0.060 A 
BRANCH  88  89
ATOM     89  S   UNL     1       5.632  -3.735 -16.211  1.00  0.00     0.124 S 
ATOM     90  O   UNL     1       5.116  -3.128 -14.987  1.00  0.00    -0.237 OA
ATOM     91  O   UNL     1       6.972  -4.306 -16.120  1.00  0.00    -0.237 OA
ATOM     92  O   UNL     1       5.343  -3.007 -17.442  1.00  0.00    -0.744 OA
ENDBRANCH  88  89
ENDBRANCH  56  81
BRANCH  68  93
ATOM     93  C   UNL     1       2.170 -12.917 -20.822  1.00  0.00     0.058 A 
ATOM     94  C   UNL     1       1.490 -12.871 -22.050  1.00  0.00     0.135 A 
ATOM     95  C   UNL     1       3.458 -13.474 -20.804  1.00  0.00     0.135 A 
ATOM     96  F   UNL     1       0.254 -12.352 -22.122  1.00  0.00    -0.206 F 
ATOM     97  C   UNL     1       2.050 -13.396 -23.209  1.00  0.00     0.059 A 
ATOM     98  C   UNL     1       4.048 -13.979 -21.958  1.00  0.00     0.059 A 
ATOM     99  F   UNL     1       4.153 -13.529 -19.657  1.00  0.00    -0.206 F 
ATOM    100  C   UNL     1       3.326 -13.957 -23.151  1.00  0.00     0.060 A 
BRANCH 100 101
ATOM    101  S   UNL     1       4.023 -14.661 -24.660  1.00  0.00     0.124 S 
ATOM    102  O   UNL     1       3.159 -15.816 -24.879  1.00  0.00    -0.237 OA
ATOM    103  O   UNL     1       3.869 -13.563 -25.610  1.00  0.00    -0.237 OA
ATOM    104  O   UNL     1       5.400 -14.969 -24.287  1.00  0.00    -0.744 OA
ENDBRANCH 100 101
ENDBRANCH  68  93
ENDBRANCH  42  43
ENDBRANCH  34  37
ENDBRANCH  32  33
ENDBRANCH   1  32
TORSDOF 16
