REMARK SMILES C=CCc1cc([C@H]([NH3+])C(=O)NCCCNC(=O)c2ccc(-c3c4nc(c(-c5c(F)cc(S(=O)(=O)[O-])cc5F)c5ccc([nH]5)c(-c5c(F)cc(S(=O)(=O)[O-])cc5F)c5nc(c(-c6c(F)cc(S(=O)(=O)[O-])cc6F)c6ccc3[nH]6)C=C5)C=C4)cc2)cc(OC)c1OCC
REMARK SMILES IDX 13 1 12 2 11 3 9 4 10 5 7 7 6 8 4 9 5 10 88 11 85 12 84 13
REMARK SMILES IDX 3 14 2 15 1 16 89 17 90 18 91 19 86 20 87 21 8 22 14 26
REMARK SMILES IDX 15 27 16 28 17 30 18 31 19 32 83 33 20 34 82 35 21 36 22 37
REMARK SMILES IDX 23 38 76 39 24 40 81 41 75 42 77 43 25 44 80 45 74 46 73 47
REMARK SMILES IDX 26 49 60 50 39 51 59 52 40 53 43 54 58 55 78 56 41 57 42 58
REMARK SMILES IDX 57 60 79 61 44 62 27 63 28 64 37 65 29 66 30 67 36 68 38 69
REMARK SMILES IDX 31 70 32 71 33 72 34 73 35 74 61 75 62 76 71 77 63 78 64 79
REMARK SMILES IDX 70 80 72 81 65 82 66 83 67 84 68 85 69 86 45 87 46 88 55 89
REMARK SMILES IDX 47 90 48 91 54 92 56 93 49 94 50 95 51 96 52 97 53 98
REMARK H PARENT 11 6 8 23 8 24 8 25 15 29 77 48 43 59
REMARK Flexibility Score: inf
ROOT
ATOM      1  C   UNL     1      -2.765  -0.480  -2.273  1.00  0.00     0.042 C 
ENDROOT
BRANCH   1   2
ATOM      2  C   UNL     1      -3.933  -1.233  -1.669  1.00  0.00     0.118 C 
BRANCH   2   3
ATOM      3  N   UNL     1      -4.579  -2.176  -2.563  1.00  0.00    -0.351 N 
ATOM      4  C   UNL     1      -5.223  -3.346  -2.263  1.00  0.00     0.283 C 
ATOM      5  O   UNL     1      -5.909  -3.849  -3.163  1.00  0.00    -0.268 OA
ATOM      6  H   UNL     1      -4.550  -1.942  -3.519  1.00  0.00     0.163 HD
BRANCH   4   7
ATOM      7  C   UNL     1      -5.079  -4.069  -0.902  1.00  0.00     0.302 C 
BRANCH   7   8
ATOM      8  C   UNL     1      -5.981  -3.610   0.236  1.00  0.00     0.023 A 
ATOM      9  C   UNL     1      -7.287  -4.237   2.236  1.00  0.00     0.002 A 
ATOM     10  C   UNL     1      -6.702  -4.550   0.981  1.00  0.00     0.018 A 
ATOM     11  C   UNL     1      -7.156  -2.920   2.743  1.00  0.00     0.164 A 
ATOM     12  C   UNL     1      -6.520  -1.944   1.963  1.00  0.00     0.161 A 
ATOM     13  C   UNL     1      -5.973  -2.306   0.726  1.00  0.00     0.061 A 
BRANCH   9  14
ATOM     14  C   UNL     1      -7.833  -5.411   3.026  1.00  0.00     0.066 C 
BRANCH  14  15
ATOM     15  C   UNL     1      -9.263  -5.355   3.478  1.00  0.00    -0.030 C 
ATOM     16  C   UNL     1     -10.346  -5.305   2.691  1.00  0.00     0.004 C 
ENDBRANCH  14  15
ENDBRANCH   9  14
BRANCH  11  17
ATOM     17  O   UNL     1      -7.396  -2.657   4.061  1.00  0.00    -0.490 OA
BRANCH  17  18
ATOM     18  C   UNL     1      -8.728  -2.359   4.479  1.00  0.00     0.226 C 
ATOM     19  C   UNL     1      -9.733  -1.867   3.450  1.00  0.00     0.049 C 
ENDBRANCH  17  18
ENDBRANCH  11  17
BRANCH  12  20
ATOM     20  O   UNL     1      -6.261  -0.626   2.224  1.00  0.00    -0.493 OA
ATOM     21  C   UNL     1      -6.471  -0.086   3.512  1.00  0.00     0.278 C 
ENDBRANCH  12  20
ENDBRANCH   7   8
BRANCH   7  22
ATOM     22  N   UNL     1      -3.666  -4.124  -0.465  1.00  0.00    -0.343 N 
ATOM     23  H   UNL     1      -3.336  -3.181  -0.261  1.00  0.00     0.345 HD
ATOM     24  H   UNL     1      -3.096  -4.530  -1.208  1.00  0.00     0.345 HD
ATOM     25  H   UNL     1      -3.591  -4.699   0.374  1.00  0.00     0.345 HD
ENDBRANCH   7  22
ENDBRANCH   4   7
ENDBRANCH   2   3
ENDBRANCH   1   2
BRANCH   1  26
ATOM     26  C   UNL     1      -3.152   0.436  -3.423  1.00  0.00     0.118 C 
BRANCH  26  27
ATOM     27  N   UNL     1      -4.088   1.495  -3.049  1.00  0.00    -0.352 N 
ATOM     28  C   UNL     1      -3.921   2.857  -2.947  1.00  0.00     0.251 C 
ATOM     29  H   UNL     1      -4.995   1.178  -2.834  1.00  0.00     0.163 HD
ATOM     30  O   UNL     1      -4.831   3.546  -2.489  1.00  0.00    -0.269 OA
BRANCH  28  31
ATOM     31  C   UNL     1      -2.646   3.490  -3.345  1.00  0.00     0.039 A 
ATOM     32  C   UNL     1      -2.110   4.510  -2.554  1.00  0.00     0.014 A 
ATOM     33  C   UNL     1      -1.963   3.066  -4.483  1.00  0.00     0.014 A 
ATOM     34  C   UNL     1      -0.842   5.021  -2.848  1.00  0.00     0.010 A 
ATOM     35  C   UNL     1      -0.654   3.477  -4.696  1.00  0.00     0.010 A 
ATOM     36  C   UNL     1      -0.077   4.465  -3.885  1.00  0.00    -0.014 A 
BRANCH  36  37
ATOM     37  C   UNL     1       1.318   4.898  -4.162  1.00  0.00     0.031 A 
ATOM     38  C   UNL     1       1.680   5.422  -5.528  1.00  0.00     0.074 A 
ATOM     39  C   UNL     1       2.274   4.731  -3.224  1.00  0.00     0.049 A 
ATOM     40  N   UNL     1       2.857   5.709  -6.019  1.00  0.00    -0.248 NA
ATOM     41  C   UNL     1       0.575   5.606  -6.485  1.00  0.00     0.031 C 
ATOM     42  C   UNL     1       2.065   4.176  -1.884  1.00  0.00     0.029 A 
ATOM     43  N   UNL     1       3.620   4.999  -3.261  1.00  0.00    -0.354 N 
ATOM     44  C   UNL     1       2.637   6.077  -7.341  1.00  0.00     0.074 A 
ATOM     45  C   UNL     1       1.224   5.916  -7.597  1.00  0.00     0.031 C 
ATOM     46  C   UNL     1       3.232   4.171  -1.220  1.00  0.00     0.029 A 
ATOM     47  C   UNL     1       4.281   4.678  -2.097  1.00  0.00     0.049 A 
ATOM     48  H   UNL     1       4.071   5.384  -4.047  1.00  0.00     0.167 HD
ATOM     49  C   UNL     1       3.525   6.540  -8.252  1.00  0.00     0.037 A 
ATOM     50  C   UNL     1       5.587   4.773  -1.778  1.00  0.00     0.037 A 
ATOM     51  C   UNL     1       4.920   6.753  -7.975  1.00  0.00     0.049 A 
ATOM     52  C   UNL     1       6.550   5.316  -2.800  1.00  0.00     0.074 A 
ATOM     53  C   UNL     1       5.892   7.278  -8.807  1.00  0.00     0.029 A 
ATOM     54  N   UNL     1       5.539   6.464  -6.768  1.00  0.00    -0.354 N 
ATOM     55  N   UNL     1       6.313   5.708  -4.029  1.00  0.00    -0.248 NA
ATOM     56  C   UNL     1       7.957   5.435  -2.392  1.00  0.00     0.031 C 
ATOM     57  C   UNL     1       7.107   7.278  -8.114  1.00  0.00     0.029 A 
ATOM     58  C   UNL     1       6.882   6.793  -6.835  1.00  0.00     0.049 A 
ATOM     59  H   UNL     1       5.090   6.082  -5.979  1.00  0.00     0.167 HD
ATOM     60  C   UNL     1       7.533   6.149  -4.529  1.00  0.00     0.074 A 
ATOM     61  C   UNL     1       8.503   5.986  -3.467  1.00  0.00     0.031 C 
ATOM     62  C   UNL     1       7.826   6.643  -5.757  1.00  0.00     0.037 A 
BRANCH  49  63
ATOM     63  C   UNL     1       3.010   6.879  -9.624  1.00  0.00     0.058 A 
ATOM     64  C   UNL     1       2.179   7.990  -9.842  1.00  0.00     0.135 A 
ATOM     65  C   UNL     1       3.386   6.114 -10.740  1.00  0.00     0.135 A 
ATOM     66  F   UNL     1       1.772   8.744  -8.808  1.00  0.00    -0.206 F 
ATOM     67  C   UNL     1       1.721   8.317 -11.113  1.00  0.00     0.059 A 
ATOM     68  C   UNL     1       2.963   6.441 -12.025  1.00  0.00     0.059 A 
ATOM     69  F   UNL     1       4.176   5.039 -10.588  1.00  0.00    -0.206 F 
ATOM     70  C   UNL     1       2.122   7.539 -12.200  1.00  0.00     0.060 A 
BRANCH  70  71
ATOM     71  S   UNL     1       1.539   7.996 -13.846  1.00  0.00     0.124 S 
ATOM     72  O   UNL     1       0.138   7.592 -13.781  1.00  0.00    -0.237 OA
ATOM     73  O   UNL     1       1.783   9.434 -13.874  1.00  0.00    -0.237 OA
ATOM     74  O   UNL     1       2.380   7.203 -14.737  1.00  0.00    -0.744 OA
ENDBRANCH  70  71
ENDBRANCH  49  63
BRANCH  50  75
ATOM     75  C   UNL     1       6.063   4.367  -0.427  1.00  0.00     0.058 A 
ATOM     76  C   UNL     1       6.515   5.324   0.494  1.00  0.00     0.135 A 
ATOM     77  C   UNL     1       6.088   3.021  -0.033  1.00  0.00     0.135 A 
ATOM     78  F   UNL     1       6.514   6.625   0.163  1.00  0.00    -0.206 F 
ATOM     79  C   UNL     1       7.004   4.961   1.744  1.00  0.00     0.059 A 
ATOM     80  C   UNL     1       6.547   2.634   1.222  1.00  0.00     0.059 A 
ATOM     81  F   UNL     1       5.648   2.067  -0.868  1.00  0.00    -0.206 F 
ATOM     82  C   UNL     1       7.019   3.611   2.099  1.00  0.00     0.060 A 
BRANCH  82  83
ATOM     83  S   UNL     1       7.638   3.150   3.732  1.00  0.00     0.124 S 
ATOM     84  O   UNL     1       9.076   3.320   3.558  1.00  0.00    -0.237 OA
ATOM     85  O   UNL     1       6.980   4.123   4.597  1.00  0.00    -0.237 OA
ATOM     86  O   UNL     1       7.178   1.773   3.887  1.00  0.00    -0.744 OA
ENDBRANCH  82  83
ENDBRANCH  50  75
BRANCH  62  87
ATOM     87  C   UNL     1       9.239   7.088  -6.006  1.00  0.00     0.058 A 
ATOM     88  C   UNL     1      10.283   6.168  -6.179  1.00  0.00     0.135 A 
ATOM     89  C   UNL     1       9.538   8.455  -6.132  1.00  0.00     0.135 A 
ATOM     90  F   UNL     1      10.049   4.851  -6.063  1.00  0.00    -0.206 F 
ATOM     91  C   UNL     1      11.581   6.587  -6.449  1.00  0.00     0.059 A 
ATOM     92  C   UNL     1      10.823   8.895  -6.428  1.00  0.00     0.059 A 
ATOM     93  F   UNL     1       8.572   9.375  -5.987  1.00  0.00    -0.206 F 
ATOM     94  C   UNL     1      11.841   7.953  -6.574  1.00  0.00     0.060 A 
BRANCH  94  95
ATOM     95  S   UNL     1      13.522   8.482  -6.964  1.00  0.00     0.124 S 
ATOM     96  O   UNL     1      14.197   8.279  -5.686  1.00  0.00    -0.237 OA
ATOM     97  O   UNL     1      13.899   7.564  -8.034  1.00  0.00    -0.237 OA
ATOM     98  O   UNL     1      13.354   9.874  -7.371  1.00  0.00    -0.744 OA
ENDBRANCH  94  95
ENDBRANCH  62  87
ENDBRANCH  36  37
ENDBRANCH  28  31
ENDBRANCH  26  27
ENDBRANCH   1  26
TORSDOF 20
