REMARK SMILES Cc1nn(-c2ccc(C(=O)NCCCNC(=O)c3ccc(-c4c5nc(c(-c6c(F)cc(S(=O)(=O)[O-])cc6F)c6ccc([nH]6)c(-c6c(F)cc(S(=O)(=O)[O-])cc6F)c6nc(c(-c7c(F)cc(S(=O)(=O)[O-])cc7F)c7ccc4[nH]7)C=C6)C=C5)cc3)cc2)c2c1[C@@H](c1ccc[nH]c1=O)SCC(O)=N2
REMARK SMILES IDX 12 1 11 2 9 3 10 4 8 6 5 7 6 8 85 9 7 10 84 11 4 12 1 13
REMARK SMILES IDX 2 14 3 15 87 16 86 17 88 18 89 19 90 20 94 21 91 22 93 23
REMARK SMILES IDX 95 24 92 25 96 27 97 28 100 30 98 31 99 33 13 35 14 36 15 37
REMARK SMILES IDX 16 38 17 40 18 41 19 42 83 43 20 44 82 45 21 46 22 47 23 48
REMARK SMILES IDX 76 49 24 50 81 51 75 52 77 53 25 54 80 55 74 56 73 57 26 59
REMARK SMILES IDX 60 60 39 61 59 62 40 63 43 64 58 65 78 66 41 67 42 68 57 70
REMARK SMILES IDX 79 71 44 72 27 73 28 74 37 75 29 76 30 77 36 78 38 79 31 80
REMARK SMILES IDX 32 81 33 82 34 83 35 84 61 85 62 86 71 87 63 88 64 89 70 90
REMARK SMILES IDX 72 91 65 92 66 93 67 94 68 95 69 96 45 97 46 98 55 99 47 100
REMARK SMILES IDX 48 101 54 102 56 103 49 104 50 105 51 106 52 107 53 108
REMARK H PARENT 11 5 93 26 99 34 15 39 77 58 43 69
REMARK Flexibility Score: 90.00
ROOT
ATOM      1  C   UNL     1      -2.139  -2.236   9.097  1.00  0.00     0.118 C 
ENDROOT
BRANCH   1   2
ATOM      2  N   UNL     1      -2.766  -0.955   9.376  1.00  0.00    -0.352 N 
ATOM      3  C   UNL     1      -2.867   0.195   8.636  1.00  0.00     0.251 C 
ATOM      4  O   UNL     1      -3.549   1.112   9.093  1.00  0.00    -0.269 OA
ATOM      5  H   UNL     1      -3.197  -0.904  10.260  1.00  0.00     0.163 HD
BRANCH   3   6
ATOM      6  C   UNL     1      -2.231   0.361   7.298  1.00  0.00     0.039 A 
ATOM      7  C   UNL     1      -1.115   0.790   4.778  1.00  0.00     0.067 A 
ATOM      8  C   UNL     1      -2.147   1.623   5.224  1.00  0.00     0.029 A 
ATOM      9  C   UNL     1      -0.640  -0.249   5.563  1.00  0.00     0.029 A 
ATOM     10  C   UNL     1      -2.722   1.385   6.473  1.00  0.00     0.016 A 
ATOM     11  C   UNL     1      -1.156  -0.406   6.841  1.00  0.00     0.016 A 
BRANCH   7  12
ATOM     12  N   UNL     1      -0.398   1.088   3.606  1.00  0.00    -0.215 N 
ATOM     13  C   UNL     1       1.242  -0.097   0.717  1.00  0.00     0.069 C 
ATOM     14  C   UNL     1       0.689   0.730   1.825  1.00  0.00     0.067 A 
ATOM     15  N   UNL     1      -0.038   0.110   2.752  1.00  0.00    -0.171 NA
ATOM     16  C   UNL     1       0.830   2.142   2.087  1.00  0.00     0.038 A 
ATOM     17  C   UNL     1       0.196   2.309   3.314  1.00  0.00     0.164 A 
BRANCH  16  18
ATOM     18  C   UNL     1       1.618   3.121   1.240  1.00  0.00     0.118 C 
BRANCH  18  19
ATOM     19  C   UNL     1       1.219   3.111  -0.226  1.00  0.00     0.035 A 
ATOM     20  C   UNL     1       0.039   2.699  -0.736  1.00  0.00     0.012 A 
ATOM     21  C   UNL     1       2.289   3.525  -1.197  1.00  0.00     0.252 A 
ATOM     22  C   UNL     1      -0.178   2.581  -2.158  1.00  0.00     0.018 A 
ATOM     23  N   UNL     1       1.968   3.440  -2.531  1.00  0.00    -0.329 N 
ATOM     24  O   UNL     1       3.400   3.901  -0.842  1.00  0.00    -0.269 OA
ATOM     25  C   UNL     1       0.781   2.958  -3.009  1.00  0.00     0.086 A 
ATOM     26  H   UNL     1       2.636   3.746  -3.185  1.00  0.00     0.169 HD
ENDBRANCH  18  19
BRANCH  18  27
ATOM     27  S   UNL     1       1.652   4.883   1.787  1.00  0.00    -0.139 SA
BRANCH  27  28
ATOM     28  C   UNL     1       0.021   5.061   2.537  1.00  0.00     0.167 CG0
ATOM     29  G   UNL     1       0.104   4.519   3.931  1.00  0.00     0.000 G0
ENDBRANCH  27  28
ENDBRANCH  18  27
ENDBRANCH  16  18
BRANCH  17  30
ATOM     30  N   UNL     1       0.174   3.281   4.262  1.00  0.00    -0.197 NA
ATOM     31  C   UNL     1       0.104   4.519   3.931  1.00  0.00     0.197 CG0
ATOM     32  G   UNL     1       0.021   5.061   2.537  1.00  0.00     0.000 G0
BRANCH  31  33
ATOM     33  O   UNL     1       0.130   5.426   4.924  1.00  0.00    -0.496 OA
ATOM     34  H   UNL     1       0.081   6.340   4.726  1.00  0.00     0.295 HD
ENDBRANCH  31  33
ENDBRANCH  17  30
ENDBRANCH   7  12
ENDBRANCH   3   6
ENDBRANCH   1   2
BRANCH   1  35
ATOM     35  C   UNL     1      -0.699  -2.297   9.630  1.00  0.00     0.042 C 
BRANCH  35  36
ATOM     36  C   UNL     1      -0.663  -2.735  11.078  1.00  0.00     0.118 C 
BRANCH  36  37
ATOM     37  N   UNL     1      -1.056  -4.139  11.223  1.00  0.00    -0.352 N 
ATOM     38  C   UNL     1      -1.245  -4.877  12.378  1.00  0.00     0.251 C 
ATOM     39  H   UNL     1      -1.208  -4.626  10.380  1.00  0.00     0.163 HD
ATOM     40  O   UNL     1      -1.235  -6.094  12.347  1.00  0.00    -0.269 OA
BRANCH  38  41
ATOM     41  C   UNL     1      -1.463  -4.150  13.639  1.00  0.00     0.039 A 
ATOM     42  C   UNL     1      -0.922  -4.591  14.850  1.00  0.00     0.014 A 
ATOM     43  C   UNL     1      -2.200  -2.974  13.574  1.00  0.00     0.014 A 
ATOM     44  C   UNL     1      -1.083  -3.793  15.979  1.00  0.00     0.010 A 
ATOM     45  C   UNL     1      -2.146  -2.091  14.609  1.00  0.00     0.010 A 
ATOM     46  C   UNL     1      -1.690  -2.537  15.840  1.00  0.00    -0.014 A 
BRANCH  46  47
ATOM     47  C   UNL     1      -1.784  -1.594  16.942  1.00  0.00     0.031 A 
ATOM     48  C   UNL     1      -0.464  -1.206  17.501  1.00  0.00     0.074 A 
ATOM     49  C   UNL     1      -2.936  -0.939  17.211  1.00  0.00     0.049 A 
ATOM     50  N   UNL     1       0.032  -1.530  18.648  1.00  0.00    -0.248 NA
ATOM     51  C   UNL     1       0.510  -0.561  16.601  1.00  0.00     0.031 C 
ATOM     52  C   UNL     1      -4.210  -0.999  16.480  1.00  0.00     0.029 A 
ATOM     53  N   UNL     1      -3.171   0.045  18.118  1.00  0.00    -0.354 N 
ATOM     54  C   UNL     1       1.257  -0.874  18.720  1.00  0.00     0.074 A 
ATOM     55  C   UNL     1       1.604  -0.544  17.365  1.00  0.00     0.031 C 
ATOM     56  C   UNL     1      -4.969   0.071  16.799  1.00  0.00     0.029 A 
ATOM     57  C   UNL     1      -4.319   0.798  17.869  1.00  0.00     0.049 A 
ATOM     58  H   UNL     1      -2.579   0.213  18.887  1.00  0.00     0.167 HD
ATOM     59  C   UNL     1       1.718  -0.385  19.907  1.00  0.00     0.037 A 
ATOM     60  C   UNL     1      -4.643   1.977  18.465  1.00  0.00     0.037 A 
ATOM     61  C   UNL     1       0.982  -0.961  21.012  1.00  0.00     0.049 A 
ATOM     62  C   UNL     1      -3.850   2.038  19.729  1.00  0.00     0.074 A 
ATOM     63  C   UNL     1       0.706  -2.255  21.417  1.00  0.00     0.029 A 
ATOM     64  N   UNL     1       0.043  -0.172  21.637  1.00  0.00    -0.354 N 
ATOM     65  N   UNL     1      -4.013   1.203  20.724  1.00  0.00    -0.248 NA
ATOM     66  C   UNL     1      -2.541   2.673  19.661  1.00  0.00     0.031 C 
ATOM     67  C   UNL     1      -0.664  -2.229  21.812  1.00  0.00     0.029 A 
ATOM     68  C   UNL     1      -1.110  -0.908  21.736  1.00  0.00     0.049 A 
ATOM     69  H   UNL     1       0.175   0.751  21.955  1.00  0.00     0.167 HD
ATOM     70  C   UNL     1      -2.725   0.879  21.133  1.00  0.00     0.074 A 
ATOM     71  C   UNL     1      -1.861   1.859  20.474  1.00  0.00     0.031 C 
ATOM     72  C   UNL     1      -2.436  -0.327  21.711  1.00  0.00     0.037 A 
BRANCH  59  73
ATOM     73  C   UNL     1       2.519   0.894  20.059  1.00  0.00     0.058 A 
ATOM     74  C   UNL     1       2.985   1.250  21.343  1.00  0.00     0.135 A 
ATOM     75  C   UNL     1       2.610   1.914  19.084  1.00  0.00     0.135 A 
ATOM     76  F   UNL     1       2.964   0.362  22.350  1.00  0.00    -0.206 F 
ATOM     77  C   UNL     1       3.405   2.543  21.658  1.00  0.00     0.059 A 
ATOM     78  C   UNL     1       3.076   3.193  19.364  1.00  0.00     0.059 A 
ATOM     79  F   UNL     1       2.172   1.764  17.831  1.00  0.00    -0.206 F 
ATOM     80  C   UNL     1       3.427   3.513  20.662  1.00  0.00     0.060 A 
BRANCH  80  81
ATOM     81  S   UNL     1       3.868   5.205  21.084  1.00  0.00     0.124 S 
ATOM     82  O   UNL     1       2.731   5.605  21.904  1.00  0.00    -0.237 OA
ATOM     83  O   UNL     1       5.133   5.018  21.787  1.00  0.00    -0.237 OA
ATOM     84  O   UNL     1       3.972   5.858  19.782  1.00  0.00    -0.744 OA
ENDBRANCH  80  81
ENDBRANCH  59  73
BRANCH  60  85
ATOM     85  C   UNL     1      -5.239   3.180  17.811  1.00  0.00     0.058 A 
ATOM     86  C   UNL     1      -5.686   4.283  18.563  1.00  0.00     0.135 A 
ATOM     87  C   UNL     1      -5.141   3.391  16.419  1.00  0.00     0.135 A 
ATOM     88  F   UNL     1      -5.794   4.187  19.897  1.00  0.00    -0.206 F 
ATOM     89  C   UNL     1      -5.971   5.527  17.978  1.00  0.00     0.059 A 
ATOM     90  C   UNL     1      -5.430   4.614  15.813  1.00  0.00     0.059 A 
ATOM     91  F   UNL     1      -4.670   2.436  15.603  1.00  0.00    -0.206 F 
ATOM     92  C   UNL     1      -5.820   5.688  16.601  1.00  0.00     0.060 A 
BRANCH  92  93
ATOM     93  S   UNL     1      -6.017   7.327  15.857  1.00  0.00     0.124 S 
ATOM     94  O   UNL     1      -7.452   7.552  15.994  1.00  0.00    -0.237 OA
ATOM     95  O   UNL     1      -5.159   8.154  16.697  1.00  0.00    -0.237 OA
ATOM     96  O   UNL     1      -5.545   7.137  14.487  1.00  0.00    -0.744 OA
ENDBRANCH  92  93
ENDBRANCH  60  85
BRANCH  72  97
ATOM     97  C   UNL     1      -3.563  -1.218  22.172  1.00  0.00     0.058 A 
ATOM     98  C   UNL     1      -4.553  -1.773  21.340  1.00  0.00     0.135 A 
ATOM     99  C   UNL     1      -3.526  -1.672  23.501  1.00  0.00     0.135 A 
ATOM    100  F   UNL     1      -4.595  -1.484  20.032  1.00  0.00    -0.206 F 
ATOM    101  C   UNL     1      -5.486  -2.698  21.819  1.00  0.00     0.059 A 
ATOM    102  C   UNL     1      -4.421  -2.617  23.990  1.00  0.00     0.059 A 
ATOM    103  F   UNL     1      -2.567  -1.234  24.334  1.00  0.00    -0.206 F 
ATOM    104  C   UNL     1      -5.411  -3.114  23.148  1.00  0.00     0.060 A 
BRANCH 104 105
ATOM    105  S   UNL     1      -6.584  -4.343  23.762  1.00  0.00     0.124 S 
ATOM    106  O   UNL     1      -7.837  -3.595  23.764  1.00  0.00    -0.237 OA
ATOM    107  O   UNL     1      -6.481  -5.406  22.766  1.00  0.00    -0.237 OA
ATOM    108  O   UNL     1      -6.062  -4.686  25.082  1.00  0.00    -0.744 OA
ENDBRANCH 104 105
ENDBRANCH  72  97
ENDBRANCH  46  47
ENDBRANCH  38  41
ENDBRANCH  36  37
ENDBRANCH  35  36
ENDBRANCH   1  35
TORSDOF 16
