REMARK SMILES O=C(NCCCNC(=O)[C@H](CO)NC(=O)[C@H](CS)NC(=O)[C@H](Cc1c[nH]c2ccccc12)NC(=O)c1ccc(F)cc1)c1ccc(-c2c3nc(c(-c4c(F)cc(S(=O)(=O)[O-])cc4F)c4ccc([nH]4)c(-c4c(F)cc(S(=O)(=O)[O-])cc4F)c4nc(c(-c5c(F)cc(S(=O)(=O)[O-])cc5F)c5ccc2[nH]5)C=C4)C=C3)cc1
REMARK SMILES IDX 7 1 8 2 9 3 6 5 5 6 4 7 3 8 1 9 2 10 43 12 44 13 108 14
REMARK SMILES IDX 45 15 107 16 46 17 47 18 48 19 101 20 49 21 106 22 100 23
REMARK SMILES IDX 102 24 50 25 105 26 99 27 98 28 51 30 85 31 64 32 84 33
REMARK SMILES IDX 65 34 68 35 83 36 103 37 66 38 67 39 82 41 104 42 69 43
REMARK SMILES IDX 52 44 53 45 62 46 54 47 55 48 61 49 63 50 56 51 57 52 58 53
REMARK SMILES IDX 59 54 60 55 86 56 87 57 96 58 88 59 89 60 95 61 97 62 90 63
REMARK SMILES IDX 91 64 92 65 93 66 94 67 70 68 71 69 80 70 72 71 73 72 79 73
REMARK SMILES IDX 81 74 74 75 75 76 76 77 77 78 78 79 10 80 13 81 14 82 15 84
REMARK SMILES IDX 16 85 19 86 20 87 21 89 22 90 33 91 34 92 35 94 36 95 37 96
REMARK SMILES IDX 42 97 38 98 41 99 39 100 40 101 23 102 24 103 25 104 32 105
REMARK SMILES IDX 26 106 27 107 31 108 28 110 30 111 29 112 17 113 18 114
REMARK SMILES IDX 11 116 12 117
REMARK H PARENT 7 4 3 11 102 29 68 40 13 83 19 88 33 93 26 109 18 115 12 118
REMARK Flexibility Score: inf
ROOT
ATOM      1  N   UNL     1       1.730  -5.463   7.409  1.00  0.00    -0.354 N 
ATOM      2  C   UNL     1       2.762  -4.664   7.037  1.00  0.00     0.244 C 
ATOM      3  O   UNL     1       2.364  -3.481   7.045  1.00  0.00    -0.273 OA
ATOM      4  H   UNL     1       0.885  -4.960   7.406  1.00  0.00     0.163 HD
ENDROOT
BRANCH   1   5
ATOM      5  C   UNL     1       1.503  -6.832   7.808  1.00  0.00     0.117 C 
BRANCH   5   6
ATOM      6  C   UNL     1       1.173  -6.961   9.285  1.00  0.00     0.042 C 
BRANCH   6   7
ATOM      7  C   UNL     1      -0.130  -6.281   9.669  1.00  0.00     0.118 C 
BRANCH   7   8
ATOM      8  N   UNL     1      -1.272  -6.847   8.965  1.00  0.00    -0.352 N 
ATOM      9  O   UNL     1      -2.950  -8.285   8.564  1.00  0.00    -0.269 OA
ATOM     10  C   UNL     1      -2.222  -7.742   9.390  1.00  0.00     0.251 C 
ATOM     11  H   UNL     1      -1.379  -6.540   8.036  1.00  0.00     0.163 HD
BRANCH  10  12
ATOM     12  C   UNL     1      -2.355  -8.060  10.826  1.00  0.00     0.039 A 
ATOM     13  C   UNL     1      -2.246  -7.057  11.791  1.00  0.00     0.014 A 
ATOM     14  C   UNL     1      -2.628  -9.375  11.213  1.00  0.00     0.014 A 
ATOM     15  C   UNL     1      -2.241  -7.387  13.139  1.00  0.00     0.010 A 
ATOM     16  C   UNL     1      -2.738  -9.687  12.570  1.00  0.00     0.010 A 
ATOM     17  C   UNL     1      -2.518  -8.700  13.543  1.00  0.00    -0.014 A 
BRANCH  17  18
ATOM     18  C   UNL     1      -2.649  -9.013  14.987  1.00  0.00     0.031 A 
ATOM     19  C   UNL     1      -1.726  -9.996  15.646  1.00  0.00     0.074 A 
ATOM     20  C   UNL     1      -3.623  -8.408  15.695  1.00  0.00     0.049 A 
ATOM     21  N   UNL     1      -1.751 -10.452  16.871  1.00  0.00    -0.248 NA
ATOM     22  C   UNL     1      -0.637 -10.545  14.823  1.00  0.00     0.031 C 
ATOM     23  C   UNL     1      -4.566  -7.423  15.157  1.00  0.00     0.029 A 
ATOM     24  N   UNL     1      -3.984  -8.525  17.012  1.00  0.00    -0.354 N 
ATOM     25  C   UNL     1      -0.703 -11.360  16.961  1.00  0.00     0.074 A 
ATOM     26  C   UNL     1      -0.074 -11.407  15.658  1.00  0.00     0.031 C 
ATOM     27  C   UNL     1      -5.374  -7.004  16.140  1.00  0.00     0.029 A 
ATOM     28  C   UNL     1      -5.065  -7.749  17.355  1.00  0.00     0.049 A 
ATOM     29  H   UNL     1      -3.515  -9.110  17.651  1.00  0.00     0.167 HD
ATOM     30  C   UNL     1      -0.305 -12.081  18.036  1.00  0.00     0.037 A 
ATOM     31  C   UNL     1      -5.759  -7.667  18.506  1.00  0.00     0.037 A 
ATOM     32  C   UNL     1      -0.944 -12.012  19.326  1.00  0.00     0.049 A 
ATOM     33  C   UNL     1      -5.338  -8.518  19.666  1.00  0.00     0.074 A 
ATOM     34  C   UNL     1      -0.605 -12.683  20.488  1.00  0.00     0.029 A 
ATOM     35  N   UNL     1      -2.057 -11.236  19.623  1.00  0.00    -0.354 N 
ATOM     36  N   UNL     1      -4.340  -9.366  19.740  1.00  0.00    -0.248 NA
ATOM     37  C   UNL     1      -6.134  -8.413  20.895  1.00  0.00     0.031 C 
ATOM     38  C   UNL     1      -1.546 -12.360  21.469  1.00  0.00     0.029 A 
ATOM     39  C   UNL     1      -2.433 -11.434  20.942  1.00  0.00     0.049 A 
ATOM     40  H   UNL     1      -2.511 -10.634  18.990  1.00  0.00     0.167 HD
ATOM     41  C   UNL     1      -4.371  -9.879  21.030  1.00  0.00     0.074 A 
ATOM     42  C   UNL     1      -5.487  -9.245  21.703  1.00  0.00     0.031 C 
ATOM     43  C   UNL     1      -3.543 -10.787  21.602  1.00  0.00     0.037 A 
BRANCH  30  44
ATOM     44  C   UNL     1       0.853 -13.027  17.862  1.00  0.00     0.058 A 
ATOM     45  C   UNL     1       0.651 -14.416  17.929  1.00  0.00     0.135 A 
ATOM     46  C   UNL     1       2.166 -12.569  17.668  1.00  0.00     0.135 A 
ATOM     47  F   UNL     1      -0.583 -14.913  18.110  1.00  0.00    -0.206 F 
ATOM     48  C   UNL     1       1.707 -15.314  17.816  1.00  0.00     0.059 A 
ATOM     49  C   UNL     1       3.234 -13.450  17.522  1.00  0.00     0.059 A 
ATOM     50  F   UNL     1       2.415 -11.252  17.577  1.00  0.00    -0.206 F 
ATOM     51  C   UNL     1       2.996 -14.821  17.607  1.00  0.00     0.060 A 
BRANCH  51  52
ATOM     52  S   UNL     1       4.345 -16.002  17.395  1.00  0.00     0.124 S 
ATOM     53  O   UNL     1       4.478 -16.552  18.740  1.00  0.00    -0.237 OA
ATOM     54  O   UNL     1       3.802 -16.908  16.387  1.00  0.00    -0.237 OA
ATOM     55  O   UNL     1       5.455 -15.168  16.943  1.00  0.00    -0.744 OA
ENDBRANCH  51  52
ENDBRANCH  30  44
BRANCH  31  56
ATOM     56  C   UNL     1      -6.912  -6.733  18.586  1.00  0.00     0.058 A 
ATOM     57  C   UNL     1      -8.082  -6.957  17.841  1.00  0.00     0.135 A 
ATOM     58  C   UNL     1      -6.821  -5.543  19.321  1.00  0.00     0.135 A 
ATOM     59  F   UNL     1      -8.210  -8.074  17.108  1.00  0.00    -0.206 F 
ATOM     60  C   UNL     1      -9.099  -6.012  17.783  1.00  0.00     0.059 A 
ATOM     61  C   UNL     1      -7.839  -4.594  19.300  1.00  0.00     0.059 A 
ATOM     62  F   UNL     1      -5.726  -5.290  20.053  1.00  0.00    -0.206 F 
ATOM     63  C   UNL     1      -8.963  -4.827  18.507  1.00  0.00     0.060 A 
BRANCH  63  64
ATOM     64  S   UNL     1     -10.266  -3.586  18.367  1.00  0.00     0.124 S 
ATOM     65  O   UNL     1     -10.133  -3.179  16.971  1.00  0.00    -0.237 OA
ATOM     66  O   UNL     1     -11.459  -4.359  18.693  1.00  0.00    -0.237 OA
ATOM     67  O   UNL     1      -9.882  -2.580  19.352  1.00  0.00    -0.744 OA
ENDBRANCH  63  64
ENDBRANCH  31  56
BRANCH  43  68
ATOM     68  C   UNL     1      -3.773 -11.139  23.045  1.00  0.00     0.058 A 
ATOM     69  C   UNL     1      -2.847 -10.739  24.022  1.00  0.00     0.135 A 
ATOM     70  C   UNL     1      -4.827 -11.976  23.442  1.00  0.00     0.135 A 
ATOM     71  F   UNL     1      -1.820  -9.938  23.694  1.00  0.00    -0.206 F 
ATOM     72  C   UNL     1      -2.932 -11.191  25.333  1.00  0.00     0.059 A 
ATOM     73  C   UNL     1      -4.948 -12.419  24.756  1.00  0.00     0.059 A 
ATOM     74  F   UNL     1      -5.747 -12.372  22.549  1.00  0.00    -0.206 F 
ATOM     75  C   UNL     1      -3.980 -12.042  25.688  1.00  0.00     0.060 A 
BRANCH  75  76
ATOM     76  S   UNL     1      -4.047 -12.655  27.384  1.00  0.00     0.124 S 
ATOM     77  O   UNL     1      -2.878 -13.527  27.433  1.00  0.00    -0.237 OA
ATOM     78  O   UNL     1      -3.952 -11.422  28.159  1.00  0.00    -0.237 OA
ATOM     79  O   UNL     1      -5.338 -13.333  27.450  1.00  0.00    -0.744 OA
ENDBRANCH  75  76
ENDBRANCH  43  68
ENDBRANCH  17  18
ENDBRANCH  10  12
ENDBRANCH   7   8
ENDBRANCH   6   7
ENDBRANCH   5   6
ENDBRANCH   1   5
BRANCH   2  80
ATOM     80  C   UNL     1       4.503  -5.165   6.787  1.00  0.00     0.197 C 
BRANCH  80  81
ATOM     81  N   UNL     1       4.099  -6.706   6.269  1.00  0.00    -0.340 N 
ATOM     82  C   UNL     1       4.252  -7.993   6.679  1.00  0.00     0.244 C 
ATOM     83  H   UNL     1       3.606  -6.668   5.418  1.00  0.00     0.164 HD
ATOM     84  O   UNL     1       3.942  -8.849   5.836  1.00  0.00    -0.273 OA
BRANCH  82  85
ATOM     85  C   UNL     1       4.778  -8.453   8.067  1.00  0.00     0.181 C 
BRANCH  85  86
ATOM     86  N   UNL     1       4.869  -7.452   9.138  1.00  0.00    -0.342 N 
ATOM     87  C   UNL     1       5.918  -6.788   9.694  1.00  0.00     0.243 C 
ATOM     88  H   UNL     1       3.998  -7.214   9.531  1.00  0.00     0.164 HD
ATOM     89  O   UNL     1       5.646  -5.977  10.586  1.00  0.00    -0.273 OA
BRANCH  87  90
ATOM     90  C   UNL     1       7.351  -6.858   9.133  1.00  0.00     0.176 C 
BRANCH  90  91
ATOM     91  N   UNL     1       7.723  -8.155   8.579  1.00  0.00    -0.340 N 
ATOM     92  C   UNL     1       8.184  -9.282   9.212  1.00  0.00     0.251 C 
ATOM     93  H   UNL     1       7.630  -8.234   7.603  1.00  0.00     0.164 HD
ATOM     94  O   UNL     1       8.312 -10.312   8.556  1.00  0.00    -0.269 OA
BRANCH  92  95
ATOM     95  C   UNL     1       8.676  -9.225  10.607  1.00  0.00     0.040 A 
ATOM     96  C   UNL     1       7.974  -8.639  11.667  1.00  0.00     0.017 A 
ATOM     97  C   UNL     1       9.961  -9.742  10.823  1.00  0.00     0.017 A 
ATOM     98  C   UNL     1       8.606  -8.458  12.899  1.00  0.00     0.040 A 
ATOM     99  C   UNL     1      10.580  -9.580  12.061  1.00  0.00     0.040 A 
ATOM    100  C   UNL     1       9.909  -8.913  13.078  1.00  0.00     0.123 A 
ATOM    101  F   UNL     1      10.531  -8.696  14.243  1.00  0.00    -0.207 F 
ENDBRANCH  92  95
ENDBRANCH  90  91
BRANCH  90 102
ATOM    102  C   UNL     1       7.596  -5.721   8.140  1.00  0.00     0.072 C 
BRANCH 102 103
ATOM    103  C   UNL     1       6.408  -5.225   7.364  1.00  0.00    -0.020 A 
ATOM    104  C   UNL     1       5.412  -3.789   7.801  1.00  0.00     0.087 A 
ATOM    105  C   UNL     1       5.965  -5.697   5.520  1.00  0.00     0.003 A 
ATOM    106  N   UNL     1       4.457  -3.294   6.285  1.00  0.00    -0.361 N 
ATOM    107  C   UNL     1       4.700  -4.557   4.962  1.00  0.00     0.046 A 
ATOM    108  C   UNL     1       6.454  -6.592   4.561  1.00  0.00     0.010 A 
ATOM    109  H   UNL     1       3.906  -2.482   6.200  1.00  0.00     0.166 HD
ATOM    110  C   UNL     1       4.173  -4.691   3.683  1.00  0.00     0.026 A 
ATOM    111  C   UNL     1       5.820  -6.577   3.299  1.00  0.00     0.001 A 
ATOM    112  C   UNL     1       4.754  -5.709   2.901  1.00  0.00     0.002 A 
ENDBRANCH 102 103
ENDBRANCH  90 102
ENDBRANCH  87  90
ENDBRANCH  85  86
BRANCH  85 113
ATOM    113  C   UNL     1       3.926  -9.644   8.585  1.00  0.00     0.101 C 
BRANCH 113 114
ATOM    114  S   UNL     1       4.406 -11.260   7.895  1.00  0.00    -0.177 SA
ATOM    115  H   UNL     1       4.224 -11.250   6.548  1.00  0.00     0.102 HD
ENDBRANCH 113 114
ENDBRANCH  85 113
ENDBRANCH  82  85
ENDBRANCH  80  81
BRANCH  80 116
ATOM    116  C   UNL     1       6.203  -3.857   6.017  1.00  0.00     0.191 C 
BRANCH 116 117
ATOM    117  O   UNL     1       6.229  -2.939   4.730  1.00  0.00    -0.394 OA
ATOM    118  H   UNL     1       6.272  -3.495   3.937  1.00  0.00     0.210 HD
ENDBRANCH 116 117
ENDBRANCH  80 116
ENDBRANCH   2  80
TORSDOF 25
