REMARK SMILES O=C(NCCCNC(=O)c1ccccc1NC(=O)c1ccc(C[NH+]2CCOCC2)cc1)c1ccc(-c2c3nc(c(-c4c(F)cc(S(=O)(=O)[O-])cc4F)c4ccc([nH]4)c(-c4c(F)cc(S(=O)(=O)[O-])cc4F)c4nc(c(-c5c(F)cc(S(=O)(=O)[O-])cc5F)c5ccc2[nH]5)C=C4)C=C3)cc1
REMARK SMILES IDX 5 1 4 2 3 3 1 4 2 5 32 7 33 8 97 9 34 10 96 11 35 12 36 13
REMARK SMILES IDX 37 14 90 15 38 16 95 17 89 18 91 19 39 20 94 21 88 22 87 23
REMARK SMILES IDX 40 25 74 26 53 27 73 28 54 29 57 30 72 31 92 32 55 33 56 34
REMARK SMILES IDX 71 36 93 37 58 38 41 39 42 40 51 41 43 42 44 43 50 44 52 45
REMARK SMILES IDX 45 46 46 47 47 48 48 49 49 50 75 51 76 52 85 53 77 54 78 55
REMARK SMILES IDX 84 56 86 57 79 58 80 59 81 60 82 61 83 62 59 63 60 64 69 65
REMARK SMILES IDX 61 66 62 67 68 68 70 69 63 70 64 71 65 72 66 73 67 74 6 75
REMARK SMILES IDX 7 76 8 77 9 79 10 80 11 81 15 82 12 83 14 84 13 85 16 86
REMARK SMILES IDX 17 87 18 89 19 90 20 91 31 92 21 93 30 94 22 95 23 96 24 97
REMARK SMILES IDX 25 98 29 99 26 101 28 102 27 103
REMARK H PARENT 3 6 91 24 57 35 7 78 16 88 24 100
REMARK Flexibility Score: inf
ROOT
ATOM      1  C   UNL     1       5.180  -2.428  -0.149  1.00  0.00     0.042 C 
ENDROOT
BRANCH   1   2
ATOM      2  C   UNL     1       4.737  -1.081  -0.704  1.00  0.00     0.118 C 
BRANCH   2   3
ATOM      3  N   UNL     1       3.292  -0.888  -0.711  1.00  0.00    -0.352 N 
ATOM      4  O   UNL     1       1.290  -0.036  -0.126  1.00  0.00    -0.269 OA
ATOM      5  C   UNL     1       2.510   0.033  -0.047  1.00  0.00     0.251 C 
ATOM      6  H   UNL     1       2.795  -1.517  -1.282  1.00  0.00     0.163 HD
BRANCH   5   7
ATOM      7  C   UNL     1       3.141   1.072   0.798  1.00  0.00     0.039 A 
ATOM      8  C   UNL     1       4.271   1.761   0.363  1.00  0.00     0.014 A 
ATOM      9  C   UNL     1       2.607   1.339   2.063  1.00  0.00     0.014 A 
ATOM     10  C   UNL     1       4.993   2.534   1.264  1.00  0.00     0.010 A 
ATOM     11  C   UNL     1       3.272   2.215   2.929  1.00  0.00     0.010 A 
ATOM     12  C   UNL     1       4.506   2.771   2.560  1.00  0.00    -0.014 A 
BRANCH  12  13
ATOM     13  C   UNL     1       5.311   3.605   3.493  1.00  0.00     0.031 A 
ATOM     14  C   UNL     1       5.848   3.039   4.783  1.00  0.00     0.074 A 
ATOM     15  C   UNL     1       5.615   4.870   3.136  1.00  0.00     0.049 A 
ATOM     16  N   UNL     1       6.616   3.611   5.677  1.00  0.00    -0.248 NA
ATOM     17  C   UNL     1       5.470   1.658   5.124  1.00  0.00     0.031 C 
ATOM     18  C   UNL     1       5.143   5.538   1.920  1.00  0.00     0.029 A 
ATOM     19  N   UNL     1       6.418   5.806   3.735  1.00  0.00    -0.354 N 
ATOM     20  C   UNL     1       6.782   2.680   6.697  1.00  0.00     0.074 A 
ATOM     21  C   UNL     1       6.021   1.508   6.321  1.00  0.00     0.031 C 
ATOM     22  C   UNL     1       5.721   6.743   1.826  1.00  0.00     0.029 A 
ATOM     23  C   UNL     1       6.553   6.962   3.003  1.00  0.00     0.049 A 
ATOM     24  H   UNL     1       6.857   5.664   4.605  1.00  0.00     0.167 HD
ATOM     25  C   UNL     1       7.507   2.789   7.837  1.00  0.00     0.037 A 
ATOM     26  C   UNL     1       7.263   8.079   3.249  1.00  0.00     0.037 A 
ATOM     27  C   UNL     1       8.296   3.942   8.188  1.00  0.00     0.049 A 
ATOM     28  C   UNL     1       8.080   8.162   4.505  1.00  0.00     0.074 A 
ATOM     29  C   UNL     1       9.096   4.133   9.303  1.00  0.00     0.029 A 
ATOM     30  N   UNL     1       8.392   5.098   7.428  1.00  0.00    -0.354 N 
ATOM     31  N   UNL     1       8.236   7.262   5.446  1.00  0.00    -0.248 NA
ATOM     32  C   UNL     1       8.814   9.413   4.735  1.00  0.00     0.031 C 
ATOM     33  C   UNL     1       9.649   5.416   9.232  1.00  0.00     0.029 A 
ATOM     34  C   UNL     1       9.228   6.010   8.053  1.00  0.00     0.049 A 
ATOM     35  H   UNL     1       7.934   5.250   6.569  1.00  0.00     0.167 HD
ATOM     36  C   UNL     1       9.101   7.831   6.373  1.00  0.00     0.074 A 
ATOM     37  C   UNL     1       9.446   9.146   5.870  1.00  0.00     0.031 C 
ATOM     38  C   UNL     1       9.565   7.312   7.536  1.00  0.00     0.037 A 
BRANCH  25  39
ATOM     39  C   UNL     1       7.469   1.635   8.803  1.00  0.00     0.058 A 
ATOM     40  C   UNL     1       8.137   0.428   8.545  1.00  0.00     0.135 A 
ATOM     41  C   UNL     1       6.782   1.754  10.023  1.00  0.00     0.135 A 
ATOM     42  F   UNL     1       8.796   0.254   7.388  1.00  0.00    -0.206 F 
ATOM     43  C   UNL     1       8.103  -0.630   9.448  1.00  0.00     0.059 A 
ATOM     44  C   UNL     1       6.754   0.717  10.952  1.00  0.00     0.059 A 
ATOM     45  F   UNL     1       6.128   2.887  10.322  1.00  0.00    -0.206 F 
ATOM     46  C   UNL     1       7.405  -0.478  10.648  1.00  0.00     0.060 A 
BRANCH  46  47
ATOM     47  S   UNL     1       7.365  -1.861  11.808  1.00  0.00     0.124 S 
ATOM     48  O   UNL     1       6.410  -2.755  11.160  1.00  0.00    -0.237 OA
ATOM     49  O   UNL     1       8.753  -2.312  11.808  1.00  0.00    -0.237 OA
ATOM     50  O   UNL     1       6.908  -1.248  13.052  1.00  0.00    -0.744 OA
ENDBRANCH  46  47
ENDBRANCH  25  39
BRANCH  26  51
ATOM     51  C   UNL     1       7.239   9.197   2.272  1.00  0.00     0.058 A 
ATOM     52  C   UNL     1       8.362   9.493   1.487  1.00  0.00     0.135 A 
ATOM     53  C   UNL     1       6.081   9.966   2.078  1.00  0.00     0.135 A 
ATOM     54  F   UNL     1       9.492   8.786   1.639  1.00  0.00    -0.206 F 
ATOM     55  C   UNL     1       8.345  10.521   0.550  1.00  0.00     0.059 A 
ATOM     56  C   UNL     1       6.030  10.982   1.129  1.00  0.00     0.059 A 
ATOM     57  F   UNL     1       4.974   9.707   2.791  1.00  0.00    -0.206 F 
ATOM     58  C   UNL     1       7.171  11.258   0.377  1.00  0.00     0.060 A 
BRANCH  58  59
ATOM     59  S   UNL     1       7.135  12.552  -0.882  1.00  0.00     0.124 S 
ATOM     60  O   UNL     1       7.865  13.625  -0.219  1.00  0.00    -0.237 OA
ATOM     61  O   UNL     1       7.816  11.912  -2.003  1.00  0.00    -0.237 OA
ATOM     62  O   UNL     1       5.707  12.784  -1.079  1.00  0.00    -0.744 OA
ENDBRANCH  58  59
ENDBRANCH  26  51
BRANCH  38  63
ATOM     63  C   UNL     1      10.526   8.157   8.323  1.00  0.00     0.058 A 
ATOM     64  C   UNL     1      10.097   9.279   9.048  1.00  0.00     0.135 A 
ATOM     65  C   UNL     1      11.889   7.827   8.365  1.00  0.00     0.135 A 
ATOM     66  F   UNL     1       8.804   9.639   9.033  1.00  0.00    -0.206 F 
ATOM     67  C   UNL     1      10.993  10.065   9.764  1.00  0.00     0.059 A 
ATOM     68  C   UNL     1      12.800   8.585   9.093  1.00  0.00     0.059 A 
ATOM     69  F   UNL     1      12.348   6.757   7.695  1.00  0.00    -0.206 F 
ATOM     70  C   UNL     1      12.344   9.713   9.777  1.00  0.00     0.060 A 
BRANCH  70  71
ATOM     71  S   UNL     1      13.501  10.731  10.717  1.00  0.00     0.124 S 
ATOM     72  O   UNL     1      13.685  11.868   9.820  1.00  0.00    -0.237 OA
ATOM     73  O   UNL     1      12.757  11.005  11.943  1.00  0.00    -0.237 OA
ATOM     74  O   UNL     1      14.662   9.862  10.877  1.00  0.00    -0.744 OA
ENDBRANCH  70  71
ENDBRANCH  38  63
ENDBRANCH  12  13
ENDBRANCH   5   7
ENDBRANCH   2   3
ENDBRANCH   1   2
BRANCH   1  75
ATOM     75  C   UNL     1       4.719  -3.630  -0.956  1.00  0.00     0.118 C 
BRANCH  75  76
ATOM     76  N   UNL     1       5.123  -3.554  -2.354  1.00  0.00    -0.352 N 
ATOM     77  C   UNL     1       5.915  -4.384  -3.102  1.00  0.00     0.253 C 
ATOM     78  H   UNL     1       4.768  -2.776  -2.843  1.00  0.00     0.163 HD
ATOM     79  O   UNL     1       6.293  -4.016  -4.211  1.00  0.00    -0.269 OA
BRANCH  77  80
ATOM     80  C   UNL     1       6.298  -5.731  -2.627  1.00  0.00     0.063 A 
ATOM     81  C   UNL     1       7.660  -6.059  -2.732  1.00  0.00     0.016 A 
ATOM     82  C   UNL     1       5.360  -6.689  -2.192  1.00  0.00     0.054 A 
ATOM     83  C   UNL     1       8.104  -7.337  -2.404  1.00  0.00     0.001 A 
ATOM     84  C   UNL     1       5.823  -7.985  -1.932  1.00  0.00     0.027 A 
ATOM     85  C   UNL     1       7.183  -8.302  -2.017  1.00  0.00     0.002 A 
BRANCH  82  86
ATOM     86  N   UNL     1       4.002  -6.320  -2.068  1.00  0.00    -0.321 N 
ATOM     87  C   UNL     1       2.953  -6.833  -1.344  1.00  0.00     0.255 C 
ATOM     88  H   UNL     1       3.757  -5.536  -2.611  1.00  0.00     0.170 HD
ATOM     89  O   UNL     1       1.838  -6.322  -1.432  1.00  0.00    -0.269 OA
BRANCH  87  90
ATOM     90  C   UNL     1       3.129  -7.973  -0.435  1.00  0.00     0.040 A 
ATOM     91  C   UNL     1       2.393  -9.125  -0.713  1.00  0.00     0.014 A 
ATOM     92  C   UNL     1       4.022  -7.932   0.641  1.00  0.00     0.014 A 
ATOM     93  C   UNL     1       2.595 -10.267   0.053  1.00  0.00     0.010 A 
ATOM     94  C   UNL     1       4.225  -9.084   1.403  1.00  0.00     0.010 A 
ATOM     95  C   UNL     1       3.506 -10.258   1.123  1.00  0.00     0.006 A 
BRANCH  95  96
ATOM     96  C   UNL     1       3.687 -11.497   1.966  1.00  0.00     0.299 C 
BRANCH  96  97
ATOM     97  N   UNL     1       2.822 -11.637   3.136  1.00  0.00    -0.327 N 
ATOM     98  C   UNL     1       1.377 -11.687   2.873  1.00  0.00     0.291 C 
ATOM     99  C   UNL     1       3.131 -10.751   4.268  1.00  0.00     0.291 C 
ATOM    100  H   UNL     1       3.080 -12.579   3.433  1.00  0.00     0.348 HD
ATOM    101  C   UNL     1       0.645 -10.336   2.963  1.00  0.00     0.221 C 
ATOM    102  C   UNL     1       2.327  -9.440   4.326  1.00  0.00     0.221 C 
ATOM    103  O   UNL     1       0.921  -9.687   4.208  1.00  0.00    -0.370 OA
ENDBRANCH  96  97
ENDBRANCH  95  96
ENDBRANCH  87  90
ENDBRANCH  82  86
ENDBRANCH  77  80
ENDBRANCH  75  76
ENDBRANCH   1  75
TORSDOF 17
