REMARK SMILES CC1(C)[C@@](C)(C(=O)NCCCNC(=O)c2ccc(-c3c4nc(c(-c5c(F)cc(S(=O)(=O)[O-])cc5F)c5ccc([nH]5)c(-c5c(F)cc(S(=O)(=O)[O-])cc5F)c5nc(c(-c6c(F)cc(S(=O)(=O)[O-])cc6F)c6ccc3[nH]6)C=C5)C=C4)cc2)CC[C@]1(C)C(=O)Nc1ccc(Cl)cc1Cl
REMARK SMILES IDX 10 1 9 2 8 3 6 4 7 5 4 7 1 8 2 9 3 10 83 11 5 12 81 13 82 14
REMARK SMILES IDX 84 15 85 16 86 17 87 18 88 20 89 21 94 22 90 23 93 24 95 25
REMARK SMILES IDX 91 26 92 27 11 28 12 29 13 30 14 32 15 33 16 34 80 35 17 36
REMARK SMILES IDX 79 37 18 38 19 39 20 40 73 41 21 42 78 43 72 44 74 45 22 46
REMARK SMILES IDX 77 47 71 48 70 49 23 51 57 52 36 53 56 54 37 55 40 56 55 57
REMARK SMILES IDX 75 58 38 59 39 60 54 62 76 63 41 64 24 65 25 66 34 67 26 68
REMARK SMILES IDX 27 69 33 70 35 71 28 72 29 73 30 74 31 75 32 76 58 77 59 78
REMARK SMILES IDX 68 79 60 80 61 81 67 82 69 83 62 84 63 85 64 86 65 87 66 88
REMARK SMILES IDX 42 89 43 90 52 91 44 92 45 93 51 94 53 95 46 96 47 97 48 98
REMARK SMILES IDX 49 99 50 100
REMARK H PARENT 8 6 87 19 12 31 74 50 40 61
REMARK Flexibility Score: inf
ROOT
ATOM      1  C   UNL     1      -0.422  -1.885   2.047  1.00  0.00     0.042 C 
ENDROOT
BRANCH   1   2
ATOM      2  C   UNL     1      -1.454  -1.681   0.926  1.00  0.00     0.117 C 
BRANCH   2   3
ATOM      3  N   UNL     1      -1.911  -0.299   0.765  1.00  0.00    -0.356 N 
ATOM      4  C   UNL     1      -1.829   0.660  -0.203  1.00  0.00     0.226 C 
ATOM      5  O   UNL     1      -2.447   1.699   0.063  1.00  0.00    -0.274 OA
ATOM      6  H   UNL     1      -2.402   0.020   1.556  1.00  0.00     0.163 HD
BRANCH   4   7
ATOM      7  C   UNL     1      -1.057   0.516  -1.559  1.00  0.00     0.052 C 
ATOM      8  C   UNL     1       1.026  -0.141  -0.262  1.00  0.00     0.013 C 
ATOM      9  C   UNL     1       0.527   0.587  -1.488  1.00  0.00    -0.007 C 
ATOM     10  C   UNL     1       1.125  -0.096  -2.748  1.00  0.00     0.013 C 
ATOM     11  C   UNL     1       0.922   2.126  -1.449  1.00  0.00     0.053 C 
ATOM     12  C   UNL     1      -1.638  -0.727  -2.277  1.00  0.00     0.022 C 
ATOM     13  C   UNL     1      -1.361   1.744  -2.465  1.00  0.00     0.018 C 
ATOM     14  C   UNL     1      -0.204   2.744  -2.342  1.00  0.00     0.018 C 
ATOM     15  C   UNL     1       0.800   2.816  -0.077  1.00  0.00     0.022 C 
BRANCH  11  16
ATOM     16  C   UNL     1       2.342   2.477  -2.066  1.00  0.00     0.230 C 
ATOM     17  O   UNL     1       2.414   3.189  -3.079  1.00  0.00    -0.274 OA
ATOM     18  N   UNL     1       3.553   1.996  -1.627  1.00  0.00    -0.324 N 
ATOM     19  H   UNL     1       4.284   2.130  -2.272  1.00  0.00     0.170 HD
BRANCH  18  20
ATOM     20  C   UNL     1       3.959   1.353  -0.447  1.00  0.00     0.060 A 
ATOM     21  C   UNL     1       3.942   2.053   0.761  1.00  0.00     0.029 A 
ATOM     22  C   UNL     1       4.432   0.023  -0.455  1.00  0.00     0.066 A 
ATOM     23  C   UNL     1       4.219   1.392   1.962  1.00  0.00     0.023 A 
ATOM     24  C   UNL     1       4.636  -0.658   0.751  1.00  0.00     0.043 A 
ATOM     25  Cl  UNL     1       4.613  -0.878  -1.918  1.00  0.00    -0.082 Cl
ATOM     26  C   UNL     1       4.502   0.027   1.955  1.00  0.00     0.042 A 
ATOM     27  Cl  UNL     1       4.647  -0.822   3.443  1.00  0.00    -0.084 Cl
ENDBRANCH  18  20
ENDBRANCH  11  16
ENDBRANCH   4   7
ENDBRANCH   2   3
ENDBRANCH   1   2
BRANCH   1  28
ATOM     28  C   UNL     1      -0.913  -1.541   3.445  1.00  0.00     0.118 C 
BRANCH  28  29
ATOM     29  N   UNL     1      -1.470  -2.706   4.105  1.00  0.00    -0.352 N 
ATOM     30  C   UNL     1      -0.916  -3.532   5.054  1.00  0.00     0.251 C 
ATOM     31  H   UNL     1      -2.386  -2.942   3.830  1.00  0.00     0.163 HD
ATOM     32  O   UNL     1      -1.424  -4.637   5.232  1.00  0.00    -0.269 OA
BRANCH  30  33
ATOM     33  C   UNL     1       0.268  -3.127   5.859  1.00  0.00     0.039 A 
ATOM     34  C   UNL     1       1.164  -4.120   6.273  1.00  0.00     0.014 A 
ATOM     35  C   UNL     1       0.457  -1.815   6.302  1.00  0.00     0.014 A 
ATOM     36  C   UNL     1       2.243  -3.798   7.106  1.00  0.00     0.010 A 
ATOM     37  C   UNL     1       1.581  -1.479   7.061  1.00  0.00     0.010 A 
ATOM     38  C   UNL     1       2.470  -2.470   7.500  1.00  0.00    -0.014 A 
BRANCH  38  39
ATOM     39  C   UNL     1       3.592  -2.114   8.414  1.00  0.00     0.031 A 
ATOM     40  C   UNL     1       3.305  -1.534   9.778  1.00  0.00     0.074 A 
ATOM     41  C   UNL     1       4.869  -2.277   8.015  1.00  0.00     0.049 A 
ATOM     42  N   UNL     1       4.142  -1.110  10.692  1.00  0.00    -0.248 NA
ATOM     43  C   UNL     1       1.890  -1.385  10.152  1.00  0.00     0.031 C 
ATOM     44  C   UNL     1       5.288  -2.794   6.712  1.00  0.00     0.029 A 
ATOM     45  N   UNL     1       6.051  -2.018   8.664  1.00  0.00    -0.354 N 
ATOM     46  C   UNL     1       3.357  -0.629  11.735  1.00  0.00     0.074 A 
ATOM     47  C   UNL     1       1.978  -0.764  11.319  1.00  0.00     0.031 C 
ATOM     48  C   UNL     1       6.629  -2.834   6.665  1.00  0.00     0.029 A 
ATOM     49  C   UNL     1       7.168  -2.317   7.920  1.00  0.00     0.049 A 
ATOM     50  H   UNL     1       6.096  -1.651   9.577  1.00  0.00     0.167 HD
ATOM     51  C   UNL     1       3.745  -0.143  12.940  1.00  0.00     0.037 A 
ATOM     52  C   UNL     1       8.477  -2.188   8.210  1.00  0.00     0.037 A 
ATOM     53  C   UNL     1       5.116  -0.043  13.369  1.00  0.00     0.049 A 
ATOM     54  C   UNL     1       8.886  -1.657   9.557  1.00  0.00     0.074 A 
ATOM     55  C   UNL     1       5.608   0.383  14.591  1.00  0.00     0.029 A 
ATOM     56  N   UNL     1       6.215  -0.378  12.592  1.00  0.00    -0.354 N 
ATOM     57  N   UNL     1       8.128  -1.252  10.548  1.00  0.00    -0.248 NA
ATOM     58  C   UNL     1      10.328  -1.572   9.829  1.00  0.00     0.031 C 
ATOM     59  C   UNL     1       7.005   0.340  14.540  1.00  0.00     0.029 A 
ATOM     60  C   UNL     1       7.383  -0.154  13.301  1.00  0.00     0.049 A 
ATOM     61  H   UNL     1       6.171  -0.723  11.671  1.00  0.00     0.167 HD
ATOM     62  C   UNL     1       9.000  -0.890  11.570  1.00  0.00     0.074 A 
ATOM     63  C   UNL     1      10.341  -1.133  11.080  1.00  0.00     0.031 C 
ATOM     64  C   UNL     1       8.713  -0.405  12.804  1.00  0.00     0.037 A 
BRANCH  51  65
ATOM     65  C   UNL     1       2.664   0.314  13.884  1.00  0.00     0.058 A 
ATOM     66  C   UNL     1       1.796  -0.597  14.508  1.00  0.00     0.135 A 
ATOM     67  C   UNL     1       2.504   1.677  14.181  1.00  0.00     0.135 A 
ATOM     68  F   UNL     1       1.896  -1.911  14.251  1.00  0.00    -0.206 F 
ATOM     69  C   UNL     1       0.781  -0.170  15.359  1.00  0.00     0.059 A 
ATOM     70  C   UNL     1       1.514   2.124  15.053  1.00  0.00     0.059 A 
ATOM     71  F   UNL     1       3.308   2.592  13.618  1.00  0.00    -0.206 F 
ATOM     72  C   UNL     1       0.644   1.193  15.621  1.00  0.00     0.060 A 
BRANCH  72  73
ATOM     73  S   UNL     1      -0.686   1.738  16.713  1.00  0.00     0.124 S 
ATOM     74  O   UNL     1      -1.852   1.591  15.842  1.00  0.00    -0.237 OA
ATOM     75  O   UNL     1      -0.600   0.779  17.814  1.00  0.00    -0.237 OA
ATOM     76  O   UNL     1      -0.319   3.104  17.045  1.00  0.00    -0.744 OA
ENDBRANCH  72  73
ENDBRANCH  51  65
BRANCH  52  77
ATOM     77  C   UNL     1       9.498  -2.607   7.214  1.00  0.00     0.058 A 
ATOM     78  C   UNL     1      10.257  -3.771   7.407  1.00  0.00     0.135 A 
ATOM     79  C   UNL     1       9.717  -1.871   6.039  1.00  0.00     0.135 A 
ATOM     80  F   UNL     1      10.089  -4.503   8.519  1.00  0.00    -0.206 F 
ATOM     81  C   UNL     1      11.202  -4.188   6.476  1.00  0.00     0.059 A 
ATOM     82  C   UNL     1      10.640  -2.280   5.082  1.00  0.00     0.059 A 
ATOM     83  F   UNL     1       9.007  -0.757   5.801  1.00  0.00    -0.206 F 
ATOM     84  C   UNL     1      11.383  -3.438   5.313  1.00  0.00     0.060 A 
BRANCH  84  85
ATOM     85  S   UNL     1      12.564  -4.024   4.079  1.00  0.00     0.124 S 
ATOM     86  O   UNL     1      13.836  -3.700   4.713  1.00  0.00    -0.237 OA
ATOM     87  O   UNL     1      12.236  -5.443   3.989  1.00  0.00    -0.237 OA
ATOM     88  O   UNL     1      12.229  -3.236   2.895  1.00  0.00    -0.744 OA
ENDBRANCH  84  85
ENDBRANCH  52  77
BRANCH  64  89
ATOM     89  C   UNL     1       9.870  -0.133  13.725  1.00  0.00     0.058 A 
ATOM     90  C   UNL     1      10.720   0.968  13.538  1.00  0.00     0.135 A 
ATOM     91  C   UNL     1      10.101  -0.959  14.837  1.00  0.00     0.135 A 
ATOM     92  F   UNL     1      10.545   1.785  12.487  1.00  0.00    -0.206 F 
ATOM     93  C   UNL     1      11.775   1.227  14.407  1.00  0.00     0.059 A 
ATOM     94  C   UNL     1      11.134  -0.705  15.733  1.00  0.00     0.059 A 
ATOM     95  F   UNL     1       9.310  -2.019  15.068  1.00  0.00    -0.206 F 
ATOM     96  C   UNL     1      11.974   0.384  15.503  1.00  0.00     0.060 A 
BRANCH  96  97
ATOM     97  S   UNL     1      13.329   0.747  16.640  1.00  0.00     0.124 S 
ATOM     98  O   UNL     1      14.485   0.300  15.872  1.00  0.00    -0.237 OA
ATOM     99  O   UNL     1      13.208   2.190  16.823  1.00  0.00    -0.237 OA
ATOM    100  O   UNL     1      13.007  -0.056  17.817  1.00  0.00    -0.744 OA
ENDBRANCH  96  97
ENDBRANCH  64  89
ENDBRANCH  38  39
ENDBRANCH  30  33
ENDBRANCH  28  29
ENDBRANCH   1  28
TORSDOF 15
