REMARK SMILES C[C@@H](NC(=O)N1CC[N@@H+]2CCCC[C@H]2C1)C(=O)NCCCNC(=O)c1ccc(-c2c3nc(c(-c4c(F)cc(S(=O)(=O)[O-])cc4F)c4ccc([nH]4)c(-c4c(F)cc(S(=O)(=O)[O-])cc4F)c4nc(c(-c5c(F)cc(S(=O)(=O)[O-])cc5F)c5ccc2[nH]5)C=C4)C=C3)cc1
REMARK SMILES IDX 20 1 19 2 18 3 16 4 17 5 2 7 1 8 3 9 4 10 5 12 6 13 7 14
REMARK SMILES IDX 15 15 8 16 14 17 9 18 13 19 10 20 12 22 11 23 21 24 22 25
REMARK SMILES IDX 23 26 24 28 25 29 26 30 90 31 27 32 89 33 28 34 29 35 30 36
REMARK SMILES IDX 83 37 31 38 88 39 82 40 84 41 32 42 87 43 81 44 80 45 33 47
REMARK SMILES IDX 67 48 46 49 66 50 47 51 50 52 65 53 85 54 48 55 49 56 64 58
REMARK SMILES IDX 86 59 51 60 34 61 35 62 44 63 36 64 37 65 43 66 45 67 38 68
REMARK SMILES IDX 39 69 40 70 41 71 42 72 68 73 69 74 78 75 70 76 71 77 77 78
REMARK SMILES IDX 79 79 72 80 73 81 74 82 75 83 76 84 52 85 53 86 62 87 54 88
REMARK SMILES IDX 55 89 61 90 63 91 56 92 57 93 58 94 59 95 60 96
REMARK H PARENT 18 6 3 11 9 21 22 27 84 46 50 57
REMARK Flexibility Score: inf
ROOT
ATOM      1  C   UNL     1      -0.556   2.035   2.700  1.00  0.00     0.042 C 
ENDROOT
BRANCH   1   2
ATOM      2  C   UNL     1      -0.350   0.640   2.123  1.00  0.00     0.117 C 
BRANCH   2   3
ATOM      3  N   UNL     1      -0.854   0.522   0.767  1.00  0.00    -0.354 N 
ATOM      4  C   UNL     1      -0.545  -0.401  -0.186  1.00  0.00     0.242 C 
ATOM      5  O   UNL     1      -1.041  -0.248  -1.309  1.00  0.00    -0.273 OA
ATOM      6  H   UNL     1      -1.510   1.205   0.498  1.00  0.00     0.163 HD
BRANCH   4   7
ATOM      7  C   UNL     1       0.518  -1.494   0.035  1.00  0.00     0.170 C 
ATOM      8  C   UNL     1       1.876  -0.853  -0.280  1.00  0.00     0.041 C 
BRANCH   7   9
ATOM      9  N   UNL     1       0.564  -2.127   1.349  1.00  0.00    -0.326 N 
ATOM     10  C   UNL     1      -0.368  -2.721   2.123  1.00  0.00     0.318 C 
ATOM     11  H   UNL     1       1.461  -2.119   1.755  1.00  0.00     0.166 HD
ATOM     12  O   UNL     1       0.012  -3.112   3.229  1.00  0.00    -0.249 OA
BRANCH  10  13
ATOM     13  N   UNL     1      -1.683  -2.696   1.773  1.00  0.00    -0.313 N 
ATOM     14  C   UNL     1      -2.266  -3.110   0.499  1.00  0.00     0.183 C 
ATOM     15  C   UNL     1      -2.680  -2.557   2.834  1.00  0.00     0.186 C 
ATOM     16  C   UNL     1      -3.449  -2.211   0.074  1.00  0.00     0.284 C 
ATOM     17  C   UNL     1      -3.730  -1.512   2.405  1.00  0.00     0.203 C 
ATOM     18  N   UNL     1      -4.422  -1.893   1.147  1.00  0.00    -0.330 N 
ATOM     19  C   UNL     1      -4.762  -1.286   3.514  1.00  0.00     0.067 C 
ATOM     20  C   UNL     1      -5.303  -0.793   0.705  1.00  0.00     0.262 C 
ATOM     21  H   UNL     1      -4.980  -2.726   1.333  1.00  0.00     0.348 HD
ATOM     22  C   UNL     1      -5.709  -0.157   3.123  1.00  0.00     0.012 C 
ATOM     23  C   UNL     1      -6.344  -0.425   1.764  1.00  0.00     0.062 C 
ENDBRANCH  10  13
ENDBRANCH   7   9
ENDBRANCH   4   7
ENDBRANCH   2   3
ENDBRANCH   1   2
BRANCH   1  24
ATOM     24  C   UNL     1      -2.004   2.348   3.063  1.00  0.00     0.118 C 
BRANCH  24  25
ATOM     25  N   UNL     1      -2.497   1.593   4.208  1.00  0.00    -0.352 N 
ATOM     26  C   UNL     1      -3.452   1.963   5.129  1.00  0.00     0.251 C 
ATOM     27  H   UNL     1      -2.095   0.704   4.340  1.00  0.00     0.163 HD
ATOM     28  O   UNL     1      -3.714   1.224   6.074  1.00  0.00    -0.269 OA
BRANCH  26  29
ATOM     29  C   UNL     1      -4.112   3.281   5.009  1.00  0.00     0.039 A 
ATOM     30  C   UNL     1      -4.135   4.113   6.131  1.00  0.00     0.014 A 
ATOM     31  C   UNL     1      -4.625   3.729   3.788  1.00  0.00     0.014 A 
ATOM     32  C   UNL     1      -4.559   5.436   5.999  1.00  0.00     0.010 A 
ATOM     33  C   UNL     1      -4.995   5.062   3.643  1.00  0.00     0.010 A 
ATOM     34  C   UNL     1      -4.928   5.934   4.739  1.00  0.00    -0.014 A 
BRANCH  34  35
ATOM     35  C   UNL     1      -5.127   7.386   4.525  1.00  0.00     0.031 A 
ATOM     36  C   UNL     1      -6.477   7.934   4.177  1.00  0.00     0.074 A 
ATOM     37  C   UNL     1      -4.045   8.190   4.558  1.00  0.00     0.049 A 
ATOM     38  N   UNL     1      -6.822   9.170   3.926  1.00  0.00    -0.248 NA
ATOM     39  C   UNL     1      -7.580   6.966   4.071  1.00  0.00     0.031 C 
ATOM     40  C   UNL     1      -2.670   7.745   4.806  1.00  0.00     0.029 A 
ATOM     41  N   UNL     1      -3.924   9.543   4.369  1.00  0.00    -0.354 N 
ATOM     42  C   UNL     1      -8.179   9.132   3.634  1.00  0.00     0.074 A 
ATOM     43  C   UNL     1      -8.584   7.744   3.690  1.00  0.00     0.031 C 
ATOM     44  C   UNL     1      -1.849   8.806   4.772  1.00  0.00     0.029 A 
ATOM     45  C   UNL     1      -2.632  10.001   4.477  1.00  0.00     0.049 A 
ATOM     46  H   UNL     1      -4.689  10.130   4.174  1.00  0.00     0.167 HD
ATOM     47  C   UNL     1      -9.011  10.167   3.365  1.00  0.00     0.037 A 
ATOM     48  C   UNL     1      -2.134  11.246   4.353  1.00  0.00     0.037 A 
ATOM     49  C   UNL     1      -8.591  11.544   3.319  1.00  0.00     0.049 A 
ATOM     50  C   UNL     1      -3.081  12.379   4.078  1.00  0.00     0.074 A 
ATOM     51  C   UNL     1      -9.363  12.674   3.115  1.00  0.00     0.029 A 
ATOM     52  N   UNL     1      -7.282  11.977   3.473  1.00  0.00    -0.354 N 
ATOM     53  N   UNL     1      -4.379  12.337   3.892  1.00  0.00    -0.248 NA
ATOM     54  C   UNL     1      -2.503  13.727   4.009  1.00  0.00     0.031 C 
ATOM     55  C   UNL     1      -8.515  13.788   3.112  1.00  0.00     0.029 A 
ATOM     56  C   UNL     1      -7.220  13.355   3.353  1.00  0.00     0.049 A 
ATOM     57  H   UNL     1      -6.509  11.391   3.644  1.00  0.00     0.167 HD
ATOM     58  C   UNL     1      -4.778  13.655   3.704  1.00  0.00     0.074 A 
ATOM     59  C   UNL     1      -3.584  14.470   3.812  1.00  0.00     0.031 C 
ATOM     60  C   UNL     1      -6.019  14.146   3.464  1.00  0.00     0.037 A 
BRANCH  47  61
ATOM     61  C   UNL     1     -10.457   9.846   3.109  1.00  0.00     0.058 A 
ATOM     62  C   UNL     1     -11.307   9.423   4.145  1.00  0.00     0.135 A 
ATOM     63  C   UNL     1     -11.009   9.984   1.826  1.00  0.00     0.135 A 
ATOM     64  F   UNL     1     -10.827   9.260   5.388  1.00  0.00    -0.206 F 
ATOM     65  C   UNL     1     -12.644   9.121   3.912  1.00  0.00     0.059 A 
ATOM     66  C   UNL     1     -12.351   9.710   1.575  1.00  0.00     0.059 A 
ATOM     67  F   UNL     1     -10.242  10.384   0.800  1.00  0.00    -0.206 F 
ATOM     68  C   UNL     1     -13.156   9.264   2.622  1.00  0.00     0.060 A 
BRANCH  68  69
ATOM     69  S   UNL     1     -14.893   8.864   2.334  1.00  0.00     0.124 S 
ATOM     70  O   UNL     1     -14.863   7.404   2.361  1.00  0.00    -0.237 OA
ATOM     71  O   UNL     1     -15.555   9.504   3.466  1.00  0.00    -0.237 OA
ATOM     72  O   UNL     1     -15.168   9.461   1.031  1.00  0.00    -0.744 OA
ENDBRANCH  68  69
ENDBRANCH  47  61
BRANCH  48  73
ATOM     73  C   UNL     1      -0.678  11.482   4.529  1.00  0.00     0.058 A 
ATOM     74  C   UNL     1      -0.185  12.107   5.683  1.00  0.00     0.135 A 
ATOM     75  C   UNL     1       0.251  11.056   3.567  1.00  0.00     0.135 A 
ATOM     76  F   UNL     1      -1.035  12.532   6.630  1.00  0.00    -0.206 F 
ATOM     77  C   UNL     1       1.177  12.316   5.873  1.00  0.00     0.059 A 
ATOM     78  C   UNL     1       1.620  11.234   3.744  1.00  0.00     0.059 A 
ATOM     79  F   UNL     1      -0.169  10.432   2.455  1.00  0.00    -0.206 F 
ATOM     80  C   UNL     1       2.073  11.873   4.898  1.00  0.00     0.060 A 
BRANCH  80  81
ATOM     81  S   UNL     1       3.843  12.094   5.181  1.00  0.00     0.124 S 
ATOM     82  O   UNL     1       4.007  13.519   4.915  1.00  0.00    -0.237 OA
ATOM     83  O   UNL     1       3.987  11.683   6.574  1.00  0.00    -0.237 OA
ATOM     84  O   UNL     1       4.451  11.194   4.205  1.00  0.00    -0.744 OA
ENDBRANCH  80  81
ENDBRANCH  48  73
BRANCH  60  85
ATOM     85  C   UNL     1      -6.148  15.635   3.323  1.00  0.00     0.058 A 
ATOM     86  C   UNL     1      -5.723  16.301   2.164  1.00  0.00     0.135 A 
ATOM     87  C   UNL     1      -6.744  16.396   4.341  1.00  0.00     0.135 A 
ATOM     88  F   UNL     1      -5.139  15.617   1.167  1.00  0.00    -0.206 F 
ATOM     89  C   UNL     1      -5.865  17.677   2.026  1.00  0.00     0.059 A 
ATOM     90  C   UNL     1      -6.917  17.770   4.215  1.00  0.00     0.059 A 
ATOM     91  F   UNL     1      -7.174  15.803   5.466  1.00  0.00    -0.206 F 
ATOM     92  C   UNL     1      -6.464  18.403   3.058  1.00  0.00     0.060 A 
BRANCH  92  93
ATOM     93  S   UNL     1      -6.676  20.185   2.855  1.00  0.00     0.124 S 
ATOM     94  O   UNL     1      -5.323  20.671   3.106  1.00  0.00    -0.237 OA
ATOM     95  O   UNL     1      -7.142  20.291   1.476  1.00  0.00    -0.237 OA
ATOM     96  O   UNL     1      -7.665  20.526   3.872  1.00  0.00    -0.744 OA
ENDBRANCH  92  93
ENDBRANCH  60  85
ENDBRANCH  34  35
ENDBRANCH  26  29
ENDBRANCH  24  25
ENDBRANCH   1  24
TORSDOF 15
