REMARK SMILES CC1(C)C(Nc2cc(C(=O)NCCCNC(=O)c3ccc(-c4c5nc(c(-c6c(F)cc(S(=O)(=O)[O-])cc6F)c6ccc([nH]6)c(-c6c(F)cc(S(=O)(=O)[O-])cc6F)c6nc(c(-c7c(F)cc(S(=O)(=O)[O-])cc7F)c7ccc4[nH]7)C=C6)C=C5)cc3)cc(Cl)n2)C1(C)C
REMARK SMILES IDX 13 1 12 2 11 3 9 4 10 5 8 7 6 8 7 9 87 10 85 11 84 12 86 13
REMARK SMILES IDX 5 14 4 16 1 17 2 18 3 19 88 20 89 21 90 22 14 23 15 24 16 25
REMARK SMILES IDX 17 27 18 28 19 29 83 30 20 31 82 32 21 33 22 34 23 35 76 36
REMARK SMILES IDX 24 37 81 38 75 39 77 40 25 41 80 42 74 43 73 44 26 46 60 47
REMARK SMILES IDX 39 48 59 49 40 50 43 51 58 52 78 53 41 54 42 55 57 57 79 58
REMARK SMILES IDX 44 59 27 60 28 61 37 62 29 63 30 64 36 65 38 66 31 67 32 68
REMARK SMILES IDX 33 69 34 70 35 71 61 72 62 73 71 74 63 75 64 76 70 77 72 78
REMARK SMILES IDX 65 79 66 80 67 81 68 82 69 83 45 84 46 85 55 86 47 87 48 88
REMARK SMILES IDX 54 89 56 90 49 91 50 92 51 93 52 94 53 95
REMARK H PARENT 11 6 5 15 15 26 77 45 43 56
REMARK Flexibility Score: inf
ROOT
ATOM      1  C   UNL     1       4.969   8.621   4.146  1.00  0.00     0.042 C 
ENDROOT
BRANCH   1   2
ATOM      2  C   UNL     1       3.640   9.014   3.498  1.00  0.00     0.118 C 
BRANCH   2   3
ATOM      3  N   UNL     1       3.566   8.545   2.126  1.00  0.00    -0.352 N 
ATOM      4  C   UNL     1       3.026   7.443   1.518  1.00  0.00     0.251 C 
ATOM      5  O   UNL     1       3.152   7.375   0.294  1.00  0.00    -0.269 OA
ATOM      6  H   UNL     1       4.002   9.157   1.489  1.00  0.00     0.163 HD
BRANCH   4   7
ATOM      7  C   UNL     1       2.266   6.367   2.215  1.00  0.00     0.046 A 
ATOM      8  C   UNL     1       0.732   4.514   1.979  1.00  0.00     0.128 A 
ATOM      9  C   UNL     1       1.513   5.505   1.402  1.00  0.00     0.060 A 
ATOM     10  N   UNL     1       0.622   4.378   3.308  1.00  0.00    -0.219 NA
ATOM     11  C   UNL     1       1.406   5.164   4.066  1.00  0.00     0.132 A 
ATOM     12  C   UNL     1       2.260   6.137   3.583  1.00  0.00     0.055 A 
ATOM     13  Cl  UNL     1       1.283   4.866   5.751  1.00  0.00    -0.062 Cl
BRANCH   8  14
ATOM     14  N   UNL     1       0.047   3.566   1.214  1.00  0.00    -0.366 N 
ATOM     15  H   UNL     1      -0.912   3.409   1.376  1.00  0.00     0.162 HD
BRANCH  14  16
ATOM     16  C   UNL     1       0.744   2.801   0.172  1.00  0.00     0.093 C 
ATOM     17  C   UNL     1       1.692   0.417  -0.297  1.00  0.00     0.014 C 
ATOM     18  C   UNL     1       0.499   1.305  -0.003  1.00  0.00    -0.008 C 
ATOM     19  C   UNL     1      -0.507   0.610   0.890  1.00  0.00     0.014 C 
ATOM     20  C   UNL     1       0.049   2.310  -1.080  1.00  0.00    -0.008 C 
ATOM     21  C   UNL     1       0.838   2.429  -2.369  1.00  0.00     0.014 C 
ATOM     22  C   UNL     1      -1.415   2.616  -1.286  1.00  0.00     0.014 C 
ENDBRANCH  14  16
ENDBRANCH   8  14
ENDBRANCH   4   7
ENDBRANCH   2   3
ENDBRANCH   1   2
BRANCH   1  23
ATOM     23  C   UNL     1       6.142   9.491   3.690  1.00  0.00     0.118 C 
BRANCH  23  24
ATOM     24  N   UNL     1       6.025  10.858   4.183  1.00  0.00    -0.352 N 
ATOM     25  C   UNL     1       6.866  11.591   4.981  1.00  0.00     0.251 C 
ATOM     26  H   UNL     1       5.211  11.331   3.896  1.00  0.00     0.163 HD
ATOM     27  O   UNL     1       6.455  12.639   5.473  1.00  0.00    -0.269 OA
BRANCH  25  28
ATOM     28  C   UNL     1       8.249  11.140   5.257  1.00  0.00     0.039 A 
ATOM     29  C   UNL     1       8.773  11.328   6.540  1.00  0.00     0.014 A 
ATOM     30  C   UNL     1       9.053  10.599   4.250  1.00  0.00     0.014 A 
ATOM     31  C   UNL     1      10.082  10.928   6.826  1.00  0.00     0.010 A 
ATOM     32  C   UNL     1      10.338  10.146   4.552  1.00  0.00     0.010 A 
ATOM     33  C   UNL     1      10.867  10.308   5.841  1.00  0.00    -0.014 A 
BRANCH  33  34
ATOM     34  C   UNL     1      12.236   9.816   6.145  1.00  0.00     0.031 A 
ATOM     35  C   UNL     1      13.433  10.419   5.456  1.00  0.00     0.074 A 
ATOM     36  C   UNL     1      12.394   8.773   6.985  1.00  0.00     0.049 A 
ATOM     37  N   UNL     1      14.689  10.062   5.523  1.00  0.00    -0.248 NA
ATOM     38  C   UNL     1      13.182  11.555   4.554  1.00  0.00     0.031 C 
ATOM     39  C   UNL     1      11.308   8.066   7.669  1.00  0.00     0.029 A 
ATOM     40  N   UNL     1      13.525   8.109   7.391  1.00  0.00    -0.354 N 
ATOM     41  C   UNL     1      15.373  10.905   4.654  1.00  0.00     0.074 A 
ATOM     42  C   UNL     1      14.389  11.775   4.049  1.00  0.00     0.031 C 
ATOM     43  C   UNL     1      11.825   7.072   8.409  1.00  0.00     0.029 A 
ATOM     44  C   UNL     1      13.272   7.046   8.228  1.00  0.00     0.049 A 
ATOM     45  H   UNL     1      14.432   8.369   7.110  1.00  0.00     0.167 HD
ATOM     46  C   UNL     1      16.702  10.955   4.397  1.00  0.00     0.037 A 
ATOM     47  C   UNL     1      14.109   6.143   8.774  1.00  0.00     0.037 A 
ATOM     48  C   UNL     1      17.682  10.122   5.043  1.00  0.00     0.049 A 
ATOM     49  C   UNL     1      15.585   6.250   8.500  1.00  0.00     0.074 A 
ATOM     50  C   UNL     1      19.061  10.169   4.923  1.00  0.00     0.029 A 
ATOM     51  N   UNL     1      17.392   9.095   5.928  1.00  0.00    -0.354 N 
ATOM     52  N   UNL     1      16.221   7.113   7.744  1.00  0.00    -0.248 NA
ATOM     53  C   UNL     1      16.460   5.270   9.159  1.00  0.00     0.031 C 
ATOM     54  C   UNL     1      19.603   9.142   5.703  1.00  0.00     0.029 A 
ATOM     55  C   UNL     1      18.565   8.486   6.343  1.00  0.00     0.049 A 
ATOM     56  H   UNL     1      16.488   8.837   6.218  1.00  0.00     0.167 HD
ATOM     57  C   UNL     1      17.570   6.795   7.858  1.00  0.00     0.074 A 
ATOM     58  C   UNL     1      17.660   5.672   8.767  1.00  0.00     0.031 C 
ATOM     59  C   UNL     1      18.639   7.379   7.263  1.00  0.00     0.037 A 
BRANCH  46  60
ATOM     60  C   UNL     1      17.194  11.949   3.381  1.00  0.00     0.058 A 
ATOM     61  C   UNL     1      17.250  13.323   3.660  1.00  0.00     0.135 A 
ATOM     62  C   UNL     1      17.706  11.509   2.149  1.00  0.00     0.135 A 
ATOM     63  F   UNL     1      16.761  13.799   4.816  1.00  0.00    -0.206 F 
ATOM     64  C   UNL     1      17.791  14.227   2.752  1.00  0.00     0.059 A 
ATOM     65  C   UNL     1      18.273  12.392   1.235  1.00  0.00     0.059 A 
ATOM     66  F   UNL     1      17.674  10.205   1.832  1.00  0.00    -0.206 F 
ATOM     67  C   UNL     1      18.308  13.751   1.545  1.00  0.00     0.060 A 
BRANCH  67  68
ATOM     68  S   UNL     1      19.055  14.931   0.401  1.00  0.00     0.124 S 
ATOM     69  O   UNL     1      17.877  15.618  -0.119  1.00  0.00    -0.237 OA
ATOM     70  O   UNL     1      19.911  15.720   1.281  1.00  0.00    -0.237 OA
ATOM     71  O   UNL     1      19.758  14.081  -0.555  1.00  0.00    -0.744 OA
ENDBRANCH  67  68
ENDBRANCH  46  60
BRANCH  47  72
ATOM     72  C   UNL     1      13.578   5.050   9.632  1.00  0.00     0.058 A 
ATOM     73  C   UNL     1      13.834   5.021  11.011  1.00  0.00     0.135 A 
ATOM     74  C   UNL     1      12.824   4.000   9.086  1.00  0.00     0.135 A 
ATOM     75  F   UNL     1      14.553   6.001  11.579  1.00  0.00    -0.206 F 
ATOM     76  C   UNL     1      13.395   3.972  11.812  1.00  0.00     0.059 A 
ATOM     77  C   UNL     1      12.350   2.954   9.871  1.00  0.00     0.059 A 
ATOM     78  F   UNL     1      12.532   3.991   7.776  1.00  0.00    -0.206 F 
ATOM     79  C   UNL     1      12.659   2.939  11.231  1.00  0.00     0.060 A 
BRANCH  79  80
ATOM     80  S   UNL     1      12.084   1.585  12.278  1.00  0.00     0.124 S 
ATOM     81  O   UNL     1      13.309   0.816  12.460  1.00  0.00    -0.237 OA
ATOM     82  O   UNL     1      11.591   2.292  13.456  1.00  0.00    -0.237 OA
ATOM     83  O   UNL     1      11.053   0.948  11.463  1.00  0.00    -0.744 OA
ENDBRANCH  79  80
ENDBRANCH  47  72
BRANCH  59  84
ATOM     84  C   UNL     1      20.001   6.844   7.604  1.00  0.00     0.058 A 
ATOM     85  C   UNL     1      20.454   5.612   7.108  1.00  0.00     0.135 A 
ATOM     86  C   UNL     1      20.882   7.598   8.395  1.00  0.00     0.135 A 
ATOM     87  F   UNL     1      19.648   4.850   6.352  1.00  0.00    -0.206 F 
ATOM     88  C   UNL     1      21.727   5.136   7.403  1.00  0.00     0.059 A 
ATOM     89  C   UNL     1      22.168   7.154   8.681  1.00  0.00     0.059 A 
ATOM     90  F   UNL     1      20.500   8.789   8.886  1.00  0.00    -0.206 F 
ATOM     91  C   UNL     1      22.577   5.915   8.191  1.00  0.00     0.060 A 
BRANCH  91  92
ATOM     92  S   UNL     1      24.239   5.302   8.540  1.00  0.00     0.124 S 
ATOM     93  O   UNL     1      23.970   4.280   9.546  1.00  0.00    -0.237 OA
ATOM     94  O   UNL     1      24.672   4.809   7.236  1.00  0.00    -0.237 OA
ATOM     95  O   UNL     1      24.944   6.487   9.020  1.00  0.00    -0.744 OA
ENDBRANCH  91  92
ENDBRANCH  59  84
ENDBRANCH  33  34
ENDBRANCH  25  28
ENDBRANCH  23  24
ENDBRANCH   1  23
TORSDOF 15
