REMARK SMILES Cc1ccc([C@H](CCC(F)(F)F)C(=O)NCCCNC(=O)c2ccc(-c3c4nc(c(-c5c(F)cc(S(=O)(=O)[O-])cc5F)c5ccc([nH]5)c(-c5c(F)cc(S(=O)(=O)[O-])cc5F)c5nc(c(-c6c(F)cc(S(=O)(=O)[O-])cc6F)c6ccc3[nH]6)C=C5)C=C4)cc2)cc1
REMARK SMILES IDX 17 1 16 2 15 3 13 4 14 5 6 7 5 8 1 9 2 10 3 11 89 12 4 13
REMARK SMILES IDX 88 14 7 15 8 16 9 17 10 18 11 19 12 20 18 21 19 22 20 23
REMARK SMILES IDX 21 25 22 26 23 27 87 28 24 29 86 30 25 31 26 32 27 33 80 34
REMARK SMILES IDX 28 35 85 36 79 37 81 38 29 39 84 40 78 41 77 42 30 44 64 45
REMARK SMILES IDX 43 46 63 47 44 48 47 49 62 50 82 51 45 52 46 53 61 55 83 56
REMARK SMILES IDX 48 57 31 58 32 59 41 60 33 61 34 62 40 63 42 64 35 65 36 66
REMARK SMILES IDX 37 67 38 68 39 69 65 70 66 71 75 72 67 73 68 74 74 75 76 76
REMARK SMILES IDX 69 77 70 78 71 79 72 80 73 81 49 82 50 83 59 84 51 85 52 86
REMARK SMILES IDX 58 87 60 88 53 89 54 90 55 91 56 92 57 93
REMARK H PARENT 15 6 19 24 81 43 47 54
REMARK Flexibility Score: inf
ROOT
ATOM      1  C   UNL     1      -0.983  -3.170   0.612  1.00  0.00     0.042 C 
ENDROOT
BRANCH   1   2
ATOM      2  C   UNL     1      -2.417  -2.987   0.149  1.00  0.00     0.117 C 
BRANCH   2   3
ATOM      3  N   UNL     1      -3.225  -2.224   1.097  1.00  0.00    -0.356 N 
ATOM      4  C   UNL     1      -3.874  -1.031   0.945  1.00  0.00     0.227 C 
ATOM      5  O   UNL     1      -4.692  -0.707   1.810  1.00  0.00    -0.274 OA
ATOM      6  H   UNL     1      -3.315  -2.634   1.988  1.00  0.00     0.163 HD
BRANCH   4   7
ATOM      7  C   UNL     1      -3.603  -0.098  -0.249  1.00  0.00     0.109 C 
BRANCH   7   8
ATOM      8  C   UNL     1      -4.115  -0.639  -1.596  1.00  0.00    -0.036 A 
ATOM      9  C   UNL     1      -4.856  -2.393  -5.481  1.00  0.00     0.044 C 
ATOM     10  C   UNL     1      -4.663  -1.751  -4.141  1.00  0.00    -0.051 A 
ATOM     11  C   UNL     1      -4.187  -0.443  -4.028  1.00  0.00     0.004 A 
ATOM     12  C   UNL     1      -4.991  -2.448  -2.979  1.00  0.00     0.004 A 
ATOM     13  C   UNL     1      -3.920   0.107  -2.770  1.00  0.00     0.005 A 
ATOM     14  C   UNL     1      -4.752  -1.884  -1.724  1.00  0.00     0.005 A 
ENDBRANCH   7   8
BRANCH   7  15
ATOM     15  C   UNL     1      -2.105   0.320  -0.305  1.00  0.00     0.027 C 
BRANCH  15  16
ATOM     16  C   UNL     1      -1.670   1.495   0.584  1.00  0.00     0.116 C 
BRANCH  16  17
ATOM     17  C   UNL     1      -1.851   1.320   2.076  1.00  0.00     0.389 C 
ATOM     18  F   UNL     1      -1.392   0.124   2.492  1.00  0.00    -0.171 F 
ATOM     19  F   UNL     1      -1.155   2.278   2.732  1.00  0.00    -0.171 F 
ATOM     20  F   UNL     1      -3.140   1.450   2.430  1.00  0.00    -0.171 F 
ENDBRANCH  16  17
ENDBRANCH  15  16
ENDBRANCH   7  15
ENDBRANCH   4   7
ENDBRANCH   2   3
ENDBRANCH   1   2
BRANCH   1  21
ATOM     21  C   UNL     1      -0.838  -4.290   1.623  1.00  0.00     0.118 C 
BRANCH  21  22
ATOM     22  N   UNL     1      -0.395  -5.551   1.043  1.00  0.00    -0.352 N 
ATOM     23  C   UNL     1      -0.052  -6.718   1.709  1.00  0.00     0.251 C 
ATOM     24  H   UNL     1      -0.332  -5.578   0.061  1.00  0.00     0.163 HD
ATOM     25  O   UNL     1       0.490  -7.645   1.134  1.00  0.00    -0.269 OA
BRANCH  23  26
ATOM     26  C   UNL     1      -0.463  -6.832   3.127  1.00  0.00     0.039 A 
ATOM     27  C   UNL     1      -1.411  -7.809   3.449  1.00  0.00     0.014 A 
ATOM     28  C   UNL     1      -0.143  -5.820   4.025  1.00  0.00     0.014 A 
ATOM     29  C   UNL     1      -2.188  -7.654   4.595  1.00  0.00     0.010 A 
ATOM     30  C   UNL     1      -0.990  -5.604   5.092  1.00  0.00     0.010 A 
ATOM     31  C   UNL     1      -2.039  -6.499   5.356  1.00  0.00    -0.014 A 
BRANCH  31  32
ATOM     32  C   UNL     1      -2.939  -6.093   6.430  1.00  0.00     0.031 A 
ATOM     33  C   UNL     1      -2.429  -6.055   7.822  1.00  0.00     0.074 A 
ATOM     34  C   UNL     1      -4.167  -5.605   6.143  1.00  0.00     0.049 A 
ATOM     35  N   UNL     1      -3.157  -5.822   8.860  1.00  0.00    -0.248 NA
ATOM     36  C   UNL     1      -1.040  -6.363   8.165  1.00  0.00     0.031 C 
ATOM     37  C   UNL     1      -4.993  -4.751   6.994  1.00  0.00     0.029 A 
ATOM     38  N   UNL     1      -5.015  -5.970   5.093  1.00  0.00    -0.354 N 
ATOM     39  C   UNL     1      -2.314  -5.640   9.931  1.00  0.00     0.074 A 
ATOM     40  C   UNL     1      -1.036  -6.119   9.478  1.00  0.00     0.031 C 
ATOM     41  C   UNL     1      -6.270  -4.838   6.595  1.00  0.00     0.029 A 
ATOM     42  C   UNL     1      -6.334  -5.878   5.587  1.00  0.00     0.049 A 
ATOM     43  H   UNL     1      -4.744  -6.239   4.185  1.00  0.00     0.167 HD
ATOM     44  C   UNL     1      -2.783  -4.971  11.020  1.00  0.00     0.037 A 
ATOM     45  C   UNL     1      -7.138  -6.980   5.675  1.00  0.00     0.037 A 
ATOM     46  C   UNL     1      -4.249  -4.942  11.003  1.00  0.00     0.049 A 
ATOM     47  C   UNL     1      -7.572  -7.325   7.082  1.00  0.00     0.074 A 
ATOM     48  C   UNL     1      -5.190  -3.960  10.748  1.00  0.00     0.029 A 
ATOM     49  N   UNL     1      -4.941  -6.153  11.016  1.00  0.00    -0.354 N 
ATOM     50  N   UNL     1      -7.030  -6.828   8.161  1.00  0.00    -0.248 NA
ATOM     51  C   UNL     1      -8.644  -8.270   7.389  1.00  0.00     0.031 C 
ATOM     52  C   UNL     1      -6.434  -4.606  10.496  1.00  0.00     0.029 A 
ATOM     53  C   UNL     1      -6.258  -5.972  10.645  1.00  0.00     0.049 A 
ATOM     54  H   UNL     1      -4.543  -7.021  11.258  1.00  0.00     0.167 HD
ATOM     55  C   UNL     1      -7.602  -7.393   9.272  1.00  0.00     0.074 A 
ATOM     56  C   UNL     1      -8.635  -8.259   8.734  1.00  0.00     0.031 C 
ATOM     57  C   UNL     1      -7.160  -7.115  10.536  1.00  0.00     0.037 A 
BRANCH  44  58
ATOM     58  C   UNL     1      -1.927  -4.167  11.992  1.00  0.00     0.058 A 
ATOM     59  C   UNL     1      -2.535  -3.416  13.025  1.00  0.00     0.135 A 
ATOM     60  C   UNL     1      -0.530  -3.969  11.887  1.00  0.00     0.135 A 
ATOM     61  F   UNL     1      -3.856  -3.486  13.249  1.00  0.00    -0.206 F 
ATOM     62  C   UNL     1      -1.828  -2.530  13.852  1.00  0.00     0.059 A 
ATOM     63  C   UNL     1       0.201  -3.123  12.725  1.00  0.00     0.059 A 
ATOM     64  F   UNL     1       0.212  -4.530  10.929  1.00  0.00    -0.206 F 
ATOM     65  C   UNL     1      -0.457  -2.385  13.690  1.00  0.00     0.060 A 
BRANCH  65  66
ATOM     66  S   UNL     1       0.455  -1.216  14.715  1.00  0.00     0.124 S 
ATOM     67  O   UNL     1      -0.043   0.066  14.225  1.00  0.00    -0.237 OA
ATOM     68  O   UNL     1       0.039  -1.589  16.062  1.00  0.00    -0.237 OA
ATOM     69  O   UNL     1       1.852  -1.502  14.397  1.00  0.00    -0.744 OA
ENDBRANCH  65  66
ENDBRANCH  44  58
BRANCH  45  70
ATOM     70  C   UNL     1      -6.920  -7.943   4.561  1.00  0.00     0.058 A 
ATOM     71  C   UNL     1      -7.309  -7.524   3.274  1.00  0.00     0.135 A 
ATOM     72  C   UNL     1      -5.940  -8.942   4.652  1.00  0.00     0.135 A 
ATOM     73  F   UNL     1      -8.268  -6.595   3.132  1.00  0.00    -0.206 F 
ATOM     74  C   UNL     1      -6.611  -7.919   2.139  1.00  0.00     0.059 A 
ATOM     75  C   UNL     1      -5.237  -9.364   3.522  1.00  0.00     0.059 A 
ATOM     76  F   UNL     1      -5.540  -9.389   5.852  1.00  0.00    -0.206 F 
ATOM     77  C   UNL     1      -5.522  -8.774   2.289  1.00  0.00     0.060 A 
BRANCH  77  78
ATOM     78  S   UNL     1      -4.369  -8.917   0.902  1.00  0.00     0.124 S 
ATOM     79  O   UNL     1      -5.246  -9.328  -0.188  1.00  0.00    -0.237 OA
ATOM     80  O   UNL     1      -3.850  -7.553   0.814  1.00  0.00    -0.237 OA
ATOM     81  O   UNL     1      -3.417  -9.924   1.359  1.00  0.00    -0.744 OA
ENDBRANCH  77  78
ENDBRANCH  45  70
BRANCH  57  82
ATOM     82  C   UNL     1      -7.574  -7.845  11.799  1.00  0.00     0.058 A 
ATOM     83  C   UNL     1      -7.988  -9.188  11.842  1.00  0.00     0.135 A 
ATOM     84  C   UNL     1      -7.429  -7.219  13.062  1.00  0.00     0.135 A 
ATOM     85  F   UNL     1      -8.047  -9.937  10.732  1.00  0.00    -0.206 F 
ATOM     86  C   UNL     1      -8.311  -9.839  13.037  1.00  0.00     0.059 A 
ATOM     87  C   UNL     1      -7.689  -7.867  14.269  1.00  0.00     0.059 A 
ATOM     88  F   UNL     1      -7.012  -5.948  13.169  1.00  0.00    -0.206 F 
ATOM     89  C   UNL     1      -8.160  -9.171  14.246  1.00  0.00     0.060 A 
BRANCH  89  90
ATOM     90  S   UNL     1      -8.512 -10.017  15.799  1.00  0.00     0.124 S 
ATOM     91  O   UNL     1      -9.898  -9.627  16.037  1.00  0.00    -0.237 OA
ATOM     92  O   UNL     1      -8.305 -11.423  15.461  1.00  0.00    -0.237 OA
ATOM     93  O   UNL     1      -7.527  -9.451  16.715  1.00  0.00    -0.744 OA
ENDBRANCH  89  90
ENDBRANCH  57  82
ENDBRANCH  31  32
ENDBRANCH  23  26
ENDBRANCH  21  22
ENDBRANCH   1  21
TORSDOF 17
