REMARK SMILES Cc1nc(CN(CC(=O)NCCCNC(=O)c2ccc(-c3c4nc(c(-c5c(F)cc(S(=O)(=O)[O-])cc5F)c5ccc([nH]5)c(-c5c(F)cc(S(=O)(=O)[O-])cc5F)c5nc(c(-c6c(F)cc(S(=O)(=O)[O-])cc6F)c6ccc3[nH]6)C=C5)C=C4)cc2)c2cccc(Cl)c2)sc1C
REMARK SMILES IDX 12 1 11 2 10 3 8 4 9 5 7 7 6 8 5 9 4 10 1 11 2 12 3 13 91 14
REMARK SMILES IDX 90 15 92 16 83 17 84 18 89 19 85 20 87 21 86 22 88 23 13 24
REMARK SMILES IDX 14 25 15 26 16 28 17 29 18 30 82 31 19 32 81 33 20 34 21 35
REMARK SMILES IDX 22 36 75 37 23 38 80 39 74 40 76 41 24 42 79 43 73 44 72 45
REMARK SMILES IDX 25 47 59 48 38 49 58 50 39 51 42 52 57 53 77 54 40 55 41 56
REMARK SMILES IDX 56 58 78 59 43 60 26 61 27 62 36 63 28 64 29 65 35 66 37 67
REMARK SMILES IDX 30 68 31 69 32 70 33 71 34 72 60 73 61 74 70 75 62 76 63 77
REMARK SMILES IDX 69 78 71 79 64 80 65 81 66 82 67 83 68 84 44 85 45 86 54 87
REMARK SMILES IDX 46 88 47 89 53 90 55 91 48 92 49 93 50 94 51 95 52 96
REMARK H PARENT 10 6 14 27 76 46 42 57
REMARK Flexibility Score: inf
ROOT
ATOM      1  C   UNL     1      -4.913   4.040   0.453  1.00  0.00     0.042 C 
ENDROOT
BRANCH   1   2
ATOM      2  C   UNL     1      -3.951   5.112  -0.049  1.00  0.00     0.117 C 
BRANCH   2   3
ATOM      3  N   UNL     1      -3.340   5.875   1.018  1.00  0.00    -0.354 N 
ATOM      4  C   UNL     1      -2.108   5.729   1.591  1.00  0.00     0.239 C 
ATOM      5  O   UNL     1      -1.774   6.571   2.432  1.00  0.00    -0.273 OA
ATOM      6  H   UNL     1      -3.891   6.604   1.383  1.00  0.00     0.163 HD
BRANCH   4   7
ATOM      7  C   UNL     1      -1.158   4.593   1.177  1.00  0.00     0.217 C 
BRANCH   7   8
ATOM      8  N   UNL     1      -1.671   3.228   1.421  1.00  0.00    -0.355 N 
BRANCH   8   9
ATOM      9  C   UNL     1      -1.825   2.338   0.244  1.00  0.00     0.184 C 
BRANCH   9  10
ATOM     10  C   UNL     1      -0.791   1.275  -0.038  1.00  0.00     0.112 A 
ATOM     11  C   UNL     1       2.645   0.225  -0.069  1.00  0.00     0.068 C 
ATOM     12  C   UNL     1       1.161   0.229  -0.135  1.00  0.00     0.051 A 
ATOM     13  N   UNL     1       0.514   1.457  -0.074  1.00  0.00    -0.244 NA
ATOM     14  C   UNL     1       0.321  -0.870  -0.203  1.00  0.00     0.025 A 
ATOM     15  S   UNL     1      -1.308  -0.350  -0.277  1.00  0.00    -0.122 S 
ATOM     16  C   UNL     1       0.647  -2.321  -0.196  1.00  0.00     0.058 C 
ENDBRANCH   9  10
ENDBRANCH   8   9
BRANCH   8  17
ATOM     17  C   UNL     1      -1.695   2.736   2.724  1.00  0.00     0.039 A 
ATOM     18  C   UNL     1      -2.310   3.447   3.768  1.00  0.00     0.026 A 
ATOM     19  C   UNL     1      -1.102   1.517   3.086  1.00  0.00     0.046 A 
ATOM     20  C   UNL     1      -2.344   2.969   5.086  1.00  0.00     0.004 A 
ATOM     21  C   UNL     1      -1.135   1.029   4.396  1.00  0.00     0.043 A 
ATOM     22  C   UNL     1      -1.758   1.750   5.402  1.00  0.00     0.020 A 
ATOM     23  Cl  UNL     1      -0.377  -0.475   4.762  1.00  0.00    -0.084 Cl
ENDBRANCH   8  17
ENDBRANCH   7   8
ENDBRANCH   4   7
ENDBRANCH   2   3
ENDBRANCH   1   2
BRANCH   1  24
ATOM     24  C   UNL     1      -6.174   4.578   1.121  1.00  0.00     0.118 C 
BRANCH  24  25
ATOM     25  N   UNL     1      -7.002   5.358   0.213  1.00  0.00    -0.352 N 
ATOM     26  C   UNL     1      -8.307   5.192  -0.171  1.00  0.00     0.251 C 
ATOM     27  H   UNL     1      -6.549   6.132  -0.193  1.00  0.00     0.163 HD
ATOM     28  O   UNL     1      -8.737   5.874  -1.107  1.00  0.00    -0.269 OA
BRANCH  26  29
ATOM     29  C   UNL     1      -9.200   4.221   0.499  1.00  0.00     0.039 A 
ATOM     30  C   UNL     1     -10.152   3.542  -0.270  1.00  0.00     0.014 A 
ATOM     31  C   UNL     1      -9.161   4.021   1.882  1.00  0.00     0.014 A 
ATOM     32  C   UNL     1     -11.032   2.642   0.338  1.00  0.00     0.010 A 
ATOM     33  C   UNL     1      -9.985   3.066   2.475  1.00  0.00     0.010 A 
ATOM     34  C   UNL     1     -10.944   2.382   1.714  1.00  0.00    -0.014 A 
BRANCH  34  35
ATOM     35  C   UNL     1     -11.875   1.436   2.383  1.00  0.00     0.031 A 
ATOM     36  C   UNL     1     -12.845   1.941   3.419  1.00  0.00     0.074 A 
ATOM     37  C   UNL     1     -11.821   0.122   2.095  1.00  0.00     0.049 A 
ATOM     38  N   UNL     1     -13.700   1.272   4.151  1.00  0.00    -0.248 NA
ATOM     39  C   UNL     1     -12.832   3.388   3.686  1.00  0.00     0.031 C 
ATOM     40  C   UNL     1     -10.908  -0.497   1.133  1.00  0.00     0.029 A 
ATOM     41  N   UNL     1     -12.550  -0.932   2.585  1.00  0.00    -0.354 N 
ATOM     42  C   UNL     1     -14.311   2.211   4.974  1.00  0.00     0.074 A 
ATOM     43  C   UNL     1     -13.686   3.485   4.693  1.00  0.00     0.031 C 
ATOM     44  C   UNL     1     -11.156  -1.815   1.076  1.00  0.00     0.029 A 
ATOM     45  C   UNL     1     -12.219  -2.142   2.023  1.00  0.00     0.049 A 
ATOM     46  H   UNL     1     -13.246  -0.832   3.275  1.00  0.00     0.167 HD
ATOM     47  C   UNL     1     -15.318   2.036   5.865  1.00  0.00     0.037 A 
ATOM     48  C   UNL     1     -12.720  -3.373   2.241  1.00  0.00     0.037 A 
ATOM     49  C   UNL     1     -15.950   0.769   6.126  1.00  0.00     0.049 A 
ATOM     50  C   UNL     1     -13.830  -3.549   3.240  1.00  0.00     0.074 A 
ATOM     51  C   UNL     1     -17.002   0.489   6.981  1.00  0.00     0.029 A 
ATOM     52  N   UNL     1     -15.588  -0.432   5.532  1.00  0.00    -0.354 N 
ATOM     53  N   UNL     1     -14.424  -2.644   3.982  1.00  0.00    -0.248 NA
ATOM     54  C   UNL     1     -14.343  -4.913   3.427  1.00  0.00     0.031 C 
ATOM     55  C   UNL     1     -17.253  -0.888   6.929  1.00  0.00     0.029 A 
ATOM     56  C   UNL     1     -16.388  -1.458   6.008  1.00  0.00     0.049 A 
ATOM     57  H   UNL     1     -14.868  -0.539   4.869  1.00  0.00     0.167 HD
ATOM     58  C   UNL     1     -15.407  -3.323   4.694  1.00  0.00     0.074 A 
ATOM     59  C   UNL     1     -15.325  -4.713   4.295  1.00  0.00     0.031 C 
ATOM     60  C   UNL     1     -16.301  -2.836   5.591  1.00  0.00     0.037 A 
BRANCH  47  61
ATOM     61  C   UNL     1     -15.784   3.253   6.619  1.00  0.00     0.058 A 
ATOM     62  C   UNL     1     -16.460   4.304   5.977  1.00  0.00     0.135 A 
ATOM     63  C   UNL     1     -15.528   3.386   7.993  1.00  0.00     0.135 A 
ATOM     64  F   UNL     1     -16.720   4.237   4.662  1.00  0.00    -0.206 F 
ATOM     65  C   UNL     1     -16.810   5.468   6.655  1.00  0.00     0.059 A 
ATOM     66  C   UNL     1     -15.898   4.528   8.699  1.00  0.00     0.059 A 
ATOM     67  F   UNL     1     -14.892   2.410   8.661  1.00  0.00    -0.206 F 
ATOM     68  C   UNL     1     -16.513   5.575   8.014  1.00  0.00     0.060 A 
BRANCH  68  69
ATOM     69  S   UNL     1     -16.922   7.110   8.871  1.00  0.00     0.124 S 
ATOM     70  O   UNL     1     -15.861   7.995   8.399  1.00  0.00    -0.237 OA
ATOM     71  O   UNL     1     -18.261   7.405   8.368  1.00  0.00    -0.237 OA
ATOM     72  O   UNL     1     -16.852   6.741  10.280  1.00  0.00    -0.744 OA
ENDBRANCH  68  69
ENDBRANCH  47  61
BRANCH  48  73
ATOM     73  C   UNL     1     -12.216  -4.525   1.447  1.00  0.00     0.058 A 
ATOM     74  C   UNL     1     -13.007  -5.093   0.438  1.00  0.00     0.135 A 
ATOM     75  C   UNL     1     -10.934  -5.055   1.651  1.00  0.00     0.135 A 
ATOM     76  F   UNL     1     -14.243  -4.623   0.211  1.00  0.00    -0.206 F 
ATOM     77  C   UNL     1     -12.548  -6.150  -0.340  1.00  0.00     0.059 A 
ATOM     78  C   UNL     1     -10.443  -6.099   0.871  1.00  0.00     0.059 A 
ATOM     79  F   UNL     1     -10.133  -4.536   2.594  1.00  0.00    -0.206 F 
ATOM     80  C   UNL     1     -11.261  -6.643  -0.119  1.00  0.00     0.060 A 
BRANCH  80  81
ATOM     81  S   UNL     1     -10.650  -7.968  -1.183  1.00  0.00     0.124 S 
ATOM     82  O   UNL     1     -11.411  -9.112  -0.694  1.00  0.00    -0.237 OA
ATOM     83  O   UNL     1     -11.009  -7.484  -2.513  1.00  0.00    -0.237 OA
ATOM     84  O   UNL     1      -9.219  -7.993  -0.899  1.00  0.00    -0.744 OA
ENDBRANCH  80  81
ENDBRANCH  48  73
BRANCH  60  85
ATOM     85  C   UNL     1     -17.299  -3.804   6.164  1.00  0.00     0.058 A 
ATOM     86  C   UNL     1     -16.935  -4.770   7.114  1.00  0.00     0.135 A 
ATOM     87  C   UNL     1     -18.650  -3.733   5.784  1.00  0.00     0.135 A 
ATOM     88  F   UNL     1     -15.656  -4.884   7.507  1.00  0.00    -0.206 F 
ATOM     89  C   UNL     1     -17.870  -5.651   7.649  1.00  0.00     0.059 A 
ATOM     90  C   UNL     1     -19.606  -4.587   6.324  1.00  0.00     0.059 A 
ATOM     91  F   UNL     1     -19.053  -2.820   4.886  1.00  0.00    -0.206 F 
ATOM     92  C   UNL     1     -19.204  -5.552   7.247  1.00  0.00     0.060 A 
BRANCH  92  93
ATOM     93  S   UNL     1     -20.415  -6.682   7.966  1.00  0.00     0.124 S 
ATOM     94  O   UNL     1     -20.119  -7.921   7.253  1.00  0.00    -0.237 OA
ATOM     95  O   UNL     1     -20.058  -6.665   9.381  1.00  0.00    -0.237 OA
ATOM     96  O   UNL     1     -21.695  -6.060   7.641  1.00  0.00    -0.744 OA
ENDBRANCH  92  93
ENDBRANCH  60  85
ENDBRANCH  34  35
ENDBRANCH  26  29
ENDBRANCH  24  25
ENDBRANCH   1  24
TORSDOF 17
