REMARK SMILES C[N@@H+]1CCC[C@H](NC(=O)N[C@@](C)(C(=O)NCCCNC(=O)c2ccc(-c3c4nc(c(-c5c(F)cc(S(=O)(=O)[O-])cc5F)c5ccc([nH]5)c(-c5c(F)cc(S(=O)(=O)[O-])cc5F)c5nc(c(-c6c(F)cc(S(=O)(=O)[O-])cc6F)c6ccc3[nH]6)C=C5)C=C4)cc2)C(F)(F)F)C1
REMARK SMILES IDX 17 1 16 2 15 3 13 4 14 5 11 7 12 8 10 9 7 10 8 11 9 13 6 15
REMARK SMILES IDX 1 16 2 17 3 18 92 19 4 21 5 22 88 23 89 24 90 25 91 26 18 27
REMARK SMILES IDX 19 28 20 29 21 31 22 32 23 33 87 34 24 35 86 36 25 37 26 38
REMARK SMILES IDX 27 39 80 40 28 41 85 42 79 43 81 44 29 45 84 46 78 47 77 48
REMARK SMILES IDX 30 50 64 51 43 52 63 53 44 54 47 55 62 56 82 57 45 58 46 59
REMARK SMILES IDX 61 61 83 62 48 63 31 64 32 65 41 66 33 67 34 68 40 69 42 70
REMARK SMILES IDX 35 71 36 72 37 73 38 74 39 75 65 76 66 77 75 78 67 79 68 80
REMARK SMILES IDX 74 81 76 82 69 83 70 84 71 85 72 86 73 87 49 88 50 89 59 90
REMARK SMILES IDX 51 91 52 92 58 93 60 94 53 95 54 96 55 97 56 98 57 99
REMARK H PARENT 15 6 7 12 10 14 2 20 19 30 81 49 47 60
REMARK Flexibility Score: inf
ROOT
ATOM      1  C   UNL     1       3.531  -4.174   5.366  1.00  0.00     0.042 C 
ENDROOT
BRANCH   1   2
ATOM      2  C   UNL     1       2.043  -3.983   5.130  1.00  0.00     0.117 C 
BRANCH   2   3
ATOM      3  N   UNL     1       1.704  -2.589   4.941  1.00  0.00    -0.354 N 
ATOM      4  C   UNL     1       1.029  -1.906   3.985  1.00  0.00     0.255 C 
ATOM      5  O   UNL     1       1.089  -0.680   4.121  1.00  0.00    -0.272 OA
ATOM      6  H   UNL     1       2.037  -2.010   5.665  1.00  0.00     0.163 HD
BRANCH   4   7
ATOM      7  C   UNL     1       0.372  -2.576   2.763  1.00  0.00     0.213 C 
ATOM      8  C   UNL     1      -0.454  -3.840   3.098  1.00  0.00     0.056 C 
BRANCH   7   9
ATOM      9  N   UNL     1       1.549  -3.015   1.909  1.00  0.00    -0.316 N 
ATOM     10  N   UNL     1       1.697  -2.300  -0.349  1.00  0.00    -0.330 N 
ATOM     11  C   UNL     1       1.967  -3.140   0.650  1.00  0.00     0.316 C 
ATOM     12  H   UNL     1       1.915  -2.629  -1.252  1.00  0.00     0.165 HD
ATOM     13  O   UNL     1       2.741  -4.073   0.418  1.00  0.00    -0.249 OA
ATOM     14  H   UNL     1       2.270  -3.319   2.507  1.00  0.00     0.166 HD
BRANCH  10  15
ATOM     15  C   UNL     1       1.131  -0.983  -0.290  1.00  0.00     0.139 C 
ATOM     16  C   UNL     1      -2.306   0.340  -0.842  1.00  0.00     0.332 C 
ATOM     17  N   UNL     1      -0.892   0.309  -0.518  1.00  0.00    -0.336 N 
ATOM     18  C   UNL     1      -0.162   1.520  -0.897  1.00  0.00     0.262 C 
ATOM     19  C   UNL     1      -0.228  -0.901  -0.997  1.00  0.00     0.287 C 
ATOM     20  H   UNL     1      -0.867   0.284   0.501  1.00  0.00     0.347 HD
ATOM     21  C   UNL     1       1.318   1.475  -0.460  1.00  0.00     0.064 C 
ATOM     22  C   UNL     1       2.013   0.150  -0.815  1.00  0.00     0.037 C 
ENDBRANCH  10  15
ENDBRANCH   7   9
BRANCH   7  23
ATOM     23  C   UNL     1      -0.720  -1.553   2.352  1.00  0.00     0.420 C 
ATOM     24  F   UNL     1      -0.311  -0.300   2.105  1.00  0.00    -0.168 F 
ATOM     25  F   UNL     1      -1.413  -2.006   1.279  1.00  0.00    -0.168 F 
ATOM     26  F   UNL     1      -1.652  -1.445   3.346  1.00  0.00    -0.168 F 
ENDBRANCH   7  23
ENDBRANCH   4   7
ENDBRANCH   2   3
ENDBRANCH   1   2
BRANCH   1  27
ATOM     27  C   UNL     1       4.097  -3.336   6.500  1.00  0.00     0.118 C 
BRANCH  27  28
ATOM     28  N   UNL     1       3.389  -3.538   7.756  1.00  0.00    -0.352 N 
ATOM     29  C   UNL     1       3.830  -4.093   8.929  1.00  0.00     0.251 C 
ATOM     30  H   UNL     1       2.453  -3.231   7.764  1.00  0.00     0.163 HD
ATOM     31  O   UNL     1       3.017  -4.375   9.811  1.00  0.00    -0.269 OA
BRANCH  29  32
ATOM     32  C   UNL     1       5.267  -4.366   9.123  1.00  0.00     0.039 A 
ATOM     33  C   UNL     1       5.658  -5.546   9.758  1.00  0.00     0.014 A 
ATOM     34  C   UNL     1       6.231  -3.457   8.679  1.00  0.00     0.014 A 
ATOM     35  C   UNL     1       7.017  -5.831   9.901  1.00  0.00     0.010 A 
ATOM     36  C   UNL     1       7.575  -3.799   8.712  1.00  0.00     0.010 A 
ATOM     37  C   UNL     1       7.986  -4.973   9.355  1.00  0.00    -0.014 A 
BRANCH  37  38
ATOM     38  C   UNL     1       9.436  -5.259   9.500  1.00  0.00     0.031 A 
ATOM     39  C   UNL     1      10.320  -4.285  10.237  1.00  0.00     0.074 A 
ATOM     40  C   UNL     1       9.960  -6.364   8.934  1.00  0.00     0.049 A 
ATOM     41  N   UNL     1      11.610  -4.338  10.447  1.00  0.00    -0.248 NA
ATOM     42  C   UNL     1       9.680  -3.073  10.778  1.00  0.00     0.031 C 
ATOM     43  C   UNL     1       9.217  -7.340   8.131  1.00  0.00     0.029 A 
ATOM     44  N   UNL     1      11.241  -6.852   8.943  1.00  0.00    -0.354 N 
ATOM     45  C   UNL     1      11.933  -3.164  11.119  1.00  0.00     0.074 A 
ATOM     46  C   UNL     1      10.720  -2.387  11.226  1.00  0.00     0.031 C 
ATOM     47  C   UNL     1      10.050  -8.324   7.752  1.00  0.00     0.029 A 
ATOM     48  C   UNL     1      11.388  -8.035   8.257  1.00  0.00     0.049 A 
ATOM     49  H   UNL     1      11.987  -6.397   9.397  1.00  0.00     0.167 HD
ATOM     50  C   UNL     1      13.126  -2.782  11.631  1.00  0.00     0.037 A 
ATOM     51  C   UNL     1      12.479  -8.800   8.061  1.00  0.00     0.037 A 
ATOM     52  C   UNL     1      14.318  -3.586  11.564  1.00  0.00     0.049 A 
ATOM     53  C   UNL     1      13.781  -8.380   8.689  1.00  0.00     0.074 A 
ATOM     54  C   UNL     1      15.560  -3.330  12.117  1.00  0.00     0.029 A 
ATOM     55  N   UNL     1      14.413  -4.804  10.910  1.00  0.00    -0.354 N 
ATOM     56  N   UNL     1      14.050  -7.304   9.392  1.00  0.00    -0.248 NA
ATOM     57  C   UNL     1      14.923  -9.287   8.517  1.00  0.00     0.031 C 
ATOM     58  C   UNL     1      16.419  -4.373  11.759  1.00  0.00     0.029 A 
ATOM     59  C   UNL     1      15.697  -5.307  11.033  1.00  0.00     0.049 A 
ATOM     60  H   UNL     1      13.677  -5.247  10.429  1.00  0.00     0.167 HD
ATOM     61  C   UNL     1      15.382  -7.422   9.773  1.00  0.00     0.074 A 
ATOM     62  C   UNL     1      15.857  -8.682   9.238  1.00  0.00     0.031 C 
ATOM     63  C   UNL     1      16.146  -6.568  10.500  1.00  0.00     0.037 A 
BRANCH  50  64
ATOM     64  C   UNL     1      13.203  -1.447  12.322  1.00  0.00     0.058 A 
ATOM     65  C   UNL     1      12.578  -1.216  13.558  1.00  0.00     0.135 A 
ATOM     66  C   UNL     1      13.955  -0.401  11.765  1.00  0.00     0.135 A 
ATOM     67  F   UNL     1      11.827  -2.173  14.127  1.00  0.00    -0.206 F 
ATOM     68  C   UNL     1      12.682   0.008  14.210  1.00  0.00     0.059 A 
ATOM     69  C   UNL     1      14.099   0.823  12.413  1.00  0.00     0.059 A 
ATOM     70  F   UNL     1      14.568  -0.563  10.582  1.00  0.00    -0.206 F 
ATOM     71  C   UNL     1      13.451   1.020  13.632  1.00  0.00     0.060 A 
BRANCH  71  72
ATOM     72  S   UNL     1      13.609   2.589  14.510  1.00  0.00     0.124 S 
ATOM     73  O   UNL     1      12.277   3.159  14.330  1.00  0.00    -0.237 OA
ATOM     74  O   UNL     1      13.934   2.155  15.865  1.00  0.00    -0.237 OA
ATOM     75  O   UNL     1      14.685   3.271  13.799  1.00  0.00    -0.744 OA
ENDBRANCH  71  72
ENDBRANCH  50  64
BRANCH  51  76
ATOM     76  C   UNL     1      12.384 -10.052   7.263  1.00  0.00     0.058 A 
ATOM     77  C   UNL     1      12.520 -11.312   7.867  1.00  0.00     0.135 A 
ATOM     78  C   UNL     1      12.165 -10.014   5.877  1.00  0.00     0.135 A 
ATOM     79  F   UNL     1      12.730 -11.402   9.189  1.00  0.00    -0.206 F 
ATOM     80  C   UNL     1      12.478 -12.487   7.123  1.00  0.00     0.059 A 
ATOM     81  C   UNL     1      12.089 -11.177   5.116  1.00  0.00     0.059 A 
ATOM     82  F   UNL     1      12.005  -8.837   5.253  1.00  0.00    -0.206 F 
ATOM     83  C   UNL     1      12.264 -12.408   5.745  1.00  0.00     0.060 A 
BRANCH  83  84
ATOM     84  S   UNL     1      12.190 -13.939   4.791  1.00  0.00     0.124 S 
ATOM     85  O   UNL     1      13.592 -14.338   4.765  1.00  0.00    -0.237 OA
ATOM     86  O   UNL     1      11.305 -14.766   5.605  1.00  0.00    -0.237 OA
ATOM     87  O   UNL     1      11.632 -13.509   3.512  1.00  0.00    -0.744 OA
ENDBRANCH  83  84
ENDBRANCH  51  76
BRANCH  63  88
ATOM     88  C   UNL     1      17.556  -6.995  10.800  1.00  0.00     0.058 A 
ATOM     89  C   UNL     1      18.543  -7.055   9.804  1.00  0.00     0.135 A 
ATOM     90  C   UNL     1      17.926  -7.336  12.112  1.00  0.00     0.135 A 
ATOM     91  F   UNL     1      18.242  -6.739   8.535  1.00  0.00    -0.206 F 
ATOM     92  C   UNL     1      19.834  -7.488  10.088  1.00  0.00     0.059 A 
ATOM     93  C   UNL     1      19.220  -7.738  12.424  1.00  0.00     0.059 A 
ATOM     94  F   UNL     1      17.026  -7.278  13.107  1.00  0.00    -0.206 F 
ATOM     95  C   UNL     1      20.161  -7.834  11.400  1.00  0.00     0.060 A 
BRANCH  95  96
ATOM     96  S   UNL     1      21.834  -8.408  11.755  1.00  0.00     0.124 S 
ATOM     97  O   UNL     1      21.800  -9.762  11.210  1.00  0.00    -0.237 OA
ATOM     98  O   UNL     1      22.657  -7.451  11.022  1.00  0.00    -0.237 OA
ATOM     99  O   UNL     1      21.923  -8.318  13.209  1.00  0.00    -0.744 OA
ENDBRANCH  95  96
ENDBRANCH  63  88
ENDBRANCH  37  38
ENDBRANCH  29  32
ENDBRANCH  27  28
ENDBRANCH   1  27
TORSDOF 16
