REMARK SMILES CC(C)Cc1ccc([C@@H](C)C(=O)NCCCNC(=O)c2ccc(-c3c4nc(c(-c5c(F)cc(S(=O)(=O)[O-])cc5F)c5ccc([nH]5)c(-c5c(F)cc(S(=O)(=O)[O-])cc5F)c5nc(c(-c6c(F)cc(S(=O)(=O)[O-])cc6F)c6ccc3[nH]6)C=C5)C=C4)cc2)cc1
REMARK SMILES IDX 15 1 14 2 13 3 11 4 12 5 9 7 10 8 8 9 5 10 6 11 87 12 7 13
REMARK SMILES IDX 86 14 4 15 2 16 1 17 3 18 16 19 17 20 18 21 19 23 20 24
REMARK SMILES IDX 21 25 85 26 22 27 84 28 23 29 24 30 25 31 78 32 26 33 83 34
REMARK SMILES IDX 77 35 79 36 27 37 82 38 76 39 75 40 28 42 62 43 41 44 61 45
REMARK SMILES IDX 42 46 45 47 60 48 80 49 43 50 44 51 59 53 81 54 46 55 29 56
REMARK SMILES IDX 30 57 39 58 31 59 32 60 38 61 40 62 33 63 34 64 35 65 36 66
REMARK SMILES IDX 37 67 63 68 64 69 73 70 65 71 66 72 72 73 74 74 67 75 68 76
REMARK SMILES IDX 69 77 70 78 71 79 47 80 48 81 57 82 49 83 50 84 56 85 58 86
REMARK SMILES IDX 51 87 52 88 53 89 54 90 55 91
REMARK H PARENT 13 6 17 22 79 41 45 52
REMARK Flexibility Score: inf
ROOT
ATOM      1  C   UNL     1      -3.552  -0.939  -3.596  1.00  0.00     0.042 C 
ENDROOT
BRANCH   1   2
ATOM      2  C   UNL     1      -3.978  -2.358  -3.961  1.00  0.00     0.117 C 
BRANCH   2   3
ATOM      3  N   UNL     1      -2.848  -3.238  -4.180  1.00  0.00    -0.356 N 
ATOM      4  C   UNL     1      -2.259  -4.174  -3.387  1.00  0.00     0.227 C 
ATOM      5  O   UNL     1      -1.261  -4.736  -3.857  1.00  0.00    -0.274 OA
ATOM      6  H   UNL     1      -2.429  -3.141  -5.066  1.00  0.00     0.163 HD
BRANCH   4   7
ATOM      7  C   UNL     1      -2.764  -4.559  -1.987  1.00  0.00     0.105 C 
ATOM      8  C   UNL     1      -4.205  -5.062  -1.940  1.00  0.00     0.023 C 
BRANCH   7   9
ATOM      9  C   UNL     1      -2.366  -3.559  -0.914  1.00  0.00    -0.036 A 
ATOM     10  C   UNL     1      -1.368  -1.584   0.861  1.00  0.00    -0.048 A 
ATOM     11  C   UNL     1      -2.622  -1.440   0.256  1.00  0.00     0.004 A 
ATOM     12  C   UNL     1      -0.672  -2.779   0.657  1.00  0.00     0.004 A 
ATOM     13  C   UNL     1      -3.124  -2.426  -0.602  1.00  0.00     0.005 A 
ATOM     14  C   UNL     1      -1.149  -3.737  -0.240  1.00  0.00     0.005 A 
BRANCH  10  15
ATOM     15  C   UNL     1      -0.817  -0.467   1.722  1.00  0.00     0.038 C 
BRANCH  15  16
ATOM     16  C   UNL     1       0.705  -0.220   1.611  1.00  0.00    -0.013 C 
ATOM     17  C   UNL     1       1.132   0.161   0.189  1.00  0.00     0.008 C 
ATOM     18  C   UNL     1       1.130   0.882   2.584  1.00  0.00     0.008 C 
ENDBRANCH  15  16
ENDBRANCH  10  15
ENDBRANCH   7   9
ENDBRANCH   4   7
ENDBRANCH   2   3
ENDBRANCH   1   2
BRANCH   1  19
ATOM     19  C   UNL     1      -3.161  -0.084  -4.794  1.00  0.00     0.118 C 
BRANCH  19  20
ATOM     20  N   UNL     1      -4.306   0.245  -5.633  1.00  0.00    -0.352 N 
ATOM     21  C   UNL     1      -4.879   1.457  -5.930  1.00  0.00     0.251 C 
ATOM     22  H   UNL     1      -4.740  -0.530  -6.057  1.00  0.00     0.163 HD
ATOM     23  O   UNL     1      -5.977   1.473  -6.481  1.00  0.00    -0.269 OA
BRANCH  21  24
ATOM     24  C   UNL     1      -4.204   2.733  -5.594  1.00  0.00     0.039 A 
ATOM     25  C   UNL     1      -4.987   3.828  -5.209  1.00  0.00     0.014 A 
ATOM     26  C   UNL     1      -2.821   2.885  -5.717  1.00  0.00     0.014 A 
ATOM     27  C   UNL     1      -4.381   5.052  -4.908  1.00  0.00     0.010 A 
ATOM     28  C   UNL     1      -2.210   4.078  -5.335  1.00  0.00     0.010 A 
ATOM     29  C   UNL     1      -2.984   5.181  -4.946  1.00  0.00    -0.014 A 
BRANCH  29  30
ATOM     30  C   UNL     1      -2.313   6.468  -4.625  1.00  0.00     0.031 A 
ATOM     31  C   UNL     1      -1.510   7.180  -5.683  1.00  0.00     0.074 A 
ATOM     32  C   UNL     1      -2.372   6.964  -3.374  1.00  0.00     0.049 A 
ATOM     33  N   UNL     1      -0.776   8.258  -5.580  1.00  0.00    -0.248 NA
ATOM     34  C   UNL     1      -1.507   6.582  -7.029  1.00  0.00     0.031 C 
ATOM     35  C   UNL     1      -3.080   6.346  -2.250  1.00  0.00     0.029 A 
ATOM     36  N   UNL     1      -1.816   8.096  -2.831  1.00  0.00    -0.354 N 
ATOM     37  C   UNL     1      -0.208   8.452  -6.835  1.00  0.00     0.074 A 
ATOM     38  C   UNL     1      -0.641   7.353  -7.669  1.00  0.00     0.031 C 
ATOM     39  C   UNL     1      -2.932   7.115  -1.160  1.00  0.00     0.029 A 
ATOM     40  C   UNL     1      -2.089   8.259  -1.494  1.00  0.00     0.049 A 
ATOM     41  H   UNL     1      -1.273   8.731  -3.352  1.00  0.00     0.167 HD
ATOM     42  C   UNL     1       0.582   9.467  -7.261  1.00  0.00     0.037 A 
ATOM     43  C   UNL     1      -1.698   9.219  -0.632  1.00  0.00     0.037 A 
ATOM     44  C   UNL     1       0.977  10.579  -6.436  1.00  0.00     0.049 A 
ATOM     45  C   UNL     1      -0.836  10.345  -1.132  1.00  0.00     0.074 A 
ATOM     46  C   UNL     1       1.727  11.688  -6.787  1.00  0.00     0.029 A 
ATOM     47  N   UNL     1       0.649  10.726  -5.096  1.00  0.00    -0.354 N 
ATOM     48  N   UNL     1      -0.351  10.540  -2.335  1.00  0.00    -0.248 NA
ATOM     49  C   UNL     1      -0.473  11.387  -0.161  1.00  0.00     0.031 C 
ATOM     50  C   UNL     1       1.882  12.488  -5.651  1.00  0.00     0.029 A 
ATOM     51  C   UNL     1       1.191  11.901  -4.603  1.00  0.00     0.049 A 
ATOM     52  H   UNL     1       0.110  10.089  -4.574  1.00  0.00     0.167 HD
ATOM     53  C   UNL     1       0.349  11.740  -2.273  1.00  0.00     0.074 A 
ATOM     54  C   UNL     1       0.217  12.231  -0.917  1.00  0.00     0.031 C 
ATOM     55  C   UNL     1       1.038  12.379  -3.252  1.00  0.00     0.037 A 
BRANCH  42  56
ATOM     56  C   UNL     1       1.066   9.424  -8.685  1.00  0.00     0.058 A 
ATOM     57  C   UNL     1       0.193   9.627  -9.767  1.00  0.00     0.135 A 
ATOM     58  C   UNL     1       2.422   9.205  -8.974  1.00  0.00     0.135 A 
ATOM     59  F   UNL     1      -1.117   9.826  -9.550  1.00  0.00    -0.206 F 
ATOM     60  C   UNL     1       0.640   9.582 -11.083  1.00  0.00     0.059 A 
ATOM     61  C   UNL     1       2.898   9.184 -10.283  1.00  0.00     0.059 A 
ATOM     62  F   UNL     1       3.302   9.006  -7.980  1.00  0.00    -0.206 F 
ATOM     63  C   UNL     1       1.995   9.357 -11.331  1.00  0.00     0.060 A 
BRANCH  63  64
ATOM     64  S   UNL     1       2.560   9.302 -13.045  1.00  0.00     0.124 S 
ATOM     65  O   UNL     1       2.051   8.003 -13.476  1.00  0.00    -0.237 OA
ATOM     66  O   UNL     1       1.901  10.465 -13.630  1.00  0.00    -0.237 OA
ATOM     67  O   UNL     1       4.011   9.400 -12.928  1.00  0.00    -0.744 OA
ENDBRANCH  63  64
ENDBRANCH  42  56
BRANCH  43  68
ATOM     68  C   UNL     1      -2.144   9.169   0.786  1.00  0.00     0.058 A 
ATOM     69  C   UNL     1      -3.087  10.083   1.278  1.00  0.00     0.135 A 
ATOM     70  C   UNL     1      -1.650   8.200   1.673  1.00  0.00     0.135 A 
ATOM     71  F   UNL     1      -3.585  11.031   0.469  1.00  0.00    -0.206 F 
ATOM     72  C   UNL     1      -3.515  10.050   2.601  1.00  0.00     0.059 A 
ATOM     73  C   UNL     1      -2.080   8.131   2.995  1.00  0.00     0.059 A 
ATOM     74  F   UNL     1      -0.758   7.290   1.248  1.00  0.00    -0.206 F 
ATOM     75  C   UNL     1      -3.006   9.068   3.452  1.00  0.00     0.060 A 
BRANCH  75  76
ATOM     76  S   UNL     1      -3.604   9.002   5.155  1.00  0.00     0.124 S 
ATOM     77  O   UNL     1      -2.924  10.147   5.750  1.00  0.00    -0.237 OA
ATOM     78  O   UNL     1      -5.047   9.136   4.979  1.00  0.00    -0.237 OA
ATOM     79  O   UNL     1      -3.157   7.691   5.616  1.00  0.00    -0.744 OA
ENDBRANCH  75  76
ENDBRANCH  43  68
BRANCH  55  80
ATOM     80  C   UNL     1       1.668  13.699  -2.905  1.00  0.00     0.058 A 
ATOM     81  C   UNL     1       2.818  13.782  -2.106  1.00  0.00     0.135 A 
ATOM     82  C   UNL     1       1.143  14.893  -3.427  1.00  0.00     0.135 A 
ATOM     83  F   UNL     1       3.355  12.670  -1.578  1.00  0.00    -0.206 F 
ATOM     84  C   UNL     1       3.414  15.005  -1.818  1.00  0.00     0.059 A 
ATOM     85  C   UNL     1       1.738  16.124  -3.173  1.00  0.00     0.059 A 
ATOM     86  F   UNL     1       0.050  14.867  -4.206  1.00  0.00    -0.206 F 
ATOM     87  C   UNL     1       2.868  16.171  -2.358  1.00  0.00     0.060 A 
BRANCH  87  88
ATOM     88  S   UNL     1       3.672  17.748  -2.006  1.00  0.00     0.124 S 
ATOM     89  O   UNL     1       3.265  17.983  -0.624  1.00  0.00    -0.237 OA
ATOM     90  O   UNL     1       5.083  17.433  -2.207  1.00  0.00    -0.237 OA
ATOM     91  O   UNL     1       3.092  18.653  -2.994  1.00  0.00    -0.744 OA
ENDBRANCH  87  88
ENDBRANCH  55  80
ENDBRANCH  29  30
ENDBRANCH  21  24
ENDBRANCH  19  20
ENDBRANCH   1  19
TORSDOF 16
