REMARK SMILES CCCCCC(=O)N1CSC[C@H]1C(=O)NCCCNC(=O)c1ccc(-c2c3nc(c(-c4c(F)cc(S(=O)(=O)[O-])cc4F)c4ccc([nH]4)c(-c4c(F)cc(S(=O)(=O)[O-])cc4F)c4nc(c(-c5c(F)cc(S(=O)(=O)[O-])cc5F)c5ccc2[nH]5)C=C4)C=C3)cc1
REMARK SMILES IDX 16 1 15 2 13 3 14 4 12 6 8 7 9 8 10 9 11 10 6 11 7 12 5 13
REMARK SMILES IDX 4 14 3 15 2 16 1 17 17 18 18 19 19 20 20 21 21 23 22 24
REMARK SMILES IDX 23 25 87 26 24 27 86 28 25 29 26 30 27 31 80 32 28 33 85 34
REMARK SMILES IDX 79 35 81 36 29 37 84 38 78 39 77 40 30 42 64 43 43 44 63 45
REMARK SMILES IDX 44 46 47 47 62 48 82 49 45 50 46 51 61 53 83 54 48 55 31 56
REMARK SMILES IDX 32 57 41 58 33 59 34 60 40 61 42 62 35 63 36 64 37 65 38 66
REMARK SMILES IDX 39 67 65 68 66 69 75 70 67 71 68 72 74 73 76 74 69 75 70 76
REMARK SMILES IDX 71 77 72 78 73 79 49 80 50 81 59 82 51 83 52 84 58 85 60 86
REMARK SMILES IDX 53 87 54 88 55 89 56 90 57 91
REMARK H PARENT 15 5 19 22 81 41 47 52
REMARK Flexibility Score: inf
ROOT
ATOM      1  C   UNL     1      -0.274   7.081  -1.582  1.00  0.00     0.117 C 
ENDROOT
BRANCH   1   2
ATOM      2  N   UNL     1      -1.638   6.932  -2.032  1.00  0.00    -0.354 N 
ATOM      3  C   UNL     1      -2.580   6.010  -1.693  1.00  0.00     0.243 C 
ATOM      4  O   UNL     1      -3.752   6.292  -1.972  1.00  0.00    -0.273 OA
ATOM      5  H   UNL     1      -1.934   7.604  -2.687  1.00  0.00     0.163 HD
BRANCH   3   6
ATOM      6  C   UNL     1      -2.273   4.785  -0.811  1.00  0.00     0.185 C 
ATOM      7  N   UNL     1      -1.166   3.905  -1.197  1.00  0.00    -0.321 N 
ATOM      8  C   UNL     1      -0.052   3.883  -0.294  1.00  0.00     0.190 C 
ATOM      9  S   UNL     1      -0.557   4.584   1.276  1.00  0.00    -0.138 SA
ATOM     10  C   UNL     1      -2.131   5.218   0.650  1.00  0.00     0.106 C 
BRANCH   7  11
ATOM     11  C   UNL     1      -1.334   3.089  -2.299  1.00  0.00     0.223 C 
ATOM     12  O   UNL     1      -2.005   3.476  -3.259  1.00  0.00    -0.275 OA
BRANCH  11  13
ATOM     13  C   UNL     1      -0.916   1.618  -2.219  1.00  0.00     0.100 C 
BRANCH  13  14
ATOM     14  C   UNL     1       0.496   1.181  -2.603  1.00  0.00     0.010 C 
BRANCH  14  15
ATOM     15  C   UNL     1       1.593   1.227  -1.531  1.00  0.00     0.000 C 
BRANCH  15  16
ATOM     16  C   UNL     1       1.234   0.670  -0.143  1.00  0.00    -0.003 C 
ATOM     17  C   UNL     1       1.359  -0.832  -0.007  1.00  0.00     0.004 C 
ENDBRANCH  15  16
ENDBRANCH  14  15
ENDBRANCH  13  14
ENDBRANCH  11  13
ENDBRANCH   7  11
ENDBRANCH   3   6
ENDBRANCH   1   2
BRANCH   1  18
ATOM     18  C   UNL     1       0.743   6.680  -2.639  1.00  0.00     0.042 C 
BRANCH  18  19
ATOM     19  C   UNL     1       0.919   7.745  -3.715  1.00  0.00     0.118 C 
BRANCH  19  20
ATOM     20  N   UNL     1       1.477   8.979  -3.171  1.00  0.00    -0.352 N 
ATOM     21  C   UNL     1       2.605   9.673  -3.532  1.00  0.00     0.251 C 
ATOM     22  H   UNL     1       0.965   9.376  -2.430  1.00  0.00     0.163 HD
ATOM     23  O   UNL     1       3.028  10.561  -2.801  1.00  0.00    -0.269 OA
BRANCH  21  24
ATOM     24  C   UNL     1       3.307   9.338  -4.787  1.00  0.00     0.039 A 
ATOM     25  C   UNL     1       4.703   9.323  -4.800  1.00  0.00     0.014 A 
ATOM     26  C   UNL     1       2.588   9.056  -5.952  1.00  0.00     0.014 A 
ATOM     27  C   UNL     1       5.378   8.956  -5.965  1.00  0.00     0.010 A 
ATOM     28  C   UNL     1       3.257   8.611  -7.086  1.00  0.00     0.010 A 
ATOM     29  C   UNL     1       4.658   8.557  -7.104  1.00  0.00    -0.014 A 
BRANCH  29  30
ATOM     30  C   UNL     1       5.347   8.075  -8.326  1.00  0.00     0.031 A 
ATOM     31  C   UNL     1       5.200   8.832  -9.617  1.00  0.00     0.074 A 
ATOM     32  C   UNL     1       6.043   6.921  -8.283  1.00  0.00     0.049 A 
ATOM     33  N   UNL     1       5.626   8.515 -10.812  1.00  0.00    -0.248 NA
ATOM     34  C   UNL     1       4.457  10.103  -9.563  1.00  0.00     0.031 C 
ATOM     35  C   UNL     1       6.223   6.085  -7.093  1.00  0.00     0.029 A 
ATOM     36  N   UNL     1       6.716   6.242  -9.267  1.00  0.00    -0.354 N 
ATOM     37  C   UNL     1       5.207   9.544 -11.648  1.00  0.00     0.074 A 
ATOM     38  C   UNL     1       4.437  10.462 -10.838  1.00  0.00     0.031 C 
ATOM     39  C   UNL     1       6.973   5.018  -7.413  1.00  0.00     0.029 A 
ATOM     40  C   UNL     1       7.283   5.065  -8.837  1.00  0.00     0.049 A 
ATOM     41  H   UNL     1       6.786   6.567 -10.193  1.00  0.00     0.167 HD
ATOM     42  C   UNL     1       5.470   9.722 -12.964  1.00  0.00     0.037 A 
ATOM     43  C   UNL     1       7.959   4.121  -9.521  1.00  0.00     0.037 A 
ATOM     44  C   UNL     1       6.247   8.807 -13.758  1.00  0.00     0.049 A 
ATOM     45  C   UNL     1       8.184   4.316 -10.998  1.00  0.00     0.074 A 
ATOM     46  C   UNL     1       6.588   8.904 -15.095  1.00  0.00     0.029 A 
ATOM     47  N   UNL     1       6.808   7.628 -13.286  1.00  0.00    -0.354 N 
ATOM     48  N   UNL     1       7.823   5.320 -11.762  1.00  0.00    -0.248 NA
ATOM     49  C   UNL     1       8.908   3.252 -11.707  1.00  0.00     0.031 C 
ATOM     50  C   UNL     1       7.319   7.764 -15.443  1.00  0.00     0.029 A 
ATOM     51  C   UNL     1       7.478   6.982 -14.311  1.00  0.00     0.049 A 
ATOM     52  H   UNL     1       6.740   7.301 -12.361  1.00  0.00     0.167 HD
ATOM     53  C   UNL     1       8.305   5.022 -13.032  1.00  0.00     0.074 A 
ATOM     54  C   UNL     1       8.996   3.755 -12.930  1.00  0.00     0.031 C 
ATOM     55  C   UNL     1       8.182   5.731 -14.181  1.00  0.00     0.037 A 
BRANCH  42  56
ATOM     56  C   UNL     1       4.939  10.964 -13.624  1.00  0.00     0.058 A 
ATOM     57  C   UNL     1       5.469  12.230 -13.328  1.00  0.00     0.135 A 
ATOM     58  C   UNL     1       3.939  10.888 -14.607  1.00  0.00     0.135 A 
ATOM     59  F   UNL     1       6.414  12.364 -12.383  1.00  0.00    -0.206 F 
ATOM     60  C   UNL     1       5.019  13.377 -13.971  1.00  0.00     0.059 A 
ATOM     61  C   UNL     1       3.492  12.020 -15.284  1.00  0.00     0.059 A 
ATOM     62  F   UNL     1       3.394   9.704 -14.927  1.00  0.00    -0.206 F 
ATOM     63  C   UNL     1       4.034  13.261 -14.954  1.00  0.00     0.060 A 
BRANCH  63  64
ATOM     64  S   UNL     1       3.489  14.759 -15.801  1.00  0.00     0.124 S 
ATOM     65  O   UNL     1       2.756  15.444 -14.740  1.00  0.00    -0.237 OA
ATOM     66  O   UNL     1       4.754  15.371 -16.194  1.00  0.00    -0.237 OA
ATOM     67  O   UNL     1       2.672  14.252 -16.899  1.00  0.00    -0.744 OA
ENDBRANCH  63  64
ENDBRANCH  42  56
BRANCH  43  68
ATOM     68  C   UNL     1       8.468   2.904  -8.832  1.00  0.00     0.058 A 
ATOM     69  C   UNL     1       9.845   2.666  -8.710  1.00  0.00     0.135 A 
ATOM     70  C   UNL     1       7.592   1.935  -8.317  1.00  0.00     0.135 A 
ATOM     71  F   UNL     1      10.725   3.561  -9.186  1.00  0.00    -0.206 F 
ATOM     72  C   UNL     1      10.337   1.494  -8.144  1.00  0.00     0.059 A 
ATOM     73  C   UNL     1       8.060   0.769  -7.717  1.00  0.00     0.059 A 
ATOM     74  F   UNL     1       6.265   2.120  -8.387  1.00  0.00    -0.206 F 
ATOM     75  C   UNL     1       9.435   0.548  -7.656  1.00  0.00     0.060 A 
BRANCH  75  76
ATOM     76  S   UNL     1      10.082  -0.974  -6.931  1.00  0.00     0.124 S 
ATOM     77  O   UNL     1      10.543  -1.688  -8.116  1.00  0.00    -0.237 OA
ATOM     78  O   UNL     1      11.123  -0.471  -6.041  1.00  0.00    -0.237 OA
ATOM     79  O   UNL     1       8.918  -1.546  -6.261  1.00  0.00    -0.744 OA
ENDBRANCH  75  76
ENDBRANCH  43  68
BRANCH  55  80
ATOM     80  C   UNL     1       8.845   5.178 -15.412  1.00  0.00     0.058 A 
ATOM     81  C   UNL     1       8.334   4.057 -16.084  1.00  0.00     0.135 A 
ATOM     82  C   UNL     1       9.964   5.823 -15.966  1.00  0.00     0.135 A 
ATOM     83  F   UNL     1       7.273   3.399 -15.591  1.00  0.00    -0.206 F 
ATOM     84  C   UNL     1       8.917   3.586 -17.256  1.00  0.00     0.059 A 
ATOM     85  C   UNL     1      10.543   5.387 -17.153  1.00  0.00     0.059 A 
ATOM     86  F   UNL     1      10.487   6.904 -15.367  1.00  0.00    -0.206 F 
ATOM     87  C   UNL     1      10.016   4.263 -17.787  1.00  0.00     0.060 A 
BRANCH  87  88
ATOM     88  S   UNL     1      10.723   3.674 -19.340  1.00  0.00     0.124 S 
ATOM     89  O   UNL     1      11.373   2.438 -18.918  1.00  0.00    -0.237 OA
ATOM     90  O   UNL     1       9.539   3.514 -20.178  1.00  0.00    -0.237 OA
ATOM     91  O   UNL     1      11.623   4.753 -19.736  1.00  0.00    -0.744 OA
ENDBRANCH  87  88
ENDBRANCH  55  80
ENDBRANCH  29  30
ENDBRANCH  21  24
ENDBRANCH  19  20
ENDBRANCH  18  19
ENDBRANCH   1  18
TORSDOF 18
