REMARK SMILES O=C(C[C@@H]1CN(c2nc3ccccc3s2)CCO1)NCCCNC(=O)c1ccc(-c2c3nc(c(-c4c(F)cc(S(=O)(=O)[O-])cc4F)c4ccc([nH]4)c(-c4c(F)cc(S(=O)(=O)[O-])cc4F)c4nc(c(-c5c(F)cc(S(=O)(=O)[O-])cc5F)c5ccc2[nH]5)C=C4)C=C3)cc1
REMARK SMILES IDX 21 1 20 2 19 3 1 4 2 5 3 7 4 8 5 9 18 10 6 11 17 12 16 13
REMARK SMILES IDX 7 14 8 15 15 16 9 17 14 18 10 19 13 20 11 21 12 22 22 23
REMARK SMILES IDX 23 24 24 25 25 27 26 28 27 29 91 30 28 31 90 32 29 33 30 34
REMARK SMILES IDX 31 35 84 36 32 37 89 38 83 39 85 40 33 41 88 42 82 43 81 44
REMARK SMILES IDX 34 46 68 47 47 48 67 49 48 50 51 51 66 52 86 53 49 54 50 55
REMARK SMILES IDX 65 57 87 58 52 59 35 60 36 61 45 62 37 63 38 64 44 65 46 66
REMARK SMILES IDX 39 67 40 68 41 69 42 70 43 71 69 72 70 73 79 74 71 75 72 76
REMARK SMILES IDX 78 77 80 78 73 79 74 80 75 81 76 82 77 83 53 84 54 85 63 86
REMARK SMILES IDX 55 87 56 88 62 89 64 90 57 91 58 92 59 93 60 94 61 95
REMARK H PARENT 19 6 23 26 85 45 51 56
REMARK Flexibility Score: inf
ROOT
ATOM      1  C   UNL     1       2.334   0.311   3.453  1.00  0.00     0.042 C 
ENDROOT
BRANCH   1   2
ATOM      2  C   UNL     1       2.021   1.131   2.208  1.00  0.00     0.117 C 
BRANCH   2   3
ATOM      3  N   UNL     1       2.703   0.657   1.021  1.00  0.00    -0.356 N 
ATOM      4  O   UNL     1       0.873  -0.358   0.096  1.00  0.00    -0.275 OA
ATOM      5  C   UNL     1       2.043   0.009   0.005  1.00  0.00     0.222 C 
ATOM      6  H   UNL     1       3.673   0.805   0.939  1.00  0.00     0.163 HD
BRANCH   5   7
ATOM      7  C   UNL     1       2.867  -0.331  -1.224  1.00  0.00     0.133 C 
BRANCH   7   8
ATOM      8  C   UNL     1       3.797   0.753  -1.782  1.00  0.00     0.147 C 
ATOM      9  C   UNL     1       5.277   0.431  -1.467  1.00  0.00     0.151 C 
ATOM     10  O   UNL     1       3.426   2.057  -1.288  1.00  0.00    -0.374 OA
ATOM     11  N   UNL     1       6.114   1.528  -1.937  1.00  0.00    -0.343 N 
ATOM     12  C   UNL     1       4.276   3.093  -1.812  1.00  0.00     0.182 C 
ATOM     13  C   UNL     1       5.749   2.851  -1.446  1.00  0.00     0.147 C 
BRANCH  11  14
ATOM     14  C   UNL     1       7.260   1.342  -2.631  1.00  0.00     0.186 A 
ATOM     15  N   UNL     1       8.386   1.959  -2.358  1.00  0.00    -0.220 NA
ATOM     16  S   UNL     1       7.311   0.343  -4.040  1.00  0.00    -0.097 S 
ATOM     17  C   UNL     1       9.376   1.585  -3.250  1.00  0.00     0.084 A 
ATOM     18  C   UNL     1       8.960   0.748  -4.284  1.00  0.00     0.056 A 
ATOM     19  C   UNL     1      10.728   1.982  -3.205  1.00  0.00     0.030 A 
ATOM     20  C   UNL     1       9.829   0.342  -5.311  1.00  0.00     0.021 A 
ATOM     21  C   UNL     1      11.611   1.558  -4.204  1.00  0.00     0.002 A 
ATOM     22  C   UNL     1      11.161   0.761  -5.252  1.00  0.00     0.002 A 
ENDBRANCH  11  14
ENDBRANCH   7   8
ENDBRANCH   5   7
ENDBRANCH   2   3
ENDBRANCH   1   2
BRANCH   1  23
ATOM     23  C   UNL     1       3.807   0.277   3.853  1.00  0.00     0.118 C 
BRANCH  23  24
ATOM     24  N   UNL     1       4.360   1.591   4.151  1.00  0.00    -0.352 N 
ATOM     25  C   UNL     1       5.112   2.026   5.213  1.00  0.00     0.251 C 
ATOM     26  H   UNL     1       4.161   2.281   3.478  1.00  0.00     0.163 HD
ATOM     27  O   UNL     1       5.376   3.227   5.295  1.00  0.00    -0.269 OA
BRANCH  25  28
ATOM     28  C   UNL     1       5.584   1.098   6.270  1.00  0.00     0.039 A 
ATOM     29  C   UNL     1       5.585   1.550   7.594  1.00  0.00     0.014 A 
ATOM     30  C   UNL     1       6.058  -0.184   5.982  1.00  0.00     0.014 A 
ATOM     31  C   UNL     1       6.000   0.703   8.625  1.00  0.00     0.010 A 
ATOM     32  C   UNL     1       6.404  -1.055   7.020  1.00  0.00     0.010 A 
ATOM     33  C   UNL     1       6.381  -0.621   8.353  1.00  0.00    -0.014 A 
BRANCH  33  34
ATOM     34  C   UNL     1       6.730  -1.551   9.463  1.00  0.00     0.031 A 
ATOM     35  C   UNL     1       8.119  -2.117   9.594  1.00  0.00     0.074 A 
ATOM     36  C   UNL     1       5.776  -1.911  10.346  1.00  0.00     0.049 A 
ATOM     37  N   UNL     1       8.601  -2.918  10.512  1.00  0.00    -0.248 NA
ATOM     38  C   UNL     1       9.088  -1.759   8.546  1.00  0.00     0.031 C 
ATOM     39  C   UNL     1       4.374  -1.489  10.293  1.00  0.00     0.029 A 
ATOM     40  N   UNL     1       5.838  -2.708  11.461  1.00  0.00    -0.354 N 
ATOM     41  C   UNL     1       9.921  -3.164  10.151  1.00  0.00     0.074 A 
ATOM     42  C   UNL     1      10.148  -2.471   8.900  1.00  0.00     0.031 C 
ATOM     43  C   UNL     1       3.719  -2.002  11.347  1.00  0.00     0.029 A 
ATOM     44  C   UNL     1       4.644  -2.809  12.136  1.00  0.00     0.049 A 
ATOM     45  H   UNL     1       6.661  -3.166  11.751  1.00  0.00     0.167 HD
ATOM     46  C   UNL     1      10.864  -3.880  10.811  1.00  0.00     0.037 A 
ATOM     47  C   UNL     1       4.330  -3.467  13.269  1.00  0.00     0.037 A 
ATOM     48  C   UNL     1      10.642  -4.552  12.067  1.00  0.00     0.049 A 
ATOM     49  C   UNL     1       5.403  -4.222  14.003  1.00  0.00     0.074 A 
ATOM     50  C   UNL     1      11.550  -5.255  12.841  1.00  0.00     0.029 A 
ATOM     51  N   UNL     1       9.427  -4.605  12.735  1.00  0.00    -0.354 N 
ATOM     52  N   UNL     1       6.664  -4.384  13.683  1.00  0.00    -0.248 NA
ATOM     53  C   UNL     1       5.013  -4.870  15.263  1.00  0.00     0.031 C 
ATOM     54  C   UNL     1      10.876  -5.763  13.958  1.00  0.00     0.029 A 
ATOM     55  C   UNL     1       9.558  -5.338  13.904  1.00  0.00     0.049 A 
ATOM     56  H   UNL     1       8.593  -4.183  12.424  1.00  0.00     0.167 HD
ATOM     57  C   UNL     1       7.225  -5.130  14.714  1.00  0.00     0.074 A 
ATOM     58  C   UNL     1       6.168  -5.371  15.676  1.00  0.00     0.031 C 
ATOM     59  C   UNL     1       8.499  -5.575  14.852  1.00  0.00     0.037 A 
BRANCH  46  60
ATOM     60  C   UNL     1      12.233  -3.966  10.191  1.00  0.00     0.058 A 
ATOM     61  C   UNL     1      13.090  -2.854  10.140  1.00  0.00     0.135 A 
ATOM     62  C   UNL     1      12.711  -5.181   9.673  1.00  0.00     0.135 A 
ATOM     63  F   UNL     1      12.681  -1.664  10.609  1.00  0.00    -0.206 F 
ATOM     64  C   UNL     1      14.357  -2.934   9.571  1.00  0.00     0.059 A 
ATOM     65  C   UNL     1      13.986  -5.291   9.124  1.00  0.00     0.059 A 
ATOM     66  F   UNL     1      11.938  -6.277   9.696  1.00  0.00    -0.206 F 
ATOM     67  C   UNL     1      14.796  -4.157   9.063  1.00  0.00     0.060 A 
BRANCH  67  68
ATOM     68  S   UNL     1      16.443  -4.248   8.330  1.00  0.00     0.124 S 
ATOM     69  O   UNL     1      16.233  -3.559   7.059  1.00  0.00    -0.237 OA
ATOM     70  O   UNL     1      17.261  -3.534   9.307  1.00  0.00    -0.237 OA
ATOM     71  O   UNL     1      16.696  -5.680   8.233  1.00  0.00    -0.744 OA
ENDBRANCH  67  68
ENDBRANCH  46  60
BRANCH  47  72
ATOM     72  C   UNL     1       2.943  -3.400  13.803  1.00  0.00     0.058 A 
ATOM     73  C   UNL     1       2.651  -2.666  14.962  1.00  0.00     0.135 A 
ATOM     74  C   UNL     1       1.883  -4.058  13.161  1.00  0.00     0.135 A 
ATOM     75  F   UNL     1       3.633  -2.024  15.614  1.00  0.00    -0.206 F 
ATOM     76  C   UNL     1       1.361  -2.599  15.477  1.00  0.00     0.059 A 
ATOM     77  C   UNL     1       0.580  -3.985  13.642  1.00  0.00     0.059 A 
ATOM     78  F   UNL     1       2.108  -4.758  12.038  1.00  0.00    -0.206 F 
ATOM     79  C   UNL     1       0.331  -3.261  14.808  1.00  0.00     0.060 A 
BRANCH  79  80
ATOM     80  S   UNL     1      -1.350  -3.128  15.455  1.00  0.00     0.124 S 
ATOM     81  O   UNL     1      -1.291  -4.015  16.611  1.00  0.00    -0.237 OA
ATOM     82  O   UNL     1      -1.454  -1.702  15.750  1.00  0.00    -0.237 OA
ATOM     83  O   UNL     1      -2.174  -3.591  14.343  1.00  0.00    -0.744 OA
ENDBRANCH  79  80
ENDBRANCH  47  72
BRANCH  59  84
ATOM     84  C   UNL     1       8.822  -6.342  16.106  1.00  0.00     0.058 A 
ATOM     85  C   UNL     1       8.339  -7.642  16.323  1.00  0.00     0.135 A 
ATOM     86  C   UNL     1       9.625  -5.766  17.104  1.00  0.00     0.135 A 
ATOM     87  F   UNL     1       7.564  -8.238  15.403  1.00  0.00    -0.206 F 
ATOM     88  C   UNL     1       8.600  -8.326  17.506  1.00  0.00     0.059 A 
ATOM     89  C   UNL     1       9.923  -6.443  18.282  1.00  0.00     0.059 A 
ATOM     90  F   UNL     1      10.126  -4.531  16.941  1.00  0.00    -0.206 F 
ATOM     91  C   UNL     1       9.387  -7.714  18.484  1.00  0.00     0.060 A 
BRANCH  91  92
ATOM     92  S   UNL     1       9.708  -8.602  20.023  1.00  0.00     0.124 S 
ATOM     93  O   UNL     1       8.443  -8.430  20.729  1.00  0.00    -0.237 OA
ATOM     94  O   UNL     1       9.993  -9.955  19.553  1.00  0.00    -0.237 OA
ATOM     95  O   UNL     1      10.849  -7.891  20.592  1.00  0.00    -0.744 OA
ENDBRANCH  91  92
ENDBRANCH  59  84
ENDBRANCH  33  34
ENDBRANCH  25  28
ENDBRANCH  23  24
ENDBRANCH   1  23
TORSDOF 15
