REMARK SMILES CC1(C)OC(=O)C(/C=N/[C@@H](CCC(N)=O)C(=O)NCCCNC(=O)c2ccc(-c3c4nc(c(-c5c(F)cc(S(=O)(=O)[O-])cc5F)c5ccc([nH]5)c(-c5c(F)cc(S(=O)(=O)[O-])cc5F)c5nc(c(-c6c(F)cc(S(=O)(=O)[O-])cc6F)c6ccc3[nH]6)C=C5)C=C4)cc2)C(=O)O1
REMARK SMILES IDX 20 1 19 2 18 3 16 4 17 5 10 7 9 8 8 9 7 10 1 11 2 12 3 13
REMARK SMILES IDX 4 14 93 15 5 16 91 17 6 18 92 19 11 20 12 21 13 22 14 23
REMARK SMILES IDX 15 24 21 27 22 28 23 29 24 31 25 32 26 33 90 34 27 35 89 36
REMARK SMILES IDX 28 37 29 38 30 39 83 40 31 41 88 42 82 43 84 44 32 45 87 46
REMARK SMILES IDX 81 47 80 48 33 50 67 51 46 52 66 53 47 54 50 55 65 56 85 57
REMARK SMILES IDX 48 58 49 59 64 61 86 62 51 63 34 64 35 65 44 66 36 67 37 68
REMARK SMILES IDX 43 69 45 70 38 71 39 72 40 73 41 74 42 75 68 76 69 77 78 78
REMARK SMILES IDX 70 79 71 80 77 81 79 82 72 83 73 84 74 85 75 86 76 87 52 88
REMARK SMILES IDX 53 89 62 90 54 91 55 92 61 93 63 94 56 95 57 96 58 97 59 98
REMARK SMILES IDX 60 99
REMARK H PARENT 18 6 14 25 14 26 22 30 84 49 50 60
REMARK Flexibility Score: inf
ROOT
ATOM      1  C   UNL     1       1.828   0.911   2.884  1.00  0.00     0.042 C 
ENDROOT
BRANCH   1   2
ATOM      2  C   UNL     1       1.249   1.952   3.812  1.00  0.00     0.117 C 
BRANCH   2   3
ATOM      3  N   UNL     1       1.793   3.266   3.629  1.00  0.00    -0.354 N 
ATOM      4  C   UNL     1       1.197   4.378   3.120  1.00  0.00     0.244 C 
ATOM      5  O   UNL     1       1.812   5.445   3.234  1.00  0.00    -0.273 OA
ATOM      6  H   UNL     1       2.729   3.379   3.911  1.00  0.00     0.163 HD
BRANCH   4   7
ATOM      7  C   UNL     1      -0.169   4.328   2.406  1.00  0.00     0.194 C 
BRANCH   7   8
ATOM      8  N   UNL     1      -0.117   3.508   1.174  1.00  0.00    -0.283 NA
ATOM      9  C   UNL     1      -0.625   2.349   1.021  1.00  0.00     0.105 C 
BRANCH   9  10
ATOM     10  C   UNL     1      -0.488   1.608  -0.292  1.00  0.00     0.250 C 
ATOM     11  C   UNL     1      -0.188  -2.131   0.992  1.00  0.00     0.106 C 
ATOM     12  C   UNL     1      -0.167  -1.206  -0.225  1.00  0.00     0.252 C 
ATOM     13  C   UNL     1       0.078  -2.017  -1.495  1.00  0.00     0.106 C 
ATOM     14  O   UNL     1       0.931  -0.319  -0.038  1.00  0.00    -0.422 OA
ATOM     15  O   UNL     1      -1.464  -0.613  -0.318  1.00  0.00    -0.422 OA
ATOM     16  C   UNL     1       0.839   0.960  -0.430  1.00  0.00     0.329 C 
ATOM     17  C   UNL     1      -1.647   0.703  -0.478  1.00  0.00     0.329 C 
ATOM     18  O   UNL     1       1.849   1.583  -0.739  1.00  0.00    -0.251 OA
ATOM     19  O   UNL     1      -2.780   1.150  -0.645  1.00  0.00    -0.251 OA
ENDBRANCH   9  10
ENDBRANCH   7   8
BRANCH   7  20
ATOM     20  C   UNL     1      -1.473   4.351   3.225  1.00  0.00     0.047 C 
BRANCH  20  21
ATOM     21  C   UNL     1      -1.877   3.235   4.192  1.00  0.00     0.102 C 
BRANCH  21  22
ATOM     22  C   UNL     1      -1.102   3.192   5.494  1.00  0.00     0.217 C 
ATOM     23  N   UNL     1      -1.199   2.009   6.170  1.00  0.00    -0.370 N 
ATOM     24  O   UNL     1      -0.439   4.118   5.940  1.00  0.00    -0.275 OA
ATOM     25  H   UNL     1      -1.737   1.273   5.799  1.00  0.00     0.159 HD
ATOM     26  H   UNL     1      -0.731   1.893   7.028  1.00  0.00     0.159 HD
ENDBRANCH  21  22
ENDBRANCH  20  21
ENDBRANCH   7  20
ENDBRANCH   4   7
ENDBRANCH   2   3
ENDBRANCH   1   2
BRANCH   1  27
ATOM     27  C   UNL     1       2.800  -0.022   3.572  1.00  0.00     0.118 C 
BRANCH  27  28
ATOM     28  N   UNL     1       2.182  -0.781   4.657  1.00  0.00    -0.352 N 
ATOM     29  C   UNL     1       2.201  -2.127   4.935  1.00  0.00     0.251 C 
ATOM     30  H   UNL     1       1.665  -0.237   5.295  1.00  0.00     0.163 HD
ATOM     31  O   UNL     1       1.490  -2.558   5.833  1.00  0.00    -0.269 OA
BRANCH  29  32
ATOM     32  C   UNL     1       3.041  -3.044   4.131  1.00  0.00     0.039 A 
ATOM     33  C   UNL     1       2.586  -4.343   3.888  1.00  0.00     0.014 A 
ATOM     34  C   UNL     1       4.270  -2.633   3.617  1.00  0.00     0.014 A 
ATOM     35  C   UNL     1       3.338  -5.198   3.079  1.00  0.00     0.010 A 
ATOM     36  C   UNL     1       4.942  -3.429   2.703  1.00  0.00     0.010 A 
ATOM     37  C   UNL     1       4.506  -4.735   2.454  1.00  0.00    -0.014 A 
BRANCH  37  38
ATOM     38  C   UNL     1       5.338  -5.609   1.593  1.00  0.00     0.031 A 
ATOM     39  C   UNL     1       6.778  -5.859   1.966  1.00  0.00     0.074 A 
ATOM     40  C   UNL     1       4.829  -6.108   0.450  1.00  0.00     0.049 A 
ATOM     41  N   UNL     1       7.706  -6.497   1.303  1.00  0.00    -0.248 NA
ATOM     42  C   UNL     1       7.251  -5.269   3.232  1.00  0.00     0.031 C 
ATOM     43  C   UNL     1       3.472  -5.873  -0.051  1.00  0.00     0.029 A 
ATOM     44  N   UNL     1       5.397  -6.913  -0.502  1.00  0.00    -0.354 N 
ATOM     45  C   UNL     1       8.871  -6.351   2.049  1.00  0.00     0.074 A 
ATOM     46  C   UNL     1       8.552  -5.505   3.175  1.00  0.00     0.031 C 
ATOM     47  C   UNL     1       3.303  -6.550  -1.199  1.00  0.00     0.029 A 
ATOM     48  C   UNL     1       4.546  -7.238  -1.532  1.00  0.00     0.049 A 
ATOM     49  H   UNL     1       6.328  -7.230  -0.454  1.00  0.00     0.167 HD
ATOM     50  C   UNL     1      10.088  -6.904   1.838  1.00  0.00     0.037 A 
ATOM     51  C   UNL     1       4.748  -8.010  -2.616  1.00  0.00     0.037 A 
ATOM     52  C   UNL     1      10.375  -7.800   0.751  1.00  0.00     0.049 A 
ATOM     53  C   UNL     1       6.087  -8.675  -2.791  1.00  0.00     0.074 A 
ATOM     54  C   UNL     1      11.550  -8.474   0.475  1.00  0.00     0.029 A 
ATOM     55  N   UNL     1       9.462  -8.163  -0.229  1.00  0.00    -0.354 N 
ATOM     56  N   UNL     1       7.163  -8.569  -2.047  1.00  0.00    -0.248 NA
ATOM     57  C   UNL     1       6.235  -9.576  -3.941  1.00  0.00     0.031 C 
ATOM     58  C   UNL     1      11.355  -9.229  -0.687  1.00  0.00     0.029 A 
ATOM     59  C   UNL     1      10.046  -9.056  -1.110  1.00  0.00     0.049 A 
ATOM     60  H   UNL     1       8.536  -7.834  -0.289  1.00  0.00     0.167 HD
ATOM     61  C   UNL     1       8.104  -9.419  -2.617  1.00  0.00     0.074 A 
ATOM     62  C   UNL     1       7.467 -10.034  -3.764  1.00  0.00     0.031 C 
ATOM     63  C   UNL     1       9.379  -9.670  -2.229  1.00  0.00     0.037 A 
BRANCH  50  64
ATOM     64  C   UNL     1      11.182  -6.574   2.817  1.00  0.00     0.058 A 
ATOM     65  C   UNL     1      11.150  -7.040   4.142  1.00  0.00     0.135 A 
ATOM     66  C   UNL     1      12.280  -5.791   2.427  1.00  0.00     0.135 A 
ATOM     67  F   UNL     1      10.114  -7.776   4.575  1.00  0.00    -0.206 F 
ATOM     68  C   UNL     1      12.146  -6.710   5.055  1.00  0.00     0.059 A 
ATOM     69  C   UNL     1      13.304  -5.475   3.316  1.00  0.00     0.059 A 
ATOM     70  F   UNL     1      12.362  -5.317   1.174  1.00  0.00    -0.206 F 
ATOM     71  C   UNL     1      13.219  -5.925   4.633  1.00  0.00     0.060 A 
BRANCH  71  72
ATOM     72  S   UNL     1      14.503  -5.507   5.830  1.00  0.00     0.124 S 
ATOM     73  O   UNL     1      13.830  -4.493   6.636  1.00  0.00    -0.237 OA
ATOM     74  O   UNL     1      14.742  -6.786   6.492  1.00  0.00    -0.237 OA
ATOM     75  O   UNL     1      15.599  -5.022   4.996  1.00  0.00    -0.744 OA
ENDBRANCH  71  72
ENDBRANCH  50  64
BRANCH  51  76
ATOM     76  C   UNL     1       3.642  -8.243  -3.581  1.00  0.00     0.058 A 
ATOM     77  C   UNL     1       2.999  -9.488  -3.649  1.00  0.00     0.135 A 
ATOM     78  C   UNL     1       3.192  -7.226  -4.437  1.00  0.00     0.135 A 
ATOM     79  F   UNL     1       3.393 -10.490  -2.849  1.00  0.00    -0.206 F 
ATOM     80  C   UNL     1       1.962  -9.725  -4.546  1.00  0.00     0.059 A 
ATOM     81  C   UNL     1       2.141  -7.433  -5.326  1.00  0.00     0.059 A 
ATOM     82  F   UNL     1       3.755  -6.009  -4.392  1.00  0.00    -0.206 F 
ATOM     83  C   UNL     1       1.540  -8.690  -5.380  1.00  0.00     0.060 A 
BRANCH  83  84
ATOM     84  S   UNL     1       0.158  -8.991  -6.504  1.00  0.00     0.124 S 
ATOM     85  O   UNL     1       0.790  -9.808  -7.533  1.00  0.00    -0.237 OA
ATOM     86  O   UNL     1      -0.796  -9.678  -5.639  1.00  0.00    -0.237 OA
ATOM     87  O   UNL     1      -0.237  -7.647  -6.914  1.00  0.00    -0.744 OA
ENDBRANCH  83  84
ENDBRANCH  51  76
BRANCH  63  88
ATOM     88  C   UNL     1      10.147 -10.694  -3.014  1.00  0.00     0.058 A 
ATOM     89  C   UNL     1      10.639 -10.424  -4.300  1.00  0.00     0.135 A 
ATOM     90  C   UNL     1      10.430 -11.947  -2.449  1.00  0.00     0.135 A 
ATOM     91  F   UNL     1      10.391  -9.241  -4.884  1.00  0.00    -0.206 F 
ATOM     92  C   UNL     1      11.361 -11.374  -5.012  1.00  0.00     0.059 A 
ATOM     93  C   UNL     1      11.173 -12.903  -3.132  1.00  0.00     0.059 A 
ATOM     94  F   UNL     1       9.992 -12.248  -1.216  1.00  0.00    -0.206 F 
ATOM     95  C   UNL     1      11.621 -12.612  -4.420  1.00  0.00     0.060 A 
BRANCH  95  96
ATOM     96  S   UNL     1      12.576 -13.832  -5.345  1.00  0.00     0.124 S 
ATOM     97  O   UNL     1      11.582 -14.322  -6.295  1.00  0.00    -0.237 OA
ATOM     98  O   UNL     1      13.652 -13.025  -5.912  1.00  0.00    -0.237 OA
ATOM     99  O   UNL     1      12.990 -14.786  -4.320  1.00  0.00    -0.744 OA
ENDBRANCH  95  96
ENDBRANCH  63  88
ENDBRANCH  37  38
ENDBRANCH  29  32
ENDBRANCH  27  28
ENDBRANCH   1  27
TORSDOF 18
