REMARK SMILES CC[C@@H](C)[C@H](NC(=O)N1CCn2c1nc1ccccc12)C(=O)N[C@H](C)C(=O)NCCCNC(=O)c1ccc(-c2c3nc(c(-c4c(F)cc(S(=O)(=O)[O-])cc4F)c4ccc([nH]4)c(-c4c(F)cc(S(=O)(=O)[O-])cc4F)c4nc(c(-c5c(F)cc(S(=O)(=O)[O-])cc5F)c5ccc2[nH]5)C=C4)C=C3)cc1
REMARK SMILES IDX 29 1 28 2 26 3 27 4 24 6 25 7 23 8 21 9 22 10 5 12 3 13 4 14
REMARK SMILES IDX 2 15 1 16 6 17 7 18 8 20 9 21 10 22 13 23 11 24 12 25 14 26
REMARK SMILES IDX 20 27 15 28 19 29 16 30 18 31 17 32 30 33 31 34 32 35 33 36
REMARK SMILES IDX 34 38 35 39 36 40 100 41 37 42 99 43 38 44 39 45 40 46 93 47
REMARK SMILES IDX 41 48 98 49 92 50 94 51 42 52 97 53 91 54 90 55 43 57 77 58
REMARK SMILES IDX 56 59 76 60 57 61 60 62 75 63 95 64 58 65 59 66 74 68 96 69
REMARK SMILES IDX 61 70 44 71 45 72 54 73 46 74 47 75 53 76 55 77 48 78 49 79
REMARK SMILES IDX 50 80 51 81 52 82 78 83 79 84 88 85 80 86 81 87 87 88 89 89
REMARK SMILES IDX 82 90 83 91 84 92 85 93 86 94 62 95 63 96 72 97 64 98 65 99
REMARK SMILES IDX 71 100 73 101 66 102 67 103 68 104 69 105 70 106
REMARK H PARENT 28 5 23 11 6 19 32 37 94 56 60 67
REMARK Flexibility Score: inf
ROOT
ATOM      1  C   UNL     1       2.777   7.526   2.441  1.00  0.00     0.117 C 
ENDROOT
BRANCH   1   2
ATOM      2  N   UNL     1       2.642   6.507   3.467  1.00  0.00    -0.354 N 
ATOM      3  C   UNL     1       2.530   5.140   3.349  1.00  0.00     0.242 C 
ATOM      4  O   UNL     1       2.510   4.508   4.418  1.00  0.00    -0.273 OA
ATOM      5  H   UNL     1       2.629   6.847   4.391  1.00  0.00     0.163 HD
BRANCH   3   6
ATOM      6  C   UNL     1       2.540   4.331   1.999  1.00  0.00     0.168 C 
ATOM      7  C   UNL     1       1.631   4.784   0.865  1.00  0.00     0.041 C 
BRANCH   6   8
ATOM      8  N   UNL     1       3.709   3.558   1.532  1.00  0.00    -0.343 N 
ATOM      9  C   UNL     1       4.906   3.763   0.942  1.00  0.00     0.243 C 
ATOM     10  O   UNL     1       5.493   2.719   0.615  1.00  0.00    -0.273 OA
ATOM     11  H   UNL     1       3.574   2.598   1.704  1.00  0.00     0.164 HD
BRANCH   9  12
ATOM     12  C   UNL     1       5.675   5.085   0.941  1.00  0.00     0.176 C 
BRANCH  12  13
ATOM     13  C   UNL     1       6.440   5.213   2.368  1.00  0.00     0.018 C 
ATOM     14  C   UNL     1       7.353   4.000   2.607  1.00  0.00     0.010 C 
BRANCH  13  15
ATOM     15  C   UNL     1       5.641   5.306   3.697  1.00  0.00     0.002 C 
ATOM     16  C   UNL     1       6.429   5.888   4.891  1.00  0.00     0.004 C 
ENDBRANCH  13  15
ENDBRANCH  12  13
BRANCH  12  17
ATOM     17  N   UNL     1       4.926   6.282   0.501  1.00  0.00    -0.326 N 
ATOM     18  C   UNL     1       4.313   6.778  -0.599  1.00  0.00     0.324 C 
ATOM     19  H   UNL     1       4.850   6.922   1.245  1.00  0.00     0.166 HD
ATOM     20  O   UNL     1       3.804   7.897  -0.425  1.00  0.00    -0.248 OA
BRANCH  18  21
ATOM     21  N   UNL     1       4.178   6.216  -1.817  1.00  0.00    -0.262 N 
ATOM     22  C   UNL     1       3.422   6.910  -2.910  1.00  0.00     0.152 C 
ATOM     23  C   UNL     1       4.802   5.132  -2.350  1.00  0.00     0.214 A 
ATOM     24  C   UNL     1       3.737   6.141  -4.203  1.00  0.00     0.148 C 
ATOM     25  N   UNL     1       4.587   5.080  -3.701  1.00  0.00    -0.308 N 
ATOM     26  N   UNL     1       5.596   4.183  -1.956  1.00  0.00    -0.212 NA
ATOM     27  C   UNL     1       5.372   4.128  -4.253  1.00  0.00     0.070 A 
ATOM     28  C   UNL     1       5.951   3.535  -3.124  1.00  0.00     0.091 A 
ATOM     29  C   UNL     1       5.656   3.731  -5.561  1.00  0.00     0.028 A 
ATOM     30  C   UNL     1       6.809   2.442  -3.295  1.00  0.00     0.031 A 
ATOM     31  C   UNL     1       6.555   2.666  -5.706  1.00  0.00     0.002 A 
ATOM     32  C   UNL     1       7.109   2.021  -4.595  1.00  0.00     0.002 A 
ENDBRANCH  18  21
ENDBRANCH  12  17
ENDBRANCH   9  12
ENDBRANCH   6   8
ENDBRANCH   3   6
ENDBRANCH   1   2
BRANCH   1  33
ATOM     33  C   UNL     1       3.726   8.762   2.644  1.00  0.00     0.042 C 
BRANCH  33  34
ATOM     34  C   UNL     1       5.168   8.587   3.163  1.00  0.00     0.118 C 
BRANCH  34  35
ATOM     35  N   UNL     1       6.336   9.022   2.385  1.00  0.00    -0.352 N 
ATOM     36  C   UNL     1       7.211  10.034   2.742  1.00  0.00     0.251 C 
ATOM     37  H   UNL     1       6.513   8.553   1.538  1.00  0.00     0.163 HD
ATOM     38  O   UNL     1       8.428   9.944   2.627  1.00  0.00    -0.269 OA
BRANCH  36  39
ATOM     39  C   UNL     1       6.564  11.324   2.984  1.00  0.00     0.039 A 
ATOM     40  C   UNL     1       5.747  11.457   4.105  1.00  0.00     0.014 A 
ATOM     41  C   UNL     1       6.355  12.041   1.805  1.00  0.00     0.014 A 
ATOM     42  C   UNL     1       4.530  12.089   3.938  1.00  0.00     0.010 A 
ATOM     43  C   UNL     1       5.152  12.693   1.654  1.00  0.00     0.010 A 
ATOM     44  C   UNL     1       4.206  12.627   2.687  1.00  0.00    -0.014 A 
BRANCH  44  45
ATOM     45  C   UNL     1       2.849  13.166   2.529  1.00  0.00     0.031 A 
ATOM     46  C   UNL     1       2.953  14.639   2.273  1.00  0.00     0.074 A 
ATOM     47  C   UNL     1       1.935  12.454   1.834  1.00  0.00     0.049 A 
ATOM     48  N   UNL     1       3.271  15.162   1.127  1.00  0.00    -0.248 NA
ATOM     49  C   UNL     1       3.082  15.557   3.406  1.00  0.00     0.031 C 
ATOM     50  C   UNL     1       2.165  11.742   0.571  1.00  0.00     0.029 A 
ATOM     51  N   UNL     1       0.568  12.412   2.008  1.00  0.00    -0.354 N 
ATOM     52  C   UNL     1       3.702  16.452   1.383  1.00  0.00     0.074 A 
ATOM     53  C   UNL     1       3.571  16.652   2.808  1.00  0.00     0.031 C 
ATOM     54  C   UNL     1       0.974  11.507  -0.013  1.00  0.00     0.029 A 
ATOM     55  C   UNL     1      -0.097  11.979   0.861  1.00  0.00     0.049 A 
ATOM     56  H   UNL     1       0.113  12.658   2.846  1.00  0.00     0.167 HD
ATOM     57  C   UNL     1       4.153  17.288   0.415  1.00  0.00     0.037 A 
ATOM     58  C   UNL     1      -1.284  12.509   0.447  1.00  0.00     0.037 A 
ATOM     59  C   UNL     1       4.084  16.788  -0.923  1.00  0.00     0.049 A 
ATOM     60  C   UNL     1      -0.794  13.713  -0.328  1.00  0.00     0.074 A 
ATOM     61  C   UNL     1       4.941  16.302  -1.885  1.00  0.00     0.029 A 
ATOM     62  N   UNL     1       2.839  16.744  -1.505  1.00  0.00    -0.354 N 
ATOM     63  N   UNL     1      -0.320  13.713  -1.548  1.00  0.00    -0.248 NA
ATOM     64  C   UNL     1      -0.460  14.913   0.446  1.00  0.00     0.031 C 
ATOM     65  C   UNL     1       4.111  15.594  -2.812  1.00  0.00     0.029 A 
ATOM     66  C   UNL     1       2.802  15.654  -2.331  1.00  0.00     0.049 A 
ATOM     67  H   UNL     1       2.105  17.383  -1.353  1.00  0.00     0.167 HD
ATOM     68  C   UNL     1       0.610  14.759  -1.587  1.00  0.00     0.074 A 
ATOM     69  C   UNL     1       0.428  15.492  -0.351  1.00  0.00     0.031 C 
ATOM     70  C   UNL     1       1.610  14.853  -2.513  1.00  0.00     0.037 A 
BRANCH  57  71
ATOM     71  C   UNL     1       4.441  18.716   0.636  1.00  0.00     0.058 A 
ATOM     72  C   UNL     1       3.436  19.628   0.281  1.00  0.00     0.135 A 
ATOM     73  C   UNL     1       5.706  19.210   0.968  1.00  0.00     0.135 A 
ATOM     74  F   UNL     1       2.206  19.183  -0.030  1.00  0.00    -0.206 F 
ATOM     75  C   UNL     1       3.691  20.983   0.178  1.00  0.00     0.059 A 
ATOM     76  C   UNL     1       5.983  20.575   0.886  1.00  0.00     0.059 A 
ATOM     77  F   UNL     1       6.693  18.373   1.323  1.00  0.00    -0.206 F 
ATOM     78  C   UNL     1       4.977  21.445   0.455  1.00  0.00     0.060 A 
BRANCH  78  79
ATOM     79  S   UNL     1       5.307  23.197   0.185  1.00  0.00     0.124 S 
ATOM     80  O   UNL     1       5.148  23.309  -1.261  1.00  0.00    -0.237 OA
ATOM     81  O   UNL     1       4.264  23.827   0.989  1.00  0.00    -0.237 OA
ATOM     82  O   UNL     1       6.668  23.367   0.683  1.00  0.00    -0.744 OA
ENDBRANCH  78  79
ENDBRANCH  57  71
BRANCH  58  83
ATOM     83  C   UNL     1      -2.349  12.525   1.502  1.00  0.00     0.058 A 
ATOM     84  C   UNL     1      -2.645  11.300   2.143  1.00  0.00     0.135 A 
ATOM     85  C   UNL     1      -3.030  13.652   1.983  1.00  0.00     0.135 A 
ATOM     86  F   UNL     1      -2.135  10.150   1.671  1.00  0.00    -0.206 F 
ATOM     87  C   UNL     1      -3.416  11.227   3.297  1.00  0.00     0.059 A 
ATOM     88  C   UNL     1      -3.791  13.610   3.154  1.00  0.00     0.059 A 
ATOM     89  F   UNL     1      -2.946  14.833   1.359  1.00  0.00    -0.206 F 
ATOM     90  C   UNL     1      -3.939  12.401   3.828  1.00  0.00     0.060 A 
BRANCH  90  91
ATOM     91  S   UNL     1      -4.733  12.325   5.446  1.00  0.00     0.124 S 
ATOM     92  O   UNL     1      -5.850  11.421   5.195  1.00  0.00    -0.237 OA
ATOM     93  O   UNL     1      -3.656  11.793   6.275  1.00  0.00    -0.237 OA
ATOM     94  O   UNL     1      -5.093  13.715   5.711  1.00  0.00    -0.744 OA
ENDBRANCH  90  91
ENDBRANCH  58  83
BRANCH  70  95
ATOM     95  C   UNL     1       1.540  13.892  -3.651  1.00  0.00     0.058 A 
ATOM     96  C   UNL     1       0.548  14.034  -4.630  1.00  0.00     0.135 A 
ATOM     97  C   UNL     1       2.497  12.879  -3.826  1.00  0.00     0.135 A 
ATOM     98  F   UNL     1      -0.383  14.996  -4.518  1.00  0.00    -0.206 F 
ATOM     99  C   UNL     1       0.521  13.220  -5.758  1.00  0.00     0.059 A 
ATOM    100  C   UNL     1       2.508  12.075  -4.961  1.00  0.00     0.059 A 
ATOM    101  F   UNL     1       3.460  12.676  -2.912  1.00  0.00    -0.206 F 
ATOM    102  C   UNL     1       1.516  12.254  -5.923  1.00  0.00     0.060 A 
BRANCH 102 103
ATOM    103  S   UNL     1       1.530  11.278  -7.439  1.00  0.00     0.124 S 
ATOM    104  O   UNL     1       0.353  10.433  -7.268  1.00  0.00    -0.237 OA
ATOM    105  O   UNL     1       1.434  12.304  -8.472  1.00  0.00    -0.237 OA
ATOM    106  O   UNL     1       2.810  10.574  -7.381  1.00  0.00    -0.744 OA
ENDBRANCH 102 103
ENDBRANCH  70  95
ENDBRANCH  44  45
ENDBRANCH  36  39
ENDBRANCH  34  35
ENDBRANCH  33  34
ENDBRANCH   1  33
TORSDOF 19
