REMARK SMILES CC[N@@H+](C[C@H]1CCCO1)[C@@H](C)c1ccc(C(=O)NCCCNC(=O)c2ccc(-c3c4nc(c(-c5c(F)cc(S(=O)(=O)[O-])cc5F)c5ccc([nH]5)c(-c5c(F)cc(S(=O)(=O)[O-])cc5F)c5nc(c(-c6c(F)cc(S(=O)(=O)[O-])cc6F)c6ccc3[nH]6)C=C5)C=C4)cc2)o1
REMARK SMILES IDX 19 1 18 2 16 3 17 4 15 6 12 7 13 8 91 9 14 10 10 11 11 12
REMARK SMILES IDX 3 13 2 15 1 16 4 17 5 18 6 19 9 20 7 21 8 22 20 23 21 24
REMARK SMILES IDX 22 25 23 26 24 28 25 29 26 30 90 31 27 32 89 33 28 34 29 35
REMARK SMILES IDX 30 36 83 37 31 38 88 39 82 40 84 41 32 42 87 43 81 44 80 45
REMARK SMILES IDX 33 47 67 48 46 49 66 50 47 51 50 52 65 53 85 54 48 55 49 56
REMARK SMILES IDX 64 58 86 59 51 60 34 61 35 62 44 63 36 64 37 65 43 66 45 67
REMARK SMILES IDX 38 68 39 69 40 70 41 71 42 72 68 73 69 74 78 75 70 76 71 77
REMARK SMILES IDX 77 78 79 79 72 80 73 81 74 82 75 83 76 84 52 85 53 86 62 87
REMARK SMILES IDX 54 88 55 89 61 90 63 91 56 92 57 93 58 94 59 95 60 96
REMARK H PARENT 18 5 3 14 22 27 84 46 50 57
REMARK Flexibility Score: inf
ROOT
ATOM      1  C   UNL     1       8.248  -4.971   7.900  1.00  0.00     0.118 C 
ENDROOT
BRANCH   1   2
ATOM      2  N   UNL     1       7.945  -4.955   6.489  1.00  0.00    -0.349 N 
ATOM      3  C   UNL     1       6.761  -4.700   5.841  1.00  0.00     0.287 C 
ATOM      4  O   UNL     1       6.806  -4.729   4.613  1.00  0.00    -0.266 OA
ATOM      5  H   UNL     1       8.706  -5.159   5.898  1.00  0.00     0.163 HD
BRANCH   3   6
ATOM      6  C   UNL     1       5.564  -4.362   6.588  1.00  0.00     0.191 A 
ATOM      7  C   UNL     1       3.591  -3.366   6.710  1.00  0.00     0.161 A 
ATOM      8  C   UNL     1       3.848  -3.859   7.969  1.00  0.00     0.053 A 
ATOM      9  O   UNL     1       4.606  -3.703   5.872  1.00  0.00    -0.450 OA
ATOM     10  C   UNL     1       5.095  -4.532   7.879  1.00  0.00     0.057 A 
BRANCH   7  11
ATOM     11  C   UNL     1       2.397  -2.746   6.059  1.00  0.00     0.248 C 
ATOM     12  C   UNL     1       1.985  -3.700   4.936  1.00  0.00     0.084 C 
BRANCH  11  13
ATOM     13  N   UNL     1       2.479  -1.309   5.735  1.00  0.00    -0.324 N 
ATOM     14  H   UNL     1       2.621  -1.105   6.725  1.00  0.00     0.348 HD
BRANCH  13  15
ATOM     15  C   UNL     1       3.693  -0.612   5.314  1.00  0.00     0.259 C 
ATOM     16  C   UNL     1       5.019  -0.790   6.049  1.00  0.00     0.071 C 
ENDBRANCH  13  15
BRANCH  13  17
ATOM     17  C   UNL     1       1.239  -0.704   5.196  1.00  0.00     0.295 C 
BRANCH  17  18
ATOM     18  C   UNL     1       0.720  -0.844   3.727  1.00  0.00     0.173 C 
ATOM     19  C   UNL     1       1.663  -0.817   2.532  1.00  0.00     0.040 C 
ATOM     20  O   UNL     1      -0.136  -1.990   3.575  1.00  0.00    -0.372 OA
ATOM     21  C   UNL     1       1.441  -2.129   1.819  1.00  0.00     0.031 C 
ATOM     22  C   UNL     1       0.071  -2.560   2.280  1.00  0.00     0.161 C 
ENDBRANCH  17  18
ENDBRANCH  13  17
ENDBRANCH  11  13
ENDBRANCH   7  11
ENDBRANCH   3   6
ENDBRANCH   1   2
BRANCH   1  23
ATOM     23  C   UNL     1       8.146  -6.387   8.456  1.00  0.00     0.042 C 
BRANCH  23  24
ATOM     24  C   UNL     1       9.350  -7.241   8.072  1.00  0.00     0.118 C 
BRANCH  24  25
ATOM     25  N   UNL     1      10.564  -6.761   8.720  1.00  0.00    -0.352 N 
ATOM     26  C   UNL     1      11.343  -7.366   9.671  1.00  0.00     0.251 C 
ATOM     27  H   UNL     1      10.869  -5.871   8.432  1.00  0.00     0.163 HD
ATOM     28  O   UNL     1      12.135  -6.691  10.322  1.00  0.00    -0.269 OA
BRANCH  26  29
ATOM     29  C   UNL     1      11.234  -8.821   9.905  1.00  0.00     0.039 A 
ATOM     30  C   UNL     1      11.315  -9.306  11.211  1.00  0.00     0.014 A 
ATOM     31  C   UNL     1      11.101  -9.707   8.831  1.00  0.00     0.014 A 
ATOM     32  C   UNL     1      11.218 -10.679  11.444  1.00  0.00     0.010 A 
ATOM     33  C   UNL     1      10.928 -11.065   9.070  1.00  0.00     0.010 A 
ATOM     34  C   UNL     1      10.998 -11.566  10.378  1.00  0.00    -0.014 A 
BRANCH  34  35
ATOM     35  C   UNL     1      10.860 -13.026  10.605  1.00  0.00     0.031 A 
ATOM     36  C   UNL     1      11.874 -13.974  10.024  1.00  0.00     0.074 A 
ATOM     37  C   UNL     1       9.794 -13.494  11.283  1.00  0.00     0.049 A 
ATOM     38  N   UNL     1      11.877 -15.281  10.025  1.00  0.00    -0.248 NA
ATOM     39  C   UNL     1      13.024 -13.374   9.326  1.00  0.00     0.031 C 
ATOM     40  C   UNL     1       8.723 -12.671  11.853  1.00  0.00     0.029 A 
ATOM     41  N   UNL     1       9.425 -14.777  11.596  1.00  0.00    -0.354 N 
ATOM     42  C   UNL     1      13.020 -15.659   9.330  1.00  0.00     0.074 A 
ATOM     43  C   UNL     1      13.656 -14.445   8.868  1.00  0.00     0.031 C 
ATOM     44  C   UNL     1       7.827 -13.469  12.456  1.00  0.00     0.029 A 
ATOM     45  C   UNL     1       8.236 -14.858  12.284  1.00  0.00     0.049 A 
ATOM     46  H   UNL     1       9.960 -15.567  11.352  1.00  0.00     0.167 HD
ATOM     47  C   UNL     1      13.511 -16.904   9.123  1.00  0.00     0.037 A 
ATOM     48  C   UNL     1       7.548 -15.934  12.712  1.00  0.00     0.037 A 
ATOM     49  C   UNL     1      12.884 -18.105   9.607  1.00  0.00     0.049 A 
ATOM     50  C   UNL     1       8.113 -17.307  12.460  1.00  0.00     0.074 A 
ATOM     51  C   UNL     1      13.311 -19.415   9.472  1.00  0.00     0.029 A 
ATOM     52  N   UNL     1      11.701 -18.143  10.331  1.00  0.00    -0.354 N 
ATOM     53  N   UNL     1       9.217 -17.642  11.835  1.00  0.00    -0.248 NA
ATOM     54  C   UNL     1       7.345 -18.448  12.977  1.00  0.00     0.031 C 
ATOM     55  C   UNL     1      12.372 -20.247  10.088  1.00  0.00     0.029 A 
ATOM     56  C   UNL     1      11.382 -19.453  10.646  1.00  0.00     0.049 A 
ATOM     57  H   UNL     1      11.167 -17.356  10.583  1.00  0.00     0.167 HD
ATOM     58  C   UNL     1       9.291 -19.028  11.912  1.00  0.00     0.074 A 
ATOM     59  C   UNL     1       8.129 -19.467  12.656  1.00  0.00     0.031 C 
ATOM     60  C   UNL     1      10.231 -19.865  11.409  1.00  0.00     0.037 A 
BRANCH  47  61
ATOM     61  C   UNL     1      14.804 -17.032   8.367  1.00  0.00     0.058 A 
ATOM     62  C   UNL     1      16.026 -16.647   8.943  1.00  0.00     0.135 A 
ATOM     63  C   UNL     1      14.837 -17.603   7.084  1.00  0.00     0.135 A 
ATOM     64  F   UNL     1      16.050 -16.078  10.158  1.00  0.00    -0.206 F 
ATOM     65  C   UNL     1      17.232 -16.811   8.270  1.00  0.00     0.059 A 
ATOM     66  C   UNL     1      16.035 -17.801   6.403  1.00  0.00     0.059 A 
ATOM     67  F   UNL     1      13.698 -17.985   6.485  1.00  0.00    -0.206 F 
ATOM     68  C   UNL     1      17.227 -17.396   7.003  1.00  0.00     0.060 A 
BRANCH  68  69
ATOM     69  S   UNL     1      18.807 -17.637   6.163  1.00  0.00     0.124 S 
ATOM     70  O   UNL     1      19.158 -16.266   5.805  1.00  0.00    -0.237 OA
ATOM     71  O   UNL     1      19.624 -18.248   7.206  1.00  0.00    -0.237 OA
ATOM     72  O   UNL     1      18.468 -18.510   5.044  1.00  0.00    -0.744 OA
ENDBRANCH  68  69
ENDBRANCH  47  61
BRANCH  48  73
ATOM     73  C   UNL     1       6.252 -15.766  13.423  1.00  0.00     0.058 A 
ATOM     74  C   UNL     1       6.124 -16.090  14.782  1.00  0.00     0.135 A 
ATOM     75  C   UNL     1       5.109 -15.306  12.752  1.00  0.00     0.135 A 
ATOM     76  F   UNL     1       7.189 -16.534  15.468  1.00  0.00    -0.206 F 
ATOM     77  C   UNL     1       4.902 -16.007  15.440  1.00  0.00     0.059 A 
ATOM     78  C   UNL     1       3.881 -15.186  13.395  1.00  0.00     0.059 A 
ATOM     79  F   UNL     1       5.182 -14.959  11.457  1.00  0.00    -0.206 F 
ATOM     80  C   UNL     1       3.783 -15.560  14.735  1.00  0.00     0.060 A 
BRANCH  80  81
ATOM     81  S   UNL     1       2.198 -15.457  15.594  1.00  0.00     0.124 S 
ATOM     82  O   UNL     1       1.812 -16.861  15.664  1.00  0.00    -0.237 OA
ATOM     83  O   UNL     1       2.573 -14.833  16.859  1.00  0.00    -0.237 OA
ATOM     84  O   UNL     1       1.392 -14.622  14.707  1.00  0.00    -0.744 OA
ENDBRANCH  80  81
ENDBRANCH  48  73
BRANCH  60  85
ATOM     85  C   UNL     1      10.070 -21.332  11.688  1.00  0.00     0.058 A 
ATOM     86  C   UNL     1       9.092 -22.103  11.041  1.00  0.00     0.135 A 
ATOM     87  C   UNL     1      10.940 -21.984  12.577  1.00  0.00     0.135 A 
ATOM     88  F   UNL     1       8.232 -21.525  10.187  1.00  0.00    -0.206 F 
ATOM     89  C   UNL     1       8.965 -23.466  11.285  1.00  0.00     0.059 A 
ATOM     90  C   UNL     1      10.849 -23.351  12.815  1.00  0.00     0.059 A 
ATOM     91  F   UNL     1      11.899 -21.293  13.213  1.00  0.00    -0.206 F 
ATOM     92  C   UNL     1       9.850 -24.081  12.173  1.00  0.00     0.060 A 
BRANCH  92  93
ATOM     93  S   UNL     1       9.696 -25.858  12.455  1.00  0.00     0.124 S 
ATOM     94  O   UNL     1       8.506 -25.920  13.297  1.00  0.00    -0.237 OA
ATOM     95  O   UNL     1       9.541 -26.377  11.099  1.00  0.00    -0.237 OA
ATOM     96  O   UNL     1      10.951 -26.207  13.113  1.00  0.00    -0.744 OA
ENDBRANCH  92  93
ENDBRANCH  60  85
ENDBRANCH  34  35
ENDBRANCH  26  29
ENDBRANCH  24  25
ENDBRANCH  23  24
ENDBRANCH   1  23
TORSDOF 18
