REMARK SMILES O=C(NCCCNC(=O)C1CCN(C(=O)CSCc2ccccc2)CC1)c1ccc(-c2c3nc(c(-c4c(F)cc(S(=O)(=O)[O-])cc4F)c4ccc([nH]4)c(-c4c(F)cc(S(=O)(=O)[O-])cc4F)c4nc(c(-c5c(F)cc(S(=O)(=O)[O-])cc5F)c5ccc2[nH]5)C=C4)C=C3)cc1
REMARK SMILES IDX 5 1 4 2 3 3 1 4 2 5 27 7 28 8 92 9 29 10 91 11 30 12 31 13
REMARK SMILES IDX 32 14 85 15 33 16 90 17 84 18 86 19 34 20 89 21 83 22 82 23
REMARK SMILES IDX 35 25 69 26 48 27 68 28 49 29 52 30 67 31 87 32 50 33 51 34
REMARK SMILES IDX 66 36 88 37 53 38 36 39 37 40 46 41 38 42 39 43 45 44 47 45
REMARK SMILES IDX 40 46 41 47 42 48 43 49 44 50 70 51 71 52 80 53 72 54 73 55
REMARK SMILES IDX 79 56 81 57 74 58 75 59 76 60 77 61 78 62 54 63 55 64 64 65
REMARK SMILES IDX 56 66 57 67 63 68 65 69 58 70 59 71 60 72 61 73 62 74 6 75
REMARK SMILES IDX 7 76 8 77 9 79 10 80 11 81 26 82 12 83 25 84 13 85 14 86
REMARK SMILES IDX 15 87 16 88 17 89 18 90 19 91 20 92 24 93 21 94 23 95 22 96
REMARK H PARENT 3 6 86 24 52 35 7 78
REMARK Flexibility Score: inf
ROOT
ATOM      1  C   UNL     1       4.771  -2.603   1.051  1.00  0.00     0.042 C 
ENDROOT
BRANCH   1   2
ATOM      2  C   UNL     1       4.547  -1.496   0.022  1.00  0.00     0.118 C 
BRANCH   2   3
ATOM      3  N   UNL     1       3.135  -1.214  -0.200  1.00  0.00    -0.352 N 
ATOM      4  O   UNL     1       1.206  -0.068  -0.103  1.00  0.00    -0.269 OA
ATOM      5  C   UNL     1       2.433  -0.045  -0.042  1.00  0.00     0.251 C 
ATOM      6  H   UNL     1       2.602  -1.981  -0.511  1.00  0.00     0.163 HD
BRANCH   5   7
ATOM      7  C   UNL     1       3.142   1.226   0.214  1.00  0.00     0.039 A 
ATOM      8  C   UNL     1       4.295   1.562  -0.498  1.00  0.00     0.014 A 
ATOM      9  C   UNL     1       2.621   2.115   1.161  1.00  0.00     0.014 A 
ATOM     10  C   UNL     1       4.998   2.718  -0.173  1.00  0.00     0.010 A 
ATOM     11  C   UNL     1       3.287   3.314   1.431  1.00  0.00     0.010 A 
ATOM     12  C   UNL     1       4.497   3.611   0.788  1.00  0.00    -0.014 A 
BRANCH  12  13
ATOM     13  C   UNL     1       5.230   4.873   1.063  1.00  0.00     0.031 A 
ATOM     14  C   UNL     1       5.857   5.130   2.406  1.00  0.00     0.074 A 
ATOM     15  C   UNL     1       5.346   5.784   0.077  1.00  0.00     0.049 A 
ATOM     16  N   UNL     1       6.555   6.163   2.804  1.00  0.00    -0.248 NA
ATOM     17  C   UNL     1       5.671   4.099   3.437  1.00  0.00     0.031 C 
ATOM     18  C   UNL     1       4.767   5.651  -1.262  1.00  0.00     0.029 A 
ATOM     19  N   UNL     1       5.999   6.989   0.038  1.00  0.00    -0.354 N 
ATOM     20  C   UNL     1       6.877   5.918   4.134  1.00  0.00     0.074 A 
ATOM     21  C   UNL     1       6.274   4.649   4.483  1.00  0.00     0.031 C 
ATOM     22  C   UNL     1       5.130   6.706  -2.005  1.00  0.00     0.029 A 
ATOM     23  C   UNL     1       5.918   7.617  -1.182  1.00  0.00     0.049 A 
ATOM     24  H   UNL     1       6.479   7.367   0.809  1.00  0.00     0.167 HD
ATOM     25  C   UNL     1       7.613   6.678   4.981  1.00  0.00     0.037 A 
ATOM     26  C   UNL     1       6.414   8.799  -1.593  1.00  0.00     0.037 A 
ATOM     27  C   UNL     1       8.218   7.936   4.621  1.00  0.00     0.049 A 
ATOM     28  C   UNL     1       7.212   9.630  -0.632  1.00  0.00     0.074 A 
ATOM     29  C   UNL     1       9.014   8.763   5.396  1.00  0.00     0.029 A 
ATOM     30  N   UNL     1       8.088   8.554   3.385  1.00  0.00    -0.354 N 
ATOM     31  N   UNL     1       7.535   9.366   0.612  1.00  0.00    -0.248 NA
ATOM     32  C   UNL     1       7.709  10.920  -1.126  1.00  0.00     0.031 C 
ATOM     33  C   UNL     1       9.329   9.900   4.642  1.00  0.00     0.029 A 
ATOM     34  C   UNL     1       8.769   9.761   3.382  1.00  0.00     0.049 A 
ATOM     35  H   UNL     1       7.586   8.188   2.621  1.00  0.00     0.167 HD
ATOM     36  C   UNL     1       8.287  10.450   1.046  1.00  0.00     0.074 A 
ATOM     37  C   UNL     1       8.382  11.367  -0.073  1.00  0.00     0.031 C 
ATOM     38  C   UNL     1       8.849  10.666   2.261  1.00  0.00     0.037 A 
BRANCH  25  39
ATOM     39  C   UNL     1       7.784   6.178   6.390  1.00  0.00     0.058 A 
ATOM     40  C   UNL     1       8.593   5.070   6.690  1.00  0.00     0.135 A 
ATOM     41  C   UNL     1       7.138   6.823   7.458  1.00  0.00     0.135 A 
ATOM     42  F   UNL     1       9.224   4.407   5.708  1.00  0.00    -0.206 F 
ATOM     43  C   UNL     1       8.722   4.594   7.992  1.00  0.00     0.059 A 
ATOM     44  C   UNL     1       7.274   6.380   8.771  1.00  0.00     0.059 A 
ATOM     45  F   UNL     1       6.356   7.890   7.230  1.00  0.00    -0.206 F 
ATOM     46  C   UNL     1       8.051   5.251   9.025  1.00  0.00     0.060 A 
BRANCH  46  47
ATOM     47  S   UNL     1       8.200   4.603  10.704  1.00  0.00     0.124 S 
ATOM     48  O   UNL     1       7.339   3.426  10.636  1.00  0.00    -0.237 OA
ATOM     49  O   UNL     1       9.631   4.335  10.811  1.00  0.00    -0.237 OA
ATOM     50  O   UNL     1       7.706   5.696  11.535  1.00  0.00    -0.744 OA
ENDBRANCH  46  47
ENDBRANCH  25  39
BRANCH  26  51
ATOM     51  C   UNL     1       6.175   9.243  -2.990  1.00  0.00     0.058 A 
ATOM     52  C   UNL     1       7.211   9.241  -3.934  1.00  0.00     0.135 A 
ATOM     53  C   UNL     1       4.893   9.620  -3.422  1.00  0.00     0.135 A 
ATOM     54  F   UNL     1       8.453   8.893  -3.566  1.00  0.00    -0.206 F 
ATOM     55  C   UNL     1       6.986   9.593  -5.260  1.00  0.00     0.059 A 
ATOM     56  C   UNL     1       4.639   9.953  -4.748  1.00  0.00     0.059 A 
ATOM     57  F   UNL     1       3.866   9.621  -2.558  1.00  0.00    -0.206 F 
ATOM     58  C   UNL     1       5.693   9.940  -5.659  1.00  0.00     0.060 A 
BRANCH  58  59
ATOM     59  S   UNL     1       5.395  10.313  -7.401  1.00  0.00     0.124 S 
ATOM     60  O   UNL     1       5.983  11.642  -7.520  1.00  0.00    -0.237 OA
ATOM     61  O   UNL     1       6.112   9.235  -8.074  1.00  0.00    -0.237 OA
ATOM     62  O   UNL     1       3.940  10.252  -7.511  1.00  0.00    -0.744 OA
ENDBRANCH  58  59
ENDBRANCH  26  51
BRANCH  38  63
ATOM     63  C   UNL     1       9.636  11.935   2.436  1.00  0.00     0.058 A 
ATOM     64  C   UNL     1       9.003  13.182   2.556  1.00  0.00     0.135 A 
ATOM     65  C   UNL     1      11.036  11.897   2.522  1.00  0.00     0.135 A 
ATOM     66  F   UNL     1       7.667  13.273   2.472  1.00  0.00    -0.206 F 
ATOM     67  C   UNL     1       9.735  14.352   2.731  1.00  0.00     0.059 A 
ATOM     68  C   UNL     1      11.786  13.052   2.721  1.00  0.00     0.059 A 
ATOM     69  F   UNL     1      11.689  10.728   2.421  1.00  0.00    -0.206 F 
ATOM     70  C   UNL     1      11.127  14.277   2.813  1.00  0.00     0.060 A 
BRANCH  70  71
ATOM     71  S   UNL     1      12.065  15.798   3.069  1.00  0.00     0.124 S 
ATOM     72  O   UNL     1      12.013  16.402   1.742  1.00  0.00    -0.237 OA
ATOM     73  O   UNL     1      11.289  16.474   4.104  1.00  0.00    -0.237 OA
ATOM     74  O   UNL     1      13.377  15.319   3.492  1.00  0.00    -0.744 OA
ENDBRANCH  70  71
ENDBRANCH  38  63
ENDBRANCH  12  13
ENDBRANCH   5   7
ENDBRANCH   2   3
ENDBRANCH   1   2
BRANCH   1  75
ATOM     75  C   UNL     1       4.201  -3.955   0.631  1.00  0.00     0.117 C 
BRANCH  75  76
ATOM     76  N   UNL     1       4.827  -4.431  -0.590  1.00  0.00    -0.356 N 
ATOM     77  C   UNL     1       5.909  -5.242  -0.753  1.00  0.00     0.223 C 
ATOM     78  H   UNL     1       4.406  -4.121  -1.425  1.00  0.00     0.163 HD
ATOM     79  O   UNL     1       6.403  -5.326  -1.877  1.00  0.00    -0.275 OA
BRANCH  77  80
ATOM     80  C   UNL     1       6.386  -6.095   0.415  1.00  0.00     0.082 C 
ATOM     81  C   UNL     1       7.912  -6.290   0.405  1.00  0.00     0.035 C 
ATOM     82  C   UNL     1       5.626  -7.433   0.373  1.00  0.00     0.035 C 
ATOM     83  C   UNL     1       8.391  -7.326  -0.610  1.00  0.00     0.120 C 
ATOM     84  C   UNL     1       6.178  -8.364  -0.711  1.00  0.00     0.120 C 
ATOM     85  N   UNL     1       7.609  -8.553  -0.490  1.00  0.00    -0.342 N 
ATOM     86  C   UNL     1       8.216  -9.708  -0.018  1.00  0.00     0.232 C 
ATOM     87  O   UNL     1       9.396  -9.720   0.346  1.00  0.00    -0.274 OA
BRANCH  86  88
ATOM     88  C   UNL     1       7.415 -11.001   0.017  1.00  0.00     0.169 C 
BRANCH  88  89
ATOM     89  S   UNL     1       6.218 -11.075   1.391  1.00  0.00    -0.147 SA
BRANCH  89  90
ATOM     90  C   UNL     1       7.321 -10.792   2.811  1.00  0.00     0.105 C 
BRANCH  90  91
ATOM     91  C   UNL     1       8.298 -11.904   3.102  1.00  0.00    -0.038 A 
ATOM     92  C   UNL     1       7.920 -13.256   3.083  1.00  0.00     0.004 A 
ATOM     93  C   UNL     1       9.605 -11.582   3.498  1.00  0.00     0.004 A 
ATOM     94  C   UNL     1       8.833 -14.258   3.415  1.00  0.00     0.000 A 
ATOM     95  C   UNL     1      10.513 -12.584   3.846  1.00  0.00     0.000 A 
ATOM     96  C   UNL     1      10.129 -13.921   3.800  1.00  0.00     0.000 A 
ENDBRANCH  90  91
ENDBRANCH  89  90
ENDBRANCH  88  89
ENDBRANCH  86  88
ENDBRANCH  77  80
ENDBRANCH  75  76
ENDBRANCH   1  75
TORSDOF 17
