REMARK SMILES C[C@@H](C(=O)NCCCNC(=O)c1ccc(-c2c3nc(c(-c4c(F)cc(S(=O)(=O)[O-])cc4F)c4ccc([nH]4)c(-c4c(F)cc(S(=O)(=O)[O-])cc4F)c4nc(c(-c5c(F)cc(S(=O)(=O)[O-])cc5F)c5ccc2[nH]5)C=C4)C=C3)cc1)N1C(=O)c2nccnc2C1=O
REMARK SMILES IDX 8 1 7 2 6 3 5 4 3 5 4 6 2 8 1 9 78 10 79 11 87 12 80 13
REMARK SMILES IDX 81 14 86 15 88 16 82 17 85 18 83 19 84 20 9 21 10 22 11 24
REMARK SMILES IDX 12 25 13 26 77 27 14 28 76 29 15 30 16 31 17 32 70 33 18 34
REMARK SMILES IDX 75 35 69 36 71 37 19 38 74 39 68 40 67 41 20 43 54 44 33 45
REMARK SMILES IDX 53 46 34 47 37 48 52 49 72 50 35 51 36 52 51 54 73 55 38 56
REMARK SMILES IDX 21 57 22 58 31 59 23 60 24 61 30 62 32 63 25 64 26 65 27 66
REMARK SMILES IDX 28 67 29 68 55 69 56 70 65 71 57 72 58 73 64 74 66 75 59 76
REMARK SMILES IDX 60 77 61 78 62 79 63 80 39 81 40 82 49 83 41 84 42 85 48 86
REMARK SMILES IDX 50 87 43 88 44 89 45 90 46 91 47 92
REMARK H PARENT 5 7 9 23 71 42 37 53
REMARK Flexibility Score: inf
ROOT
ATOM      1  C   UNL     1       4.892  -2.619   0.337  1.00  0.00     0.118 C 
ENDROOT
BRANCH   1   2
ATOM      2  C   UNL     1       4.090  -1.373  -0.029  1.00  0.00     0.042 C 
BRANCH   2   3
ATOM      3  C   UNL     1       3.182  -1.541  -1.243  1.00  0.00     0.117 C 
BRANCH   3   4
ATOM      4  N   UNL     1       2.085  -2.460  -0.992  1.00  0.00    -0.354 N 
ATOM      5  C   UNL     1       0.745  -2.215  -0.885  1.00  0.00     0.243 C 
ATOM      6  O   UNL     1      -0.006  -3.188  -0.778  1.00  0.00    -0.273 OA
ATOM      7  H   UNL     1       2.347  -3.403  -0.883  1.00  0.00     0.163 HD
BRANCH   5   8
ATOM      8  C   UNL     1       0.217  -0.766  -0.924  1.00  0.00     0.180 C 
ATOM      9  C   UNL     1       0.627   0.056   0.293  1.00  0.00     0.042 C 
BRANCH   8  10
ATOM     10  N   UNL     1      -1.235  -0.805  -1.109  1.00  0.00    -0.259 N 
ATOM     11  C   UNL     1      -2.159  -1.031  -0.117  1.00  0.00     0.282 C 
ATOM     12  C   UNL     1      -1.831  -0.719  -2.341  1.00  0.00     0.282 C 
ATOM     13  O   UNL     1      -1.979  -1.176   1.075  1.00  0.00    -0.267 OA
ATOM     14  C   UNL     1      -3.469  -1.027  -0.769  1.00  0.00     0.160 A 
ATOM     15  C   UNL     1      -3.271  -0.834  -2.111  1.00  0.00     0.160 A 
ATOM     16  O   UNL     1      -1.296  -0.556  -3.422  1.00  0.00    -0.267 OA
ATOM     17  N   UNL     1      -4.681  -1.092  -0.184  1.00  0.00    -0.247 NA
ATOM     18  N   UNL     1      -4.265  -0.686  -3.012  1.00  0.00    -0.247 NA
ATOM     19  C   UNL     1      -5.701  -0.957  -1.072  1.00  0.00     0.132 A 
ATOM     20  C   UNL     1      -5.498  -0.759  -2.445  1.00  0.00     0.132 A 
ENDBRANCH   8  10
ENDBRANCH   5   8
ENDBRANCH   3   4
ENDBRANCH   2   3
ENDBRANCH   1   2
BRANCH   1  21
ATOM     21  N   UNL     1       5.867  -2.982  -0.681  1.00  0.00    -0.352 N 
ATOM     22  C   UNL     1       7.228  -3.144  -0.593  1.00  0.00     0.251 C 
ATOM     23  H   UNL     1       5.490  -3.134  -1.578  1.00  0.00     0.163 HD
ATOM     24  O   UNL     1       7.879  -3.286  -1.626  1.00  0.00    -0.269 OA
BRANCH  22  25
ATOM     25  C   UNL     1       7.919  -3.129   0.718  1.00  0.00     0.039 A 
ATOM     26  C   UNL     1       9.154  -2.482   0.817  1.00  0.00     0.014 A 
ATOM     27  C   UNL     1       7.383  -3.772   1.837  1.00  0.00     0.014 A 
ATOM     28  C   UNL     1       9.815  -2.422   2.047  1.00  0.00     0.010 A 
ATOM     29  C   UNL     1       8.005  -3.645   3.080  1.00  0.00     0.010 A 
ATOM     30  C   UNL     1       9.228  -2.969   3.200  1.00  0.00    -0.014 A 
BRANCH  30  31
ATOM     31  C   UNL     1       9.872  -2.825   4.534  1.00  0.00     0.031 A 
ATOM     32  C   UNL     1      10.315  -4.039   5.306  1.00  0.00     0.074 A 
ATOM     33  C   UNL     1      10.004  -1.598   5.079  1.00  0.00     0.049 A 
ATOM     34  N   UNL     1      10.836  -4.111   6.505  1.00  0.00    -0.248 NA
ATOM     35  C   UNL     1      10.130  -5.347   4.656  1.00  0.00     0.031 C 
ATOM     36  C   UNL     1       9.573  -0.345   4.454  1.00  0.00     0.029 A 
ATOM     37  N   UNL     1      10.528  -1.200   6.285  1.00  0.00    -0.354 N 
ATOM     38  C   UNL     1      11.029  -5.464   6.757  1.00  0.00     0.074 A 
ATOM     39  C   UNL     1      10.523  -6.182   5.607  1.00  0.00     0.031 C 
ATOM     40  C   UNL     1       9.865   0.679   5.270  1.00  0.00     0.029 A 
ATOM     41  C   UNL     1      10.462   0.158   6.496  1.00  0.00     0.049 A 
ATOM     42  H   UNL     1      10.914  -1.828   6.937  1.00  0.00     0.167 HD
ATOM     43  C   UNL     1      11.594  -6.053   7.839  1.00  0.00     0.037 A 
ATOM     44  C   UNL     1      10.825   0.902   7.560  1.00  0.00     0.037 A 
ATOM     45  C   UNL     1      12.111  -5.330   8.974  1.00  0.00     0.049 A 
ATOM     46  C   UNL     1      11.440   0.224   8.754  1.00  0.00     0.074 A 
ATOM     47  C   UNL     1      12.754  -5.835  10.092  1.00  0.00     0.029 A 
ATOM     48  N   UNL     1      12.040  -3.955   9.143  1.00  0.00    -0.354 N 
ATOM     49  N   UNL     1      11.674  -1.053   8.947  1.00  0.00    -0.248 NA
ATOM     50  C   UNL     1      11.849   1.085   9.872  1.00  0.00     0.031 C 
ATOM     51  C   UNL     1      13.017  -4.773  10.962  1.00  0.00     0.029 A 
ATOM     52  C   UNL     1      12.602  -3.597  10.358  1.00  0.00     0.049 A 
ATOM     53  H   UNL     1      11.649  -3.326   8.494  1.00  0.00     0.167 HD
ATOM     54  C   UNL     1      12.283  -1.144  10.194  1.00  0.00     0.074 A 
ATOM     55  C   UNL     1      12.393   0.207  10.703  1.00  0.00     0.031 C 
ATOM     56  C   UNL     1      12.711  -2.247  10.856  1.00  0.00     0.037 A 
BRANCH  43  57
ATOM     57  C   UNL     1      11.687  -7.556   7.855  1.00  0.00     0.058 A 
ATOM     58  C   UNL     1      12.552  -8.254   6.997  1.00  0.00     0.135 A 
ATOM     59  C   UNL     1      10.945  -8.306   8.783  1.00  0.00     0.135 A 
ATOM     60  F   UNL     1      13.275  -7.591   6.080  1.00  0.00    -0.206 F 
ATOM     61  C   UNL     1      12.662  -9.640   7.042  1.00  0.00     0.059 A 
ATOM     62  C   UNL     1      11.063  -9.691   8.867  1.00  0.00     0.059 A 
ATOM     63  F   UNL     1      10.102  -7.693   9.629  1.00  0.00    -0.206 F 
ATOM     64  C   UNL     1      11.916 -10.350   7.984  1.00  0.00     0.060 A 
BRANCH  64  65
ATOM     65  S   UNL     1      12.089 -12.146   8.042  1.00  0.00     0.124 S 
ATOM     66  O   UNL     1      11.427 -12.543   6.803  1.00  0.00    -0.237 OA
ATOM     67  O   UNL     1      13.538 -12.317   8.069  1.00  0.00    -0.237 OA
ATOM     68  O   UNL     1      11.394 -12.517   9.271  1.00  0.00    -0.744 OA
ENDBRANCH  64  65
ENDBRANCH  43  57
BRANCH  44  69
ATOM     69  C   UNL     1      10.620   2.376   7.538  1.00  0.00     0.058 A 
ATOM     70  C   UNL     1      11.707   3.260   7.479  1.00  0.00     0.135 A 
ATOM     71  C   UNL     1       9.329   2.930   7.558  1.00  0.00     0.135 A 
ATOM     72  F   UNL     1      12.960   2.782   7.466  1.00  0.00    -0.206 F 
ATOM     73  C   UNL     1      11.525   4.640   7.455  1.00  0.00     0.059 A 
ATOM     74  C   UNL     1       9.121   4.304   7.504  1.00  0.00     0.059 A 
ATOM     75  F   UNL     1       8.254   2.128   7.598  1.00  0.00    -0.206 F 
ATOM     76  C   UNL     1      10.227   5.152   7.462  1.00  0.00     0.060 A 
BRANCH  76  77
ATOM     77  S   UNL     1      10.002   6.942   7.372  1.00  0.00     0.124 S 
ATOM     78  O   UNL     1      10.450   7.362   8.694  1.00  0.00    -0.237 OA
ATOM     79  O   UNL     1      10.872   7.303   6.257  1.00  0.00    -0.237 OA
ATOM     80  O   UNL     1       8.572   7.088   7.114  1.00  0.00    -0.744 OA
ENDBRANCH  76  77
ENDBRANCH  44  69
BRANCH  56  81
ATOM     81  C   UNL     1      13.379  -2.045  12.191  1.00  0.00     0.058 A 
ATOM     82  C   UNL     1      12.659  -1.645  13.328  1.00  0.00     0.135 A 
ATOM     83  C   UNL     1      14.750  -2.308  12.344  1.00  0.00     0.135 A 
ATOM     84  F   UNL     1      11.348  -1.374  13.238  1.00  0.00    -0.206 F 
ATOM     85  C   UNL     1      13.281  -1.487  14.563  1.00  0.00     0.059 A 
ATOM     86  C   UNL     1      15.386  -2.188  13.576  1.00  0.00     0.059 A 
ATOM     87  F   UNL     1      15.485  -2.704  11.292  1.00  0.00    -0.206 F 
ATOM     88  C   UNL     1      14.645  -1.764  14.678  1.00  0.00     0.060 A 
BRANCH  88  89
ATOM     89  S   UNL     1      15.430  -1.585  16.293  1.00  0.00     0.124 S 
ATOM     90  O   UNL     1      15.457  -0.135  16.449  1.00  0.00    -0.237 OA
ATOM     91  O   UNL     1      14.508  -2.301  17.169  1.00  0.00    -0.237 OA
ATOM     92  O   UNL     1      16.732  -2.220  16.111  1.00  0.00    -0.744 OA
ENDBRANCH  88  89
ENDBRANCH  56  81
ENDBRANCH  30  31
ENDBRANCH  22  25
ENDBRANCH   1  21
TORSDOF 14
