REMARK SMILES O=C(CCCN1C(=O)/C(=C/c2cc(Br)ccc2O)SC1=S)NCCCNC(=O)c1ccc(-c2c3nc(c(-c4c(F)cc(S(=O)(=O)[O-])cc4F)c4ccc([nH]4)c(-c4c(F)cc(S(=O)(=O)[O-])cc4F)c4nc(c(-c5c(F)cc(S(=O)(=O)[O-])cc5F)c5ccc2[nH]5)C=C4)C=C3)cc1
REMARK SMILES IDX 23 1 22 2 1 3 2 4 3 6 4 7 5 8 6 9 7 10 20 11 8 12 9 13 19 14
REMARK SMILES IDX 21 15 10 16 11 17 12 18 17 19 13 20 16 21 14 22 15 23 18 24
REMARK SMILES IDX 24 26 25 27 26 28 27 29 28 31 29 32 30 33 94 34 31 35 93 36
REMARK SMILES IDX 32 37 33 38 34 39 87 40 35 41 92 42 86 43 88 44 36 45 91 46
REMARK SMILES IDX 85 47 84 48 37 50 71 51 50 52 70 53 51 54 54 55 69 56 89 57
REMARK SMILES IDX 52 58 53 59 68 61 90 62 55 63 38 64 39 65 48 66 40 67 41 68
REMARK SMILES IDX 47 69 49 70 42 71 43 72 44 73 45 74 46 75 72 76 73 77 82 78
REMARK SMILES IDX 74 79 75 80 81 81 83 82 76 83 77 84 78 85 79 86 80 87 56 88
REMARK SMILES IDX 57 89 66 90 58 91 59 92 65 93 67 94 60 95 61 96 62 97 63 98
REMARK SMILES IDX 64 99
REMARK H PARENT 22 5 18 25 26 30 88 49 54 60
REMARK Flexibility Score: inf
ROOT
ATOM      1  C   UNL     1       1.837  -1.612   2.088  1.00  0.00     0.117 C 
ENDROOT
BRANCH   1   2
ATOM      2  N   UNL     1       2.436  -0.997   0.918  1.00  0.00    -0.356 N 
ATOM      3  O   UNL     1       1.111   0.877   0.938  1.00  0.00    -0.275 OA
ATOM      4  C   UNL     1       2.030   0.231   0.445  1.00  0.00     0.220 C 
ATOM      5  H   UNL     1       3.157  -1.474   0.447  1.00  0.00     0.163 HD
BRANCH   4   6
ATOM      6  C   UNL     1       2.842   0.771  -0.722  1.00  0.00     0.102 C 
BRANCH   6   7
ATOM      7  C   UNL     1       3.986   1.677  -0.262  1.00  0.00     0.032 C 
BRANCH   7   8
ATOM      8  C   UNL     1       5.192   0.964   0.363  1.00  0.00     0.128 C 
BRANCH   8   9
ATOM      9  N   UNL     1       6.111   0.322  -0.584  1.00  0.00    -0.293 N 
ATOM     10  C   UNL     1       7.026   1.089  -1.300  1.00  0.00     0.266 C 
ATOM     11  C   UNL     1       6.221  -1.036  -0.781  1.00  0.00     0.148 C 
ATOM     12  O   UNL     1       7.117   2.308  -1.298  1.00  0.00    -0.268 OA
ATOM     13  C   UNL     1       7.864   0.185  -2.138  1.00  0.00     0.081 C 
ATOM     14  S   UNL     1       7.758  -1.411  -1.508  1.00  0.00    -0.054 SA
ATOM     15  S   UNL     1       5.121  -2.236  -0.495  1.00  0.00    -0.052 S 
ATOM     16  C   UNL     1       8.414   0.521  -3.313  1.00  0.00     0.033 C 
BRANCH  16  17
ATOM     17  C   UNL     1       8.896  -0.526  -4.232  1.00  0.00     0.019 A 
ATOM     18  C   UNL     1      10.257  -0.837  -4.289  1.00  0.00     0.027 A 
ATOM     19  C   UNL     1       7.978  -1.340  -4.925  1.00  0.00     0.122 A 
ATOM     20  C   UNL     1      10.680  -1.950  -5.019  1.00  0.00     0.018 A 
ATOM     21  C   UNL     1       8.403  -2.452  -5.649  1.00  0.00     0.048 A 
ATOM     22  Br  UNL     1      12.518  -2.392  -5.068  1.00  0.00    -0.051 Br
ATOM     23  C   UNL     1       9.762  -2.760  -5.692  1.00  0.00     0.019 A 
BRANCH  19  24
ATOM     24  O   UNL     1       6.637  -1.065  -4.833  1.00  0.00    -0.507 OA
ATOM     25  H   UNL     1       6.344  -0.319  -4.348  1.00  0.00     0.293 HD
ENDBRANCH  19  24
ENDBRANCH  16  17
ENDBRANCH   8   9
ENDBRANCH   7   8
ENDBRANCH   6   7
ENDBRANCH   4   6
ENDBRANCH   1   2
BRANCH   1  26
ATOM     26  C   UNL     1       1.862  -3.142   2.081  1.00  0.00     0.042 C 
BRANCH  26  27
ATOM     27  C   UNL     1       3.215  -3.826   2.272  1.00  0.00     0.118 C 
BRANCH  27  28
ATOM     28  N   UNL     1       3.952  -3.447   3.464  1.00  0.00    -0.352 N 
ATOM     29  C   UNL     1       4.947  -4.157   4.100  1.00  0.00     0.251 C 
ATOM     30  H   UNL     1       3.713  -2.580   3.865  1.00  0.00     0.163 HD
ATOM     31  O   UNL     1       5.468  -3.711   5.117  1.00  0.00    -0.269 OA
BRANCH  29  32
ATOM     32  C   UNL     1       5.345  -5.489   3.586  1.00  0.00     0.039 A 
ATOM     33  C   UNL     1       5.245  -6.587   4.444  1.00  0.00     0.014 A 
ATOM     34  C   UNL     1       5.787  -5.665   2.271  1.00  0.00     0.014 A 
ATOM     35  C   UNL     1       5.506  -7.873   3.962  1.00  0.00     0.010 A 
ATOM     36  C   UNL     1       6.016  -6.955   1.782  1.00  0.00     0.010 A 
ATOM     37  C   UNL     1       5.851  -8.073   2.615  1.00  0.00    -0.014 A 
BRANCH  37  38
ATOM     38  C   UNL     1       5.952  -9.448   2.055  1.00  0.00     0.031 A 
ATOM     39  C   UNL     1       7.273 -10.021   1.627  1.00  0.00     0.074 A 
ATOM     40  C   UNL     1       4.824 -10.167   1.883  1.00  0.00     0.049 A 
ATOM     41  N   UNL     1       7.528 -11.186   1.087  1.00  0.00    -0.248 NA
ATOM     42  C   UNL     1       8.458  -9.173   1.818  1.00  0.00     0.031 C 
ATOM     43  C   UNL     1       3.474  -9.711   2.223  1.00  0.00     0.029 A 
ATOM     44  N   UNL     1       4.629 -11.426   1.371  1.00  0.00    -0.354 N 
ATOM     45  C   UNL     1       8.900 -11.216   0.872  1.00  0.00     0.074 A 
ATOM     46  C   UNL     1       9.418  -9.934   1.307  1.00  0.00     0.031 C 
ATOM     47  C   UNL     1       2.594 -10.679   1.919  1.00  0.00     0.029 A 
ATOM     48  C   UNL     1       3.309 -11.809   1.334  1.00  0.00     0.049 A 
ATOM     49  H   UNL     1       5.366 -12.000   1.059  1.00  0.00     0.167 HD
ATOM     50  C   UNL     1       9.659 -12.222   0.373  1.00  0.00     0.037 A 
ATOM     51  C   UNL     1       2.734 -12.937   0.873  1.00  0.00     0.037 A 
ATOM     52  C   UNL     1       9.145 -13.500  -0.052  1.00  0.00     0.049 A 
ATOM     53  C   UNL     1       3.595 -14.028   0.300  1.00  0.00     0.074 A 
ATOM     54  C   UNL     1       9.848 -14.600  -0.514  1.00  0.00     0.029 A 
ATOM     55  N   UNL     1       7.803 -13.848  -0.079  1.00  0.00    -0.354 N 
ATOM     56  N   UNL     1       4.899 -14.062   0.166  1.00  0.00    -0.248 NA
ATOM     57  C   UNL     1       2.908 -15.233  -0.184  1.00  0.00     0.031 C 
ATOM     58  C   UNL     1       8.929 -15.597  -0.860  1.00  0.00     0.029 A 
ATOM     59  C   UNL     1       7.655 -15.134  -0.576  1.00  0.00     0.049 A 
ATOM     60  H   UNL     1       7.063 -13.268   0.213  1.00  0.00     0.167 HD
ATOM     61  C   UNL     1       5.189 -15.297  -0.402  1.00  0.00     0.074 A 
ATOM     62  C   UNL     1       3.927 -15.987  -0.573  1.00  0.00     0.031 C 
ATOM     63  C   UNL     1       6.394 -15.812  -0.750  1.00  0.00     0.037 A 
BRANCH  50  64
ATOM     64  C   UNL     1      11.139 -11.984   0.257  1.00  0.00     0.058 A 
ATOM     65  C   UNL     1      11.969 -11.959   1.389  1.00  0.00     0.135 A 
ATOM     66  C   UNL     1      11.742 -11.824  -1.001  1.00  0.00     0.135 A 
ATOM     67  F   UNL     1      11.443 -12.097   2.616  1.00  0.00    -0.206 F 
ATOM     68  C   UNL     1      13.341 -11.757   1.280  1.00  0.00     0.059 A 
ATOM     69  C   UNL     1      13.115 -11.644  -1.136  1.00  0.00     0.059 A 
ATOM     70  F   UNL     1      10.994 -11.843  -2.116  1.00  0.00    -0.206 F 
ATOM     71  C   UNL     1      13.905 -11.597   0.013  1.00  0.00     0.060 A 
BRANCH  71  72
ATOM     72  S   UNL     1      15.687 -11.335  -0.113  1.00  0.00     0.124 S 
ATOM     73  O   UNL     1      15.807  -9.948   0.326  1.00  0.00    -0.237 OA
ATOM     74  O   UNL     1      16.218 -12.338   0.804  1.00  0.00    -0.237 OA
ATOM     75  O   UNL     1      15.966 -11.572  -1.526  1.00  0.00    -0.744 OA
ENDBRANCH  71  72
ENDBRANCH  50  64
BRANCH  51  76
ATOM     76  C   UNL     1       1.258 -13.092   0.939  1.00  0.00     0.058 A 
ATOM     77  C   UNL     1       0.666 -13.977   1.851  1.00  0.00     0.135 A 
ATOM     78  C   UNL     1       0.411 -12.350   0.101  1.00  0.00     0.135 A 
ATOM     79  F   UNL     1       1.436 -14.713   2.666  1.00  0.00    -0.206 F 
ATOM     80  C   UNL     1      -0.715 -14.130   1.925  1.00  0.00     0.059 A 
ATOM     81  C   UNL     1      -0.973 -12.469   0.171  1.00  0.00     0.059 A 
ATOM     82  F   UNL     1       0.930 -11.480  -0.780  1.00  0.00    -0.206 F 
ATOM     83  C   UNL     1      -1.526 -13.369   1.081  1.00  0.00     0.060 A 
BRANCH  83  84
ATOM     84  S   UNL     1      -3.319 -13.532   1.222  1.00  0.00     0.124 S 
ATOM     85  O   UNL     1      -3.550 -14.807   0.553  1.00  0.00    -0.237 OA
ATOM     86  O   UNL     1      -3.517 -13.523   2.668  1.00  0.00    -0.237 OA
ATOM     87  O   UNL     1      -3.817 -12.351   0.522  1.00  0.00    -0.744 OA
ENDBRANCH  83  84
ENDBRANCH  51  76
BRANCH  63  88
ATOM     88  C   UNL     1       6.410 -17.193  -1.344  1.00  0.00     0.058 A 
ATOM     89  C   UNL     1       5.985 -17.430  -2.660  1.00  0.00     0.135 A 
ATOM     90  C   UNL     1       6.893 -18.284  -0.604  1.00  0.00     0.135 A 
ATOM     91  F   UNL     1       5.506 -16.423  -3.407  1.00  0.00    -0.206 F 
ATOM     92  C   UNL     1       6.021 -18.705  -3.217  1.00  0.00     0.059 A 
ATOM     93  C   UNL     1       6.959 -19.563  -1.148  1.00  0.00     0.059 A 
ATOM     94  F   UNL     1       7.318 -18.110   0.658  1.00  0.00    -0.206 F 
ATOM     95  C   UNL     1       6.510 -19.766  -2.453  1.00  0.00     0.060 A 
BRANCH  95  96
ATOM     96  S   UNL     1       6.585 -21.410  -3.197  1.00  0.00     0.124 S 
ATOM     97  O   UNL     1       5.184 -21.816  -3.151  1.00  0.00    -0.237 OA
ATOM     98  O   UNL     1       7.120 -21.129  -4.526  1.00  0.00    -0.237 OA
ATOM     99  O   UNL     1       7.482 -22.143  -2.309  1.00  0.00    -0.744 OA
ENDBRANCH  95  96
ENDBRANCH  63  88
ENDBRANCH  37  38
ENDBRANCH  29  32
ENDBRANCH  27  28
ENDBRANCH  26  27
ENDBRANCH   1  26
TORSDOF 18
