REMARK SMILES CC(C)(C)C(=O)C[N@H+]1CCCC[C@H]1C(=O)NCCCNC(=O)c1ccc(-c2c3nc(c(-c4c(F)cc(S(=O)(=O)[O-])cc4F)c4ccc([nH]4)c(-c4c(F)cc(S(=O)(=O)[O-])cc4F)c4nc(c(-c5c(F)cc(S(=O)(=O)[O-])cc5F)c5ccc2[nH]5)C=C4)C=C3)cc1
REMARK SMILES IDX 18 1 17 2 16 3 14 4 15 5 13 7 8 8 9 9 10 11 12 12 11 13 7 14
REMARK SMILES IDX 5 15 6 16 2 17 1 18 3 19 4 20 19 21 20 22 21 23 22 25 23 26
REMARK SMILES IDX 24 27 88 28 25 29 87 30 26 31 27 32 28 33 81 34 29 35 86 36
REMARK SMILES IDX 80 37 82 38 30 39 85 40 79 41 78 42 31 44 65 45 44 46 64 47
REMARK SMILES IDX 45 48 48 49 63 50 83 51 46 52 47 53 62 55 84 56 49 57 32 58
REMARK SMILES IDX 33 59 42 60 34 61 35 62 41 63 43 64 36 65 37 66 38 67 39 68
REMARK SMILES IDX 40 69 66 70 67 71 76 72 68 73 69 74 75 75 77 76 70 77 71 78
REMARK SMILES IDX 72 79 73 80 74 81 50 82 51 83 60 84 52 85 53 86 59 87 61 88
REMARK SMILES IDX 54 89 55 90 56 91 57 92 58 93
REMARK H PARENT 16 6 8 10 20 24 82 43 48 54
REMARK Flexibility Score: inf
ROOT
ATOM      1  C   UNL     1       6.206  -2.782   2.157  1.00  0.00     0.042 C 
ENDROOT
BRANCH   1   2
ATOM      2  C   UNL     1       5.117  -2.346   1.185  1.00  0.00     0.118 C 
BRANCH   2   3
ATOM      3  N   UNL     1       4.727  -3.428   0.297  1.00  0.00    -0.351 N 
ATOM      4  C   UNL     1       3.614  -4.223   0.325  1.00  0.00     0.278 C 
ATOM      5  O   UNL     1       3.542  -5.136  -0.498  1.00  0.00    -0.268 OA
ATOM      6  H   UNL     1       5.358  -3.616  -0.435  1.00  0.00     0.163 HD
BRANCH   4   7
ATOM      7  C   UNL     1       2.521  -3.914   1.373  1.00  0.00     0.274 C 
ATOM      8  N   UNL     1       1.142  -4.336   1.007  1.00  0.00    -0.319 N 
ATOM      9  C   UNL     1       0.998  -5.803   1.019  1.00  0.00     0.263 C 
ATOM     10  H   UNL     1       0.547  -3.942   1.735  1.00  0.00     0.349 HD
ATOM     11  C   UNL     1       1.387  -6.410   2.371  1.00  0.00     0.062 C 
ATOM     12  C   UNL     1       2.861  -4.438   2.770  1.00  0.00     0.076 C 
ATOM     13  C   UNL     1       2.761  -5.953   2.843  1.00  0.00     0.012 C 
BRANCH   8  14
ATOM     14  C   UNL     1       0.651  -3.769  -0.263  1.00  0.00     0.340 C 
BRANCH  14  15
ATOM     15  C   UNL     1       0.951  -2.274  -0.438  1.00  0.00     0.192 C 
ATOM     16  O   UNL     1       1.809  -1.934  -1.264  1.00  0.00    -0.293 OA
BRANCH  15  17
ATOM     17  C   UNL     1       0.195  -1.201   0.391  1.00  0.00     0.026 C 
ATOM     18  C   UNL     1       0.656   0.192  -0.096  1.00  0.00     0.019 C 
ATOM     19  C   UNL     1       0.490  -1.273   1.894  1.00  0.00     0.019 C 
ATOM     20  C   UNL     1      -1.316  -1.321   0.169  1.00  0.00     0.019 C 
ENDBRANCH  15  17
ENDBRANCH  14  15
ENDBRANCH   8  14
ENDBRANCH   4   7
ENDBRANCH   2   3
ENDBRANCH   1   2
BRANCH   1  21
ATOM     21  C   UNL     1       7.500  -3.196   1.476  1.00  0.00     0.118 C 
BRANCH  21  22
ATOM     22  N   UNL     1       8.119  -2.096   0.755  1.00  0.00    -0.352 N 
ATOM     23  C   UNL     1       9.380  -1.574   0.880  1.00  0.00     0.251 C 
ATOM     24  H   UNL     1       7.550  -1.663   0.078  1.00  0.00     0.163 HD
ATOM     25  O   UNL     1       9.648  -0.506   0.328  1.00  0.00    -0.269 OA
BRANCH  23  26
ATOM     26  C   UNL     1      10.403  -2.275   1.683  1.00  0.00     0.039 A 
ATOM     27  C   UNL     1      11.269  -1.518   2.476  1.00  0.00     0.014 A 
ATOM     28  C   UNL     1      10.529  -3.667   1.642  1.00  0.00     0.014 A 
ATOM     29  C   UNL     1      12.231  -2.161   3.256  1.00  0.00     0.010 A 
ATOM     30  C   UNL     1      11.424  -4.310   2.492  1.00  0.00     0.010 A 
ATOM     31  C   UNL     1      12.300  -3.564   3.291  1.00  0.00    -0.014 A 
BRANCH  31  32
ATOM     32  C   UNL     1      13.303  -4.258   4.138  1.00  0.00     0.031 A 
ATOM     33  C   UNL     1      14.365  -5.117   3.503  1.00  0.00     0.074 A 
ATOM     34  C   UNL     1      13.235  -4.142   5.479  1.00  0.00     0.049 A 
ATOM     35  N   UNL     1      15.317  -5.809   4.075  1.00  0.00    -0.248 NA
ATOM     36  C   UNL     1      14.339  -5.236   2.036  1.00  0.00     0.031 C 
ATOM     37  C   UNL     1      12.219  -3.383   6.213  1.00  0.00     0.029 A 
ATOM     38  N   UNL     1      14.036  -4.660   6.465  1.00  0.00    -0.354 N 
ATOM     39  C   UNL     1      15.992  -6.451   3.043  1.00  0.00     0.074 A 
ATOM     40  C   UNL     1      15.303  -6.117   1.816  1.00  0.00     0.031 C 
ATOM     41  C   UNL     1      12.480  -3.454   7.528  1.00  0.00     0.029 A 
ATOM     42  C   UNL     1      13.656  -4.294   7.735  1.00  0.00     0.049 A 
ATOM     43  H   UNL     1      14.810  -5.241   6.281  1.00  0.00     0.167 HD
ATOM     44  C   UNL     1      17.101  -7.226   3.107  1.00  0.00     0.037 A 
ATOM     45  C   UNL     1      14.196  -4.598   8.931  1.00  0.00     0.037 A 
ATOM     46  C   UNL     1      17.795  -7.534   4.331  1.00  0.00     0.049 A 
ATOM     47  C   UNL     1      15.432  -5.456   8.975  1.00  0.00     0.074 A 
ATOM     48  C   UNL     1      18.960  -8.262   4.500  1.00  0.00     0.029 A 
ATOM     49  N   UNL     1      17.389  -7.132   5.596  1.00  0.00    -0.354 N 
ATOM     50  N   UNL     1      16.097  -5.999   7.983  1.00  0.00    -0.248 NA
ATOM     51  C   UNL     1      16.000  -5.731  10.302  1.00  0.00     0.031 C 
ATOM     52  C   UNL     1      19.230  -8.344   5.870  1.00  0.00     0.029 A 
ATOM     53  C   UNL     1      18.268  -7.615   6.551  1.00  0.00     0.049 A 
ATOM     54  H   UNL     1      16.593  -6.585   5.785  1.00  0.00     0.167 HD
ATOM     55  C   UNL     1      17.180  -6.651   8.563  1.00  0.00     0.074 A 
ATOM     56  C   UNL     1      17.088  -6.420   9.990  1.00  0.00     0.031 C 
ATOM     57  C   UNL     1      18.165  -7.372   7.969  1.00  0.00     0.037 A 
BRANCH  44  58
ATOM     58  C   UNL     1      17.634  -7.794   1.819  1.00  0.00     0.058 A 
ATOM     59  C   UNL     1      18.218  -6.979   0.835  1.00  0.00     0.135 A 
ATOM     60  C   UNL     1      17.594  -9.178   1.578  1.00  0.00     0.135 A 
ATOM     61  F   UNL     1      18.269  -5.647   1.003  1.00  0.00    -0.206 F 
ATOM     62  C   UNL     1      18.714  -7.509  -0.352  1.00  0.00     0.059 A 
ATOM     63  C   UNL     1      18.113  -9.733   0.411  1.00  0.00     0.059 A 
ATOM     64  F   UNL     1      17.046 -10.006   2.481  1.00  0.00    -0.206 F 
ATOM     65  C   UNL     1      18.658  -8.889  -0.554  1.00  0.00     0.060 A 
BRANCH  65  66
ATOM     66  S   UNL     1      19.317  -9.561  -2.094  1.00  0.00     0.124 S 
ATOM     67  O   UNL     1      18.310  -9.123  -3.057  1.00  0.00    -0.237 OA
ATOM     68  O   UNL     1      20.615  -8.901  -2.192  1.00  0.00    -0.237 OA
ATOM     69  O   UNL     1      19.364 -10.998  -1.846  1.00  0.00    -0.744 OA
ENDBRANCH  65  66
ENDBRANCH  44  58
BRANCH  45  70
ATOM     70  C   UNL     1      13.593  -4.062  10.181  1.00  0.00     0.058 A 
ATOM     71  C   UNL     1      14.262  -3.096  10.949  1.00  0.00     0.135 A 
ATOM     72  C   UNL     1      12.339  -4.499  10.632  1.00  0.00     0.135 A 
ATOM     73  F   UNL     1      15.466  -2.648  10.562  1.00  0.00    -0.206 F 
ATOM     74  C   UNL     1      13.721  -2.601  12.131  1.00  0.00     0.059 A 
ATOM     75  C   UNL     1      11.764  -3.998  11.796  1.00  0.00     0.059 A 
ATOM     76  F   UNL     1      11.648  -5.407   9.925  1.00  0.00    -0.206 F 
ATOM     77  C   UNL     1      12.470  -3.058  12.546  1.00  0.00     0.060 A 
BRANCH  77  78
ATOM     78  S   UNL     1      11.760  -2.381  14.062  1.00  0.00     0.124 S 
ATOM     79  O   UNL     1      12.591  -3.010  15.082  1.00  0.00    -0.237 OA
ATOM     80  O   UNL     1      11.951  -0.947  13.876  1.00  0.00    -0.237 OA
ATOM     81  O   UNL     1      10.372  -2.832  14.012  1.00  0.00    -0.744 OA
ENDBRANCH  77  78
ENDBRANCH  45  70
BRANCH  57  82
ATOM     82  C   UNL     1      19.246  -7.924   8.859  1.00  0.00     0.058 A 
ATOM     83  C   UNL     1      19.003  -8.969   9.765  1.00  0.00     0.135 A 
ATOM     84  C   UNL     1      20.551  -7.410   8.787  1.00  0.00     0.135 A 
ATOM     85  F   UNL     1      17.773  -9.495   9.876  1.00  0.00    -0.206 F 
ATOM     86  C   UNL     1      20.005  -9.453  10.601  1.00  0.00     0.059 A 
ATOM     87  C   UNL     1      21.576  -7.903   9.589  1.00  0.00     0.059 A 
ATOM     88  F   UNL     1      20.844  -6.421   7.928  1.00  0.00    -0.206 F 
ATOM     89  C   UNL     1      21.288  -8.910  10.507  1.00  0.00     0.060 A 
BRANCH  89  90
ATOM     90  S   UNL     1      22.579  -9.546  11.597  1.00  0.00     0.124 S 
ATOM     91  O   UNL     1      22.197  -8.960  12.877  1.00  0.00    -0.237 OA
ATOM     92  O   UNL     1      22.401 -10.991  11.483  1.00  0.00    -0.237 OA
ATOM     93  O   UNL     1      23.808  -9.024  11.008  1.00  0.00    -0.744 OA
ENDBRANCH  89  90
ENDBRANCH  57  82
ENDBRANCH  31  32
ENDBRANCH  23  26
ENDBRANCH  21  22
ENDBRANCH   1  21
TORSDOF 16
