REMARK SMILES O=C(NCCCNC(=O)c1ccc(-c2c3nc(c(-c4c(F)cc(S(=O)(=O)[O-])cc4F)c4ccc([nH]4)c(-c4c(F)cc(S(=O)(=O)[O-])cc4F)c4nc(c(-c5c(F)cc(S(=O)(=O)[O-])cc5F)c5ccc2[nH]5)C=C4)C=C3)cc1)C1=CN(c2ccccc2)C[NH2+][C@H]1c1ccc(NC(=S)NC(=O)c2cc3ccccc3o2)cc1
REMARK SMILES IDX 4 1 3 2 1 3 2 4 76 6 77 7 87 8 78 9 86 10 85 11 88 14 89 15
REMARK SMILES IDX 108 16 90 17 107 18 91 19 92 20 93 22 94 23 95 24 96 25
REMARK SMILES IDX 97 27 98 28 99 29 106 30 100 31 105 32 101 33 104 34 102 35
REMARK SMILES IDX 103 36 79 37 80 38 84 39 81 40 83 41 82 42 5 43 6 44 7 45
REMARK SMILES IDX 8 46 9 48 10 49 11 50 75 51 12 52 74 53 13 54 14 55 15 56
REMARK SMILES IDX 68 57 16 58 73 59 67 60 69 61 17 62 72 63 66 64 65 65 18 67
REMARK SMILES IDX 52 68 31 69 51 70 32 71 35 72 50 73 70 74 33 75 34 76 49 78
REMARK SMILES IDX 71 79 36 80 19 81 20 82 29 83 21 84 22 85 28 86 30 87 23 88
REMARK SMILES IDX 24 89 25 90 26 91 27 92 53 93 54 94 63 95 55 96 56 97 62 98
REMARK SMILES IDX 64 99 57 100 58 101 59 102 60 103 61 104 37 105 38 106
REMARK SMILES IDX 47 107 39 108 40 109 46 110 48 111 41 112 42 113 43 114
REMARK SMILES IDX 44 115 45 116
REMARK H PARENT 3 5 86 12 86 13 92 21 95 26 7 47 69 66 35 77
REMARK Flexibility Score: inf
ROOT
ATOM      1  C   UNL     1       4.596   1.562  -0.847  1.00  0.00     0.118 C 
ENDROOT
BRANCH   1   2
ATOM      2  N   UNL     1       3.163   1.565  -0.540  1.00  0.00    -0.352 N 
ATOM      3  O   UNL     1       1.144   0.763   0.010  1.00  0.00    -0.269 OA
ATOM      4  C   UNL     1       2.360   0.591  -0.028  1.00  0.00     0.255 C 
ATOM      5  H   UNL     1       2.704   2.413  -0.737  1.00  0.00     0.163 HD
BRANCH   4   6
ATOM      6  C   UNL     1       2.975  -0.668   0.438  1.00  0.00     0.095 C 
ATOM      7  C   UNL     1       4.089  -0.580   1.171  1.00  0.00     0.107 C 
ATOM      8  C   UNL     1       2.380  -1.970   0.003  1.00  0.00     0.253 C 
ATOM      9  N   UNL     1       4.954  -1.629   1.387  1.00  0.00    -0.300 N 
ATOM     10  N   UNL     1       3.332  -3.107   0.027  1.00  0.00    -0.319 N 
ATOM     11  C   UNL     1       4.539  -2.939   0.854  1.00  0.00     0.393 C 
ATOM     12  H   UNL     1       2.830  -3.924   0.375  1.00  0.00     0.348 HD
ATOM     13  H   UNL     1       3.672  -3.194  -0.930  1.00  0.00     0.348 HD
BRANCH   8  14
ATOM     14  C   UNL     1       1.072  -2.356   0.725  1.00  0.00     0.014 A 
ATOM     15  C   UNL     1       0.604  -1.717   1.890  1.00  0.00     0.012 A 
ATOM     16  C   UNL     1       0.333  -3.452   0.242  1.00  0.00     0.012 A 
ATOM     17  C   UNL     1      -0.442  -2.268   2.650  1.00  0.00     0.026 A 
ATOM     18  C   UNL     1      -0.703  -4.005   0.998  1.00  0.00     0.026 A 
ATOM     19  C   UNL     1      -1.006  -3.481   2.256  1.00  0.00     0.040 A 
BRANCH  19  20
ATOM     20  N   UNL     1      -1.849  -4.247   3.075  1.00  0.00    -0.332 N 
ATOM     21  H   UNL     1      -2.296  -5.003   2.630  1.00  0.00     0.169 HD
BRANCH  20  22
ATOM     22  C   UNL     1      -2.132  -4.095   4.375  1.00  0.00     0.177 C 
ATOM     23  S   UNL     1      -3.746  -4.058   4.839  1.00  0.00    -0.040 S 
BRANCH  22  24
ATOM     24  N   UNL     1      -1.211  -4.149   5.396  1.00  0.00    -0.296 N 
ATOM     25  C   UNL     1       0.061  -4.569   5.844  1.00  0.00     0.293 C 
ATOM     26  H   UNL     1      -1.625  -3.683   6.158  1.00  0.00     0.172 HD
ATOM     27  O   UNL     1       0.101  -4.685   7.079  1.00  0.00    -0.265 OA
BRANCH  25  28
ATOM     28  C   UNL     1       1.254  -4.800   5.058  1.00  0.00     0.193 A 
ATOM     29  C   UNL     1       1.786  -4.162   3.964  1.00  0.00     0.065 A 
ATOM     30  O   UNL     1       2.340  -5.355   5.733  1.00  0.00    -0.451 OA
ATOM     31  C   UNL     1       3.000  -3.641   4.466  1.00  0.00     0.021 A 
ATOM     32  C   UNL     1       3.399  -4.545   5.431  1.00  0.00     0.135 A 
ATOM     33  C   UNL     1       3.764  -2.491   4.259  1.00  0.00     0.012 A 
ATOM     34  C   UNL     1       4.632  -4.510   6.067  1.00  0.00     0.048 A 
ATOM     35  C   UNL     1       4.948  -2.349   4.988  1.00  0.00     0.001 A 
ATOM     36  C   UNL     1       5.404  -3.367   5.826  1.00  0.00     0.004 A 
ENDBRANCH  25  28
ENDBRANCH  22  24
ENDBRANCH  20  22
ENDBRANCH  19  20
ENDBRANCH   8  14
BRANCH   9  37
ATOM     37  C   UNL     1       6.251  -1.459   1.940  1.00  0.00     0.046 A 
ATOM     38  C   UNL     1       6.590  -0.299   2.675  1.00  0.00     0.026 A 
ATOM     39  C   UNL     1       7.284  -2.397   1.779  1.00  0.00     0.026 A 
ATOM     40  C   UNL     1       7.870  -0.078   3.198  1.00  0.00     0.002 A 
ATOM     41  C   UNL     1       8.574  -2.177   2.289  1.00  0.00     0.002 A 
ATOM     42  C   UNL     1       8.868  -1.018   2.996  1.00  0.00     0.000 A 
ENDBRANCH   9  37
ENDBRANCH   4   6
ENDBRANCH   1   2
BRANCH   1  43
ATOM     43  C   UNL     1       4.872   1.629  -2.333  1.00  0.00     0.042 C 
BRANCH  43  44
ATOM     44  C   UNL     1       4.243   2.839  -2.994  1.00  0.00     0.118 C 
BRANCH  44  45
ATOM     45  N   UNL     1       4.681   4.092  -2.386  1.00  0.00    -0.352 N 
ATOM     46  C   UNL     1       5.552   5.042  -2.858  1.00  0.00     0.251 C 
ATOM     47  H   UNL     1       4.291   4.285  -1.503  1.00  0.00     0.163 HD
ATOM     48  O   UNL     1       5.981   5.909  -2.103  1.00  0.00    -0.269 OA
BRANCH  46  49
ATOM     49  C   UNL     1       5.982   4.993  -4.268  1.00  0.00     0.039 A 
ATOM     50  C   UNL     1       7.322   5.216  -4.589  1.00  0.00     0.014 A 
ATOM     51  C   UNL     1       5.056   4.698  -5.270  1.00  0.00     0.014 A 
ATOM     52  C   UNL     1       7.745   5.059  -5.910  1.00  0.00     0.010 A 
ATOM     53  C   UNL     1       5.499   4.424  -6.554  1.00  0.00     0.010 A 
ATOM     54  C   UNL     1       6.845   4.616  -6.893  1.00  0.00    -0.014 A 
BRANCH  54  55
ATOM     55  C   UNL     1       7.263   4.375  -8.294  1.00  0.00     0.031 A 
ATOM     56  C   UNL     1       6.606   5.153  -9.404  1.00  0.00     0.074 A 
ATOM     57  C   UNL     1       8.152   3.402  -8.573  1.00  0.00     0.049 A 
ATOM     58  N   UNL     1       6.710   4.996 -10.697  1.00  0.00    -0.248 NA
ATOM     59  C   UNL     1       5.674   6.222  -9.004  1.00  0.00     0.031 C 
ATOM     60  C   UNL     1       8.812   2.544  -7.586  1.00  0.00     0.029 A 
ATOM     61  N   UNL     1       8.643   2.959  -9.775  1.00  0.00    -0.354 N 
ATOM     62  C   UNL     1       5.838   5.920 -11.260  1.00  0.00     0.074 A 
ATOM     63  C   UNL     1       5.168   6.593 -10.169  1.00  0.00     0.031 C 
ATOM     64  C   UNL     1       9.642   1.700  -8.220  1.00  0.00     0.029 A 
ATOM     65  C   UNL     1       9.541   1.925  -9.658  1.00  0.00     0.049 A 
ATOM     66  H   UNL     1       8.376   3.346 -10.640  1.00  0.00     0.167 HD
ATOM     67  C   UNL     1       5.635   6.205 -12.567  1.00  0.00     0.037 A 
ATOM     68  C   UNL     1      10.202   1.234 -10.606  1.00  0.00     0.037 A 
ATOM     69  C   UNL     1       6.346   5.569 -13.643  1.00  0.00     0.049 A 
ATOM     70  C   UNL     1       9.981   1.587 -12.051  1.00  0.00     0.074 A 
ATOM     71  C   UNL     1       6.265   5.826 -14.999  1.00  0.00     0.029 A 
ATOM     72  N   UNL     1       7.281   4.558 -13.480  1.00  0.00    -0.354 N 
ATOM     73  N   UNL     1       9.185   2.495 -12.565  1.00  0.00    -0.248 NA
ATOM     74  C   UNL     1      10.746   0.824 -13.046  1.00  0.00     0.031 C 
ATOM     75  C   UNL     1       7.133   4.951 -15.660  1.00  0.00     0.029 A 
ATOM     76  C   UNL     1       7.780   4.174 -14.712  1.00  0.00     0.049 A 
ATOM     77  H   UNL     1       7.549   4.170 -12.615  1.00  0.00     0.167 HD
ATOM     78  C   UNL     1       9.372   2.430 -13.940  1.00  0.00     0.074 A 
ATOM     79  C   UNL     1      10.364   1.400 -14.178  1.00  0.00     0.031 C 
ATOM     80  C   UNL     1       8.778   3.155 -14.919  1.00  0.00     0.037 A 
BRANCH  67  81
ATOM     81  C   UNL     1       4.622   7.265 -12.897  1.00  0.00     0.058 A 
ATOM     82  C   UNL     1       4.862   8.621 -12.620  1.00  0.00     0.135 A 
ATOM     83  C   UNL     1       3.404   6.927 -13.509  1.00  0.00     0.135 A 
ATOM     84  F   UNL     1       6.001   8.996 -12.017  1.00  0.00    -0.206 F 
ATOM     85  C   UNL     1       3.918   9.600 -12.908  1.00  0.00     0.059 A 
ATOM     86  C   UNL     1       2.456   7.895 -13.831  1.00  0.00     0.059 A 
ATOM     87  F   UNL     1       3.122   5.646 -13.792  1.00  0.00    -0.206 F 
ATOM     88  C   UNL     1       2.716   9.227 -13.511  1.00  0.00     0.060 A 
BRANCH  88  89
ATOM     89  S   UNL     1       1.501  10.510 -13.880  1.00  0.00     0.124 S 
ATOM     90  O   UNL     1       0.957  10.783 -12.553  1.00  0.00    -0.237 OA
ATOM     91  O   UNL     1       2.326  11.568 -14.455  1.00  0.00    -0.237 OA
ATOM     92  O   UNL     1       0.589   9.855 -14.811  1.00  0.00    -0.744 OA
ENDBRANCH  88  89
ENDBRANCH  67  81
BRANCH  68  93
ATOM     93  C   UNL     1      11.156   0.163 -10.219  1.00  0.00     0.058 A 
ATOM     94  C   UNL     1      12.540   0.354 -10.353  1.00  0.00     0.135 A 
ATOM     95  C   UNL     1      10.713  -1.062  -9.698  1.00  0.00     0.135 A 
ATOM     96  F   UNL     1      13.011   1.508 -10.849  1.00  0.00    -0.206 F 
ATOM     97  C   UNL     1      13.450  -0.637 -10.003  1.00  0.00     0.059 A 
ATOM     98  C   UNL     1      11.605  -2.061  -9.320  1.00  0.00     0.059 A 
ATOM     99  F   UNL     1       9.400  -1.286  -9.531  1.00  0.00    -0.206 F 
ATOM    100  C   UNL     1      12.972  -1.843  -9.487  1.00  0.00     0.060 A 
BRANCH 100 101
ATOM    101  S   UNL     1      14.163  -3.109  -8.995  1.00  0.00     0.124 S 
ATOM    102  O   UNL     1      14.579  -3.638 -10.288  1.00  0.00    -0.237 OA
ATOM    103  O   UNL     1      15.163  -2.328  -8.273  1.00  0.00    -0.237 OA
ATOM    104  O   UNL     1      13.368  -4.011  -8.167  1.00  0.00    -0.744 OA
ENDBRANCH 100 101
ENDBRANCH  68  93
BRANCH  80 105
ATOM    105  C   UNL     1       9.207   2.886 -16.332  1.00  0.00     0.058 A 
ATOM    106  C   UNL     1       8.777   1.744 -17.024  1.00  0.00     0.135 A 
ATOM    107  C   UNL     1      10.002   3.816 -17.021  1.00  0.00     0.135 A 
ATOM    108  F   UNL     1       8.020   0.824 -16.405  1.00  0.00    -0.206 F 
ATOM    109  C   UNL     1       9.133   1.525 -18.350  1.00  0.00     0.059 A 
ATOM    110  C   UNL     1      10.352   3.628 -18.353  1.00  0.00     0.059 A 
ATOM    111  F   UNL     1      10.430   4.928 -16.403  1.00  0.00    -0.206 F 
ATOM    112  C   UNL     1       9.919   2.474 -19.007  1.00  0.00     0.060 A 
BRANCH 112 113
ATOM    113  S   UNL     1      10.336   2.202 -20.742  1.00  0.00     0.124 S 
ATOM    114  O   UNL     1      11.376   1.184 -20.637  1.00  0.00    -0.237 OA
ATOM    115  O   UNL     1       9.066   1.756 -21.304  1.00  0.00    -0.237 OA
ATOM    116  O   UNL     1      10.786   3.516 -21.192  1.00  0.00    -0.744 OA
ENDBRANCH 112 113
ENDBRANCH  80 105
ENDBRANCH  54  55
ENDBRANCH  46  49
ENDBRANCH  44  45
ENDBRANCH  43  44
ENDBRANCH   1  43
TORSDOF 19
