REMARK SMILES Cc1ccc(C(=O)NCCCNC(=O)c2ccc(-c3c4nc(c(-c5c(F)cc(S(=O)(=O)[O-])cc5F)c5ccc([nH]5)c(-c5c(F)cc(S(=O)(=O)[O-])cc5F)c5nc(c(-c6c(F)cc(S(=O)(=O)[O-])cc6F)c6ccc3[nH]6)C=C5)C=C4)cc2)cc1/[NH+]=C1\NCCS1
REMARK SMILES IDX 11 1 10 2 9 3 8 4 6 5 7 6 5 8 1 9 2 10 3 11 82 12 4 13 81 14
REMARK SMILES IDX 83 15 84 16 85 18 88 19 86 20 87 22 12 23 13 24 14 26 15 27
REMARK SMILES IDX 16 28 80 29 17 30 79 31 18 32 19 33 20 34 73 35 21 36 78 37
REMARK SMILES IDX 72 38 74 39 22 40 77 41 71 42 70 43 23 45 57 46 36 47 56 48
REMARK SMILES IDX 37 49 40 50 55 51 75 52 38 53 39 54 54 56 76 57 41 58 24 59
REMARK SMILES IDX 25 60 34 61 26 62 27 63 33 64 35 65 28 66 29 67 30 68 31 69
REMARK SMILES IDX 32 70 58 71 59 72 68 73 60 74 61 75 67 76 69 77 62 78 63 79
REMARK SMILES IDX 64 80 65 81 66 82 42 83 43 84 52 85 44 86 45 87 51 88 53 89
REMARK SMILES IDX 46 90 47 91 48 92 49 93 50 94
REMARK H PARENT 8 7 83 17 85 21 12 25 74 44 40 55
REMARK Flexibility Score: inf
ROOT
ATOM      1  C   UNL     1      -4.199   4.960   0.846  1.00  0.00     0.118 C 
ENDROOT
BRANCH   1   2
ATOM      2  C   UNL     1      -2.845   4.178   0.525  1.00  0.00     0.042 C 
BRANCH   2   3
ATOM      3  C   UNL     1      -2.658   2.733   1.215  1.00  0.00     0.118 C 
BRANCH   3   4
ATOM      4  N   UNL     1      -3.123   1.521   0.495  1.00  0.00    -0.352 N 
ATOM      5  C   UNL     1      -2.662   0.259   0.183  1.00  0.00     0.251 C 
ATOM      6  O   UNL     1      -3.429  -0.673  -0.062  1.00  0.00    -0.269 OA
ATOM      7  H   UNL     1      -4.028   1.659   0.132  1.00  0.00     0.163 HD
BRANCH   5   8
ATOM      8  C   UNL     1      -1.223  -0.012   0.076  1.00  0.00     0.044 A 
ATOM      9  C   UNL     1       3.018  -0.582   0.265  1.00  0.00     0.049 C 
ATOM     10  C   UNL     1       1.537  -0.387   0.138  1.00  0.00    -0.004 A 
ATOM     11  C   UNL     1       0.679  -1.496   0.214  1.00  0.00     0.008 A 
ATOM     12  C   UNL     1       0.993   0.887  -0.089  1.00  0.00     0.129 A 
ATOM     13  C   UNL     1      -0.705  -1.307   0.207  1.00  0.00     0.014 A 
ATOM     14  C   UNL     1      -0.376   1.043  -0.208  1.00  0.00     0.065 A 
BRANCH  12  15
ATOM     15  N   UNL     1       1.752   2.058  -0.071  1.00  0.00    -0.235 N 
ATOM     16  C   UNL     1       2.302   2.445  -1.159  1.00  0.00     0.309 C 
ATOM     17  H   UNL     1       1.861   2.574   0.760  1.00  0.00     0.313 HD
ATOM     18  N   UNL     1       2.346   1.881  -2.396  1.00  0.00    -0.268 N 
ATOM     19  S   UNL     1       3.210   3.950  -1.129  1.00  0.00    -0.035 SA
ATOM     20  C   UNL     1       3.083   2.590  -3.409  1.00  0.00     0.246 C 
ATOM     21  H   UNL     1       1.896   1.028  -2.589  1.00  0.00     0.305 HD
ATOM     22  C   UNL     1       4.053   3.512  -2.672  1.00  0.00     0.128 C 
ENDBRANCH  12  15
ENDBRANCH   5   8
ENDBRANCH   3   4
ENDBRANCH   2   3
ENDBRANCH   1   2
BRANCH   1  23
ATOM     23  N   UNL     1      -4.590   6.349   0.281  1.00  0.00    -0.352 N 
ATOM     24  C   UNL     1      -5.800   7.030  -0.136  1.00  0.00     0.251 C 
ATOM     25  H   UNL     1      -3.800   6.928   0.177  1.00  0.00     0.163 HD
ATOM     26  O   UNL     1      -5.973   8.125   0.428  1.00  0.00    -0.269 OA
BRANCH  24  27
ATOM     27  C   UNL     1      -6.931   6.672  -1.160  1.00  0.00     0.039 A 
ATOM     28  C   UNL     1      -8.306   6.784  -0.805  1.00  0.00     0.014 A 
ATOM     29  C   UNL     1      -6.740   6.189  -2.446  1.00  0.00     0.014 A 
ATOM     30  C   UNL     1      -9.288   5.913  -1.396  1.00  0.00     0.010 A 
ATOM     31  C   UNL     1      -7.723   5.359  -3.063  1.00  0.00     0.010 A 
ATOM     32  C   UNL     1      -8.929   5.036  -2.427  1.00  0.00    -0.014 A 
BRANCH  32  33
ATOM     33  C   UNL     1      -9.662   3.754  -2.749  1.00  0.00     0.031 A 
ATOM     34  C   UNL     1     -10.600   3.651  -3.867  1.00  0.00     0.074 A 
ATOM     35  C   UNL     1      -9.504   2.540  -2.147  1.00  0.00     0.049 A 
ATOM     36  N   UNL     1     -11.803   3.178  -3.779  1.00  0.00    -0.248 NA
ATOM     37  C   UNL     1     -10.164   3.954  -5.218  1.00  0.00     0.031 C 
ATOM     38  C   UNL     1     -10.065   1.206  -2.426  1.00  0.00     0.029 A 
ATOM     39  N   UNL     1      -8.715   2.237  -1.059  1.00  0.00    -0.354 N 
ATOM     40  C   UNL     1     -12.163   2.821  -5.062  1.00  0.00     0.074 A 
ATOM     41  C   UNL     1     -11.188   3.465  -5.923  1.00  0.00     0.031 C 
ATOM     42  C   UNL     1      -9.908   0.414  -1.341  1.00  0.00     0.029 A 
ATOM     43  C   UNL     1      -9.275   1.207  -0.308  1.00  0.00     0.049 A 
ATOM     44  H   UNL     1      -7.867   2.688  -0.842  1.00  0.00     0.167 HD
ATOM     45  C   UNL     1     -13.068   1.821  -5.302  1.00  0.00     0.037 A 
ATOM     46  C   UNL     1      -9.676   1.454   0.979  1.00  0.00     0.037 A 
ATOM     47  C   UNL     1     -13.353   1.047  -4.086  1.00  0.00     0.049 A 
ATOM     48  C   UNL     1     -11.166   1.387   1.092  1.00  0.00     0.074 A 
ATOM     49  C   UNL     1     -12.949  -0.222  -3.691  1.00  0.00     0.029 A 
ATOM     50  N   UNL     1     -13.890   1.648  -2.951  1.00  0.00    -0.354 N 
ATOM     51  N   UNL     1     -11.934   1.271   0.052  1.00  0.00    -0.248 NA
ATOM     52  C   UNL     1     -11.925   1.468   2.333  1.00  0.00     0.031 C 
ATOM     53  C   UNL     1     -13.192  -0.358  -2.304  1.00  0.00     0.029 A 
ATOM     54  C   UNL     1     -13.762   0.818  -1.850  1.00  0.00     0.049 A 
ATOM     55  H   UNL     1     -14.304   2.541  -2.934  1.00  0.00     0.167 HD
ATOM     56  C   UNL     1     -13.240   1.288   0.423  1.00  0.00     0.074 A 
ATOM     57  C   UNL     1     -13.187   1.383   1.871  1.00  0.00     0.031 C 
ATOM     58  C   UNL     1     -14.219   1.229  -0.525  1.00  0.00     0.037 A 
BRANCH  45  59
ATOM     59  C   UNL     1     -13.413   1.325  -6.702  1.00  0.00     0.058 A 
ATOM     60  C   UNL     1     -13.910   0.025  -6.940  1.00  0.00     0.135 A 
ATOM     61  C   UNL     1     -13.307   2.124  -7.861  1.00  0.00     0.135 A 
ATOM     62  F   UNL     1     -14.215  -0.810  -5.938  1.00  0.00    -0.206 F 
ATOM     63  C   UNL     1     -14.155  -0.478  -8.222  1.00  0.00     0.059 A 
ATOM     64  C   UNL     1     -13.482   1.627  -9.157  1.00  0.00     0.059 A 
ATOM     65  F   UNL     1     -13.092   3.445  -7.777  1.00  0.00    -0.206 F 
ATOM     66  C   UNL     1     -13.909   0.320  -9.329  1.00  0.00     0.060 A 
BRANCH  66  67
ATOM     67  S   UNL     1     -14.231  -0.342 -10.974  1.00  0.00     0.124 S 
ATOM     68  O   UNL     1     -13.412  -1.550 -10.992  1.00  0.00    -0.237 OA
ATOM     69  O   UNL     1     -15.675  -0.554 -10.937  1.00  0.00    -0.237 OA
ATOM     70  O   UNL     1     -13.781   0.724 -11.866  1.00  0.00    -0.744 OA
ENDBRANCH  66  67
ENDBRANCH  45  59
BRANCH  46  71
ATOM     71  C   UNL     1      -8.777   2.369   1.808  1.00  0.00     0.058 A 
ATOM     72  C   UNL     1      -7.503   1.823   2.008  1.00  0.00     0.135 A 
ATOM     73  C   UNL     1      -8.716   3.685   1.381  1.00  0.00     0.135 A 
ATOM     74  F   UNL     1      -7.326   0.844   2.902  1.00  0.00    -0.206 F 
ATOM     75  C   UNL     1      -6.445   2.153   1.165  1.00  0.00     0.059 A 
ATOM     76  C   UNL     1      -7.616   4.082   0.612  1.00  0.00     0.059 A 
ATOM     77  F   UNL     1      -9.778   4.498   1.501  1.00  0.00    -0.206 F 
ATOM     78  C   UNL     1      -6.637   3.166   0.251  1.00  0.00     0.060 A 
BRANCH  78  79
ATOM     79  S   UNL     1      -5.684   3.100  -1.433  1.00  0.00     0.124 S 
ATOM     80  O   UNL     1      -4.762   2.018  -1.173  1.00  0.00    -0.237 OA
ATOM     81  O   UNL     1      -6.674   2.725  -2.436  1.00  0.00    -0.237 OA
ATOM     82  O   UNL     1      -5.032   4.370  -1.638  1.00  0.00    -0.744 OA
ENDBRANCH  78  79
ENDBRANCH  46  71
BRANCH  58  83
ATOM     83  C   UNL     1     -15.688   1.419  -0.281  1.00  0.00     0.058 A 
ATOM     84  C   UNL     1     -16.222   2.165   0.782  1.00  0.00     0.135 A 
ATOM     85  C   UNL     1     -16.629   0.918  -1.213  1.00  0.00     0.135 A 
ATOM     86  F   UNL     1     -15.435   2.804   1.658  1.00  0.00    -0.206 F 
ATOM     87  C   UNL     1     -17.595   2.320   0.964  1.00  0.00     0.059 A 
ATOM     88  C   UNL     1     -17.997   1.118  -1.087  1.00  0.00     0.059 A 
ATOM     89  F   UNL     1     -16.250   0.216  -2.291  1.00  0.00    -0.206 F 
ATOM     90  C   UNL     1     -18.475   1.787   0.027  1.00  0.00     0.060 A 
BRANCH  90  91
ATOM     91  S   UNL     1     -20.245   2.006   0.252  1.00  0.00     0.124 S 
ATOM     92  O   UNL     1     -20.558   0.908   1.161  1.00  0.00    -0.237 OA
ATOM     93  O   UNL     1     -20.331   3.345   0.826  1.00  0.00    -0.237 OA
ATOM     94  O   UNL     1     -20.776   1.877  -1.101  1.00  0.00    -0.744 OA
ENDBRANCH  90  91
ENDBRANCH  58  83
ENDBRANCH  32  33
ENDBRANCH  24  27
ENDBRANCH   1  23
TORSDOF 14
