REMARK SMILES C[C@@H](NC(=O)/C(=C/c1ccc(Cl)cc1)NC(=O)c1ccc(C(C)(C)C)cc1)C(=O)NCCCNC(=O)c1ccc(-c2c3nc(c(-c4c(F)cc(S(=O)(=O)[O-])cc4F)c4ccc([nH]4)c(-c4c(F)cc(S(=O)(=O)[O-])cc4F)c4nc(c(-c5c(F)cc(S(=O)(=O)[O-])cc5F)c5ccc2[nH]5)C=C4)C=C3)cc1
REMARK SMILES IDX 31 1 30 2 28 3 29 4 2 6 1 7 3 8 4 9 5 11 6 12 7 13 15 14
REMARK SMILES IDX 16 15 17 17 18 18 19 19 27 20 20 21 26 22 21 23 22 24 23 25
REMARK SMILES IDX 24 26 25 27 8 28 9 29 14 30 10 31 13 32 11 33 12 34 32 35
REMARK SMILES IDX 33 36 34 37 35 38 36 40 37 41 38 42 102 43 39 44 101 45
REMARK SMILES IDX 40 46 41 47 42 48 95 49 43 50 100 51 94 52 96 53 44 54 99 55
REMARK SMILES IDX 93 56 92 57 45 59 79 60 58 61 78 62 59 63 62 64 77 65 97 66
REMARK SMILES IDX 60 67 61 68 76 70 98 71 63 72 46 73 47 74 56 75 48 76 49 77
REMARK SMILES IDX 55 78 57 79 50 80 51 81 52 82 53 83 54 84 80 85 81 86 90 87
REMARK SMILES IDX 82 88 83 89 89 90 91 91 84 92 85 93 86 94 87 95 88 96 64 97
REMARK SMILES IDX 65 98 74 99 66 100 67 101 73 102 75 103 68 104 69 105 70 106
REMARK SMILES IDX 71 107 72 108
REMARK H PARENT 30 5 3 10 15 16 34 39 96 58 62 69
REMARK Flexibility Score: inf
ROOT
ATOM      1  C   UNL     1      -0.941  -2.118   0.426  1.00  0.00     0.117 C 
ENDROOT
BRANCH   1   2
ATOM      2  N   UNL     1      -1.292  -0.731   0.202  1.00  0.00    -0.354 N 
ATOM      3  C   UNL     1      -0.722   0.169  -0.641  1.00  0.00     0.242 C 
ATOM      4  O   UNL     1      -1.162   1.322  -0.641  1.00  0.00    -0.273 OA
ATOM      5  H   UNL     1      -2.047  -0.393   0.735  1.00  0.00     0.163 HD
BRANCH   3   6
ATOM      6  C   UNL     1       0.520  -0.187  -1.475  1.00  0.00     0.168 C 
ATOM      7  C   UNL     1       1.732  -0.040  -0.546  1.00  0.00     0.041 C 
BRANCH   6   8
ATOM      8  N   UNL     1       0.566  -1.479  -2.185  1.00  0.00    -0.339 N 
ATOM      9  C   UNL     1      -0.205  -1.827  -3.274  1.00  0.00     0.268 C 
ATOM     10  H   UNL     1       1.202  -2.153  -1.853  1.00  0.00     0.164 HD
ATOM     11  O   UNL     1       0.340  -2.128  -4.332  1.00  0.00    -0.268 OA
BRANCH   9  12
ATOM     12  C   UNL     1      -1.684  -2.016  -3.077  1.00  0.00     0.107 C 
ATOM     13  C   UNL     1      -2.408  -0.901  -2.862  1.00  0.00     0.040 C 
BRANCH  12  14
ATOM     14  N   UNL     1      -2.287  -3.252  -3.216  1.00  0.00    -0.317 N 
ATOM     15  C   UNL     1      -1.840  -4.533  -3.435  1.00  0.00     0.255 C 
ATOM     16  H   UNL     1      -3.268  -3.203  -3.139  1.00  0.00     0.170 HD
ATOM     17  O   UNL     1      -2.662  -5.421  -3.662  1.00  0.00    -0.269 OA
BRANCH  15  18
ATOM     18  C   UNL     1      -0.419  -4.894  -3.425  1.00  0.00     0.040 A 
ATOM     19  C   UNL     1       0.137  -5.394  -4.601  1.00  0.00     0.014 A 
ATOM     20  C   UNL     1       0.348  -4.809  -2.266  1.00  0.00     0.014 A 
ATOM     21  C   UNL     1       1.496  -5.700  -4.644  1.00  0.00     0.005 A 
ATOM     22  C   UNL     1       1.714  -5.109  -2.319  1.00  0.00     0.005 A 
ATOM     23  C   UNL     1       2.325  -5.516  -3.520  1.00  0.00    -0.043 A 
BRANCH  23  24
ATOM     24  C   UNL     1       3.841  -5.744  -3.645  1.00  0.00    -0.013 C 
ATOM     25  C   UNL     1       4.121  -7.242  -3.869  1.00  0.00     0.016 C 
ATOM     26  C   UNL     1       4.393  -4.938  -4.846  1.00  0.00     0.016 C 
ATOM     27  C   UNL     1       4.639  -5.290  -2.403  1.00  0.00     0.016 C 
ENDBRANCH  23  24
ENDBRANCH  15  18
ENDBRANCH  12  14
BRANCH  13  28
ATOM     28  C   UNL     1      -3.820  -0.752  -2.447  1.00  0.00    -0.023 A 
ATOM     29  C   UNL     1      -4.506  -1.708  -1.680  1.00  0.00     0.010 A 
ATOM     30  C   UNL     1      -4.454   0.474  -2.695  1.00  0.00     0.010 A 
ATOM     31  C   UNL     1      -5.812  -1.474  -1.235  1.00  0.00     0.021 A 
ATOM     32  C   UNL     1      -5.750   0.721  -2.230  1.00  0.00     0.021 A 
ATOM     33  C   UNL     1      -6.428  -0.259  -1.512  1.00  0.00     0.041 A 
ATOM     34  Cl  UNL     1      -8.021   0.044  -0.944  1.00  0.00    -0.084 Cl
ENDBRANCH  13  28
ENDBRANCH   9  12
ENDBRANCH   6   8
ENDBRANCH   3   6
ENDBRANCH   1   2
BRANCH   1  35
ATOM     35  C   UNL     1      -1.233  -2.540   1.854  1.00  0.00     0.042 C 
BRANCH  35  36
ATOM     36  C   UNL     1      -2.721  -2.675   2.139  1.00  0.00     0.118 C 
BRANCH  36  37
ATOM     37  N   UNL     1      -3.307  -3.857   1.523  1.00  0.00    -0.352 N 
ATOM     38  C   UNL     1      -4.119  -4.809   2.101  1.00  0.00     0.251 C 
ATOM     39  H   UNL     1      -3.096  -3.993   0.571  1.00  0.00     0.163 HD
ATOM     40  O   UNL     1      -4.420  -5.816   1.485  1.00  0.00    -0.269 OA
BRANCH  38  41
ATOM     41  C   UNL     1      -4.579  -4.605   3.492  1.00  0.00     0.039 A 
ATOM     42  C   UNL     1      -4.426  -5.645   4.411  1.00  0.00     0.014 A 
ATOM     43  C   UNL     1      -5.103  -3.374   3.895  1.00  0.00     0.014 A 
ATOM     44  C   UNL     1      -4.736  -5.424   5.753  1.00  0.00     0.010 A 
ATOM     45  C   UNL     1      -5.325  -3.130   5.245  1.00  0.00     0.010 A 
ATOM     46  C   UNL     1      -5.152  -4.154   6.188  1.00  0.00    -0.014 A 
BRANCH  46  47
ATOM     47  C   UNL     1      -5.424  -3.886   7.623  1.00  0.00     0.031 A 
ATOM     48  C   UNL     1      -6.809  -3.498   8.065  1.00  0.00     0.074 A 
ATOM     49  C   UNL     1      -4.416  -3.941   8.517  1.00  0.00     0.049 A 
ATOM     50  N   UNL     1      -7.238  -3.193   9.262  1.00  0.00    -0.248 NA
ATOM     51  C   UNL     1      -7.842  -3.411   7.019  1.00  0.00     0.031 C 
ATOM     52  C   UNL     1      -3.017  -4.240   8.200  1.00  0.00     0.029 A 
ATOM     53  N   UNL     1      -4.411  -3.744   9.874  1.00  0.00    -0.354 N 
ATOM     54  C   UNL     1      -8.580  -2.864   9.110  1.00  0.00     0.074 A 
ATOM     55  C   UNL     1      -8.880  -2.946   7.698  1.00  0.00     0.031 C 
ATOM     56  C   UNL     1      -2.298  -4.239   9.334  1.00  0.00     0.029 A 
ATOM     57  C   UNL     1      -3.175  -3.909  10.454  1.00  0.00     0.049 A 
ATOM     58  H   UNL     1      -5.218  -3.506  10.387  1.00  0.00     0.167 HD
ATOM     59  C   UNL     1      -9.490  -2.553  10.064  1.00  0.00     0.037 A 
ATOM     60  C   UNL     1      -2.793  -3.811  11.742  1.00  0.00     0.037 A 
ATOM     61  C   UNL     1      -9.194  -2.510  11.471  1.00  0.00     0.049 A 
ATOM     62  C   UNL     1      -3.827  -3.494  12.788  1.00  0.00     0.074 A 
ATOM     63  C   UNL     1     -10.057  -2.268  12.525  1.00  0.00     0.029 A 
ATOM     64  N   UNL     1      -7.938  -2.717  12.022  1.00  0.00    -0.354 N 
ATOM     65  N   UNL     1      -5.109  -3.256  12.634  1.00  0.00    -0.248 NA
ATOM     66  C   UNL     1      -3.369  -3.443  14.182  1.00  0.00     0.031 C 
ATOM     67  C   UNL     1      -9.316  -2.295  13.711  1.00  0.00     0.029 A 
ATOM     68  C   UNL     1      -7.999  -2.595  13.400  1.00  0.00     0.049 A 
ATOM     69  H   UNL     1      -7.123  -2.920  11.508  1.00  0.00     0.167 HD
ATOM     70  C   UNL     1      -5.614  -3.052  13.913  1.00  0.00     0.074 A 
ATOM     71  C   UNL     1      -4.502  -3.208  14.829  1.00  0.00     0.031 C 
ATOM     72  C   UNL     1      -6.882  -2.761  14.295  1.00  0.00     0.037 A 
BRANCH  59  73
ATOM     73  C   UNL     1     -10.893  -2.252   9.613  1.00  0.00     0.058 A 
ATOM     74  C   UNL     1     -11.734  -3.255   9.106  1.00  0.00     0.135 A 
ATOM     75  C   UNL     1     -11.412  -0.951   9.710  1.00  0.00     0.135 A 
ATOM     76  F   UNL     1     -11.283  -4.513   8.974  1.00  0.00    -0.206 F 
ATOM     77  C   UNL     1     -13.028  -2.975   8.680  1.00  0.00     0.059 A 
ATOM     78  C   UNL     1     -12.713  -0.652   9.317  1.00  0.00     0.059 A 
ATOM     79  F   UNL     1     -10.651   0.047  10.186  1.00  0.00    -0.206 F 
ATOM     80  C   UNL     1     -13.508  -1.669   8.788  1.00  0.00     0.060 A 
BRANCH  80  81
ATOM     81  S   UNL     1     -15.191  -1.322   8.236  1.00  0.00     0.124 S 
ATOM     82  O   UNL     1     -15.035  -1.361   6.786  1.00  0.00    -0.237 OA
ATOM     83  O   UNL     1     -15.947  -2.425   8.822  1.00  0.00    -0.237 OA
ATOM     84  O   UNL     1     -15.470  -0.006   8.803  1.00  0.00    -0.744 OA
ENDBRANCH  80  81
ENDBRANCH  59  73
BRANCH  60  85
ATOM     85  C   UNL     1      -1.375  -4.055  12.119  1.00  0.00     0.058 A 
ATOM     86  C   UNL     1      -1.003  -5.214  12.816  1.00  0.00     0.135 A 
ATOM     87  C   UNL     1      -0.363  -3.144  11.778  1.00  0.00     0.135 A 
ATOM     88  F   UNL     1      -1.935  -6.112  13.168  1.00  0.00    -0.206 F 
ATOM     89  C   UNL     1       0.318  -5.455  13.179  1.00  0.00     0.059 A 
ATOM     90  C   UNL     1       0.969  -3.374  12.108  1.00  0.00     0.059 A 
ATOM     91  F   UNL     1      -0.664  -2.029  11.094  1.00  0.00    -0.206 F 
ATOM     92  C   UNL     1       1.298  -4.529  12.818  1.00  0.00     0.060 A 
BRANCH  92  93
ATOM     93  S   UNL     1       3.019  -4.874  13.247  1.00  0.00     0.124 S 
ATOM     94  O   UNL     1       3.025  -4.601  14.680  1.00  0.00    -0.237 OA
ATOM     95  O   UNL     1       3.156  -6.275  12.863  1.00  0.00    -0.237 OA
ATOM     96  O   UNL     1       3.765  -3.930  12.420  1.00  0.00    -0.744 OA
ENDBRANCH  92  93
ENDBRANCH  60  85
BRANCH  72  97
ATOM     97  C   UNL     1      -7.143  -2.625  15.769  1.00  0.00     0.058 A 
ATOM     98  C   UNL     1      -6.706  -1.506  16.494  1.00  0.00     0.135 A 
ATOM     99  C   UNL     1      -7.879  -3.606  16.453  1.00  0.00     0.135 A 
ATOM    100  F   UNL     1      -5.994  -0.543  15.887  1.00  0.00    -0.206 F 
ATOM    101  C   UNL     1      -6.966  -1.377  17.854  1.00  0.00     0.059 A 
ATOM    102  C   UNL     1      -8.174  -3.485  17.807  1.00  0.00     0.059 A 
ATOM    103  F   UNL     1      -8.330  -4.690  15.802  1.00  0.00    -0.206 F 
ATOM    104  C   UNL     1      -7.701  -2.372  18.502  1.00  0.00     0.060 A 
BRANCH 104 105
ATOM    105  S   UNL     1      -8.054  -2.182  20.262  1.00  0.00     0.124 S 
ATOM    106  O   UNL     1      -6.763  -2.510  20.857  1.00  0.00    -0.237 OA
ATOM    107  O   UNL     1      -8.456  -0.781  20.352  1.00  0.00    -0.237 OA
ATOM    108  O   UNL     1      -9.120  -3.150  20.500  1.00  0.00    -0.744 OA
ENDBRANCH 104 105
ENDBRANCH  72  97
ENDBRANCH  46  47
ENDBRANCH  38  41
ENDBRANCH  36  37
ENDBRANCH  35  36
ENDBRANCH   1  35
TORSDOF 19
