REMARK SMILES O=C(NCCCNC(=O)c1ccc(S(=O)(=O)N[C@@H]2CC[N@H+]3CCC[C@H]23)cc1)c1ccc(-c2c3nc(c(-c4c(F)cc(S(=O)(=O)[O-])cc4F)c4ccc([nH]4)c(-c4c(F)cc(S(=O)(=O)[O-])cc4F)c4nc(c(-c5c(F)cc(S(=O)(=O)[O-])cc5F)c5ccc2[nH]5)C=C4)C=C3)cc1
REMARK SMILES IDX 5 1 4 2 3 3 1 4 2 5 28 7 29 8 93 9 30 10 92 11 31 12 32 13
REMARK SMILES IDX 33 14 86 15 34 16 91 17 85 18 87 19 35 20 90 21 84 22 83 23
REMARK SMILES IDX 36 25 70 26 49 27 69 28 50 29 53 30 68 31 88 32 51 33 52 34
REMARK SMILES IDX 67 36 89 37 54 38 37 39 38 40 47 41 39 42 40 43 46 44 48 45
REMARK SMILES IDX 41 46 42 47 43 48 44 49 45 50 71 51 72 52 81 53 73 54 74 55
REMARK SMILES IDX 80 56 82 57 75 58 76 59 77 60 78 61 79 62 55 63 56 64 65 65
REMARK SMILES IDX 57 66 58 67 64 68 66 69 59 70 60 71 61 72 62 73 63 74 6 75
REMARK SMILES IDX 7 76 8 77 9 79 10 80 11 81 27 82 12 83 26 84 13 85 14 86
REMARK SMILES IDX 15 87 16 88 17 89 18 91 19 92 25 93 20 94 21 95 24 96 22 97
REMARK SMILES IDX 23 99
REMARK H PARENT 3 6 87 24 53 35 7 78 17 90 21 98
REMARK Flexibility Score: inf
ROOT
ATOM      1  C   UNL     1       4.798   0.515  -2.269  1.00  0.00     0.042 C 
ENDROOT
BRANCH   1   2
ATOM      2  C   UNL     1       4.441   1.062  -0.899  1.00  0.00     0.118 C 
BRANCH   2   3
ATOM      3  N   UNL     1       3.022   0.907  -0.593  1.00  0.00    -0.352 N 
ATOM      4  O   UNL     1       1.142  -0.104   0.111  1.00  0.00    -0.269 OA
ATOM      5  C   UNL     1       2.366  -0.022   0.181  1.00  0.00     0.251 C 
ATOM      6  H   UNL     1       2.437   1.579  -1.010  1.00  0.00     0.163 HD
BRANCH   5   7
ATOM      7  C   UNL     1       3.121  -0.927   1.075  1.00  0.00     0.039 A 
ATOM      8  C   UNL     1       4.243  -0.469   1.761  1.00  0.00     0.014 A 
ATOM      9  C   UNL     1       2.687  -2.244   1.265  1.00  0.00     0.014 A 
ATOM     10  C   UNL     1       5.040  -1.361   2.459  1.00  0.00     0.010 A 
ATOM     11  C   UNL     1       3.418  -3.111   2.088  1.00  0.00     0.010 A 
ATOM     12  C   UNL     1       4.623  -2.686   2.664  1.00  0.00    -0.014 A 
BRANCH  12  13
ATOM     13  C   UNL     1       5.448  -3.545   3.553  1.00  0.00     0.031 A 
ATOM     14  C   UNL     1       6.124  -4.788   3.046  1.00  0.00     0.074 A 
ATOM     15  C   UNL     1       5.662  -3.120   4.816  1.00  0.00     0.049 A 
ATOM     16  N   UNL     1       6.962  -5.575   3.672  1.00  0.00    -0.248 NA
ATOM     17  C   UNL     1       5.816  -5.215   1.673  1.00  0.00     0.031 C 
ATOM     18  C   UNL     1       5.028  -1.945   5.426  1.00  0.00     0.029 A 
ATOM     19  N   UNL     1       6.504  -3.582   5.793  1.00  0.00    -0.354 N 
ATOM     20  C   UNL     1       7.266  -6.599   2.783  1.00  0.00     0.074 A 
ATOM     21  C   UNL     1       6.506  -6.345   1.577  1.00  0.00     0.031 C 
ATOM     22  C   UNL     1       5.572  -1.725   6.630  1.00  0.00     0.029 A 
ATOM     23  C   UNL     1       6.540  -2.778   6.908  1.00  0.00     0.049 A 
ATOM     24  H   UNL     1       7.032  -4.409   5.705  1.00  0.00     0.167 HD
ATOM     25  C   UNL     1       8.105  -7.648   2.957  1.00  0.00     0.037 A 
ATOM     26  C   UNL     1       7.272  -2.872   8.033  1.00  0.00     0.037 A 
ATOM     27  C   UNL     1       8.875  -7.879   4.153  1.00  0.00     0.049 A 
ATOM     28  C   UNL     1       8.236  -4.010   8.174  1.00  0.00     0.074 A 
ATOM     29  C   UNL     1       9.748  -8.917   4.431  1.00  0.00     0.029 A 
ATOM     30  N   UNL     1       8.876  -7.051   5.266  1.00  0.00    -0.354 N 
ATOM     31  N   UNL     1       8.497  -4.973   7.322  1.00  0.00    -0.248 NA
ATOM     32  C   UNL     1       8.997  -4.083   9.427  1.00  0.00     0.031 C 
ATOM     33  C   UNL     1      10.262  -8.727   5.720  1.00  0.00     0.029 A 
ATOM     34  C   UNL     1       9.733  -7.554   6.232  1.00  0.00     0.049 A 
ATOM     35  H   UNL     1       8.346  -6.226   5.357  1.00  0.00     0.167 HD
ATOM     36  C   UNL     1       9.440  -5.779   7.944  1.00  0.00     0.074 A 
ATOM     37  C   UNL     1       9.736  -5.165   9.224  1.00  0.00     0.031 C 
ATOM     38  C   UNL     1       9.997  -6.934   7.505  1.00  0.00     0.037 A 
BRANCH  25  39
ATOM     39  C   UNL     1       8.232  -8.635   1.830  1.00  0.00     0.058 A 
ATOM     40  C   UNL     1       8.967  -8.337   0.672  1.00  0.00     0.135 A 
ATOM     41  C   UNL     1       7.654  -9.910   1.928  1.00  0.00     0.135 A 
ATOM     42  F   UNL     1       9.526  -7.126   0.519  1.00  0.00    -0.206 F 
ATOM     43  C   UNL     1       9.113  -9.264  -0.356  1.00  0.00     0.059 A 
ATOM     44  C   UNL     1       7.801 -10.860   0.921  1.00  0.00     0.059 A 
ATOM     45  F   UNL     1       6.938 -10.245   3.014  1.00  0.00    -0.206 F 
ATOM     46  C   UNL     1       8.525 -10.524  -0.223  1.00  0.00     0.060 A 
BRANCH  46  47
ATOM     47  S   UNL     1       8.732 -11.723  -1.557  1.00  0.00     0.124 S 
ATOM     48  O   UNL     1       7.796 -11.212  -2.554  1.00  0.00    -0.237 OA
ATOM     49  O   UNL     1      10.146 -11.586  -1.888  1.00  0.00    -0.237 OA
ATOM     50  O   UNL     1       8.357 -12.990  -0.936  1.00  0.00    -0.744 OA
ENDBRANCH  46  47
ENDBRANCH  25  39
BRANCH  26  51
ATOM     51  C   UNL     1       7.104  -1.860   9.107  1.00  0.00     0.058 A 
ATOM     52  C   UNL     1       8.099  -0.910   9.374  1.00  0.00     0.135 A 
ATOM     53  C   UNL     1       5.921  -1.802   9.861  1.00  0.00     0.135 A 
ATOM     54  F   UNL     1       9.247  -0.927   8.680  1.00  0.00    -0.206 F 
ATOM     55  C   UNL     1       7.933   0.059  10.359  1.00  0.00     0.059 A 
ATOM     56  C   UNL     1       5.721  -0.828  10.831  1.00  0.00     0.059 A 
ATOM     57  F   UNL     1       4.931  -2.677   9.626  1.00  0.00    -0.206 F 
ATOM     58  C   UNL     1       6.738   0.093  11.081  1.00  0.00     0.060 A 
BRANCH  58  59
ATOM     59  S   UNL     1       6.491   1.389  12.314  1.00  0.00     0.124 S 
ATOM     60  O   UNL     1       7.186   0.829  13.467  1.00  0.00    -0.237 OA
ATOM     61  O   UNL     1       7.124   2.545  11.686  1.00  0.00    -0.237 OA
ATOM     62  O   UNL     1       5.037   1.466  12.424  1.00  0.00    -0.744 OA
ENDBRANCH  58  59
ENDBRANCH  26  51
BRANCH  38  63
ATOM     63  C   UNL     1      10.967  -7.603   8.433  1.00  0.00     0.058 A 
ATOM     64  C   UNL     1      10.523  -8.304   9.565  1.00  0.00     0.135 A 
ATOM     65  C   UNL     1      12.348  -7.540   8.193  1.00  0.00     0.135 A 
ATOM     66  F   UNL     1       9.211  -8.383   9.838  1.00  0.00    -0.206 F 
ATOM     67  C   UNL     1      11.418  -8.892  10.450  1.00  0.00     0.059 A 
ATOM     68  C   UNL     1      13.261  -8.139   9.055  1.00  0.00     0.059 A 
ATOM     69  F   UNL     1      12.820  -6.887   7.120  1.00  0.00    -0.206 F 
ATOM     70  C   UNL     1      12.787  -8.796  10.191  1.00  0.00     0.060 A 
BRANCH  70  71
ATOM     71  S   UNL     1      13.946  -9.558  11.346  1.00  0.00     0.124 S 
ATOM     72  O   UNL     1      13.999  -8.557  12.407  1.00  0.00    -0.237 OA
ATOM     73  O   UNL     1      13.278 -10.810  11.688  1.00  0.00    -0.237 OA
ATOM     74  O   UNL     1      15.164  -9.702  10.554  1.00  0.00    -0.744 OA
ENDBRANCH  70  71
ENDBRANCH  38  63
ENDBRANCH  12  13
ENDBRANCH   5   7
ENDBRANCH   2   3
ENDBRANCH   1   2
BRANCH   1  75
ATOM     75  C   UNL     1       4.201   1.337  -3.395  1.00  0.00     0.118 C 
BRANCH  75  76
ATOM     76  N   UNL     1       4.773   2.679  -3.466  1.00  0.00    -0.352 N 
ATOM     77  C   UNL     1       5.758   3.216  -4.260  1.00  0.00     0.251 C 
ATOM     78  H   UNL     1       4.382   3.317  -2.826  1.00  0.00     0.163 HD
ATOM     79  O   UNL     1       6.227   4.315  -3.972  1.00  0.00    -0.269 OA
BRANCH  77  80
ATOM     80  C   UNL     1       6.249   2.513  -5.467  1.00  0.00     0.039 A 
ATOM     81  C   UNL     1       7.572   2.695  -5.899  1.00  0.00     0.015 A 
ATOM     82  C   UNL     1       5.385   1.739  -6.234  1.00  0.00     0.015 A 
ATOM     83  C   UNL     1       8.018   2.095  -7.086  1.00  0.00     0.022 A 
ATOM     84  C   UNL     1       5.863   1.034  -7.325  1.00  0.00     0.022 A 
ATOM     85  C   UNL     1       7.147   1.269  -7.800  1.00  0.00     0.082 A 
BRANCH  85  86
ATOM     86  S   UNL     1       7.625   0.611  -9.377  1.00  0.00     0.241 S 
ATOM     87  O   UNL     1       7.815   1.711 -10.295  1.00  0.00    -0.207 OA
ATOM     88  O   UNL     1       8.662  -0.364  -9.122  1.00  0.00    -0.207 OA
BRANCH  86  89
ATOM     89  N   UNL     1       6.297  -0.275  -9.884  1.00  0.00    -0.202 NA
ATOM     90  H   UNL     1       5.853  -0.614  -9.030  1.00  0.00     0.141 HD
BRANCH  89  91
ATOM     91  C   UNL     1       5.195   0.257 -10.721  1.00  0.00     0.133 C 
ATOM     92  C   UNL     1       4.649   1.656 -10.329  1.00  0.00     0.087 C 
ATOM     93  C   UNL     1       3.920  -0.584 -10.561  1.00  0.00     0.202 C 
ATOM     94  C   UNL     1       3.298   1.431  -9.608  1.00  0.00     0.264 C 
ATOM     95  N   UNL     1       3.326   0.009  -9.364  1.00  0.00    -0.331 N 
ATOM     96  C   UNL     1       3.891  -2.047 -10.175  1.00  0.00     0.072 C 
ATOM     97  C   UNL     1       2.119  -0.731  -9.085  1.00  0.00     0.262 C 
ATOM     98  H   UNL     1       3.827  -0.065  -8.478  1.00  0.00     0.348 HD
ATOM     99  C   UNL     1       2.580  -2.168  -9.372  1.00  0.00     0.068 C 
ENDBRANCH  89  91
ENDBRANCH  86  89
ENDBRANCH  85  86
ENDBRANCH  77  80
ENDBRANCH  75  76
ENDBRANCH   1  75
TORSDOF 16
