REMARK SMILES CC[C@@](C)([NH3+])C(=O)Nc1cc(C(=O)NCCCNC(=O)c2ccc(-c3c4nc(c(-c5c(F)cc(S(=O)(=O)[O-])cc5F)c5ccc([nH]5)c(-c5c(F)cc(S(=O)(=O)[O-])cc5F)c5nc(c(-c6c(F)cc(S(=O)(=O)[O-])cc6F)c6ccc3[nH]6)C=C5)C=C4)cc2)cc(C(F)(F)F)c1
REMARK SMILES IDX 16 1 15 2 14 3 12 4 13 5 11 7 9 8 10 9 93 10 88 11 87 12
REMARK SMILES IDX 8 13 6 14 7 15 3 17 4 18 2 19 1 20 5 21 89 25 90 26 91 27
REMARK SMILES IDX 92 28 17 29 18 30 19 31 20 33 21 34 22 35 86 36 23 37 85 38
REMARK SMILES IDX 24 39 25 40 26 41 79 42 27 43 84 44 78 45 80 46 28 47 83 48
REMARK SMILES IDX 77 49 76 50 29 52 63 53 42 54 62 55 43 56 46 57 61 58 81 59
REMARK SMILES IDX 44 60 45 61 60 63 82 64 47 65 30 66 31 67 40 68 32 69 33 70
REMARK SMILES IDX 39 71 41 72 34 73 35 74 36 75 37 76 38 77 64 78 65 79 74 80
REMARK SMILES IDX 66 81 67 82 73 83 75 84 68 85 69 86 70 87 71 88 72 89 48 90
REMARK SMILES IDX 49 91 58 92 50 93 51 94 57 95 59 96 52 97 53 98 54 99 55 100
REMARK SMILES IDX 56 101
REMARK H PARENT 14 6 8 16 5 22 5 23 5 24 18 32 80 51 46 62
REMARK Flexibility Score: inf
ROOT
ATOM      1  C   UNL     1       1.721  -1.009 -10.976  1.00  0.00     0.042 C 
ENDROOT
BRANCH   1   2
ATOM      2  C   UNL     1       1.076  -1.701  -9.791  1.00  0.00     0.118 C 
BRANCH   2   3
ATOM      3  N   UNL     1       1.999  -2.487  -8.973  1.00  0.00    -0.352 N 
ATOM      4  C   UNL     1       2.465  -2.371  -7.682  1.00  0.00     0.251 C 
ATOM      5  O   UNL     1       3.267  -3.208  -7.272  1.00  0.00    -0.269 OA
ATOM      6  H   UNL     1       2.367  -3.268  -9.447  1.00  0.00     0.163 HD
BRANCH   4   7
ATOM      7  C   UNL     1       2.081  -1.247  -6.788  1.00  0.00     0.042 A 
ATOM      8  C   UNL     1       2.587   0.220  -4.942  1.00  0.00     0.042 A 
ATOM      9  C   UNL     1       2.932  -0.873  -5.737  1.00  0.00     0.040 A 
ATOM     10  C   UNL     1       1.601   1.091  -5.386  1.00  0.00     0.039 A 
ATOM     11  C   UNL     1       0.688   0.682  -6.349  1.00  0.00     0.058 A 
ATOM     12  C   UNL     1       0.873  -0.570  -6.930  1.00  0.00     0.027 A 
BRANCH   8  13
ATOM     13  N   UNL     1       3.208   0.416  -3.706  1.00  0.00    -0.321 N 
ATOM     14  C   UNL     1       2.646   0.770  -2.493  1.00  0.00     0.285 C 
ATOM     15  O   UNL     1       3.440   1.075  -1.592  1.00  0.00    -0.267 OA
ATOM     16  H   UNL     1       4.184   0.284  -3.697  1.00  0.00     0.170 HD
BRANCH  14  17
ATOM     17  C   UNL     1       1.086   0.636  -2.193  1.00  0.00     0.171 C 
ATOM     18  C   UNL     1       0.567  -0.762  -2.574  1.00  0.00     0.090 C 
BRANCH  17  19
ATOM     19  C   UNL     1       0.791   0.913  -0.689  1.00  0.00     0.075 C 
ATOM     20  C   UNL     1       1.251  -0.156   0.294  1.00  0.00     0.011 C 
ENDBRANCH  17  19
BRANCH  17  21
ATOM     21  N   UNL     1       0.321   1.677  -2.922  1.00  0.00    -0.345 N 
ATOM     22  H   UNL     1      -0.673   1.574  -2.718  1.00  0.00     0.345 HD
ATOM     23  H   UNL     1       0.475   1.573  -3.925  1.00  0.00     0.345 HD
ATOM     24  H   UNL     1       0.635   2.601  -2.625  1.00  0.00     0.345 HD
ENDBRANCH  17  21
ENDBRANCH  14  17
ENDBRANCH   8  13
BRANCH  11  25
ATOM     25  C   UNL     1      -0.461   1.550  -6.781  1.00  0.00     0.416 C 
ATOM     26  F   UNL     1      -0.238   2.127  -7.991  1.00  0.00    -0.166 F 
ATOM     27  F   UNL     1      -1.616   0.838  -6.912  1.00  0.00    -0.166 F 
ATOM     28  F   UNL     1      -0.743   2.557  -5.915  1.00  0.00    -0.166 F 
ENDBRANCH  11  25
ENDBRANCH   4   7
ENDBRANCH   2   3
ENDBRANCH   1   2
BRANCH   1  29
ATOM     29  C   UNL     1       2.145  -1.965 -12.073  1.00  0.00     0.118 C 
BRANCH  29  30
ATOM     30  N   UNL     1       1.013  -2.683 -12.656  1.00  0.00    -0.352 N 
ATOM     31  C   UNL     1       0.308  -2.462 -13.815  1.00  0.00     0.251 C 
ATOM     32  H   UNL     1       0.704  -3.456 -12.130  1.00  0.00     0.163 HD
ATOM     33  O   UNL     1      -0.753  -3.055 -13.999  1.00  0.00    -0.269 OA
BRANCH  31  34
ATOM     34  C   UNL     1       0.805  -1.502 -14.823  1.00  0.00     0.039 A 
ATOM     35  C   UNL     1      -0.094  -0.657 -15.482  1.00  0.00     0.014 A 
ATOM     36  C   UNL     1       2.164  -1.441 -15.127  1.00  0.00     0.014 A 
ATOM     37  C   UNL     1       0.386   0.312 -16.369  1.00  0.00     0.010 A 
ATOM     38  C   UNL     1       2.649  -0.409 -15.918  1.00  0.00     0.010 A 
ATOM     39  C   UNL     1       1.766   0.477 -16.553  1.00  0.00    -0.014 A 
BRANCH  39  40
ATOM     40  C   UNL     1       2.347   1.529 -17.427  1.00  0.00     0.031 A 
ATOM     41  C   UNL     1       3.238   1.117 -18.570  1.00  0.00     0.074 A 
ATOM     42  C   UNL     1       2.181   2.833 -17.130  1.00  0.00     0.049 A 
ATOM     43  N   UNL     1       4.058   1.840 -19.285  1.00  0.00    -0.248 NA
ATOM     44  C   UNL     1       3.238  -0.315 -18.921  1.00  0.00     0.031 C 
ATOM     45  C   UNL     1       1.359   3.363 -16.039  1.00  0.00     0.029 A 
ATOM     46  N   UNL     1       2.724   3.955 -17.707  1.00  0.00    -0.354 N 
ATOM     47  C   UNL     1       4.692   0.951 -20.145  1.00  0.00     0.074 A 
ATOM     48  C   UNL     1       4.203  -0.372 -19.826  1.00  0.00     0.031 C 
ATOM     49  C   UNL     1       1.444   4.704 -16.033  1.00  0.00     0.029 A 
ATOM     50  C   UNL     1       2.367   5.128 -17.080  1.00  0.00     0.049 A 
ATOM     51  H   UNL     1       3.312   3.924 -18.495  1.00  0.00     0.167 HD
ATOM     52  C   UNL     1       5.582   1.216 -21.129  1.00  0.00     0.037 A 
ATOM     53  C   UNL     1       2.763   6.395 -17.309  1.00  0.00     0.037 A 
ATOM     54  C   UNL     1       6.028   2.540 -21.471  1.00  0.00     0.049 A 
ATOM     55  C   UNL     1       3.761   6.663 -18.406  1.00  0.00     0.074 A 
ATOM     56  C   UNL     1       6.917   2.921 -22.459  1.00  0.00     0.029 A 
ATOM     57  N   UNL     1       5.594   3.701 -20.849  1.00  0.00    -0.354 N 
ATOM     58  N   UNL     1       4.353   5.811 -19.208  1.00  0.00    -0.248 NA
ATOM     59  C   UNL     1       4.148   8.064 -18.629  1.00  0.00     0.031 C 
ATOM     60  C   UNL     1       7.035   4.314 -22.425  1.00  0.00     0.029 A 
ATOM     61  C   UNL     1       6.189   4.801 -21.441  1.00  0.00     0.049 A 
ATOM     62  H   UNL     1       4.958   3.738 -20.099  1.00  0.00     0.167 HD
ATOM     63  C   UNL     1       5.143   6.576 -20.060  1.00  0.00     0.074 A 
ATOM     64  C   UNL     1       4.958   7.959 -19.673  1.00  0.00     0.031 C 
ATOM     65  C   UNL     1       5.947   6.172 -21.072  1.00  0.00     0.037 A 
BRANCH  52  66
ATOM     66  C   UNL     1       6.110   0.056 -21.925  1.00  0.00     0.058 A 
ATOM     67  C   UNL     1       5.295  -0.635 -22.836  1.00  0.00     0.135 A 
ATOM     68  C   UNL     1       7.451  -0.345 -21.810  1.00  0.00     0.135 A 
ATOM     69  F   UNL     1       4.001  -0.305 -22.969  1.00  0.00    -0.206 F 
ATOM     70  C   UNL     1       5.783  -1.697 -23.588  1.00  0.00     0.059 A 
ATOM     71  C   UNL     1       7.969  -1.387 -22.574  1.00  0.00     0.059 A 
ATOM     72  F   UNL     1       8.273   0.279 -20.952  1.00  0.00    -0.206 F 
ATOM     73  C   UNL     1       7.122  -2.065 -23.452  1.00  0.00     0.060 A 
BRANCH  73  74
ATOM     74  S   UNL     1       7.743  -3.433 -24.451  1.00  0.00     0.124 S 
ATOM     75  O   UNL     1       7.135  -4.580 -23.783  1.00  0.00    -0.237 OA
ATOM     76  O   UNL     1       7.214  -3.119 -25.775  1.00  0.00    -0.237 OA
ATOM     77  O   UNL     1       9.192  -3.324 -24.316  1.00  0.00    -0.744 OA
ENDBRANCH  73  74
ENDBRANCH  52  66
BRANCH  53  78
ATOM     78  C   UNL     1       2.218   7.517 -16.498  1.00  0.00     0.058 A 
ATOM     79  C   UNL     1       1.360   8.465 -17.075  1.00  0.00     0.135 A 
ATOM     80  C   UNL     1       2.567   7.688 -15.150  1.00  0.00     0.135 A 
ATOM     81  F   UNL     1       0.999   8.347 -18.362  1.00  0.00    -0.206 F 
ATOM     82  C   UNL     1       0.898   9.565 -16.358  1.00  0.00     0.059 A 
ATOM     83  C   UNL     1       2.097   8.765 -14.404  1.00  0.00     0.059 A 
ATOM     84  F   UNL     1       3.368   6.798 -14.543  1.00  0.00    -0.206 F 
ATOM     85  C   UNL     1       1.280   9.710 -15.024  1.00  0.00     0.060 A 
BRANCH  85  86
ATOM     86  S   UNL     1       0.681  11.143 -14.102  1.00  0.00     0.124 S 
ATOM     87  O   UNL     1       1.525  12.206 -14.635  1.00  0.00    -0.237 OA
ATOM     88  O   UNL     1      -0.726  11.191 -14.485  1.00  0.00    -0.237 OA
ATOM     89  O   UNL     1       0.932  10.773 -12.712  1.00  0.00    -0.744 OA
ENDBRANCH  85  86
ENDBRANCH  53  78
BRANCH  65  90
ATOM     90  C   UNL     1       6.624   7.229 -21.895  1.00  0.00     0.058 A 
ATOM     91  C   UNL     1       7.748   7.925 -21.427  1.00  0.00     0.135 A 
ATOM     92  C   UNL     1       6.195   7.474 -23.210  1.00  0.00     0.135 A 
ATOM     93  F   UNL     1       8.190   7.730 -20.175  1.00  0.00    -0.206 F 
ATOM     94  C   UNL     1       8.425   8.831 -22.236  1.00  0.00     0.059 A 
ATOM     95  C   UNL     1       6.871   8.358 -24.043  1.00  0.00     0.059 A 
ATOM     96  F   UNL     1       5.128   6.827 -23.704  1.00  0.00    -0.206 F 
ATOM     97  C   UNL     1       7.984   9.034 -23.546  1.00  0.00     0.060 A 
BRANCH  97  98
ATOM     98  S   UNL     1       8.920  10.152 -24.611  1.00  0.00     0.124 S 
ATOM     99  O   UNL     1       8.528  11.456 -24.085  1.00  0.00    -0.237 OA
ATOM    100  O   UNL     1      10.299   9.751 -24.350  1.00  0.00    -0.237 OA
ATOM    101  O   UNL     1       8.426   9.840 -25.948  1.00  0.00    -0.744 OA
ENDBRANCH  97  98
ENDBRANCH  65  90
ENDBRANCH  39  40
ENDBRANCH  31  34
ENDBRANCH  29  30
ENDBRANCH   1  29
TORSDOF 18
