REMARK SMILES O=C(COc1ccccc1[C@@H]1C2=C(CCCC2=O)Nc2nc(SCc3ccccn3)nn21)NCCCNC(=O)c1ccc(-c2c3nc(c(-c4c(F)cc(S(=O)(=O)[O-])cc4F)c4ccc([nH]4)c(-c4c(F)cc(S(=O)(=O)[O-])cc4F)c4nc(c(-c5c(F)cc(S(=O)(=O)[O-])cc5F)c5ccc2[nH]5)C=C4)C=C3)cc1
REMARK SMILES IDX 1 1 2 2 33 3 3 5 4 6 5 7 6 8 10 9 7 10 9 11 8 12 11 13 12 14
REMARK SMILES IDX 32 15 13 16 17 17 20 18 31 19 14 20 19 21 16 22 18 23 21 24
REMARK SMILES IDX 22 25 15 26 23 28 24 29 25 30 26 31 30 32 27 33 29 34 28 35
REMARK SMILES IDX 34 36 35 37 36 38 37 39 38 40 39 42 40 43 41 44 105 45 42 46
REMARK SMILES IDX 104 47 43 48 44 49 45 50 98 51 46 52 103 53 97 54 99 55
REMARK SMILES IDX 47 56 102 57 96 58 95 59 48 61 82 62 61 63 81 64 62 65 65 66
REMARK SMILES IDX 80 67 100 68 63 69 64 70 79 72 101 73 66 74 49 75 50 76
REMARK SMILES IDX 59 77 51 78 52 79 58 80 60 81 53 82 54 83 55 84 56 85 57 86
REMARK SMILES IDX 83 87 84 88 93 89 85 90 86 91 92 92 94 93 87 94 88 95 89 96
REMARK SMILES IDX 90 97 91 98 67 99 68 100 77 101 69 102 70 103 76 104 78 105
REMARK SMILES IDX 71 106 72 107 73 108 74 109 75 110
REMARK H PARENT 33 4 19 27 37 41 99 60 65 71
REMARK Flexibility Score: inf
ROOT
ATOM      1  O   UNL     1       0.884   1.770   0.444  1.00  0.00    -0.271 OA
ATOM      2  C   UNL     1       1.838   0.927   0.477  1.00  0.00     0.257 C 
ATOM      3  N   UNL     1       2.106   0.888   1.919  1.00  0.00    -0.353 N 
ATOM      4  H   UNL     1       2.664   0.160   2.277  1.00  0.00     0.163 HD
ENDROOT
BRANCH   2   5
ATOM      5  C   UNL     1       2.780  -0.121  -1.185  1.00  0.00     0.329 C 
BRANCH   5   6
ATOM      6  O   UNL     1       3.733   0.209  -2.323  1.00  0.00    -0.483 OA
BRANCH   6   7
ATOM      7  C   UNL     1       3.201   0.970  -3.315  1.00  0.00     0.125 A 
ATOM      8  C   UNL     1       3.834   1.095  -4.542  1.00  0.00     0.047 A 
ATOM      9  C   UNL     1       2.135   1.768  -2.977  1.00  0.00     0.024 A 
ATOM     10  C   UNL     1       3.387   2.071  -5.434  1.00  0.00     0.004 A 
ATOM     11  C   UNL     1       1.692   2.758  -3.851  1.00  0.00     0.010 A 
ATOM     12  C   UNL     1       2.325   2.910  -5.083  1.00  0.00     0.001 A 
BRANCH   9  13
ATOM     13  C   UNL     1       1.763   1.692  -1.534  1.00  0.00     0.181 C 
ATOM     14  C   UNL     1       3.430   1.756  -0.503  1.00  0.00     0.044 C 
ATOM     15  N   UNL     1       0.715   0.211  -1.105  1.00  0.00    -0.218 N 
ATOM     16  C   UNL     1       3.921   0.562   0.397  1.00  0.00     0.027 C 
ATOM     17  C   UNL     1       4.122   3.052  -0.454  1.00  0.00     0.163 C 
ATOM     18  C   UNL     1       1.284  -1.008   0.029  1.00  0.00     0.227 A 
ATOM     19  N   UNL     1      -0.408  -0.291  -1.631  1.00  0.00    -0.141 NA
ATOM     20  C   UNL     1       5.168   0.695   1.171  1.00  0.00     0.055 C 
ATOM     21  N   UNL     1       2.841  -0.854   0.730  1.00  0.00    -0.328 N 
ATOM     22  C   UNL     1       5.415   3.132   0.328  1.00  0.00     0.081 C 
ATOM     23  O   UNL     1       3.580   4.042  -0.937  1.00  0.00    -0.294 OA
ATOM     24  N   UNL     1       0.293  -1.855   0.068  1.00  0.00    -0.185 NA
ATOM     25  C   UNL     1      -0.619  -1.416  -0.917  1.00  0.00     0.210 A 
ATOM     26  C   UNL     1       6.088   1.780   0.601  1.00  0.00     0.014 C 
ATOM     27  H   UNL     1       3.160  -1.562   1.336  1.00  0.00     0.169 HD
BRANCH  25  28
ATOM     28  S   UNL     1      -1.920  -2.474  -1.447  1.00  0.00    -0.078 SA
BRANCH  28  29
ATOM     29  C   UNL     1      -1.486  -4.035  -0.647  1.00  0.00     0.134 C 
BRANCH  29  30
ATOM     30  C   UNL     1      -0.249  -4.801  -1.078  1.00  0.00     0.051 A 
ATOM     31  C   UNL     1       0.903  -4.207  -1.595  1.00  0.00     0.025 A 
ATOM     32  N   UNL     1      -0.263  -6.124  -0.763  1.00  0.00    -0.260 NA
ATOM     33  C   UNL     1       2.088  -4.933  -1.673  1.00  0.00     0.003 A 
ATOM     34  C   UNL     1       0.889  -6.823  -0.906  1.00  0.00     0.111 A 
ATOM     35  C   UNL     1       2.086  -6.269  -1.317  1.00  0.00     0.020 A 
ENDBRANCH  29  30
ENDBRANCH  28  29
ENDBRANCH  25  28
ENDBRANCH   9  13
ENDBRANCH   6   7
ENDBRANCH   5   6
ENDBRANCH   2   5
BRANCH   3  36
ATOM     36  C   UNL     1       1.579   1.886   2.843  1.00  0.00     0.117 C 
BRANCH  36  37
ATOM     37  C   UNL     1       1.943   1.684   4.312  1.00  0.00     0.042 C 
BRANCH  37  38
ATOM     38  C   UNL     1       3.418   1.866   4.656  1.00  0.00     0.118 C 
BRANCH  38  39
ATOM     39  N   UNL     1       3.946   3.229   4.444  1.00  0.00    -0.352 N 
ATOM     40  C   UNL     1       5.182   3.766   4.832  1.00  0.00     0.251 C 
ATOM     41  H   UNL     1       3.347   3.846   3.964  1.00  0.00     0.163 HD
ATOM     42  O   UNL     1       5.360   4.977   4.872  1.00  0.00    -0.269 OA
BRANCH  40  43
ATOM     43  C   UNL     1       6.328   2.846   5.019  1.00  0.00     0.039 A 
ATOM     44  C   UNL     1       7.403   2.916   5.895  1.00  0.00     0.014 A 
ATOM     45  C   UNL     1       6.304   1.819   4.118  1.00  0.00     0.014 A 
ATOM     46  C   UNL     1       8.420   1.940   5.787  1.00  0.00     0.010 A 
ATOM     47  C   UNL     1       7.023   0.696   4.329  1.00  0.00     0.010 A 
ATOM     48  C   UNL     1       8.241   0.845   4.927  1.00  0.00    -0.014 A 
BRANCH  48  49
ATOM     49  C   UNL     1       9.084  -0.337   4.803  1.00  0.00     0.031 A 
ATOM     50  C   UNL     1       9.036  -1.125   6.061  1.00  0.00     0.074 A 
ATOM     51  C   UNL     1       9.585  -0.779   3.615  1.00  0.00     0.049 A 
ATOM     52  N   UNL     1       9.920  -1.087   7.000  1.00  0.00    -0.248 NA
ATOM     53  C   UNL     1       7.767  -1.754   6.489  1.00  0.00     0.031 C 
ATOM     54  C   UNL     1       9.473  -0.195   2.268  1.00  0.00     0.029 A 
ATOM     55  N   UNL     1      10.300  -1.923   3.360  1.00  0.00    -0.354 N 
ATOM     56  C   UNL     1       9.454  -1.958   7.975  1.00  0.00     0.074 A 
ATOM     57  C   UNL     1       8.040  -2.058   7.761  1.00  0.00     0.031 C 
ATOM     58  C   UNL     1       9.898  -1.081   1.331  1.00  0.00     0.029 A 
ATOM     59  C   UNL     1      10.428  -2.256   1.995  1.00  0.00     0.049 A 
ATOM     60  H   UNL     1      10.694  -2.470   4.077  1.00  0.00     0.167 HD
ATOM     61  C   UNL     1      10.318  -2.777   8.635  1.00  0.00     0.037 A 
ATOM     62  C   UNL     1      10.946  -3.423   1.494  1.00  0.00     0.037 A 
ATOM     63  C   UNL     1      11.679  -2.375   8.358  1.00  0.00     0.049 A 
ATOM     64  C   UNL     1      11.796  -3.989   2.586  1.00  0.00     0.074 A 
ATOM     65  C   UNL     1      12.391  -1.208   8.560  1.00  0.00     0.029 A 
ATOM     66  N   UNL     1      12.331  -3.060   7.357  1.00  0.00    -0.354 N 
ATOM     67  N   UNL     1      12.876  -3.383   3.012  1.00  0.00    -0.248 NA
ATOM     68  C   UNL     1      11.125  -4.835   3.567  1.00  0.00     0.031 C 
ATOM     69  C   UNL     1      13.133  -1.022   7.358  1.00  0.00     0.029 A 
ATOM     70  C   UNL     1      12.963  -2.147   6.549  1.00  0.00     0.049 A 
ATOM     71  H   UNL     1      12.342  -4.037   7.240  1.00  0.00     0.167 HD
ATOM     72  C   UNL     1      12.762  -3.393   4.397  1.00  0.00     0.074 A 
ATOM     73  C   UNL     1      11.668  -4.328   4.681  1.00  0.00     0.031 C 
ATOM     74  C   UNL     1      13.312  -2.405   5.168  1.00  0.00     0.037 A 
BRANCH  61  75
ATOM     75  C   UNL     1       9.993  -4.152   9.166  1.00  0.00     0.058 A 
ATOM     76  C   UNL     1      10.967  -4.816   9.940  1.00  0.00     0.135 A 
ATOM     77  C   UNL     1       8.905  -4.951   8.746  1.00  0.00     0.135 A 
ATOM     78  F   UNL     1      12.039  -4.154  10.404  1.00  0.00    -0.206 F 
ATOM     79  C   UNL     1      10.910  -6.183  10.204  1.00  0.00     0.059 A 
ATOM     80  C   UNL     1       8.805  -6.306   9.039  1.00  0.00     0.059 A 
ATOM     81  F   UNL     1       7.928  -4.488   7.960  1.00  0.00    -0.206 F 
ATOM     82  C   UNL     1       9.829  -6.922   9.738  1.00  0.00     0.060 A 
BRANCH  82  83
ATOM     83  S   UNL     1       9.789  -8.697  10.027  1.00  0.00     0.124 S 
ATOM     84  O   UNL     1      10.920  -9.151   9.227  1.00  0.00    -0.237 OA
ATOM     85  O   UNL     1       9.958  -8.765  11.475  1.00  0.00    -0.237 OA
ATOM     86  O   UNL     1       8.470  -9.088   9.536  1.00  0.00    -0.744 OA
ENDBRANCH  82  83
ENDBRANCH  61  75
BRANCH  62  87
ATOM     87  C   UNL     1      10.440  -4.251   0.345  1.00  0.00     0.058 A 
ATOM     88  C   UNL     1      11.114  -5.388  -0.161  1.00  0.00     0.135 A 
ATOM     89  C   UNL     1       9.112  -4.100  -0.097  1.00  0.00     0.135 A 
ATOM     90  F   UNL     1      12.383  -5.638   0.202  1.00  0.00    -0.206 F 
ATOM     91  C   UNL     1      10.487  -6.336  -1.000  1.00  0.00     0.059 A 
ATOM     92  C   UNL     1       8.473  -5.022  -0.927  1.00  0.00     0.059 A 
ATOM     93  F   UNL     1       8.348  -3.092   0.347  1.00  0.00    -0.206 F 
ATOM     94  C   UNL     1       9.150  -6.155  -1.354  1.00  0.00     0.060 A 
BRANCH  94  95
ATOM     95  S   UNL     1       8.237  -7.447  -2.245  1.00  0.00     0.124 S 
ATOM     96  O   UNL     1       8.832  -7.385  -3.574  1.00  0.00    -0.237 OA
ATOM     97  O   UNL     1       8.539  -8.640  -1.462  1.00  0.00    -0.237 OA
ATOM     98  O   UNL     1       6.849  -6.993  -2.162  1.00  0.00    -0.744 OA
ENDBRANCH  94  95
ENDBRANCH  62  87
BRANCH  74  99
ATOM     99  C   UNL     1      14.229  -1.395   4.516  1.00  0.00     0.058 A 
ATOM    100  C   UNL     1      13.835  -0.439   3.560  1.00  0.00     0.135 A 
ATOM    101  C   UNL     1      15.523  -1.268   5.038  1.00  0.00     0.135 A 
ATOM    102  F   UNL     1      12.581  -0.408   3.094  1.00  0.00    -0.206 F 
ATOM    103  C   UNL     1      14.702   0.562   3.108  1.00  0.00     0.059 A 
ATOM    104  C   UNL     1      16.393  -0.262   4.630  1.00  0.00     0.059 A 
ATOM    105  F   UNL     1      15.935  -2.095   6.012  1.00  0.00    -0.206 F 
ATOM    106  C   UNL     1      15.985   0.637   3.648  1.00  0.00     0.060 A 
BRANCH 106 107
ATOM    107  S   UNL     1      17.107   1.939   3.094  1.00  0.00     0.124 S 
ATOM    108  O   UNL     1      17.407   1.519   1.729  1.00  0.00    -0.237 OA
ATOM    109  O   UNL     1      16.288   3.141   3.223  1.00  0.00    -0.237 OA
ATOM    110  O   UNL     1      18.222   1.850   4.034  1.00  0.00    -0.744 OA
ENDBRANCH 106 107
ENDBRANCH  74  99
ENDBRANCH  48  49
ENDBRANCH  40  43
ENDBRANCH  38  39
ENDBRANCH  37  38
ENDBRANCH  36  37
ENDBRANCH   3  36
TORSDOF 19
