REMARK SMILES O=C(NCCCNC(=O)[C@H]1[C@H]2CC[C@H](CC2)[C@@H]1C(=O)Nc1ccc(Cc2ccncc2)cc1)c1ccc(-c2c3nc(c(-c4c(F)cc(S(=O)(=O)[O-])cc4F)c4ccc([nH]4)c(-c4c(F)cc(S(=O)(=O)[O-])cc4F)c4nc(c(-c5c(F)cc(S(=O)(=O)[O-])cc5F)c5ccc2[nH]5)C=C4)C=C3)cc1
REMARK SMILES IDX 5 1 4 2 3 3 1 4 2 5 34 7 35 8 99 9 36 10 98 11 37 12 38 13
REMARK SMILES IDX 39 14 92 15 40 16 97 17 91 18 93 19 41 20 96 21 90 22 89 23
REMARK SMILES IDX 42 25 76 26 55 27 75 28 56 29 59 30 74 31 94 32 57 33 58 34
REMARK SMILES IDX 73 36 95 37 60 38 43 39 44 40 53 41 45 42 46 43 52 44 54 45
REMARK SMILES IDX 47 46 48 47 49 48 50 49 51 50 77 51 78 52 87 53 79 54 80 55
REMARK SMILES IDX 86 56 88 57 81 58 82 59 83 60 84 61 85 62 61 63 62 64 71 65
REMARK SMILES IDX 63 66 64 67 70 68 72 69 65 70 66 71 67 72 68 73 69 74 6 75
REMARK SMILES IDX 7 76 8 77 9 79 10 80 11 81 17 82 12 83 16 84 14 85 13 86
REMARK SMILES IDX 15 87 18 88 19 89 20 90 21 92 22 93 33 94 23 95 32 96 24 97
REMARK SMILES IDX 25 98 26 99 27 100 31 101 28 102 30 103 29 104
REMARK H PARENT 3 6 93 24 59 35 7 78 20 91
REMARK Flexibility Score: inf
ROOT
ATOM      1  C   UNL     1       4.935  -2.186   0.780  1.00  0.00     0.042 C 
ENDROOT
BRANCH   1   2
ATOM      2  C   UNL     1       4.518  -1.247  -0.343  1.00  0.00     0.118 C 
BRANCH   2   3
ATOM      3  N   UNL     1       3.075  -1.057  -0.428  1.00  0.00    -0.352 N 
ATOM      4  O   UNL     1       1.079  -0.067  -0.108  1.00  0.00    -0.269 OA
ATOM      5  C   UNL     1       2.303   0.039  -0.125  1.00  0.00     0.251 C 
ATOM      6  H   UNL     1       2.574  -1.839  -0.754  1.00  0.00     0.163 HD
BRANCH   5   7
ATOM      7  C   UNL     1       2.942   1.328   0.212  1.00  0.00     0.039 A 
ATOM      8  C   UNL     1       4.034   1.793  -0.521  1.00  0.00     0.014 A 
ATOM      9  C   UNL     1       2.445   2.083   1.278  1.00  0.00     0.014 A 
ATOM     10  C   UNL     1       4.746   2.897  -0.071  1.00  0.00     0.010 A 
ATOM     11  C   UNL     1       3.096   3.260   1.659  1.00  0.00     0.010 A 
ATOM     12  C   UNL     1       4.280   3.653   1.016  1.00  0.00    -0.014 A 
BRANCH  12  13
ATOM     13  C   UNL     1       5.028   4.870   1.423  1.00  0.00     0.031 A 
ATOM     14  C   UNL     1       5.658   4.981   2.784  1.00  0.00     0.074 A 
ATOM     15  C   UNL     1       5.174   5.866   0.526  1.00  0.00     0.049 A 
ATOM     16  N   UNL     1       6.369   5.961   3.284  1.00  0.00    -0.248 NA
ATOM     17  C   UNL     1       5.460   3.855   3.709  1.00  0.00     0.031 C 
ATOM     18  C   UNL     1       4.601   5.873  -0.823  1.00  0.00     0.029 A 
ATOM     19  N   UNL     1       5.868   7.045   0.596  1.00  0.00    -0.354 N 
ATOM     20  C   UNL     1       6.675   5.587   4.587  1.00  0.00     0.074 A 
ATOM     21  C   UNL     1       6.057   4.296   4.808  1.00  0.00     0.031 C 
ATOM     22  C   UNL     1       5.021   6.965  -1.475  1.00  0.00     0.029 A 
ATOM     23  C   UNL     1       5.833   7.771  -0.571  1.00  0.00     0.049 A 
ATOM     24  H   UNL     1       6.345   7.344   1.403  1.00  0.00     0.167 HD
ATOM     25  C   UNL     1       7.406   6.257   5.511  1.00  0.00     0.037 A 
ATOM     26  C   UNL     1       6.383   8.960  -0.881  1.00  0.00     0.037 A 
ATOM     27  C   UNL     1       8.038   7.530   5.273  1.00  0.00     0.049 A 
ATOM     28  C   UNL     1       7.187   9.681   0.158  1.00  0.00     0.074 A 
ATOM     29  C   UNL     1       8.829   8.274   6.132  1.00  0.00     0.029 A 
ATOM     30  N   UNL     1       7.951   8.249   4.089  1.00  0.00    -0.354 N 
ATOM     31  N   UNL     1       7.476   9.305   1.381  1.00  0.00    -0.248 NA
ATOM     32  C   UNL     1       7.731  10.991  -0.218  1.00  0.00     0.031 C 
ATOM     33  C   UNL     1       9.189   9.460   5.480  1.00  0.00     0.029 A 
ATOM     34  C   UNL     1       8.657   9.436   4.200  1.00  0.00     0.049 A 
ATOM     35  H   UNL     1       7.459   7.959   3.287  1.00  0.00     0.167 HD
ATOM     36  C   UNL     1       8.247  10.327   1.918  1.00  0.00     0.074 A 
ATOM     37  C   UNL     1       8.391  11.330   0.881  1.00  0.00     0.031 C 
ATOM     38  C   UNL     1       8.786  10.425   3.159  1.00  0.00     0.037 A 
BRANCH  25  39
ATOM     39  C   UNL     1       7.535   5.636   6.876  1.00  0.00     0.058 A 
ATOM     40  C   UNL     1       8.327   4.500   7.105  1.00  0.00     0.135 A 
ATOM     41  C   UNL     1       6.860   6.193   7.975  1.00  0.00     0.135 A 
ATOM     42  F   UNL     1       8.984   3.918   6.089  1.00  0.00    -0.206 F 
ATOM     43  C   UNL     1       8.413   3.914   8.365  1.00  0.00     0.059 A 
ATOM     44  C   UNL     1       6.950   5.638   9.249  1.00  0.00     0.059 A 
ATOM     45  F   UNL     1       6.092   7.282   7.815  1.00  0.00    -0.206 F 
ATOM     46  C   UNL     1       7.713   4.485   9.429  1.00  0.00     0.060 A 
BRANCH  46  47
ATOM     47  S   UNL     1       7.804   3.697  11.051  1.00  0.00     0.124 S 
ATOM     48  O   UNL     1       6.916   2.553  10.867  1.00  0.00    -0.237 OA
ATOM     49  O   UNL     1       9.224   3.382  11.170  1.00  0.00    -0.237 OA
ATOM     50  O   UNL     1       7.317   4.731  11.959  1.00  0.00    -0.744 OA
ENDBRANCH  46  47
ENDBRANCH  25  39
BRANCH  26  51
ATOM     51  C   UNL     1       6.190   9.518  -2.244  1.00  0.00     0.058 A 
ATOM     52  C   UNL     1       7.245   9.540  -3.167  1.00  0.00     0.135 A 
ATOM     53  C   UNL     1       4.933   9.972  -2.671  1.00  0.00     0.135 A 
ATOM     54  F   UNL     1       8.465   9.118  -2.802  1.00  0.00    -0.206 F 
ATOM     55  C   UNL     1       7.060   9.989  -4.470  1.00  0.00     0.059 A 
ATOM     56  C   UNL     1       4.717  10.402  -3.975  1.00  0.00     0.059 A 
ATOM     57  F   UNL     1       3.888   9.951  -1.828  1.00  0.00    -0.206 F 
ATOM     58  C   UNL     1       5.789  10.409  -4.867  1.00  0.00     0.060 A 
BRANCH  58  59
ATOM     59  S   UNL     1       5.536  10.904  -6.586  1.00  0.00     0.124 S 
ATOM     60  O   UNL     1       6.151  12.226  -6.603  1.00  0.00    -0.237 OA
ATOM     61  O   UNL     1       6.247   9.858  -7.315  1.00  0.00    -0.237 OA
ATOM     62  O   UNL     1       4.083  10.879  -6.730  1.00  0.00    -0.744 OA
ENDBRANCH  58  59
ENDBRANCH  26  51
BRANCH  38  63
ATOM     63  C   UNL     1       9.602  11.652   3.450  1.00  0.00     0.058 A 
ATOM     64  C   UNL     1       8.999  12.900   3.672  1.00  0.00     0.135 A 
ATOM     65  C   UNL     1      11.000  11.571   3.538  1.00  0.00     0.135 A 
ATOM     66  F   UNL     1       7.665  13.030   3.589  1.00  0.00    -0.206 F 
ATOM     67  C   UNL     1       9.758  14.033   3.947  1.00  0.00     0.059 A 
ATOM     68  C   UNL     1      11.777  12.686   3.834  1.00  0.00     0.059 A 
ATOM     69  F   UNL     1      11.623  10.399   3.341  1.00  0.00    -0.206 F 
ATOM     70  C   UNL     1      11.147  13.916   4.024  1.00  0.00     0.060 A 
BRANCH  70  71
ATOM     71  S   UNL     1      12.122  15.386   4.405  1.00  0.00     0.124 S 
ATOM     72  O   UNL     1      12.113  16.084   3.123  1.00  0.00    -0.237 OA
ATOM     73  O   UNL     1      11.347  16.011   5.472  1.00  0.00    -0.237 OA
ATOM     74  O   UNL     1      13.412  14.840   4.814  1.00  0.00    -0.744 OA
ENDBRANCH  70  71
ENDBRANCH  38  63
ENDBRANCH  12  13
ENDBRANCH   5   7
ENDBRANCH   2   3
ENDBRANCH   1   2
BRANCH   1  75
ATOM     75  C   UNL     1       4.377  -3.593   0.655  1.00  0.00     0.117 C 
BRANCH  75  76
ATOM     76  N   UNL     1       4.684  -4.196  -0.629  1.00  0.00    -0.356 N 
ATOM     77  C   UNL     1       5.285  -5.381  -0.916  1.00  0.00     0.224 C 
ATOM     78  H   UNL     1       4.415  -3.666  -1.414  1.00  0.00     0.163 HD
ATOM     79  O   UNL     1       5.387  -5.687  -2.104  1.00  0.00    -0.275 OA
BRANCH  77  80
ATOM     80  C   UNL     1       5.761  -6.275   0.225  1.00  0.00     0.094 C 
ATOM     81  C   UNL     1       4.531  -6.908   0.932  1.00  0.00     0.002 C 
ATOM     82  C   UNL     1       6.705  -7.399  -0.278  1.00  0.00     0.094 C 
ATOM     83  C   UNL     1       3.793  -7.860  -0.031  1.00  0.00     0.005 C 
ATOM     84  C   UNL     1       5.040  -7.719   2.133  1.00  0.00     0.005 C 
ATOM     85  C   UNL     1       6.126  -8.789   0.124  1.00  0.00     0.002 C 
ATOM     86  C   UNL     1       4.753  -8.930  -0.564  1.00  0.00     0.005 C 
ATOM     87  C   UNL     1       5.886  -8.897   1.643  1.00  0.00     0.005 C 
BRANCH  82  88
ATOM     88  C   UNL     1       8.131  -7.235   0.267  1.00  0.00     0.228 C 
ATOM     89  O   UNL     1       8.355  -7.132   1.475  1.00  0.00    -0.274 OA
ATOM     90  N   UNL     1       9.195  -7.374  -0.586  1.00  0.00    -0.326 N 
ATOM     91  H   UNL     1      10.029  -7.693  -0.172  1.00  0.00     0.169 HD
BRANCH  90  92
ATOM     92  C   UNL     1       9.263  -7.125  -1.964  1.00  0.00     0.041 A 
ATOM     93  C   UNL     1      10.113  -7.910  -2.740  1.00  0.00     0.026 A 
ATOM     94  C   UNL     1       8.554  -6.087  -2.567  1.00  0.00     0.026 A 
ATOM     95  C   UNL     1      10.149  -7.739  -4.128  1.00  0.00     0.006 A 
ATOM     96  C   UNL     1       8.614  -5.893  -3.949  1.00  0.00     0.006 A 
ATOM     97  C   UNL     1       9.386  -6.740  -4.751  1.00  0.00    -0.043 A 
BRANCH  97  98
ATOM     98  C   UNL     1       9.359  -6.598  -6.256  1.00  0.00     0.071 C 
BRANCH  98  99
ATOM     99  C   UNL     1      10.559  -5.911  -6.861  1.00  0.00    -0.041 A 
ATOM    100  C   UNL     1      11.789  -6.567  -6.966  1.00  0.00     0.024 A 
ATOM    101  C   UNL     1      10.464  -4.609  -7.360  1.00  0.00     0.024 A 
ATOM    102  C   UNL     1      12.854  -5.905  -7.557  1.00  0.00     0.111 A 
ATOM    103  C   UNL     1      11.584  -4.034  -7.944  1.00  0.00     0.111 A 
ATOM    104  N   UNL     1      12.777  -4.656  -8.058  1.00  0.00    -0.265 NA
ENDBRANCH  98  99
ENDBRANCH  97  98
ENDBRANCH  90  92
ENDBRANCH  82  88
ENDBRANCH  77  80
ENDBRANCH  75  76
ENDBRANCH   1  75
TORSDOF 17
