REMARK SMILES O=C(NCCCNC(=O)c1ccccc1Nc1cccc(C(F)(F)F)c1)c1ccc(-c2c3nc(c(-c4c(F)cc(S(=O)(=O)[O-])cc4F)c4ccc([nH]4)c(-c4c(F)cc(S(=O)(=O)[O-])cc4F)c4nc(c(-c5c(F)cc(S(=O)(=O)[O-])cc5F)c5ccc2[nH]5)C=C4)C=C3)cc1
REMARK SMILES IDX 5 1 4 2 3 3 1 4 2 5 27 7 28 8 92 9 29 10 91 11 30 12 31 13
REMARK SMILES IDX 32 14 85 15 33 16 90 17 84 18 86 19 34 20 89 21 83 22 82 23
REMARK SMILES IDX 35 25 69 26 48 27 68 28 49 29 52 30 67 31 87 32 50 33 51 34
REMARK SMILES IDX 66 36 88 37 53 38 36 39 37 40 46 41 38 42 39 43 45 44 47 45
REMARK SMILES IDX 40 46 41 47 42 48 43 49 44 50 70 51 71 52 80 53 72 54 73 55
REMARK SMILES IDX 79 56 81 57 74 58 75 59 76 60 77 61 78 62 54 63 55 64 64 65
REMARK SMILES IDX 56 66 57 67 63 68 65 69 58 70 59 71 60 72 61 73 62 74 6 75
REMARK SMILES IDX 7 76 8 77 9 79 10 80 11 81 15 82 12 83 14 84 13 85 16 86
REMARK SMILES IDX 17 88 18 89 26 90 19 91 21 92 20 93 22 94 23 95 24 96 25 97
REMARK H PARENT 3 6 86 24 52 35 7 78 16 87
REMARK Flexibility Score: inf
ROOT
ATOM      1  C   UNL     1       4.996  -2.373  -0.574  1.00  0.00     0.042 C 
ENDROOT
BRANCH   1   2
ATOM      2  C   UNL     1       4.568  -0.975  -0.998  1.00  0.00     0.118 C 
BRANCH   2   3
ATOM      3  N   UNL     1       3.129  -0.753  -0.924  1.00  0.00    -0.352 N 
ATOM      4  O   UNL     1       1.152  -0.033  -0.129  1.00  0.00    -0.269 OA
ATOM      5  C   UNL     1       2.378   0.032  -0.078  1.00  0.00     0.251 C 
ATOM      6  H   UNL     1       2.604  -1.248  -1.594  1.00  0.00     0.163 HD
BRANCH   5   7
ATOM      7  C   UNL     1       3.030   0.916   0.915  1.00  0.00     0.039 A 
ATOM      8  C   UNL     1       4.162   1.658   0.588  1.00  0.00     0.014 A 
ATOM      9  C   UNL     1       2.497   1.004   2.206  1.00  0.00     0.014 A 
ATOM     10  C   UNL     1       4.883   2.298   1.589  1.00  0.00     0.010 A 
ATOM     11  C   UNL     1       3.161   1.749   3.189  1.00  0.00     0.010 A 
ATOM     12  C   UNL     1       4.394   2.353   2.905  1.00  0.00    -0.014 A 
BRANCH  12  13
ATOM     13  C   UNL     1       5.197   3.056   3.945  1.00  0.00     0.031 A 
ATOM     14  C   UNL     1       5.736   2.320   5.145  1.00  0.00     0.074 A 
ATOM     15  C   UNL     1       5.500   4.358   3.764  1.00  0.00     0.049 A 
ATOM     16  N   UNL     1       6.508   2.766   6.105  1.00  0.00    -0.248 NA
ATOM     17  C   UNL     1       5.352   0.908   5.300  1.00  0.00     0.031 C 
ATOM     18  C   UNL     1       5.023   5.188   2.654  1.00  0.00     0.029 A 
ATOM     19  N   UNL     1       6.307   5.202   4.482  1.00  0.00    -0.354 N 
ATOM     20  C   UNL     1       6.674   1.707   6.990  1.00  0.00     0.074 A 
ATOM     21  C   UNL     1       5.907   0.598   6.464  1.00  0.00     0.031 C 
ATOM     22  C   UNL     1       5.606   6.393   2.722  1.00  0.00     0.029 A 
ATOM     23  C   UNL     1       6.447   6.446   3.912  1.00  0.00     0.049 A 
ATOM     24  H   UNL     1       6.745   4.943   5.325  1.00  0.00     0.167 HD
ATOM     25  C   UNL     1       7.403   1.659   8.132  1.00  0.00     0.037 A 
ATOM     26  C   UNL     1       7.169   7.514   4.300  1.00  0.00     0.037 A 
ATOM     27  C   UNL     1       8.201   2.750   8.631  1.00  0.00     0.049 A 
ATOM     28  C   UNL     1       7.996   7.423   5.549  1.00  0.00     0.074 A 
ATOM     29  C   UNL     1       9.007   2.784   9.757  1.00  0.00     0.029 A 
ATOM     30  N   UNL     1       8.302   3.997   8.033  1.00  0.00    -0.354 N 
ATOM     31  N   UNL     1       8.152   6.405   6.360  1.00  0.00    -0.248 NA
ATOM     32  C   UNL     1       8.741   8.627   5.938  1.00  0.00     0.031 C 
ATOM     33  C   UNL     1       9.570   4.061   9.856  1.00  0.00     0.029 A 
ATOM     34  C   UNL     1       9.146   4.811   8.771  1.00  0.00     0.049 A 
ATOM     35  H   UNL     1       7.841   4.265   7.205  1.00  0.00     0.167 HD
ATOM     36  C   UNL     1       9.024   6.840   7.350  1.00  0.00     0.074 A 
ATOM     37  C   UNL     1       9.376   8.208   7.024  1.00  0.00     0.031 C 
ATOM     38  C   UNL     1       9.488   6.169   8.432  1.00  0.00     0.037 A 
BRANCH  25  39
ATOM     39  C   UNL     1       7.361   0.387   8.935  1.00  0.00     0.058 A 
ATOM     40  C   UNL     1       8.030  -0.775   8.521  1.00  0.00     0.135 A 
ATOM     41  C   UNL     1       6.671   0.344  10.158  1.00  0.00     0.135 A 
ATOM     42  F   UNL     1       8.693  -0.794   7.354  1.00  0.00    -0.206 F 
ATOM     43  C   UNL     1       7.995  -1.944   9.277  1.00  0.00     0.059 A 
ATOM     44  C   UNL     1       6.640  -0.807  10.941  1.00  0.00     0.059 A 
ATOM     45  F   UNL     1       6.016   1.428  10.603  1.00  0.00    -0.206 F 
ATOM     46  C   UNL     1       7.293  -1.951  10.484  1.00  0.00     0.060 A 
BRANCH  46  47
ATOM     47  S   UNL     1       7.253  -3.473  11.456  1.00  0.00     0.124 S 
ATOM     48  O   UNL     1       6.286  -4.269  10.706  1.00  0.00    -0.237 OA
ATOM     49  O   UNL     1       8.637  -3.928  11.386  1.00  0.00    -0.237 OA
ATOM     50  O   UNL     1       6.810  -3.023  12.772  1.00  0.00    -0.744 OA
ENDBRANCH  46  47
ENDBRANCH  25  39
BRANCH  26  51
ATOM     51  C   UNL     1       7.149   8.753   3.480  1.00  0.00     0.058 A 
ATOM     52  C   UNL     1       8.268   9.138   2.728  1.00  0.00     0.135 A 
ATOM     53  C   UNL     1       6.000   9.555   3.405  1.00  0.00     0.135 A 
ATOM     54  F   UNL     1       9.390   8.404   2.770  1.00  0.00    -0.206 F 
ATOM     55  C   UNL     1       8.253  10.281   1.936  1.00  0.00     0.059 A 
ATOM     56  C   UNL     1       5.952  10.688   2.601  1.00  0.00     0.059 A 
ATOM     57  F   UNL     1       4.898   9.216   4.092  1.00  0.00    -0.206 F 
ATOM     58  C   UNL     1       7.088  11.048   1.877  1.00  0.00     0.060 A 
BRANCH  58  59
ATOM     59  S   UNL     1       7.051  12.495   0.797  1.00  0.00     0.124 S 
ATOM     60  O   UNL     1       7.786  13.472   1.592  1.00  0.00    -0.237 OA
ATOM     61  O   UNL     1       7.727  12.007  -0.401  1.00  0.00    -0.237 OA
ATOM     62  O   UNL     1       5.623  12.754   0.637  1.00  0.00    -0.744 OA
ENDBRANCH  58  59
ENDBRANCH  26  51
BRANCH  38  63
ATOM     63  C   UNL     1      10.449   6.899   9.325  1.00  0.00     0.058 A 
ATOM     64  C   UNL     1      10.018   7.908  10.200  1.00  0.00     0.135 A 
ATOM     65  C   UNL     1      11.814   6.573   9.317  1.00  0.00     0.135 A 
ATOM     66  F   UNL     1       8.723   8.261  10.239  1.00  0.00    -0.206 F 
ATOM     67  C   UNL     1      10.913   8.591  11.017  1.00  0.00     0.059 A 
ATOM     68  C   UNL     1      12.724   7.228  10.141  1.00  0.00     0.059 A 
ATOM     69  F   UNL     1      12.275   5.609   8.504  1.00  0.00    -0.206 F 
ATOM     70  C   UNL     1      12.266   8.247  10.976  1.00  0.00     0.060 A 
BRANCH  70  71
ATOM     71  S   UNL     1      13.421   9.130  12.045  1.00  0.00     0.124 S 
ATOM     72  O   UNL     1      13.606  10.377  11.309  1.00  0.00    -0.237 OA
ATOM     73  O   UNL     1      12.677   9.237  13.296  1.00  0.00    -0.237 OA
ATOM     74  O   UNL     1      14.583   8.247  12.089  1.00  0.00    -0.744 OA
ENDBRANCH  70  71
ENDBRANCH  38  63
ENDBRANCH  12  13
ENDBRANCH   5   7
ENDBRANCH   2   3
ENDBRANCH   1   2
BRANCH   1  75
ATOM     75  C   UNL     1       4.483  -3.495  -1.463  1.00  0.00     0.118 C 
BRANCH  75  76
ATOM     76  N   UNL     1       4.871  -3.341  -2.858  1.00  0.00    -0.352 N 
ATOM     77  C   UNL     1       5.563  -4.195  -3.677  1.00  0.00     0.253 C 
ATOM     78  H   UNL     1       4.593  -2.494  -3.277  1.00  0.00     0.163 HD
ATOM     79  O   UNL     1       5.870  -3.831  -4.810  1.00  0.00    -0.269 OA
BRANCH  77  80
ATOM     80  C   UNL     1       5.956  -5.545  -3.221  1.00  0.00     0.063 A 
ATOM     81  C   UNL     1       7.320  -5.860  -3.327  1.00  0.00     0.016 A 
ATOM     82  C   UNL     1       5.024  -6.501  -2.765  1.00  0.00     0.051 A 
ATOM     83  C   UNL     1       7.783  -7.114  -2.937  1.00  0.00     0.001 A 
ATOM     84  C   UNL     1       5.522  -7.751  -2.363  1.00  0.00     0.027 A 
ATOM     85  C   UNL     1       6.884  -8.056  -2.448  1.00  0.00     0.002 A 
BRANCH  82  86
ATOM     86  N   UNL     1       3.646  -6.213  -2.672  1.00  0.00    -0.355 N 
ATOM     87  H   UNL     1       3.295  -5.665  -3.411  1.00  0.00     0.167 HD
BRANCH  86  88
ATOM     88  C   UNL     1       2.688  -6.573  -1.709  1.00  0.00     0.039 A 
ATOM     89  C   UNL     1       1.331  -6.524  -2.051  1.00  0.00     0.026 A 
ATOM     90  C   UNL     1       3.031  -7.016  -0.424  1.00  0.00     0.039 A 
ATOM     91  C   UNL     1       0.344  -6.902  -1.138  1.00  0.00     0.003 A 
ATOM     92  C   UNL     1       2.051  -7.393   0.509  1.00  0.00     0.058 A 
ATOM     93  C   UNL     1       0.702  -7.338   0.135  1.00  0.00     0.013 A 
BRANCH  92  94
ATOM     94  C   UNL     1       2.437  -7.876   1.886  1.00  0.00     0.416 C 
ATOM     95  F   UNL     1       1.698  -7.298   2.872  1.00  0.00    -0.166 F 
ATOM     96  F   UNL     1       2.258  -9.220   2.024  1.00  0.00    -0.166 F 
ATOM     97  F   UNL     1       3.740  -7.639   2.201  1.00  0.00    -0.166 F 
ENDBRANCH  92  94
ENDBRANCH  86  88
ENDBRANCH  82  86
ENDBRANCH  77  80
ENDBRANCH  75  76
ENDBRANCH   1  75
TORSDOF 16
