REMARK SMILES O=C(C[C@@H]([NH2+]Cc1ccccc1)C(=O)NCCCNC(=O)c1ccc(-c2c3nc(c(-c4c(F)cc(S(=O)(=O)[O-])cc4F)c4ccc([nH]4)c(-c4c(F)cc(S(=O)(=O)[O-])cc4F)c4nc(c(-c5c(F)cc(S(=O)(=O)[O-])cc5F)c5ccc2[nH]5)C=C4)C=C3)cc1)Nc1cccc(Cl)c1Cl
REMARK SMILES IDX 17 1 16 2 15 3 13 4 14 5 4 7 3 8 2 9 1 10 88 11 89 13 90 14
REMARK SMILES IDX 95 15 91 16 93 17 96 18 92 19 94 20 5 21 6 24 7 25 8 26
REMARK SMILES IDX 12 27 9 28 11 29 10 30 18 31 19 32 20 33 21 35 22 36 23 37
REMARK SMILES IDX 87 38 24 39 86 40 25 41 26 42 27 43 80 44 28 45 85 46 79 47
REMARK SMILES IDX 81 48 29 49 84 50 78 51 77 52 30 54 64 55 43 56 63 57 44 58
REMARK SMILES IDX 47 59 62 60 82 61 45 62 46 63 61 65 83 66 48 67 31 68 32 69
REMARK SMILES IDX 41 70 33 71 34 72 40 73 42 74 35 75 36 76 37 77 38 78 39 79
REMARK SMILES IDX 65 80 66 81 75 82 67 83 68 84 74 85 76 86 69 87 70 88 71 89
REMARK SMILES IDX 72 90 73 91 49 92 50 93 59 94 51 95 52 96 58 97 60 98 53 99
REMARK SMILES IDX 54 100 55 101 56 102 57 103
REMARK H PARENT 15 6 88 12 5 22 5 23 19 34 81 53 47 64
REMARK Flexibility Score: inf
ROOT
ATOM      1  C   UNL     1       5.552   3.434  -0.219  1.00  0.00     0.042 C 
ENDROOT
BRANCH   1   2
ATOM      2  C   UNL     1       5.970   2.188   0.557  1.00  0.00     0.118 C 
BRANCH   2   3
ATOM      3  N   UNL     1       5.507   2.251   1.931  1.00  0.00    -0.351 N 
ATOM      4  C   UNL     1       4.515   1.566   2.564  1.00  0.00     0.278 C 
ATOM      5  O   UNL     1       4.281   1.865   3.739  1.00  0.00    -0.268 OA
ATOM      6  H   UNL     1       5.990   2.894   2.499  1.00  0.00     0.163 HD
BRANCH   4   7
ATOM      7  C   UNL     1       3.744   0.424   1.873  1.00  0.00     0.282 C 
BRANCH   7   8
ATOM      8  C   UNL     1       2.872   1.001   0.753  1.00  0.00     0.175 C 
BRANCH   8   9
ATOM      9  C   UNL     1       1.964  -0.036   0.146  1.00  0.00     0.230 C 
ATOM     10  O   UNL     1       0.794  -0.160   0.493  1.00  0.00    -0.274 OA
ATOM     11  N   UNL     1       2.621  -0.854  -0.759  1.00  0.00    -0.325 N 
ATOM     12  H   UNL     1       3.599  -0.771  -0.842  1.00  0.00     0.169 HD
BRANCH  11  13
ATOM     13  C   UNL     1       1.958  -1.800  -1.567  1.00  0.00     0.061 A 
ATOM     14  C   UNL     1       2.488  -3.097  -1.570  1.00  0.00     0.028 A 
ATOM     15  C   UNL     1       0.838  -1.493  -2.368  1.00  0.00     0.083 A 
ATOM     16  C   UNL     1       1.862  -4.111  -2.293  1.00  0.00     0.004 A 
ATOM     17  C   UNL     1       0.229  -2.518  -3.107  1.00  0.00     0.061 A 
ATOM     18  Cl  UNL     1       0.332   0.155  -2.590  1.00  0.00    -0.080 Cl
ATOM     19  C   UNL     1       0.731  -3.823  -3.053  1.00  0.00     0.022 A 
ATOM     20  Cl  UNL     1      -1.136  -2.246  -4.137  1.00  0.00    -0.083 Cl
ENDBRANCH  11  13
ENDBRANCH   8   9
ENDBRANCH   7   8
BRANCH   7  21
ATOM     21  N   UNL     1       4.651  -0.678   1.420  1.00  0.00    -0.332 N 
ATOM     22  H   UNL     1       5.193  -0.343   0.624  1.00  0.00     0.347 HD
ATOM     23  H   UNL     1       4.059  -1.473   1.180  1.00  0.00     0.347 HD
BRANCH  21  24
ATOM     24  C   UNL     1       5.591  -1.137   2.464  1.00  0.00     0.297 C 
BRANCH  24  25
ATOM     25  C   UNL     1       4.940  -2.052   3.474  1.00  0.00     0.006 A 
ATOM     26  C   UNL     1       4.271  -1.530   4.589  1.00  0.00     0.009 A 
ATOM     27  C   UNL     1       4.952  -3.442   3.284  1.00  0.00     0.009 A 
ATOM     28  C   UNL     1       3.598  -2.371   5.474  1.00  0.00     0.001 A 
ATOM     29  C   UNL     1       4.296  -4.285   4.183  1.00  0.00     0.001 A 
ATOM     30  C   UNL     1       3.610  -3.748   5.271  1.00  0.00     0.000 A 
ENDBRANCH  24  25
ENDBRANCH  21  24
ENDBRANCH   7  21
ENDBRANCH   4   7
ENDBRANCH   2   3
ENDBRANCH   1   2
BRANCH   1  31
ATOM     31  C   UNL     1       6.203   4.718   0.289  1.00  0.00     0.118 C 
BRANCH  31  32
ATOM     32  N   UNL     1       7.652   4.704   0.135  1.00  0.00    -0.352 N 
ATOM     33  C   UNL     1       8.466   5.529  -0.598  1.00  0.00     0.251 C 
ATOM     34  H   UNL     1       8.117   3.995   0.634  1.00  0.00     0.163 HD
ATOM     35  O   UNL     1       9.644   5.215  -0.770  1.00  0.00    -0.269 OA
BRANCH  33  36
ATOM     36  C   UNL     1       7.934   6.770  -1.196  1.00  0.00     0.039 A 
ATOM     37  C   UNL     1       8.290   7.094  -2.508  1.00  0.00     0.014 A 
ATOM     38  C   UNL     1       7.091   7.616  -0.470  1.00  0.00     0.014 A 
ATOM     39  C   UNL     1       7.737   8.221  -3.117  1.00  0.00     0.010 A 
ATOM     40  C   UNL     1       6.482   8.698  -1.102  1.00  0.00     0.010 A 
ATOM     41  C   UNL     1       6.790   9.004  -2.436  1.00  0.00    -0.014 A 
BRANCH  41  42
ATOM     42  C   UNL     1       6.065  10.102  -3.125  1.00  0.00     0.031 A 
ATOM     43  C   UNL     1       6.200  11.525  -2.662  1.00  0.00     0.074 A 
ATOM     44  C   UNL     1       5.207   9.795  -4.118  1.00  0.00     0.049 A 
ATOM     45  N   UNL     1       5.592  12.597  -3.103  1.00  0.00    -0.248 NA
ATOM     46  C   UNL     1       7.120  11.773  -1.542  1.00  0.00     0.031 C 
ATOM     47  C   UNL     1       4.940   8.441  -4.611  1.00  0.00     0.029 A 
ATOM     48  N   UNL     1       4.385  10.591  -4.875  1.00  0.00    -0.354 N 
ATOM     49  C   UNL     1       6.039  13.643  -2.304  1.00  0.00     0.074 A 
ATOM     50  C   UNL     1       6.937  13.068  -1.325  1.00  0.00     0.031 C 
ATOM     51  C   UNL     1       4.027   8.502  -5.590  1.00  0.00     0.029 A 
ATOM     52  C   UNL     1       3.608   9.889  -5.766  1.00  0.00     0.049 A 
ATOM     53  H   UNL     1       4.354  11.571  -4.789  1.00  0.00     0.167 HD
ATOM     54  C   UNL     1       5.737  14.961  -2.390  1.00  0.00     0.037 A 
ATOM     55  C   UNL     1       2.647  10.305  -6.614  1.00  0.00     0.037 A 
ATOM     56  C   UNL     1       4.845  15.520  -3.375  1.00  0.00     0.049 A 
ATOM     57  C   UNL     1       2.325  11.770  -6.693  1.00  0.00     0.074 A 
ATOM     58  C   UNL     1       4.545  16.851  -3.606  1.00  0.00     0.029 A 
ATOM     59  N   UNL     1       4.089  14.780  -4.275  1.00  0.00    -0.354 N 
ATOM     60  N   UNL     1       2.837  12.762  -6.005  1.00  0.00    -0.248 NA
ATOM     61  C   UNL     1       1.300  12.174  -7.664  1.00  0.00     0.031 C 
ATOM     62  C   UNL     1       3.559  16.912  -4.598  1.00  0.00     0.029 A 
ATOM     63  C   UNL     1       3.288  15.623  -5.030  1.00  0.00     0.049 A 
ATOM     64  H   UNL     1       4.118  13.800  -4.364  1.00  0.00     0.167 HD
ATOM     65  C   UNL     1       2.200  13.910  -6.461  1.00  0.00     0.074 A 
ATOM     66  C   UNL     1       1.284  13.491  -7.503  1.00  0.00     0.031 C 
ATOM     67  C   UNL     1       2.360  15.193  -6.050  1.00  0.00     0.037 A 
BRANCH  54  68
ATOM     68  C   UNL     1       6.357  15.885  -1.375  1.00  0.00     0.058 A 
ATOM     69  C   UNL     1       7.737  16.150  -1.353  1.00  0.00     0.135 A 
ATOM     70  C   UNL     1       5.557  16.525  -0.414  1.00  0.00     0.135 A 
ATOM     71  F   UNL     1       8.553  15.562  -2.242  1.00  0.00    -0.206 F 
ATOM     72  C   UNL     1       8.306  16.973  -0.386  1.00  0.00     0.059 A 
ATOM     73  C   UNL     1       6.100  17.379   0.542  1.00  0.00     0.059 A 
ATOM     74  F   UNL     1       4.231  16.316  -0.390  1.00  0.00    -0.206 F 
ATOM     75  C   UNL     1       7.479  17.578   0.562  1.00  0.00     0.060 A 
BRANCH  75  76
ATOM     76  S   UNL     1       8.237  18.617   1.829  1.00  0.00     0.124 S 
ATOM     77  O   UNL     1       8.893  17.619   2.668  1.00  0.00    -0.237 OA
ATOM     78  O   UNL     1       9.127  19.468   1.045  1.00  0.00    -0.237 OA
ATOM     79  O   UNL     1       7.099  19.298   2.438  1.00  0.00    -0.744 OA
ENDBRANCH  75  76
ENDBRANCH  54  68
BRANCH  55  80
ATOM     80  C   UNL     1       1.931   9.302  -7.446  1.00  0.00     0.058 A 
ATOM     81  C   UNL     1       2.171   9.199  -8.823  1.00  0.00     0.135 A 
ATOM     82  C   UNL     1       1.052   8.375  -6.863  1.00  0.00     0.135 A 
ATOM     83  F   UNL     1       2.996  10.068  -9.428  1.00  0.00    -0.206 F 
ATOM     84  C   UNL     1       1.574   8.206  -9.592  1.00  0.00     0.059 A 
ATOM     85  C   UNL     1       0.464   7.357  -7.606  1.00  0.00     0.059 A 
ATOM     86  F   UNL     1       0.803   8.423  -5.545  1.00  0.00    -0.206 F 
ATOM     87  C   UNL     1       0.733   7.280  -8.971  1.00  0.00     0.060 A 
BRANCH  87  88
ATOM     88  S   UNL     1       0.052   5.932  -9.962  1.00  0.00     0.124 S 
ATOM     89  O   UNL     1      -0.921   6.636 -10.789  1.00  0.00    -0.237 OA
ATOM     90  O   UNL     1       1.238   5.435 -10.653  1.00  0.00    -0.237 OA
ATOM     91  O   UNL     1      -0.505   5.027  -8.960  1.00  0.00    -0.744 OA
ENDBRANCH  87  88
ENDBRANCH  55  80
BRANCH  67  92
ATOM     92  C   UNL     1       1.518  16.244  -6.722  1.00  0.00     0.058 A 
ATOM     93  C   UNL     1       0.138  16.343  -6.483  1.00  0.00     0.135 A 
ATOM     94  C   UNL     1       2.104  17.198  -7.570  1.00  0.00     0.135 A 
ATOM     95  F   UNL     1      -0.476  15.452  -5.688  1.00  0.00    -0.206 F 
ATOM     96  C   UNL     1      -0.634  17.339  -7.074  1.00  0.00     0.059 A 
ATOM     97  C   UNL     1       1.357  18.220  -8.149  1.00  0.00     0.059 A 
ATOM     98  F   UNL     1       3.421  17.155  -7.829  1.00  0.00    -0.206 F 
ATOM     99  C   UNL     1      -0.014  18.276  -7.902  1.00  0.00     0.060 A 
BRANCH  99 100
ATOM    100  S   UNL     1      -1.020  19.587  -8.629  1.00  0.00     0.124 S 
ATOM    101  O   UNL     1      -1.793  18.848  -9.623  1.00  0.00    -0.237 OA
ATOM    102  O   UNL     1      -1.772  20.077  -7.478  1.00  0.00    -0.237 OA
ATOM    103  O   UNL     1      -0.032  20.517  -9.167  1.00  0.00    -0.744 OA
ENDBRANCH  99 100
ENDBRANCH  67  92
ENDBRANCH  41  42
ENDBRANCH  33  36
ENDBRANCH  31  32
ENDBRANCH   1  31
TORSDOF 19
