REMARK SMILES CC[C@@H](C(=O)NCCCNC(=O)c1ccc(-c2c3nc(c(-c4c(F)cc(S(=O)(=O)[O-])cc4F)c4ccc([nH]4)c(-c4c(F)cc(S(=O)(=O)[O-])cc4F)c4nc(c(-c5c(F)cc(S(=O)(=O)[O-])cc5F)c5ccc2[nH]5)C=C4)C=C3)cc1)N1C(=O)/C(=C/c2ccccc2[N+](=O)[O-])SC1=S
REMARK SMILES IDX 8 1 7 2 6 3 4 4 5 5 3 7 2 8 1 9 79 10 80 11 94 12 81 13
REMARK SMILES IDX 82 14 93 15 95 16 83 17 84 18 85 19 89 20 86 21 88 22 87 23
REMARK SMILES IDX 90 24 91 25 92 26 9 27 10 28 11 29 12 31 13 32 14 33 78 34
REMARK SMILES IDX 15 35 77 36 16 37 17 38 18 39 71 40 19 41 76 42 70 43 72 44
REMARK SMILES IDX 20 45 75 46 69 47 68 48 21 50 55 51 34 52 54 53 35 54 38 55
REMARK SMILES IDX 53 56 73 57 36 58 37 59 52 61 74 62 39 63 22 64 23 65 32 66
REMARK SMILES IDX 24 67 25 68 31 69 33 70 26 71 27 72 28 73 29 74 30 75 56 76
REMARK SMILES IDX 57 77 66 78 58 79 59 80 65 81 67 82 60 83 61 84 62 85 63 86
REMARK SMILES IDX 64 87 40 88 41 89 50 90 42 91 43 92 49 93 51 94 44 95 45 96
REMARK SMILES IDX 46 97 47 98 48 99
REMARK H PARENT 6 6 10 30 72 49 38 60
REMARK Flexibility Score: inf
ROOT
ATOM      1  C   UNL     1       1.562   2.085  -1.217  1.00  0.00     0.042 C 
ENDROOT
BRANCH   1   2
ATOM      2  C   UNL     1       1.823   2.240   0.282  1.00  0.00     0.117 C 
BRANCH   2   3
ATOM      3  N   UNL     1       0.585   2.265   1.050  1.00  0.00    -0.354 N 
ATOM      4  C   UNL     1       0.062   1.382   1.951  1.00  0.00     0.243 C 
ATOM      5  O   UNL     1      -1.072   1.611   2.381  1.00  0.00    -0.273 OA
ATOM      6  H   UNL     1       0.026   3.061   0.892  1.00  0.00     0.163 HD
BRANCH   4   7
ATOM      7  C   UNL     1       0.855   0.134   2.400  1.00  0.00     0.181 C 
BRANCH   7   8
ATOM      8  C   UNL     1       0.236  -1.052   1.598  1.00  0.00     0.032 C 
ATOM      9  C   UNL     1       0.433  -1.001   0.095  1.00  0.00     0.006 C 
ENDBRANCH   7   8
BRANCH   7  10
ATOM     10  N   UNL     1       0.687  -0.075   3.874  1.00  0.00    -0.280 N 
ATOM     11  C   UNL     1       0.897  -1.328   4.405  1.00  0.00     0.266 C 
ATOM     12  C   UNL     1       0.725   0.897   4.856  1.00  0.00     0.149 C 
ATOM     13  O   UNL     1       1.530  -2.253   3.898  1.00  0.00    -0.268 OA
ATOM     14  C   UNL     1       0.406  -1.396   5.796  1.00  0.00     0.081 C 
ATOM     15  S   UNL     1       0.231   0.185   6.409  1.00  0.00    -0.054 SA
ATOM     16  S   UNL     1       1.220   2.489   4.760  1.00  0.00    -0.052 S 
ATOM     17  C   UNL     1       0.149  -2.581   6.362  1.00  0.00     0.036 C 
BRANCH  17  18
ATOM     18  C   UNL     1      -0.429  -2.825   7.686  1.00  0.00     0.054 A 
ATOM     19  C   UNL     1       0.421  -3.380   8.654  1.00  0.00     0.015 A 
ATOM     20  C   UNL     1      -1.772  -2.598   8.036  1.00  0.00     0.276 A 
ATOM     21  C   UNL     1      -0.053  -3.691   9.932  1.00  0.00     0.001 A 
ATOM     22  C   UNL     1      -2.250  -2.901   9.321  1.00  0.00     0.086 A 
ATOM     23  C   UNL     1      -1.385  -3.451  10.266  1.00  0.00     0.007 A 
BRANCH  20  24
ATOM     24  N   UNL     1      -2.738  -2.081   7.069  1.00  0.00     0.063 N 
ATOM     25  O   UNL     1      -3.558  -1.250   7.482  1.00  0.00    -0.258 OA
ATOM     26  O   UNL     1      -2.703  -2.535   5.917  1.00  0.00    -0.258 OA
ENDBRANCH  20  24
ENDBRANCH  17  18
ENDBRANCH   7  10
ENDBRANCH   4   7
ENDBRANCH   2   3
ENDBRANCH   1   2
BRANCH   1  27
ATOM     27  C   UNL     1       0.876   3.285  -1.863  1.00  0.00     0.118 C 
BRANCH  27  28
ATOM     28  N   UNL     1       1.831   4.280  -2.319  1.00  0.00    -0.352 N 
ATOM     29  C   UNL     1       2.062   4.744  -3.593  1.00  0.00     0.251 C 
ATOM     30  H   UNL     1       2.394   4.678  -1.616  1.00  0.00     0.163 HD
ATOM     31  O   UNL     1       3.060   5.426  -3.810  1.00  0.00    -0.269 OA
BRANCH  29  32
ATOM     32  C   UNL     1       1.135   4.415  -4.705  1.00  0.00     0.039 A 
ATOM     33  C   UNL     1       1.670   4.091  -5.955  1.00  0.00     0.014 A 
ATOM     34  C   UNL     1      -0.253   4.468  -4.540  1.00  0.00     0.014 A 
ATOM     35  C   UNL     1       0.820   3.772  -7.021  1.00  0.00     0.010 A 
ATOM     36  C   UNL     1      -1.097   4.088  -5.584  1.00  0.00     0.010 A 
ATOM     37  C   UNL     1      -0.572   3.745  -6.839  1.00  0.00    -0.014 A 
BRANCH  37  38
ATOM     38  C   UNL     1      -1.492   3.385  -7.952  1.00  0.00     0.031 A 
ATOM     39  C   UNL     1      -2.455   4.406  -8.497  1.00  0.00     0.074 A 
ATOM     40  C   UNL     1      -1.507   2.126  -8.434  1.00  0.00     0.049 A 
ATOM     41  N   UNL     1      -3.393   4.260  -9.398  1.00  0.00    -0.248 NA
ATOM     42  C   UNL     1      -2.369   5.764  -7.936  1.00  0.00     0.031 C 
ATOM     43  C   UNL     1      -0.657   1.030  -7.967  1.00  0.00     0.029 A 
ATOM     44  N   UNL     1      -2.278   1.553  -9.415  1.00  0.00    -0.354 N 
ATOM     45  C   UNL     1      -4.025   5.495  -9.493  1.00  0.00     0.074 A 
ATOM     46  C   UNL     1      -3.386   6.370  -8.533  1.00  0.00     0.031 C 
ATOM     47  C   UNL     1      -0.944  -0.079  -8.668  1.00  0.00     0.029 A 
ATOM     48  C   UNL     1      -2.019   0.217  -9.612  1.00  0.00     0.049 A 
ATOM     49  H   UNL     1      -2.954   2.051  -9.929  1.00  0.00     0.167 HD
ATOM     50  C   UNL     1      -5.033   5.872 -10.316  1.00  0.00     0.037 A 
ATOM     51  C   UNL     1      -2.586  -0.673 -10.451  1.00  0.00     0.037 A 
ATOM     52  C   UNL     1      -5.639   5.017 -11.303  1.00  0.00     0.049 A 
ATOM     53  C   UNL     1      -3.682  -0.223 -11.377  1.00  0.00     0.074 A 
ATOM     54  C   UNL     1      -6.619   5.331 -12.228  1.00  0.00     0.029 A 
ATOM     55  N   UNL     1      -5.319   3.682 -11.497  1.00  0.00    -0.354 N 
ATOM     56  N   UNL     1      -4.231   0.962 -11.488  1.00  0.00    -0.248 NA
ATOM     57  C   UNL     1      -4.233  -1.230 -12.296  1.00  0.00     0.031 C 
ATOM     58  C   UNL     1      -6.911   4.178 -12.965  1.00  0.00     0.029 A 
ATOM     59  C   UNL     1      -6.089   3.155 -12.520  1.00  0.00     0.049 A 
ATOM     60  H   UNL     1      -4.643   3.183 -10.984  1.00  0.00     0.167 HD
ATOM     61  C   UNL     1      -5.176   0.850 -12.501  1.00  0.00     0.074 A 
ATOM     62  C   UNL     1      -5.120  -0.516 -12.978  1.00  0.00     0.031 C 
ATOM     63  C   UNL     1      -6.015   1.795 -12.991  1.00  0.00     0.037 A 
BRANCH  50  64
ATOM     64  C   UNL     1      -5.542   7.281 -10.189  1.00  0.00     0.058 A 
ATOM     65  C   UNL     1      -4.795   8.376 -10.651  1.00  0.00     0.135 A 
ATOM     66  C   UNL     1      -6.802   7.537  -9.625  1.00  0.00     0.135 A 
ATOM     67  F   UNL     1      -3.578   8.187 -11.185  1.00  0.00    -0.206 F 
ATOM     68  C   UNL     1      -5.267   9.679 -10.531  1.00  0.00     0.059 A 
ATOM     69  C   UNL     1      -7.304   8.830  -9.516  1.00  0.00     0.059 A 
ATOM     70  F   UNL     1      -7.556   6.524  -9.169  1.00  0.00    -0.206 F 
ATOM     71  C   UNL     1      -6.521   9.896  -9.958  1.00  0.00     0.060 A 
BRANCH  71  72
ATOM     72  S   UNL     1      -7.120  11.592  -9.805  1.00  0.00     0.124 S 
ATOM     73  O   UNL     1      -6.355  12.068  -8.657  1.00  0.00    -0.237 OA
ATOM     74  O   UNL     1      -6.756  12.174 -11.093  1.00  0.00    -0.237 OA
ATOM     75  O   UNL     1      -8.553  11.426  -9.580  1.00  0.00    -0.744 OA
ENDBRANCH  71  72
ENDBRANCH  50  64
BRANCH  51  76
ATOM     76  C   UNL     1      -2.108  -2.079 -10.467  1.00  0.00     0.058 A 
ATOM     77  C   UNL     1      -1.321  -2.559 -11.523  1.00  0.00     0.135 A 
ATOM     78  C   UNL     1      -2.409  -2.962  -9.419  1.00  0.00     0.135 A 
ATOM     79  F   UNL     1      -1.014  -1.753 -12.551  1.00  0.00    -0.206 F 
ATOM     80  C   UNL     1      -0.854  -3.869 -11.546  1.00  0.00     0.059 A 
ATOM     81  C   UNL     1      -1.937  -4.271  -9.410  1.00  0.00     0.059 A 
ATOM     82  F   UNL     1      -3.147  -2.545  -8.378  1.00  0.00    -0.206 F 
ATOM     83  C   UNL     1      -1.166  -4.718 -10.483  1.00  0.00     0.060 A 
BRANCH  83  84
ATOM     84  S   UNL     1      -0.502  -6.398 -10.487  1.00  0.00     0.124 S 
ATOM     85  O   UNL     1      -1.389  -7.061 -11.436  1.00  0.00    -0.237 OA
ATOM     86  O   UNL     1       0.871  -6.187 -10.936  1.00  0.00    -0.237 OA
ATOM     87  O   UNL     1      -0.640  -6.814  -9.094  1.00  0.00    -0.744 OA
ENDBRANCH  83  84
ENDBRANCH  51  76
BRANCH  63  88
ATOM     88  C   UNL     1      -6.923   1.398 -14.120  1.00  0.00     0.058 A 
ATOM     89  C   UNL     1      -8.073   0.626 -13.899  1.00  0.00     0.135 A 
ATOM     90  C   UNL     1      -6.670   1.845 -15.426  1.00  0.00     0.135 A 
ATOM     91  F   UNL     1      -8.354   0.169 -12.668  1.00  0.00    -0.206 F 
ATOM     92  C   UNL     1      -8.938   0.299 -14.939  1.00  0.00     0.059 A 
ATOM     93  C   UNL     1      -7.531   1.547 -16.477  1.00  0.00     0.059 A 
ATOM     94  F   UNL     1      -5.586   2.593 -15.687  1.00  0.00    -0.206 F 
ATOM     95  C   UNL     1      -8.659   0.765 -16.225  1.00  0.00     0.060 A 
BRANCH  95  96
ATOM     96  S   UNL     1      -9.809   0.374 -17.561  1.00  0.00     0.124 S 
ATOM     97  O   UNL     1      -9.456  -1.010 -17.856  1.00  0.00    -0.237 OA
ATOM     98  O   UNL     1     -11.109   0.575 -16.927  1.00  0.00    -0.237 OA
ATOM     99  O   UNL     1      -9.468   1.345 -18.596  1.00  0.00    -0.744 OA
ENDBRANCH  95  96
ENDBRANCH  63  88
ENDBRANCH  37  38
ENDBRANCH  29  32
ENDBRANCH  27  28
ENDBRANCH   1  27
TORSDOF 17
