REMARK SMILES Cc1cccc(O[C@H](C)C(=O)NNC(=O)[C@H]2[C@@H]3CC[C@@H](C3)[C@@H]2C(=O)NCCCNC(=O)c2ccc(-c3c4nc(c(-c5c(F)cc(S(=O)(=O)[O-])cc5F)c5ccc([nH]5)c(-c5c(F)cc(S(=O)(=O)[O-])cc5F)c5nc(c(-c6c(F)cc(S(=O)(=O)[O-])cc6F)c6ccc3[nH]6)C=C5)C=C4)cc2)c1
REMARK SMILES IDX 26 1 25 2 23 3 24 4 22 6 16 7 17 8 18 9 21 10 20 11 19 12
REMARK SMILES IDX 14 13 13 14 15 16 12 17 10 18 11 19 8 21 9 22 7 23 6 24 1 25
REMARK SMILES IDX 2 26 3 27 98 28 4 29 5 30 27 31 28 32 29 33 30 34 31 36
REMARK SMILES IDX 32 37 33 38 97 39 34 40 96 41 35 42 36 43 37 44 90 45 38 46
REMARK SMILES IDX 95 47 89 48 91 49 39 50 94 51 88 52 87 53 40 55 74 56 53 57
REMARK SMILES IDX 73 58 54 59 57 60 72 61 92 62 55 63 56 64 71 66 93 67 58 68
REMARK SMILES IDX 41 69 42 70 51 71 43 72 44 73 50 74 52 75 45 76 46 77 47 78
REMARK SMILES IDX 48 79 49 80 75 81 76 82 85 83 77 84 78 85 84 86 86 87 79 88
REMARK SMILES IDX 80 89 81 90 82 91 83 92 59 93 60 94 69 95 61 96 62 97 68 98
REMARK SMILES IDX 70 99 63 100 64 101 65 102 66 103 67 104
REMARK H PARENT 25 5 13 15 12 20 29 35 91 54 57 65
REMARK Flexibility Score: inf
ROOT
ATOM      1  C   UNL     1       3.605   5.187  -3.755  1.00  0.00     0.117 C 
ENDROOT
BRANCH   1   2
ATOM      2  N   UNL     1       4.637   4.274  -3.273  1.00  0.00    -0.356 N 
ATOM      3  C   UNL     1       4.536   2.951  -2.939  1.00  0.00     0.224 C 
ATOM      4  O   UNL     1       5.530   2.355  -2.533  1.00  0.00    -0.275 OA
ATOM      5  H   UNL     1       5.534   4.666  -3.175  1.00  0.00     0.163 HD
BRANCH   3   6
ATOM      6  C   UNL     1       3.177   2.277  -3.080  1.00  0.00     0.094 C 
ATOM      7  C   UNL     1       3.026   0.957  -2.297  1.00  0.00     0.096 C 
ATOM      8  C   UNL     1       2.434  -0.018  -3.347  1.00  0.00     0.002 C 
ATOM      9  C   UNL     1       3.587  -0.460  -4.272  1.00  0.00     0.005 C 
ATOM     10  C   UNL     1       1.661   0.891  -4.300  1.00  0.00     0.009 C 
ATOM     11  C   UNL     1       2.851   1.826  -4.528  1.00  0.00     0.002 C 
ATOM     12  C   UNL     1       3.903   0.827  -5.054  1.00  0.00     0.005 C 
BRANCH   7  13
ATOM     13  C   UNL     1       2.286   0.943  -0.962  1.00  0.00     0.242 C 
ATOM     14  N   UNL     1       1.252   1.762  -0.616  1.00  0.00    -0.267 N 
ATOM     15  H   UNL     1       1.037   1.794   0.344  1.00  0.00     0.191 HD
ATOM     16  O   UNL     1       2.609   0.092  -0.121  1.00  0.00    -0.273 OA
BRANCH  14  17
ATOM     17  N   UNL     1       0.475   2.546  -1.427  1.00  0.00    -0.264 N 
ATOM     18  C   UNL     1      -0.592   3.320  -1.095  1.00  0.00     0.279 C 
ATOM     19  O   UNL     1      -1.074   3.975  -2.034  1.00  0.00    -0.269 OA
ATOM     20  H   UNL     1       0.722   2.549  -2.379  1.00  0.00     0.191 HD
BRANCH  18  21
ATOM     21  C   UNL     1      -1.268   3.403   0.303  1.00  0.00     0.260 C 
ATOM     22  C   UNL     1      -2.696   2.837   0.244  1.00  0.00     0.064 C 
BRANCH  21  23
ATOM     23  O   UNL     1      -0.640   3.307   1.561  1.00  0.00    -0.481 OA
BRANCH  23  24
ATOM     24  C   UNL     1      -0.247   2.165   2.176  1.00  0.00     0.120 A 
ATOM     25  C   UNL     1       2.333   1.569   4.926  1.00  0.00     0.044 C 
ATOM     26  C   UNL     1       1.292   1.320   3.874  1.00  0.00    -0.047 A 
ATOM     27  C   UNL     1       0.969   0.015   3.498  1.00  0.00     0.003 A 
ATOM     28  C   UNL     1       0.666   2.385   3.216  1.00  0.00     0.049 A 
ATOM     29  C   UNL     1       0.032  -0.214   2.491  1.00  0.00     0.004 A 
ATOM     30  C   UNL     1      -0.578   0.858   1.832  1.00  0.00     0.046 A 
ENDBRANCH  23  24
ENDBRANCH  21  23
ENDBRANCH  18  21
ENDBRANCH  14  17
ENDBRANCH   7  13
ENDBRANCH   3   6
ENDBRANCH   1   2
BRANCH   1  31
ATOM     31  C   UNL     1       2.782   5.792  -2.619  1.00  0.00     0.042 C 
BRANCH  31  32
ATOM     32  C   UNL     1       3.452   7.011  -2.000  1.00  0.00     0.118 C 
BRANCH  32  33
ATOM     33  N   UNL     1       2.913   8.278  -2.471  1.00  0.00    -0.352 N 
ATOM     34  C   UNL     1       3.338   9.561  -2.156  1.00  0.00     0.251 C 
ATOM     35  H   UNL     1       2.150   8.218  -3.091  1.00  0.00     0.163 HD
ATOM     36  O   UNL     1       2.684  10.538  -2.485  1.00  0.00    -0.269 OA
BRANCH  34  37
ATOM     37  C   UNL     1       4.636   9.710  -1.464  1.00  0.00     0.039 A 
ATOM     38  C   UNL     1       5.654  10.416  -2.112  1.00  0.00     0.014 A 
ATOM     39  C   UNL     1       4.900   8.981  -0.308  1.00  0.00     0.014 A 
ATOM     40  C   UNL     1       6.979  10.234  -1.715  1.00  0.00     0.010 A 
ATOM     41  C   UNL     1       6.216   8.741   0.036  1.00  0.00     0.010 A 
ATOM     42  C   UNL     1       7.261   9.325  -0.699  1.00  0.00    -0.014 A 
BRANCH  42  43
ATOM     43  C   UNL     1       8.595   8.819  -0.380  1.00  0.00     0.031 A 
ATOM     44  C   UNL     1       9.206   9.095   0.942  1.00  0.00     0.074 A 
ATOM     45  C   UNL     1       9.181   7.919  -1.202  1.00  0.00     0.049 A 
ATOM     46  N   UNL     1      10.380   8.691   1.294  1.00  0.00    -0.248 NA
ATOM     47  C   UNL     1       8.566   9.929   1.958  1.00  0.00     0.031 C 
ATOM     48  C   UNL     1      10.191   6.926  -0.844  1.00  0.00     0.029 A 
ATOM     49  N   UNL     1       9.144   7.883  -2.598  1.00  0.00    -0.354 N 
ATOM     50  C   UNL     1      10.526   8.934   2.636  1.00  0.00     0.074 A 
ATOM     51  C   UNL     1       9.440   9.822   2.966  1.00  0.00     0.031 C 
ATOM     52  C   UNL     1      10.846   6.547  -1.948  1.00  0.00     0.029 A 
ATOM     53  C   UNL     1      10.404   7.407  -3.028  1.00  0.00     0.049 A 
ATOM     54  H   UNL     1       8.387   8.140  -3.172  1.00  0.00     0.167 HD
ATOM     55  C   UNL     1      11.485   8.250   3.323  1.00  0.00     0.037 A 
ATOM     56  C   UNL     1      11.234   8.193  -3.780  1.00  0.00     0.037 A 
ATOM     57  C   UNL     1      12.472   7.670   2.407  1.00  0.00     0.049 A 
ATOM     58  C   UNL     1      12.552   8.554  -3.122  1.00  0.00     0.074 A 
ATOM     59  C   UNL     1      12.823   6.402   1.981  1.00  0.00     0.029 A 
ATOM     60  N   UNL     1      13.176   8.546   1.599  1.00  0.00    -0.354 N 
ATOM     61  N   UNL     1      12.939   8.130  -1.950  1.00  0.00    -0.248 NA
ATOM     62  C   UNL     1      13.507   9.496  -3.710  1.00  0.00     0.031 C 
ATOM     63  C   UNL     1      13.710   6.540   0.866  1.00  0.00     0.029 A 
ATOM     64  C   UNL     1      13.914   7.889   0.638  1.00  0.00     0.049 A 
ATOM     65  H   UNL     1      13.153   9.525   1.699  1.00  0.00     0.167 HD
ATOM     66  C   UNL     1      14.079   8.794  -1.582  1.00  0.00     0.074 A 
ATOM     67  C   UNL     1      14.423   9.607  -2.732  1.00  0.00     0.031 C 
ATOM     68  C   UNL     1      14.631   8.694  -0.339  1.00  0.00     0.037 A 
BRANCH  55  69
ATOM     69  C   UNL     1      11.489   8.005   4.822  1.00  0.00     0.058 A 
ATOM     70  C   UNL     1      12.548   7.287   5.423  1.00  0.00     0.135 A 
ATOM     71  C   UNL     1      10.430   8.323   5.702  1.00  0.00     0.135 A 
ATOM     72  F   UNL     1      13.619   6.902   4.713  1.00  0.00    -0.206 F 
ATOM     73  C   UNL     1      12.541   6.895   6.768  1.00  0.00     0.059 A 
ATOM     74  C   UNL     1      10.425   7.987   7.057  1.00  0.00     0.059 A 
ATOM     75  F   UNL     1       9.303   8.912   5.292  1.00  0.00    -0.206 F 
ATOM     76  C   UNL     1      11.469   7.245   7.578  1.00  0.00     0.060 A 
BRANCH  76  77
ATOM     77  S   UNL     1      11.418   6.689   9.290  1.00  0.00     0.124 S 
ATOM     78  O   UNL     1      11.172   5.259   9.133  1.00  0.00    -0.237 OA
ATOM     79  O   UNL     1      12.741   7.059   9.781  1.00  0.00    -0.237 OA
ATOM     80  O   UNL     1      10.309   7.451   9.861  1.00  0.00    -0.744 OA
ENDBRANCH  76  77
ENDBRANCH  55  69
BRANCH  56  81
ATOM     81  C   UNL     1      10.479   9.043  -4.740  1.00  0.00     0.058 A 
ATOM     82  C   UNL     1       9.792   8.382  -5.776  1.00  0.00     0.135 A 
ATOM     83  C   UNL     1      10.042  10.324  -4.375  1.00  0.00     0.135 A 
ATOM     84  F   UNL     1      10.188   7.162  -6.175  1.00  0.00    -0.206 F 
ATOM     85  C   UNL     1       8.599   8.878  -6.285  1.00  0.00     0.059 A 
ATOM     86  C   UNL     1       8.855  10.848  -4.885  1.00  0.00     0.059 A 
ATOM     87  F   UNL     1      10.668  11.001  -3.401  1.00  0.00    -0.206 F 
ATOM     88  C   UNL     1       8.103  10.075  -5.771  1.00  0.00     0.060 A 
BRANCH  88  89
ATOM     89  S   UNL     1       6.369  10.469  -6.100  1.00  0.00     0.124 S 
ATOM     90  O   UNL     1       6.335  10.507  -7.557  1.00  0.00    -0.237 OA
ATOM     91  O   UNL     1       5.693   9.331  -5.479  1.00  0.00    -0.237 OA
ATOM     92  O   UNL     1       6.184  11.751  -5.429  1.00  0.00    -0.744 OA
ENDBRANCH  88  89
ENDBRANCH  56  81
BRANCH  68  93
ATOM     93  C   UNL     1      15.883   9.422   0.061  1.00  0.00     0.058 A 
ATOM     94  C   UNL     1      17.064   9.337  -0.693  1.00  0.00     0.135 A 
ATOM     95  C   UNL     1      15.970  10.126   1.281  1.00  0.00     0.135 A 
ATOM     96  F   UNL     1      17.084   8.666  -1.857  1.00  0.00    -0.206 F 
ATOM     97  C   UNL     1      18.257   9.925  -0.271  1.00  0.00     0.059 A 
ATOM     98  C   UNL     1      17.159  10.683   1.744  1.00  0.00     0.059 A 
ATOM     99  F   UNL     1      14.887  10.321   2.049  1.00  0.00    -0.206 F 
ATOM    100  C   UNL     1      18.297  10.591   0.953  1.00  0.00     0.060 A 
BRANCH 100 101
ATOM    101  S   UNL     1      19.847  11.312   1.528  1.00  0.00     0.124 S 
ATOM    102  O   UNL     1      20.846  10.375   1.021  1.00  0.00    -0.237 OA
ATOM    103  O   UNL     1      19.820  12.617   0.876  1.00  0.00    -0.237 OA
ATOM    104  O   UNL     1      19.694  11.328   2.979  1.00  0.00    -0.744 OA
ENDBRANCH 100 101
ENDBRANCH  68  93
ENDBRANCH  42  43
ENDBRANCH  34  37
ENDBRANCH  32  33
ENDBRANCH  31  32
ENDBRANCH   1  31
TORSDOF 18
