REMARK SMILES Cc1cc(C(=O)NCCCNC(=O)c2ccc(-c3c4nc(c(-c5c(F)cc(S(=O)(=O)[O-])cc5F)c5ccc([nH]5)c(-c5c(F)cc(S(=O)(=O)[O-])cc5F)c5nc(c(-c6c(F)cc(S(=O)(=O)[O-])cc6F)c6ccc3[nH]6)C=C5)C=C4)cc2)ccc1NC(=O)N1C[C@@H](C)[C@H](C)C1
REMARK SMILES IDX 10 1 9 2 8 3 7 4 5 5 6 6 4 8 1 9 2 10 3 11 82 12 81 13 80 14
REMARK SMILES IDX 83 15 84 16 85 18 86 19 87 20 92 21 88 22 90 23 89 24 91 25
REMARK SMILES IDX 11 26 12 27 13 29 14 30 15 31 79 32 16 33 78 34 17 35 18 36
REMARK SMILES IDX 19 37 72 38 20 39 77 40 71 41 73 42 21 43 76 44 70 45 69 46
REMARK SMILES IDX 22 48 56 49 35 50 55 51 36 52 39 53 54 54 74 55 37 56 38 57
REMARK SMILES IDX 53 59 75 60 40 61 23 62 24 63 33 64 25 65 26 66 32 67 34 68
REMARK SMILES IDX 27 69 28 70 29 71 30 72 31 73 57 74 58 75 67 76 59 77 60 78
REMARK SMILES IDX 66 79 68 80 61 81 62 82 63 83 64 84 65 85 41 86 42 87 51 88
REMARK SMILES IDX 43 89 44 90 50 91 52 92 45 93 46 94 47 95 48 96 49 97
REMARK H PARENT 7 7 83 17 11 28 73 47 39 58
REMARK Flexibility Score: inf
ROOT
ATOM      1  C   UNL     1      -6.592  -0.450   0.567  1.00  0.00     0.118 C 
ENDROOT
BRANCH   1   2
ATOM      2  C   UNL     1      -5.163   0.106   0.112  1.00  0.00     0.042 C 
BRANCH   2   3
ATOM      3  C   UNL     1      -3.859  -0.459   0.883  1.00  0.00     0.118 C 
BRANCH   3   4
ATOM      4  N   UNL     1      -3.158  -1.682   0.424  1.00  0.00    -0.352 N 
ATOM      5  C   UNL     1      -1.863  -2.029   0.082  1.00  0.00     0.251 C 
ATOM      6  O   UNL     1      -1.448  -3.186   0.079  1.00  0.00    -0.269 OA
ATOM      7  H   UNL     1      -3.774  -2.445   0.340  1.00  0.00     0.163 HD
BRANCH   5   8
ATOM      8  C   UNL     1      -0.937  -0.968  -0.314  1.00  0.00     0.040 A 
ATOM      9  C   UNL     1       2.586   0.223   0.381  1.00  0.00     0.046 C 
ATOM     10  C   UNL     1       1.129   0.249   0.011  1.00  0.00    -0.027 A 
ATOM     11  C   UNL     1       0.395  -0.944   0.114  1.00  0.00     0.019 A 
ATOM     12  C   UNL     1       0.451   1.386  -0.463  1.00  0.00     0.045 A 
ATOM     13  C   UNL     1      -0.738   1.223  -1.184  1.00  0.00     0.027 A 
ATOM     14  C   UNL     1      -1.429   0.034  -1.128  1.00  0.00     0.016 A 
BRANCH  12  15
ATOM     15  N   UNL     1       0.922   2.683  -0.183  1.00  0.00    -0.308 N 
ATOM     16  C   UNL     1       0.241   3.868  -0.247  1.00  0.00     0.321 C 
ATOM     17  H   UNL     1       1.864   2.745   0.095  1.00  0.00     0.171 HD
ATOM     18  O   UNL     1       0.870   4.907  -0.452  1.00  0.00    -0.248 OA
ATOM     19  N   UNL     1      -1.119   3.867  -0.053  1.00  0.00    -0.324 N 
ATOM     20  C   UNL     1      -1.980   4.803  -0.743  1.00  0.00     0.125 C 
ATOM     21  C   UNL     1      -1.793   3.277   1.102  1.00  0.00     0.125 C 
ATOM     22  C   UNL     1      -3.124   5.093   0.222  1.00  0.00     0.010 C 
ATOM     23  C   UNL     1      -3.237   3.797   1.046  1.00  0.00     0.010 C 
ATOM     24  C   UNL     1      -4.414   5.448  -0.506  1.00  0.00     0.010 C 
ATOM     25  C   UNL     1      -3.866   4.022   2.421  1.00  0.00     0.010 C 
ENDBRANCH  12  15
ENDBRANCH   5   8
ENDBRANCH   3   4
ENDBRANCH   2   3
ENDBRANCH   1   2
BRANCH   1  26
ATOM     26  N   UNL     1      -7.953  -0.147  -0.152  1.00  0.00    -0.352 N 
ATOM     27  C   UNL     1      -9.200  -0.885  -0.299  1.00  0.00     0.251 C 
ATOM     28  H   UNL     1      -7.968   0.729  -0.600  1.00  0.00     0.163 HD
ATOM     29  O   UNL     1     -10.127  -0.468   0.416  1.00  0.00    -0.269 OA
BRANCH  27  30
ATOM     30  C   UNL     1      -9.619  -2.055  -1.284  1.00  0.00     0.039 A 
ATOM     31  C   UNL     1     -10.550  -3.063  -0.868  1.00  0.00     0.014 A 
ATOM     32  C   UNL     1      -9.050  -2.327  -2.522  1.00  0.00     0.014 A 
ATOM     33  C   UNL     1     -10.464  -4.428  -1.367  1.00  0.00     0.010 A 
ATOM     34  C   UNL     1      -8.960  -3.674  -3.013  1.00  0.00     0.010 A 
ATOM     35  C   UNL     1      -9.473  -4.774  -2.304  1.00  0.00    -0.014 A 
BRANCH  35  36
ATOM     36  C   UNL     1      -8.753  -6.129  -2.345  1.00  0.00     0.031 A 
ATOM     37  C   UNL     1      -8.985  -7.104  -3.408  1.00  0.00     0.074 A 
ATOM     38  C   UNL     1      -7.708  -6.559  -1.571  1.00  0.00     0.049 A 
ATOM     39  N   UNL     1      -9.187  -8.370  -3.220  1.00  0.00    -0.248 NA
ATOM     40  C   UNL     1      -8.853  -6.708  -4.796  1.00  0.00     0.031 C 
ATOM     41  C   UNL     1      -6.811  -7.730  -1.604  1.00  0.00     0.029 A 
ATOM     42  N   UNL     1      -7.122  -5.904  -0.518  1.00  0.00    -0.354 N 
ATOM     43  C   UNL     1      -8.868  -8.974  -4.419  1.00  0.00     0.074 A 
ATOM     44  C   UNL     1      -8.883  -7.900  -5.396  1.00  0.00     0.031 C 
ATOM     45  C   UNL     1      -6.141  -7.833  -0.430  1.00  0.00     0.029 A 
ATOM     46  C   UNL     1      -6.598  -6.769   0.437  1.00  0.00     0.049 A 
ATOM     47  H   UNL     1      -7.076  -4.924  -0.446  1.00  0.00     0.167 HD
ATOM     48  C   UNL     1      -8.323 -10.231  -4.478  1.00  0.00     0.037 A 
ATOM     49  C   UNL     1      -7.178  -6.800   1.683  1.00  0.00     0.037 A 
ATOM     50  C   UNL     1      -7.883 -10.716  -3.151  1.00  0.00     0.049 A 
ATOM     51  C   UNL     1      -7.995  -8.063   1.809  1.00  0.00     0.074 A 
ATOM     52  C   UNL     1      -6.642 -10.999  -2.590  1.00  0.00     0.029 A 
ATOM     53  N   UNL     1      -8.759 -10.702  -2.077  1.00  0.00    -0.354 N 
ATOM     54  N   UNL     1      -7.829  -9.077   1.010  1.00  0.00    -0.248 NA
ATOM     55  C   UNL     1      -9.093  -8.289   2.748  1.00  0.00     0.031 C 
ATOM     56  C   UNL     1      -6.800 -11.173  -1.181  1.00  0.00     0.029 A 
ATOM     57  C   UNL     1      -8.138 -11.016  -0.879  1.00  0.00     0.049 A 
ATOM     58  H   UNL     1      -9.717 -10.492  -2.157  1.00  0.00     0.167 HD
ATOM     59  C   UNL     1      -8.822  -9.989   1.182  1.00  0.00     0.074 A 
ATOM     60  C   UNL     1      -9.561  -9.482   2.328  1.00  0.00     0.031 C 
ATOM     61  C   UNL     1      -8.950 -11.054   0.336  1.00  0.00     0.037 A 
BRANCH  48  62
ATOM     62  C   UNL     1      -7.911 -10.889  -5.794  1.00  0.00     0.058 A 
ATOM     63  C   UNL     1      -7.003 -11.968  -5.848  1.00  0.00     0.135 A 
ATOM     64  C   UNL     1      -8.440 -10.527  -7.055  1.00  0.00     0.135 A 
ATOM     65  F   UNL     1      -6.536 -12.550  -4.736  1.00  0.00    -0.206 F 
ATOM     66  C   UNL     1      -6.566 -12.543  -7.048  1.00  0.00     0.059 A 
ATOM     67  C   UNL     1      -7.962 -11.025  -8.270  1.00  0.00     0.059 A 
ATOM     68  F   UNL     1      -9.515  -9.731  -7.159  1.00  0.00    -0.206 F 
ATOM     69  C   UNL     1      -7.026 -12.044  -8.258  1.00  0.00     0.060 A 
BRANCH  69  70
ATOM     70  S   UNL     1      -6.479 -12.809  -9.796  1.00  0.00     0.124 S 
ATOM     71  O   UNL     1      -5.027 -12.706  -9.698  1.00  0.00    -0.237 OA
ATOM     72  O   UNL     1      -7.030 -14.155  -9.675  1.00  0.00    -0.237 OA
ATOM     73  O   UNL     1      -7.091 -11.977 -10.829  1.00  0.00    -0.744 OA
ENDBRANCH  69  70
ENDBRANCH  48  62
BRANCH  49  74
ATOM     74  C   UNL     1      -7.536  -5.413   2.286  1.00  0.00     0.058 A 
ATOM     75  C   UNL     1      -6.401  -4.609   2.528  1.00  0.00     0.135 A 
ATOM     76  C   UNL     1      -8.508  -4.750   1.560  1.00  0.00     0.135 A 
ATOM     77  F   UNL     1      -5.682  -4.800   3.641  1.00  0.00    -0.206 F 
ATOM     78  C   UNL     1      -5.926  -3.696   1.576  1.00  0.00     0.059 A 
ATOM     79  C   UNL     1      -8.038  -3.857   0.588  1.00  0.00     0.059 A 
ATOM     80  F   UNL     1      -9.718  -5.313   1.396  1.00  0.00    -0.206 F 
ATOM     81  C   UNL     1      -6.710  -3.493   0.460  1.00  0.00     0.060 A 
BRANCH  81  82
ATOM     82  S   UNL     1      -5.930  -3.087  -1.278  1.00  0.00     0.124 S 
ATOM     83  O   UNL     1      -4.542  -3.038  -0.928  1.00  0.00    -0.237 OA
ATOM     84  O   UNL     1      -6.239  -4.229  -2.131  1.00  0.00    -0.237 OA
ATOM     85  O   UNL     1      -6.495  -1.830  -1.729  1.00  0.00    -0.744 OA
ENDBRANCH  81  82
ENDBRANCH  49  74
BRANCH  61  86
ATOM     86  C   UNL     1      -9.886 -12.213   0.553  1.00  0.00     0.058 A 
ATOM     87  C   UNL     1     -10.221 -12.688   1.831  1.00  0.00     0.135 A 
ATOM     88  C   UNL     1     -10.370 -12.986  -0.529  1.00  0.00     0.135 A 
ATOM     89  F   UNL     1      -9.694 -12.142   2.937  1.00  0.00    -0.206 F 
ATOM     90  C   UNL     1     -11.076 -13.774   2.018  1.00  0.00     0.059 A 
ATOM     91  C   UNL     1     -11.187 -14.095  -0.366  1.00  0.00     0.059 A 
ATOM     92  F   UNL     1     -10.077 -12.704  -1.804  1.00  0.00    -0.206 F 
ATOM     93  C   UNL     1     -11.568 -14.460   0.911  1.00  0.00     0.060 A 
BRANCH  93  94
ATOM     94  S   UNL     1     -12.689 -15.843   1.149  1.00  0.00     0.124 S 
ATOM     95  O   UNL     1     -12.046 -16.583   2.231  1.00  0.00    -0.237 OA
ATOM     96  O   UNL     1     -13.926 -15.154   1.502  1.00  0.00    -0.237 OA
ATOM     97  O   UNL     1     -12.690 -16.512  -0.147  1.00  0.00    -0.744 OA
ENDBRANCH  93  94
ENDBRANCH  61  86
ENDBRANCH  35  36
ENDBRANCH  27  30
ENDBRANCH   1  26
TORSDOF 14
