REMARK SMILES O=C(Cc1ccccc1)Nc1cccc(C(=O)Nc2ccccc2C(=O)NCCCNC(=O)c2ccc(-c3c4nc(c(-c5c(F)cc(S(=O)(=O)[O-])cc5F)c5ccc([nH]5)c(-c5c(F)cc(S(=O)(=O)[O-])cc5F)c5nc(c(-c6c(F)cc(S(=O)(=O)[O-])cc6F)c6ccc3[nH]6)C=C5)C=C4)cc2)c1
REMARK SMILES IDX 28 1 27 2 25 3 26 4 24 6 19 7 20 8 21 9 23 10 22 11 18 12
REMARK SMILES IDX 16 13 17 14 15 16 11 17 12 18 100 19 13 20 14 21 10 22 1 23
REMARK SMILES IDX 2 24 3 26 4 27 5 28 9 29 6 30 8 31 7 32 29 33 30 34 31 35
REMARK SMILES IDX 32 36 33 38 34 39 35 40 99 41 36 42 98 43 37 44 38 45 39 46
REMARK SMILES IDX 92 47 40 48 97 49 91 50 93 51 41 52 96 53 90 54 89 55 42 57
REMARK SMILES IDX 76 58 55 59 75 60 56 61 59 62 74 63 94 64 57 65 58 66 73 68
REMARK SMILES IDX 95 69 60 70 43 71 44 72 53 73 45 74 46 75 52 76 54 77 47 78
REMARK SMILES IDX 48 79 49 80 50 81 51 82 77 83 78 84 87 85 79 86 80 87 86 88
REMARK SMILES IDX 88 89 81 90 82 91 83 92 84 93 85 94 61 95 62 96 71 97 63 98
REMARK SMILES IDX 64 99 70 100 72 101 65 102 66 103 67 104 68 105 69 106
REMARK H PARENT 27 5 18 15 10 25 31 37 93 56 59 67
REMARK Flexibility Score: inf
ROOT
ATOM      1  C   UNL     1      -0.094   3.198   4.620  1.00  0.00     0.118 C 
ENDROOT
BRANCH   1   2
ATOM      2  N   UNL     1       1.209   2.891   4.069  1.00  0.00    -0.352 N 
ATOM      3  C   UNL     1       1.610   1.832   3.302  1.00  0.00     0.253 C 
ATOM      4  O   UNL     1       2.800   1.773   2.982  1.00  0.00    -0.269 OA
ATOM      5  H   UNL     1       1.915   3.544   4.278  1.00  0.00     0.163 HD
BRANCH   3   6
ATOM      6  C   UNL     1       0.699   0.710   2.941  1.00  0.00     0.063 A 
ATOM      7  C   UNL     1      -0.660   0.761   2.562  1.00  0.00     0.054 A 
ATOM      8  C   UNL     1      -1.362  -0.458   2.469  1.00  0.00     0.027 A 
ATOM      9  C   UNL     1      -0.721  -1.692   2.607  1.00  0.00     0.002 A 
ATOM     10  C   UNL     1       1.334  -0.550   3.058  1.00  0.00     0.016 A 
ATOM     11  C   UNL     1       0.637  -1.740   2.874  1.00  0.00     0.001 A 
BRANCH   7  12
ATOM     12  N   UNL     1      -1.453   1.883   2.199  1.00  0.00    -0.321 N 
ATOM     13  C   UNL     1      -1.180   3.075   1.553  1.00  0.00     0.255 C 
ATOM     14  O   UNL     1      -2.037   3.954   1.511  1.00  0.00    -0.269 OA
ATOM     15  H   UNL     1      -2.397   1.793   2.464  1.00  0.00     0.170 HD
BRANCH  13  16
ATOM     16  C   UNL     1       0.109   3.303   0.879  1.00  0.00     0.042 A 
ATOM     17  C   UNL     1       2.075   2.318  -0.063  1.00  0.00     0.041 A 
ATOM     18  C   UNL     1       2.749   3.535   0.102  1.00  0.00     0.026 A 
ATOM     19  C   UNL     1       0.721   2.245   0.218  1.00  0.00     0.040 A 
ATOM     20  C   UNL     1       2.071   4.661   0.579  1.00  0.00     0.003 A 
ATOM     21  C   UNL     1       0.748   4.540   0.995  1.00  0.00     0.014 A 
BRANCH  17  22
ATOM     22  N   UNL     1       2.826   1.167  -0.342  1.00  0.00    -0.326 N 
ATOM     23  O   UNL     1       1.174  -0.386  -0.915  1.00  0.00    -0.274 OA
ATOM     24  C   UNL     1       2.341  -0.090  -0.669  1.00  0.00     0.228 C 
ATOM     25  H   UNL     1       3.805   1.262  -0.302  1.00  0.00     0.169 HD
BRANCH  24  26
ATOM     26  C   UNL     1       3.432  -1.138  -0.726  1.00  0.00     0.135 C 
BRANCH  26  27
ATOM     27  C   UNL     1       4.311  -1.089  -1.957  1.00  0.00    -0.039 A 
ATOM     28  C   UNL     1       5.002  -2.251  -2.328  1.00  0.00     0.004 A 
ATOM     29  C   UNL     1       4.526   0.080  -2.705  1.00  0.00     0.004 A 
ATOM     30  C   UNL     1       5.881  -2.241  -3.412  1.00  0.00     0.000 A 
ATOM     31  C   UNL     1       5.416   0.093  -3.777  1.00  0.00     0.000 A 
ATOM     32  C   UNL     1       6.094  -1.067  -4.131  1.00  0.00     0.000 A 
ENDBRANCH  26  27
ENDBRANCH  24  26
ENDBRANCH  17  22
ENDBRANCH  13  16
ENDBRANCH   7  12
ENDBRANCH   3   6
ENDBRANCH   1   2
BRANCH   1  33
ATOM     33  C   UNL     1      -0.037   3.993   5.908  1.00  0.00     0.042 C 
BRANCH  33  34
ATOM     34  C   UNL     1       0.658   5.341   5.780  1.00  0.00     0.118 C 
BRANCH  34  35
ATOM     35  N   UNL     1       0.045   6.256   4.823  1.00  0.00    -0.352 N 
ATOM     36  C   UNL     1      -0.649   7.436   4.995  1.00  0.00     0.251 C 
ATOM     37  H   UNL     1       0.144   5.981   3.883  1.00  0.00     0.163 HD
ATOM     38  O   UNL     1      -1.115   8.014   4.028  1.00  0.00    -0.269 OA
BRANCH  36  39
ATOM     39  C   UNL     1      -0.873   7.971   6.358  1.00  0.00     0.039 A 
ATOM     40  C   UNL     1      -2.138   8.459   6.698  1.00  0.00     0.014 A 
ATOM     41  C   UNL     1       0.140   7.951   7.310  1.00  0.00     0.014 A 
ATOM     42  C   UNL     1      -2.410   8.806   8.025  1.00  0.00     0.010 A 
ATOM     43  C   UNL     1      -0.171   8.151   8.647  1.00  0.00     0.010 A 
ATOM     44  C   UNL     1      -1.448   8.588   9.024  1.00  0.00    -0.014 A 
BRANCH  44  45
ATOM     45  C   UNL     1      -1.737   8.818  10.466  1.00  0.00     0.031 A 
ATOM     46  C   UNL     1      -0.860   9.748  11.266  1.00  0.00     0.074 A 
ATOM     47  C   UNL     1      -2.715   8.118  11.076  1.00  0.00     0.049 A 
ATOM     48  N   UNL     1      -0.854   9.976  12.554  1.00  0.00    -0.248 NA
ATOM     49  C   UNL     1       0.185  10.478  10.528  1.00  0.00     0.031 C 
ATOM     50  C   UNL     1      -3.580   7.123  10.435  1.00  0.00     0.029 A 
ATOM     51  N   UNL     1      -3.141   8.127  12.381  1.00  0.00    -0.354 N 
ATOM     52  C   UNL     1       0.215  10.836  12.780  1.00  0.00     0.074 A 
ATOM     53  C   UNL     1       0.876  11.034  11.510  1.00  0.00     0.031 C 
ATOM     54  C   UNL     1      -4.458   6.653  11.335  1.00  0.00     0.029 A 
ATOM     55  C   UNL     1      -4.196   7.279  12.626  1.00  0.00     0.049 A 
ATOM     56  H   UNL     1      -2.731   8.690  13.077  1.00  0.00     0.167 HD
ATOM     57  C   UNL     1       0.592  11.440  13.933  1.00  0.00     0.037 A 
ATOM     58  C   UNL     1      -4.876   7.036  13.763  1.00  0.00     0.037 A 
ATOM     59  C   UNL     1      -0.115  11.298  15.177  1.00  0.00     0.049 A 
ATOM     60  C   UNL     1      -4.489   7.776  15.014  1.00  0.00     0.074 A 
ATOM     61  C   UNL     1       0.131  11.924  16.385  1.00  0.00     0.029 A 
ATOM     62  N   UNL     1      -1.224  10.485  15.365  1.00  0.00    -0.354 N 
ATOM     63  N   UNL     1      -3.509   8.629  15.197  1.00  0.00    -0.248 NA
ATOM     64  C   UNL     1      -5.306   7.531  16.210  1.00  0.00     0.031 C 
ATOM     65  C   UNL     1      -0.817  11.474  17.311  1.00  0.00     0.029 A 
ATOM     66  C   UNL     1      -1.674  10.594  16.669  1.00  0.00     0.049 A 
ATOM     67  H   UNL     1      -1.630   9.915  14.672  1.00  0.00     0.167 HD
ATOM     68  C   UNL     1      -3.607   9.042  16.520  1.00  0.00     0.074 A 
ATOM     69  C   UNL     1      -4.750   8.356  17.087  1.00  0.00     0.031 C 
ATOM     70  C   UNL     1      -2.823   9.910  17.206  1.00  0.00     0.037 A 
BRANCH  57  71
ATOM     71  C   UNL     1       1.805  12.328  13.886  1.00  0.00     0.058 A 
ATOM     72  C   UNL     1       1.794  13.553  13.199  1.00  0.00     0.135 A 
ATOM     73  C   UNL     1       2.992  11.956  14.537  1.00  0.00     0.135 A 
ATOM     74  F   UNL     1       0.692  13.951  12.543  1.00  0.00    -0.206 F 
ATOM     75  C   UNL     1       2.926  14.357  13.124  1.00  0.00     0.059 A 
ATOM     76  C   UNL     1       4.128  12.760  14.502  1.00  0.00     0.059 A 
ATOM     77  F   UNL     1       3.060  10.795  15.209  1.00  0.00    -0.206 F 
ATOM     78  C   UNL     1       4.091  13.950  13.776  1.00  0.00     0.060 A 
BRANCH  78  79
ATOM     79  S   UNL     1       5.554  15.000  13.665  1.00  0.00     0.124 S 
ATOM     80  O   UNL     1       6.009  14.722  12.306  1.00  0.00    -0.237 OA
ATOM     81  O   UNL     1       5.002  16.333  13.886  1.00  0.00    -0.237 OA
ATOM     82  O   UNL     1       6.415  14.497  14.730  1.00  0.00    -0.744 OA
ENDBRANCH  78  79
ENDBRANCH  57  71
BRANCH  58  83
ATOM     83  C   UNL     1      -6.025   6.091  13.759  1.00  0.00     0.058 A 
ATOM     84  C   UNL     1      -7.342   6.564  13.860  1.00  0.00     0.135 A 
ATOM     85  C   UNL     1      -5.836   4.706  13.639  1.00  0.00     0.135 A 
ATOM     86  F   UNL     1      -7.573   7.880  13.980  1.00  0.00    -0.206 F 
ATOM     87  C   UNL     1      -8.431   5.698  13.863  1.00  0.00     0.059 A 
ATOM     88  C   UNL     1      -6.911   3.821  13.617  1.00  0.00     0.059 A 
ATOM     89  F   UNL     1      -4.597   4.204  13.519  1.00  0.00    -0.206 F 
ATOM     90  C   UNL     1      -8.204   4.327  13.741  1.00  0.00     0.060 A 
BRANCH  90  91
ATOM     91  S   UNL     1      -9.627   3.213  13.699  1.00  0.00     0.124 S 
ATOM     92  O   UNL     1     -10.029   3.199  15.101  1.00  0.00    -0.237 OA
ATOM     93  O   UNL     1     -10.531   3.902  12.783  1.00  0.00    -0.237 OA
ATOM     94  O   UNL     1      -9.061   1.968  13.190  1.00  0.00    -0.744 OA
ENDBRANCH  90  91
ENDBRANCH  58  83
BRANCH  70  95
ATOM     95  C   UNL     1      -3.199  10.195  18.632  1.00  0.00     0.058 A 
ATOM     96  C   UNL     1      -2.977   9.258  19.652  1.00  0.00     0.135 A 
ATOM     97  C   UNL     1      -3.753  11.436  18.984  1.00  0.00     0.135 A 
ATOM     98  F   UNL     1      -2.454   8.056  19.365  1.00  0.00    -0.206 F 
ATOM     99  C   UNL     1      -3.319   9.532  20.972  1.00  0.00     0.059 A 
ATOM    100  C   UNL     1      -4.078  11.740  20.301  1.00  0.00     0.059 A 
ATOM    101  F   UNL     1      -3.972  12.370  18.045  1.00  0.00    -0.206 F 
ATOM    102  C   UNL     1      -3.871  10.775  21.286  1.00  0.00     0.060 A 
BRANCH 102 103
ATOM    103  S   UNL     1      -4.293  11.129  23.005  1.00  0.00     0.124 S 
ATOM    104  O   UNL     1      -5.533  10.377  23.163  1.00  0.00    -0.237 OA
ATOM    105  O   UNL     1      -3.137  10.603  23.727  1.00  0.00    -0.237 OA
ATOM    106  O   UNL     1      -4.429  12.582  23.029  1.00  0.00    -0.744 OA
ENDBRANCH 102 103
ENDBRANCH  70  95
ENDBRANCH  44  45
ENDBRANCH  36  39
ENDBRANCH  34  35
ENDBRANCH  33  34
ENDBRANCH   1  33
TORSDOF 18
