REMARK SMILES COc1ccc(OCc2nc(N)cc(SCC(=O)NCCCNC(=O)c3ccc(-c4c5nc(c(-c6c(F)cc(S(=O)(=O)[O-])cc6F)c6ccc([nH]6)c(-c6c(F)cc(S(=O)(=O)[O-])cc6F)c6nc(c(-c7c(F)cc(S(=O)(=O)[O-])cc7F)c7ccc4[nH]7)C=C6)C=C5)cc3)n2)cc1
REMARK SMILES IDX 17 1 18 2 19 3 16 5 15 6 14 7 9 8 10 9 92 10 11 11 13 12
REMARK SMILES IDX 8 13 7 14 6 15 3 16 4 17 94 18 5 19 93 20 2 21 1 22 12 23
REMARK SMILES IDX 20 26 21 27 22 28 23 29 24 30 25 32 26 33 27 34 91 35 28 36
REMARK SMILES IDX 90 37 29 38 30 39 31 40 84 41 32 42 89 43 83 44 85 45 33 46
REMARK SMILES IDX 88 47 82 48 81 49 34 51 68 52 47 53 67 54 48 55 51 56 66 57
REMARK SMILES IDX 86 58 49 59 50 60 65 62 87 63 52 64 35 65 36 66 45 67 37 68
REMARK SMILES IDX 38 69 44 70 46 71 39 72 40 73 41 74 42 75 43 76 69 77 70 78
REMARK SMILES IDX 79 79 71 80 72 81 78 82 80 83 73 84 74 85 75 86 76 87 77 88
REMARK SMILES IDX 53 89 54 90 63 91 55 92 56 93 62 94 64 95 57 96 58 97 59 98
REMARK SMILES IDX 60 99 61 100
REMARK H PARENT 19 4 12 24 12 25 23 31 85 50 51 61
REMARK Flexibility Score: inf
ROOT
ATOM      1  C   UNL     1       6.650  -3.918   6.179  1.00  0.00     0.230 C 
ATOM      2  O   UNL     1       5.746  -4.633   6.622  1.00  0.00    -0.274 OA
ATOM      3  N   UNL     1       7.715  -3.662   6.987  1.00  0.00    -0.355 N 
ATOM      4  H   UNL     1       7.686  -4.096   7.869  1.00  0.00     0.163 HD
ENDROOT
BRANCH   1   5
ATOM      5  C   UNL     1       6.604  -3.407   4.753  1.00  0.00     0.176 C 
BRANCH   5   6
ATOM      6  S   UNL     1       6.377  -1.613   4.616  1.00  0.00    -0.096 SA
BRANCH   6   7
ATOM      7  C   UNL     1       4.864  -1.267   5.484  1.00  0.00     0.102 A 
ATOM      8  C   UNL     1       3.560   0.425   6.337  1.00  0.00     0.169 A 
ATOM      9  N   UNL     1       2.601  -0.424   6.742  1.00  0.00    -0.213 NA
ATOM     10  N   UNL     1       4.709   0.042   5.750  1.00  0.00    -0.223 NA
ATOM     11  C   UNL     1       2.790  -1.718   6.476  1.00  0.00     0.128 A 
ATOM     12  C   UNL     1       3.897  -2.188   5.807  1.00  0.00     0.082 A 
BRANCH   8  13
ATOM     13  C   UNL     1       3.301   1.918   6.432  1.00  0.00     0.306 C 
BRANCH  13  14
ATOM     14  O   UNL     1       2.033   2.346   5.905  1.00  0.00    -0.486 OA
BRANCH  14  15
ATOM     15  C   UNL     1       1.751   2.090   4.592  1.00  0.00     0.120 A 
ATOM     16  C   UNL     1       0.872   1.492   1.992  1.00  0.00     0.119 A 
ATOM     17  C   UNL     1      -0.030   1.948   2.951  1.00  0.00     0.050 A 
ATOM     18  C   UNL     1       2.225   1.394   2.317  1.00  0.00     0.050 A 
ATOM     19  C   UNL     1       0.406   2.236   4.247  1.00  0.00     0.050 A 
ATOM     20  C   UNL     1       2.664   1.705   3.611  1.00  0.00     0.050 A 
BRANCH  16  21
ATOM     21  O   UNL     1       0.344   1.216   0.761  1.00  0.00    -0.497 OA
ATOM     22  C   UNL     1       0.971   0.138   0.074  1.00  0.00     0.278 C 
ENDBRANCH  16  21
ENDBRANCH  14  15
ENDBRANCH  13  14
ENDBRANCH   8  13
BRANCH  11  23
ATOM     23  N   UNL     1       1.767  -2.576   6.836  1.00  0.00    -0.384 N 
ATOM     24  H   UNL     1       0.979  -2.229   7.314  1.00  0.00     0.158 HD
ATOM     25  H   UNL     1       1.826  -3.533   6.613  1.00  0.00     0.158 HD
ENDBRANCH  11  23
ENDBRANCH   6   7
ENDBRANCH   5   6
ENDBRANCH   1   5
BRANCH   3  26
ATOM     26  C   UNL     1       8.888  -2.841   6.740  1.00  0.00     0.117 C 
BRANCH  26  27
ATOM     27  C   UNL     1       8.852  -1.531   7.523  1.00  0.00     0.042 C 
BRANCH  27  28
ATOM     28  C   UNL     1       8.828  -1.694   9.042  1.00  0.00     0.118 C 
BRANCH  28  29
ATOM     29  N   UNL     1      10.003  -2.380   9.557  1.00  0.00    -0.352 N 
ATOM     30  C   UNL     1      10.886  -2.021  10.544  1.00  0.00     0.251 C 
ATOM     31  H   UNL     1      10.197  -3.243   9.127  1.00  0.00     0.163 HD
ATOM     32  O   UNL     1      11.905  -2.696  10.694  1.00  0.00    -0.269 OA
BRANCH  30  33
ATOM     33  C   UNL     1      10.649  -0.844  11.412  1.00  0.00     0.039 A 
ATOM     34  C   UNL     1      11.749  -0.068  11.791  1.00  0.00     0.014 A 
ATOM     35  C   UNL     1       9.379  -0.528  11.905  1.00  0.00     0.014 A 
ATOM     36  C   UNL     1      11.571   1.043  12.619  1.00  0.00     0.010 A 
ATOM     37  C   UNL     1       9.192   0.624  12.673  1.00  0.00     0.010 A 
ATOM     38  C   UNL     1      10.287   1.415  13.048  1.00  0.00    -0.014 A 
BRANCH  38  39
ATOM     39  C   UNL     1      10.091   2.634  13.876  1.00  0.00     0.031 A 
ATOM     40  C   UNL     1       9.580   2.536  15.288  1.00  0.00     0.074 A 
ATOM     41  C   UNL     1      10.334   3.845  13.337  1.00  0.00     0.049 A 
ATOM     42  N   UNL     1       9.378   3.491  16.161  1.00  0.00    -0.248 NA
ATOM     43  C   UNL     1       9.223   1.196  15.774  1.00  0.00     0.031 C 
ATOM     44  C   UNL     1      10.755   4.082  11.954  1.00  0.00     0.029 A 
ATOM     45  N   UNL     1      10.257   5.102  13.881  1.00  0.00    -0.354 N 
ATOM     46  C   UNL     1       8.858   2.872  17.291  1.00  0.00     0.074 A 
ATOM     47  C   UNL     1       8.727   1.465  16.973  1.00  0.00     0.031 C 
ATOM     48  C   UNL     1      10.922   5.400  11.766  1.00  0.00     0.029 A 
ATOM     49  C   UNL     1      10.601   6.104  13.005  1.00  0.00     0.049 A 
ATOM     50  H   UNL     1       9.982   5.271  14.811  1.00  0.00     0.167 HD
ATOM     51  C   UNL     1       8.540   3.418  18.490  1.00  0.00     0.037 A 
ATOM     52  C   UNL     1      10.661   7.439  13.177  1.00  0.00     0.037 A 
ATOM     53  C   UNL     1       8.691   4.814  18.808  1.00  0.00     0.049 A 
ATOM     54  C   UNL     1      10.361   8.021  14.529  1.00  0.00     0.074 A 
ATOM     55  C   UNL     1       8.473   5.453  20.016  1.00  0.00     0.029 A 
ATOM     56  N   UNL     1       9.091   5.793  17.908  1.00  0.00    -0.354 N 
ATOM     57  N   UNL     1       9.967   7.407  15.619  1.00  0.00    -0.248 NA
ATOM     58  C   UNL     1      10.534   9.472  14.682  1.00  0.00     0.031 C 
ATOM     59  C   UNL     1       8.703   6.822  19.837  1.00  0.00     0.029 A 
ATOM     60  C   UNL     1       9.107   7.032  18.528  1.00  0.00     0.049 A 
ATOM     61  H   UNL     1       9.328   5.630  16.966  1.00  0.00     0.167 HD
ATOM     62  C   UNL     1       9.862   8.393  16.594  1.00  0.00     0.074 A 
ATOM     63  C   UNL     1      10.246   9.641  15.966  1.00  0.00     0.031 C 
ATOM     64  C   UNL     1       9.486   8.271  17.892  1.00  0.00     0.037 A 
BRANCH  51  65
ATOM     65  C   UNL     1       7.989   2.493  19.543  1.00  0.00     0.058 A 
ATOM     66  C   UNL     1       8.788   1.512  20.155  1.00  0.00     0.135 A 
ATOM     67  C   UNL     1       6.645   2.580  19.939  1.00  0.00     0.135 A 
ATOM     68  F   UNL     1      10.078   1.377  19.809  1.00  0.00    -0.206 F 
ATOM     69  C   UNL     1       8.260   0.615  21.079  1.00  0.00     0.059 A 
ATOM     70  C   UNL     1       6.103   1.712  20.883  1.00  0.00     0.059 A 
ATOM     71  F   UNL     1       5.838   3.503  19.394  1.00  0.00    -0.206 F 
ATOM     72  C   UNL     1       6.913   0.716  21.427  1.00  0.00     0.060 A 
BRANCH  72  73
ATOM     73  S   UNL     1       6.227  -0.482  22.591  1.00  0.00     0.124 S 
ATOM     74  O   UNL     1       6.085  -1.661  21.742  1.00  0.00    -0.237 OA
ATOM     75  O   UNL     1       7.268  -0.562  23.613  1.00  0.00    -0.237 OA
ATOM     76  O   UNL     1       4.979   0.137  23.021  1.00  0.00    -0.744 OA
ENDBRANCH  72  73
ENDBRANCH  51  65
BRANCH  52  77
ATOM     77  C   UNL     1      11.076   8.295  12.036  1.00  0.00     0.058 A 
ATOM     78  C   UNL     1      12.363   8.847  11.979  1.00  0.00     0.135 A 
ATOM     79  C   UNL     1      10.223   8.504  10.942  1.00  0.00     0.135 A 
ATOM     80  F   UNL     1      13.212   8.677  13.005  1.00  0.00    -0.206 F 
ATOM     81  C   UNL     1      12.796   9.569  10.872  1.00  0.00     0.059 A 
ATOM     82  C   UNL     1      10.640   9.205   9.815  1.00  0.00     0.059 A 
ATOM     83  F   UNL     1       8.987   7.979  10.943  1.00  0.00    -0.206 F 
ATOM     84  C   UNL     1      11.930   9.732   9.789  1.00  0.00     0.060 A 
BRANCH  84  85
ATOM     85  S   UNL     1      12.541  10.574   8.312  1.00  0.00     0.124 S 
ATOM     86  O   UNL     1      12.543  11.966   8.746  1.00  0.00    -0.237 OA
ATOM     87  O   UNL     1      13.852   9.960   8.128  1.00  0.00    -0.237 OA
ATOM     88  O   UNL     1      11.550  10.230   7.297  1.00  0.00    -0.744 OA
ENDBRANCH  84  85
ENDBRANCH  52  77
BRANCH  64  89
ATOM     89  C   UNL     1       9.490   9.518  18.732  1.00  0.00     0.058 A 
ATOM     90  C   UNL     1       8.509  10.510  18.584  1.00  0.00     0.135 A 
ATOM     91  C   UNL     1      10.461   9.699  19.730  1.00  0.00     0.135 A 
ATOM     92  F   UNL     1       7.561  10.388  17.641  1.00  0.00    -0.206 F 
ATOM     93  C   UNL     1       8.504  11.652  19.380  1.00  0.00     0.059 A 
ATOM     94  C   UNL     1      10.461  10.821  20.553  1.00  0.00     0.059 A 
ATOM     95  F   UNL     1      11.416   8.775  19.920  1.00  0.00    -0.206 F 
ATOM     96  C   UNL     1       9.486  11.798  20.362  1.00  0.00     0.060 A 
BRANCH  96  97
ATOM     97  S   UNL     1       9.454  13.270  21.408  1.00  0.00     0.124 S 
ATOM     98  O   UNL     1       9.983  14.284  20.503  1.00  0.00    -0.237 OA
ATOM     99  O   UNL     1       8.038  13.391  21.739  1.00  0.00    -0.237 OA
ATOM    100  O   UNL     1      10.323  12.910  22.525  1.00  0.00    -0.744 OA
ENDBRANCH  96  97
ENDBRANCH  64  89
ENDBRANCH  38  39
ENDBRANCH  30  33
ENDBRANCH  28  29
ENDBRANCH  27  28
ENDBRANCH  26  27
ENDBRANCH   3  26
TORSDOF 20
