REMARK SMILES CC(C)(Br)[C@H](Br)C(=O)NCCCNC(=O)c1ccc(-c2c3nc(c(-c4c(F)cc(S(=O)(=O)[O-])cc4F)c4ccc([nH]4)c(-c4c(F)cc(S(=O)(=O)[O-])cc4F)c4nc(c(-c5c(F)cc(S(=O)(=O)[O-])cc5F)c5ccc2[nH]5)C=C4)C=C3)cc1
REMARK SMILES IDX 12 1 11 2 10 3 9 4 7 5 8 6 5 8 6 9 2 10 1 11 3 12 4 13 13 14
REMARK SMILES IDX 14 15 15 17 16 18 17 19 81 20 18 21 80 22 19 23 20 24 21 25
REMARK SMILES IDX 74 26 22 27 79 28 73 29 75 30 23 31 78 32 72 33 71 34 24 36
REMARK SMILES IDX 58 37 37 38 57 39 38 40 41 41 56 42 76 43 39 44 40 45 55 47
REMARK SMILES IDX 77 48 42 49 25 50 26 51 35 52 27 53 28 54 34 55 36 56 29 57
REMARK SMILES IDX 30 58 31 59 32 60 33 61 59 62 60 63 69 64 61 65 62 66 68 67
REMARK SMILES IDX 70 68 63 69 64 70 65 71 66 72 67 73 43 74 44 75 53 76 45 77
REMARK SMILES IDX 46 78 52 79 54 80 47 81 48 82 49 83 50 84 51 85
REMARK H PARENT 9 7 13 16 75 35 41 46
REMARK Flexibility Score: inf
ROOT
ATOM      1  C   UNL     1       4.564   0.501  -1.195  1.00  0.00     0.118 C 
ENDROOT
BRANCH   1   2
ATOM      2  C   UNL     1       3.054   0.493  -1.004  1.00  0.00     0.042 C 
BRANCH   2   3
ATOM      3  C   UNL     1       2.479  -0.880  -0.700  1.00  0.00     0.117 C 
BRANCH   3   4
ATOM      4  N   UNL     1       2.931  -1.418   0.570  1.00  0.00    -0.355 N 
ATOM      5  C   UNL     1       2.264  -1.954   1.625  1.00  0.00     0.235 C 
ATOM      6  O   UNL     1       2.967  -2.316   2.577  1.00  0.00    -0.274 OA
ATOM      7  H   UNL     1       3.908  -1.390   0.690  1.00  0.00     0.163 HD
BRANCH   5   8
ATOM      8  C   UNL     1       0.751  -2.150   1.690  1.00  0.00     0.162 C 
ATOM      9  Br  UNL     1      -0.107  -0.392   1.571  1.00  0.00    -0.077 Br
BRANCH   8  10
ATOM     10  C   UNL     1       0.093  -3.243   0.826  1.00  0.00     0.042 C 
ATOM     11  C   UNL     1       0.236  -3.138  -0.691  1.00  0.00     0.025 C 
ATOM     12  C   UNL     1      -1.396  -3.424   1.172  1.00  0.00     0.025 C 
ATOM     13  Br  UNL     1       0.946  -4.993   1.323  1.00  0.00    -0.084 Br
ENDBRANCH   8  10
ENDBRANCH   5   8
ENDBRANCH   3   4
ENDBRANCH   2   3
ENDBRANCH   1   2
BRANCH   1  14
ATOM     14  N   UNL     1       5.002  -0.323  -2.317  1.00  0.00    -0.352 N 
ATOM     15  C   UNL     1       5.519   0.030  -3.543  1.00  0.00     0.251 C 
ATOM     16  H   UNL     1       4.913  -1.292  -2.172  1.00  0.00     0.163 HD
ATOM     17  O   UNL     1       5.646  -0.824  -4.411  1.00  0.00    -0.269 OA
BRANCH  15  18
ATOM     18  C   UNL     1       5.894   1.435  -3.820  1.00  0.00     0.039 A 
ATOM     19  C   UNL     1       5.593   1.988  -5.068  1.00  0.00     0.014 A 
ATOM     20  C   UNL     1       6.542   2.206  -2.855  1.00  0.00     0.014 A 
ATOM     21  C   UNL     1       5.864   3.338  -5.310  1.00  0.00     0.010 A 
ATOM     22  C   UNL     1       6.707   3.571  -3.056  1.00  0.00     0.010 A 
ATOM     23  C   UNL     1       6.377   4.153  -4.289  1.00  0.00    -0.014 A 
BRANCH  23  24
ATOM     24  C   UNL     1       6.598   5.611  -4.478  1.00  0.00     0.031 A 
ATOM     25  C   UNL     1       7.979   6.187  -4.303  1.00  0.00     0.074 A 
ATOM     26  C   UNL     1       5.549   6.425  -4.711  1.00  0.00     0.049 A 
ATOM     27  N   UNL     1       8.357   7.439  -4.285  1.00  0.00    -0.248 NA
ATOM     28  C   UNL     1       9.074   5.229  -4.074  1.00  0.00     0.031 C 
ATOM     29  C   UNL     1       4.154   5.996  -4.843  1.00  0.00     0.029 A 
ATOM     30  N   UNL     1       5.489   7.788  -4.862  1.00  0.00    -0.354 N 
ATOM     31  C   UNL     1       9.720   7.419  -4.013  1.00  0.00     0.074 A 
ATOM     32  C   UNL     1      10.092   6.035  -3.817  1.00  0.00     0.031 C 
ATOM     33  C   UNL     1       3.383   7.070  -5.079  1.00  0.00     0.029 A 
ATOM     34  C   UNL     1       4.217   8.267  -5.072  1.00  0.00     0.049 A 
ATOM     35  H   UNL     1       6.284   8.368  -4.822  1.00  0.00     0.167 HD
ATOM     36  C   UNL     1      10.590   8.455  -3.959  1.00  0.00     0.037 A 
ATOM     37  C   UNL     1       3.773   9.528  -5.232  1.00  0.00     0.037 A 
ATOM     38  C   UNL     1      10.222   9.824  -4.206  1.00  0.00     0.049 A 
ATOM     39  C   UNL     1       4.762  10.662  -5.197  1.00  0.00     0.074 A 
ATOM     40  C   UNL     1      11.039  10.941  -4.248  1.00  0.00     0.029 A 
ATOM     41  N   UNL     1       8.931  10.262  -4.462  1.00  0.00    -0.354 N 
ATOM     42  N   UNL     1       6.057  10.618  -4.995  1.00  0.00    -0.248 NA
ATOM     43  C   UNL     1       4.231  12.014  -5.418  1.00  0.00     0.031 C 
ATOM     44  C   UNL     1      10.236  12.059  -4.496  1.00  0.00     0.029 A 
ATOM     45  C   UNL     1       8.926  11.634  -4.651  1.00  0.00     0.049 A 
ATOM     46  H   UNL     1       8.136   9.683  -4.504  1.00  0.00     0.167 HD
ATOM     47  C   UNL     1       6.500  11.933  -5.089  1.00  0.00     0.074 A 
ATOM     48  C   UNL     1       5.337  12.746  -5.378  1.00  0.00     0.031 C 
ATOM     49  C   UNL     1       7.757  12.423  -4.949  1.00  0.00     0.037 A 
BRANCH  36  50
ATOM     50  C   UNL     1      12.026   8.143  -3.635  1.00  0.00     0.058 A 
ATOM     51  C   UNL     1      12.854   7.461  -4.541  1.00  0.00     0.135 A 
ATOM     52  C   UNL     1      12.588   8.550  -2.414  1.00  0.00     0.135 A 
ATOM     53  F   UNL     1      12.364   7.034  -5.716  1.00  0.00    -0.206 F 
ATOM     54  C   UNL     1      14.176   7.160  -4.234  1.00  0.00     0.059 A 
ATOM     55  C   UNL     1      13.918   8.286  -2.098  1.00  0.00     0.059 A 
ATOM     56  F   UNL     1      11.842   9.206  -1.511  1.00  0.00    -0.206 F 
ATOM     57  C   UNL     1      14.699   7.575  -3.008  1.00  0.00     0.060 A 
BRANCH  57  58
ATOM     58  S   UNL     1      16.417   7.176  -2.625  1.00  0.00     0.124 S 
ATOM     59  O   UNL     1      16.326   5.749  -2.333  1.00  0.00    -0.237 OA
ATOM     60  O   UNL     1      17.104   7.526  -3.865  1.00  0.00    -0.237 OA
ATOM     61  O   UNL     1      16.718   8.033  -1.482  1.00  0.00    -0.744 OA
ENDBRANCH  57  58
ENDBRANCH  36  50
BRANCH  37  62
ATOM     62  C   UNL     1       2.327   9.783  -5.467  1.00  0.00     0.058 A 
ATOM     63  C   UNL     1       1.866  10.194  -6.727  1.00  0.00     0.135 A 
ATOM     64  C   UNL     1       1.377   9.608  -4.449  1.00  0.00     0.135 A 
ATOM     65  F   UNL     1       2.736  10.380  -7.731  1.00  0.00    -0.206 F 
ATOM     66  C   UNL     1       0.517  10.438  -6.967  1.00  0.00     0.059 A 
ATOM     67  C   UNL     1       0.019   9.822  -4.671  1.00  0.00     0.059 A 
ATOM     68  F   UNL     1       1.763   9.199  -3.231  1.00  0.00    -0.206 F 
ATOM     69  C   UNL     1      -0.399  10.247  -5.932  1.00  0.00     0.060 A 
BRANCH  69  70
ATOM     70  S   UNL     1      -2.153  10.517  -6.268  1.00  0.00     0.124 S 
ATOM     71  O   UNL     1      -2.221  11.973  -6.322  1.00  0.00    -0.237 OA
ATOM     72  O   UNL     1      -2.333   9.821  -7.538  1.00  0.00    -0.237 OA
ATOM     73  O   UNL     1      -2.813   9.895  -5.123  1.00  0.00    -0.744 OA
ENDBRANCH  69  70
ENDBRANCH  37  62
BRANCH  49  74
ATOM     74  C   UNL     1       7.947  13.901  -5.140  1.00  0.00     0.058 A 
ATOM     75  C   UNL     1       7.529  14.829  -4.174  1.00  0.00     0.135 A 
ATOM     76  C   UNL     1       8.607  14.390  -6.280  1.00  0.00     0.135 A 
ATOM     77  F   UNL     1       6.888  14.413  -3.070  1.00  0.00    -0.206 F 
ATOM     78  C   UNL     1       7.740  16.193  -4.340  1.00  0.00     0.059 A 
ATOM     79  C   UNL     1       8.851  15.748  -6.454  1.00  0.00     0.059 A 
ATOM     80  F   UNL     1       9.035  13.542  -7.228  1.00  0.00    -0.206 F 
ATOM     81  C   UNL     1       8.404  16.643  -5.484  1.00  0.00     0.060 A 
BRANCH  81  82
ATOM     82  S   UNL     1       8.706  18.413  -5.670  1.00  0.00     0.124 S 
ATOM     83  O   UNL     1       7.379  18.900  -6.031  1.00  0.00    -0.237 OA
ATOM     84  O   UNL     1       9.181  18.792  -4.343  1.00  0.00    -0.237 OA
ATOM     85  O   UNL     1       9.709  18.477  -6.729  1.00  0.00    -0.744 OA
ENDBRANCH  81  82
ENDBRANCH  49  74
ENDBRANCH  23  24
ENDBRANCH  15  18
ENDBRANCH   1  14
TORSDOF 14
