REMARK SMILES CCCSc1nc2n(n1)[C@@H](c1ccc(C(=O)NCCCNC(=O)c3ccc(-c4c5nc(c(-c6c(F)cc(S(=O)(=O)[O-])cc6F)c6ccc([nH]6)c(-c6c(F)cc(S(=O)(=O)[O-])cc6F)c6nc(c(-c7c(F)cc(S(=O)(=O)[O-])cc7F)c7ccc4[nH]7)C=C6)C=C5)cc3)cc1)C(C(=O)Nc1cccc(C)c1)=C(C)N2
REMARK SMILES IDX 18 1 17 2 15 3 16 4 14 6 11 7 12 8 91 9 13 10 90 11 10 12
REMARK SMILES IDX 5 13 6 14 9 15 7 16 8 17 105 18 103 19 92 21 104 22 4 23
REMARK SMILES IDX 3 24 2 25 1 26 93 27 94 28 95 29 96 31 97 32 102 33 98 34
REMARK SMILES IDX 100 35 99 36 101 37 19 38 20 39 21 40 22 41 23 43 24 44
REMARK SMILES IDX 25 45 89 46 26 47 88 48 27 49 28 50 29 51 82 52 30 53 87 54
REMARK SMILES IDX 81 55 83 56 31 57 86 58 80 59 79 60 32 62 66 63 45 64 65 65
REMARK SMILES IDX 46 66 49 67 64 68 84 69 47 70 48 71 63 73 85 74 50 75 33 76
REMARK SMILES IDX 34 77 43 78 35 79 36 80 42 81 44 82 37 83 38 84 39 85 40 86
REMARK SMILES IDX 41 87 67 88 68 89 77 90 69 91 70 92 76 93 78 94 71 95 72 96
REMARK SMILES IDX 73 97 74 98 75 99 51 100 52 101 61 102 53 103 54 104 60 105
REMARK SMILES IDX 62 106 55 107 56 108 57 109 58 110 59 111
REMARK H PARENT 17 5 105 20 95 30 21 42 83 61 49 72
REMARK Flexibility Score: inf
ROOT
ATOM      1  C   UNL     1       6.040  -9.906   0.384  1.00  0.00     0.118 C 
ENDROOT
BRANCH   1   2
ATOM      2  N   UNL     1       6.480  -9.159  -0.782  1.00  0.00    -0.352 N 
ATOM      3  C   UNL     1       5.959  -8.043  -1.390  1.00  0.00     0.251 C 
ATOM      4  O   UNL     1       6.614  -7.508  -2.282  1.00  0.00    -0.269 OA
ATOM      5  H   UNL     1       7.292  -9.514  -1.210  1.00  0.00     0.163 HD
BRANCH   3   6
ATOM      6  C   UNL     1       4.679  -7.420  -0.959  1.00  0.00     0.039 A 
ATOM      7  C   UNL     1       2.381  -6.069   0.021  1.00  0.00    -0.019 A 
ATOM      8  C   UNL     1       3.426  -5.377  -0.627  1.00  0.00     0.007 A 
ATOM      9  C   UNL     1       2.466  -7.463   0.051  1.00  0.00     0.007 A 
ATOM     10  C   UNL     1       4.554  -6.041  -1.113  1.00  0.00     0.014 A 
ATOM     11  C   UNL     1       3.597  -8.122  -0.433  1.00  0.00     0.014 A 
BRANCH   7  12
ATOM     12  C   UNL     1       1.253  -5.362   0.816  1.00  0.00     0.179 C 
ATOM     13  C   UNL     1       0.711  -2.527  -1.128  1.00  0.00     0.210 A 
ATOM     14  N   UNL     1       1.613  -2.004  -0.237  1.00  0.00    -0.185 NA
ATOM     15  N   UNL     1       0.305  -3.777  -0.868  1.00  0.00    -0.141 NA
ATOM     16  C   UNL     1       1.729  -2.947   0.652  1.00  0.00     0.227 A 
ATOM     17  N   UNL     1       1.009  -4.035   0.251  1.00  0.00    -0.218 N 
ATOM     18  N   UNL     1       2.485  -3.041   1.757  1.00  0.00    -0.328 N 
ATOM     19  C   UNL     1       2.467  -4.144   2.612  1.00  0.00     0.026 C 
ATOM     20  H   UNL     1       3.085  -2.292   1.976  1.00  0.00     0.169 HD
ATOM     21  C   UNL     1       1.695  -5.227   2.307  1.00  0.00     0.065 C 
ATOM     22  C   UNL     1       3.421  -4.002   3.768  1.00  0.00     0.065 C 
BRANCH  13  23
ATOM     23  S   UNL     1       0.097  -1.630  -2.485  1.00  0.00    -0.084 SA
BRANCH  23  24
ATOM     24  C   UNL     1       1.024  -0.070  -2.348  1.00  0.00     0.078 C 
BRANCH  24  25
ATOM     25  C   UNL     1       0.412   0.945  -1.376  1.00  0.00     0.008 C 
ATOM     26  C   UNL     1       0.707   0.700   0.097  1.00  0.00     0.005 C 
ENDBRANCH  24  25
ENDBRANCH  23  24
ENDBRANCH  13  23
BRANCH  21  27
ATOM     27  C   UNL     1       1.334  -6.442   3.130  1.00  0.00     0.255 C 
ATOM     28  O   UNL     1       0.935  -7.466   2.572  1.00  0.00    -0.269 OA
ATOM     29  N   UNL     1       1.427  -6.502   4.488  1.00  0.00    -0.322 N 
ATOM     30  H   UNL     1       1.556  -7.409   4.847  1.00  0.00     0.170 HD
BRANCH  29  31
ATOM     31  C   UNL     1       1.369  -5.500   5.457  1.00  0.00     0.041 A 
ATOM     32  C   UNL     1       2.137  -5.672   6.612  1.00  0.00     0.026 A 
ATOM     33  C   UNL     1       0.639  -4.328   5.265  1.00  0.00     0.029 A 
ATOM     34  C   UNL     1       2.294  -4.607   7.497  1.00  0.00     0.002 A 
ATOM     35  C   UNL     1       0.792  -3.256   6.149  1.00  0.00    -0.049 A 
ATOM     36  C   UNL     1       1.640  -3.398   7.256  1.00  0.00     0.003 A 
ATOM     37  C   UNL     1       0.134  -1.942   5.857  1.00  0.00     0.044 C 
ENDBRANCH  29  31
ENDBRANCH  21  27
ENDBRANCH   7  12
ENDBRANCH   3   6
ENDBRANCH   1   2
BRANCH   1  38
ATOM     38  C   UNL     1       5.177 -11.117   0.008  1.00  0.00     0.042 C 
BRANCH  38  39
ATOM     39  C   UNL     1       5.998 -12.318  -0.411  1.00  0.00     0.118 C 
BRANCH  39  40
ATOM     40  N   UNL     1       6.694 -12.937   0.716  1.00  0.00    -0.352 N 
ATOM     41  C   UNL     1       7.602 -13.981   0.671  1.00  0.00     0.251 C 
ATOM     42  H   UNL     1       6.495 -12.570   1.607  1.00  0.00     0.163 HD
ATOM     43  O   UNL     1       7.831 -14.656   1.661  1.00  0.00    -0.269 OA
BRANCH  41  44
ATOM     44  C   UNL     1       8.278 -14.245  -0.611  1.00  0.00     0.039 A 
ATOM     45  C   UNL     1       8.417 -15.539  -1.115  1.00  0.00     0.014 A 
ATOM     46  C   UNL     1       8.693 -13.138  -1.345  1.00  0.00     0.014 A 
ATOM     47  C   UNL     1       8.901 -15.697  -2.412  1.00  0.00     0.010 A 
ATOM     48  C   UNL     1       8.981 -13.286  -2.674  1.00  0.00     0.010 A 
ATOM     49  C   UNL     1       9.156 -14.560  -3.197  1.00  0.00    -0.014 A 
BRANCH  49  50
ATOM     50  C   UNL     1       9.499 -14.674  -4.610  1.00  0.00     0.031 A 
ATOM     51  C   UNL     1       8.541 -15.489  -5.410  1.00  0.00     0.074 A 
ATOM     52  C   UNL     1      10.459 -13.921  -5.192  1.00  0.00     0.049 A 
ATOM     53  N   UNL     1       8.732 -16.663  -5.913  1.00  0.00    -0.248 NA
ATOM     54  C   UNL     1       7.149 -15.019  -5.522  1.00  0.00     0.031 C 
ATOM     55  C   UNL     1      11.261 -12.836  -4.610  1.00  0.00     0.029 A 
ATOM     56  N   UNL     1      10.857 -13.905  -6.491  1.00  0.00    -0.354 N 
ATOM     57  C   UNL     1       7.572 -16.968  -6.623  1.00  0.00     0.074 A 
ATOM     58  C   UNL     1       6.574 -16.037  -6.167  1.00  0.00     0.031 C 
ATOM     59  C   UNL     1      11.854 -12.124  -5.594  1.00  0.00     0.029 A 
ATOM     60  C   UNL     1      11.636 -12.809  -6.853  1.00  0.00     0.049 A 
ATOM     61  H   UNL     1      10.612 -14.614  -7.128  1.00  0.00     0.167 HD
ATOM     62  C   UNL     1       7.607 -17.790  -7.711  1.00  0.00     0.037 A 
ATOM     63  C   UNL     1      12.058 -12.493  -8.105  1.00  0.00     0.037 A 
ATOM     64  C   UNL     1       8.850 -18.523  -7.760  1.00  0.00     0.049 A 
ATOM     65  C   UNL     1      11.962 -13.741  -8.909  1.00  0.00     0.074 A 
ATOM     66  C   UNL     1       9.497 -19.396  -6.906  1.00  0.00     0.029 A 
ATOM     67  N   UNL     1       9.814 -18.083  -8.637  1.00  0.00    -0.354 N 
ATOM     68  N   UNL     1      12.697 -14.798  -8.694  1.00  0.00    -0.248 NA
ATOM     69  C   UNL     1      10.719 -13.980  -9.626  1.00  0.00     0.031 C 
ATOM     70  C   UNL     1      10.875 -19.037  -6.989  1.00  0.00     0.029 A 
ATOM     71  C   UNL     1      11.000 -18.030  -7.948  1.00  0.00     0.049 A 
ATOM     72  H   UNL     1       9.679 -17.848  -9.583  1.00  0.00     0.167 HD
ATOM     73  C   UNL     1      11.834 -15.872  -8.858  1.00  0.00     0.074 A 
ATOM     74  C   UNL     1      10.648 -15.308  -9.503  1.00  0.00     0.031 C 
ATOM     75  C   UNL     1      12.036 -17.052  -8.200  1.00  0.00     0.037 A 
BRANCH  62  76
ATOM     76  C   UNL     1       6.710 -17.658  -8.925  1.00  0.00     0.058 A 
ATOM     77  C   UNL     1       6.770 -18.645  -9.933  1.00  0.00     0.135 A 
ATOM     78  C   UNL     1       6.012 -16.481  -9.275  1.00  0.00     0.135 A 
ATOM     79  F   UNL     1       7.405 -19.808  -9.715  1.00  0.00    -0.206 F 
ATOM     80  C   UNL     1       6.255 -18.442 -11.214  1.00  0.00     0.059 A 
ATOM     81  C   UNL     1       5.444 -16.280 -10.528  1.00  0.00     0.059 A 
ATOM     82  F   UNL     1       5.926 -15.425  -8.459  1.00  0.00    -0.206 F 
ATOM     83  C   UNL     1       5.607 -17.246 -11.506  1.00  0.00     0.060 A 
BRANCH  83  84
ATOM     84  S   UNL     1       5.031 -16.939 -13.183  1.00  0.00     0.124 S 
ATOM     85  O   UNL     1       6.292 -16.806 -13.904  1.00  0.00    -0.237 OA
ATOM     86  O   UNL     1       4.258 -18.145 -13.462  1.00  0.00    -0.237 OA
ATOM     87  O   UNL     1       4.246 -15.716 -13.049  1.00  0.00    -0.744 OA
ENDBRANCH  83  84
ENDBRANCH  62  76
BRANCH  63  88
ATOM     88  C   UNL     1      12.212 -11.154  -8.734  1.00  0.00     0.058 A 
ATOM     89  C   UNL     1      12.862 -11.011  -9.974  1.00  0.00     0.135 A 
ATOM     90  C   UNL     1      11.462 -10.044  -8.297  1.00  0.00     0.135 A 
ATOM     91  F   UNL     1      13.593 -12.020 -10.472  1.00  0.00    -0.206 F 
ATOM     92  C   UNL     1      12.717  -9.868 -10.768  1.00  0.00     0.059 A 
ATOM     93  C   UNL     1      11.308  -8.890  -9.068  1.00  0.00     0.059 A 
ATOM     94  F   UNL     1      10.774 -10.088  -7.146  1.00  0.00    -0.206 F 
ATOM     95  C   UNL     1      11.913  -8.822 -10.319  1.00  0.00     0.060 A 
BRANCH  95  96
ATOM     96  S   UNL     1      11.556  -7.438 -11.430  1.00  0.00     0.124 S 
ATOM     97  O   UNL     1      12.846  -6.759 -11.492  1.00  0.00    -0.237 OA
ATOM     98  O   UNL     1      11.137  -8.121 -12.649  1.00  0.00    -0.237 OA
ATOM     99  O   UNL     1      10.500  -6.708 -10.734  1.00  0.00    -0.744 OA
ENDBRANCH  95  96
ENDBRANCH  63  88
BRANCH  75 100
ATOM    100  C   UNL     1      13.359 -17.271  -7.507  1.00  0.00     0.058 A 
ATOM    101  C   UNL     1      13.834 -16.514  -6.420  1.00  0.00     0.135 A 
ATOM    102  C   UNL     1      14.107 -18.401  -7.868  1.00  0.00     0.135 A 
ATOM    103  F   UNL     1      13.132 -15.479  -5.941  1.00  0.00    -0.206 F 
ATOM    104  C   UNL     1      15.018 -16.842  -5.753  1.00  0.00     0.059 A 
ATOM    105  C   UNL     1      15.272 -18.765  -7.198  1.00  0.00     0.059 A 
ATOM    106  F   UNL     1      13.678 -19.203  -8.857  1.00  0.00    -0.206 F 
ATOM    107  C   UNL     1      15.731 -17.972  -6.149  1.00  0.00     0.060 A 
BRANCH 107 108
ATOM    108  S   UNL     1      17.226 -18.436  -5.249  1.00  0.00     0.124 S 
ATOM    109  O   UNL     1      18.163 -17.393  -5.650  1.00  0.00    -0.237 OA
ATOM    110  O   UNL     1      16.787 -18.392  -3.857  1.00  0.00    -0.237 OA
ATOM    111  O   UNL     1      17.528 -19.774  -5.754  1.00  0.00    -0.744 OA
ENDBRANCH 107 108
ENDBRANCH  75 100
ENDBRANCH  49  50
ENDBRANCH  41  44
ENDBRANCH  39  40
ENDBRANCH  38  39
ENDBRANCH   1  38
TORSDOF 19
