REMARK SMILES C[C@H]1[C@H](C(=O)NCCCNC(=O)c2ccc(-c3c4nc(c(-c5c(F)cc(S(=O)(=O)[O-])cc5F)c5ccc([nH]5)c(-c5c(F)cc(S(=O)(=O)[O-])cc5F)c5nc(c(-c6c(F)cc(S(=O)(=O)[O-])cc6F)c6ccc3[nH]6)C=C5)C=C4)cc2)CCN1C(=O)COc1ccc(F)cc1Br
REMARK SMILES IDX 7 1 6 2 4 3 5 4 3 6 1 7 2 8 81 9 79 10 80 11 82 12 83 13
REMARK SMILES IDX 84 14 85 15 86 16 87 17 92 18 88 19 91 20 93 21 89 22 90 23
REMARK SMILES IDX 8 24 9 25 10 26 11 27 12 29 13 30 14 31 78 32 15 33 77 34
REMARK SMILES IDX 16 35 17 36 18 37 71 38 19 39 76 40 70 41 72 42 20 43 75 44
REMARK SMILES IDX 69 45 68 46 21 48 55 49 34 50 54 51 35 52 38 53 53 54 73 55
REMARK SMILES IDX 36 56 37 57 52 59 74 60 39 61 22 62 23 63 32 64 24 65 25 66
REMARK SMILES IDX 31 67 33 68 26 69 27 70 28 71 29 72 30 73 56 74 57 75 66 76
REMARK SMILES IDX 58 77 59 78 65 79 67 80 60 81 61 82 62 83 63 84 64 85 40 86
REMARK SMILES IDX 41 87 50 88 42 89 43 90 49 91 51 92 44 93 45 94 46 95 47 96
REMARK SMILES IDX 48 97
REMARK H PARENT 6 5 10 28 72 47 38 58
REMARK Flexibility Score: inf
ROOT
ATOM      1  C   UNL     1      -1.169   0.709   2.942  1.00  0.00     0.117 C 
ENDROOT
BRANCH   1   2
ATOM      2  N   UNL     1      -0.575   1.953   2.484  1.00  0.00    -0.356 N 
ATOM      3  C   UNL     1      -0.074   2.319   1.276  1.00  0.00     0.225 C 
ATOM      4  O   UNL     1       0.390   3.459   1.176  1.00  0.00    -0.275 OA
ATOM      5  H   UNL     1      -0.527   2.656   3.171  1.00  0.00     0.163 HD
BRANCH   3   6
ATOM      6  C   UNL     1      -0.070   1.395   0.073  1.00  0.00     0.102 C 
ATOM      7  C   UNL     1       1.962   0.204  -0.768  1.00  0.00     0.032 C 
ATOM      8  C   UNL     1       0.831   0.156   0.262  1.00  0.00     0.094 C 
ATOM      9  N   UNL     1      -0.079  -0.982   0.099  1.00  0.00    -0.336 N 
ATOM     10  C   UNL     1      -1.459   0.904  -0.332  1.00  0.00     0.037 C 
ATOM     11  C   UNL     1      -1.308  -0.585  -0.561  1.00  0.00     0.121 C 
BRANCH   9  12
ATOM     12  C   UNL     1      -0.032  -2.194   0.764  1.00  0.00     0.260 C 
ATOM     13  O   UNL     1      -1.068  -2.736   1.165  1.00  0.00    -0.271 OA
BRANCH  12  14
ATOM     14  C   UNL     1       1.315  -2.894   0.987  1.00  0.00     0.329 C 
BRANCH  14  15
ATOM     15  O   UNL     1       2.380  -2.654   0.100  1.00  0.00    -0.483 OA
BRANCH  15  16
ATOM     16  C   UNL     1       2.591  -3.366  -1.044  1.00  0.00     0.134 A 
ATOM     17  C   UNL     1       3.964  -3.397  -1.362  1.00  0.00     0.050 A 
ATOM     18  C   UNL     1       1.689  -3.923  -1.961  1.00  0.00     0.062 A 
ATOM     19  C   UNL     1       4.430  -3.935  -2.562  1.00  0.00     0.043 A 
ATOM     20  C   UNL     1       2.162  -4.440  -3.180  1.00  0.00     0.058 A 
ATOM     21  Br  UNL     1      -0.191  -4.038  -1.781  1.00  0.00    -0.047 Br
ATOM     22  C   UNL     1       3.517  -4.434  -3.471  1.00  0.00     0.124 A 
ATOM     23  F   UNL     1       3.941  -4.908  -4.650  1.00  0.00    -0.207 F 
ENDBRANCH  15  16
ENDBRANCH  14  15
ENDBRANCH  12  14
ENDBRANCH   9  12
ENDBRANCH   3   6
ENDBRANCH   1   2
BRANCH   1  24
ATOM     24  C   UNL     1      -0.291  -0.011   3.956  1.00  0.00     0.042 C 
BRANCH  24  25
ATOM     25  C   UNL     1      -0.135   0.739   5.272  1.00  0.00     0.118 C 
BRANCH  25  26
ATOM     26  N   UNL     1      -1.399   0.906   5.974  1.00  0.00    -0.352 N 
ATOM     27  C   UNL     1      -1.775   0.492   7.228  1.00  0.00     0.251 C 
ATOM     28  H   UNL     1      -2.092   1.391   5.471  1.00  0.00     0.163 HD
ATOM     29  O   UNL     1      -2.956   0.562   7.556  1.00  0.00    -0.269 OA
BRANCH  27  30
ATOM     30  C   UNL     1      -0.773  -0.046   8.173  1.00  0.00     0.039 A 
ATOM     31  C   UNL     1      -1.115  -1.147   8.963  1.00  0.00     0.014 A 
ATOM     32  C   UNL     1       0.487   0.545   8.305  1.00  0.00     0.014 A 
ATOM     33  C   UNL     1      -0.173  -1.689   9.840  1.00  0.00     0.010 A 
ATOM     34  C   UNL     1       1.451  -0.047   9.117  1.00  0.00     0.010 A 
ATOM     35  C   UNL     1       1.128  -1.163   9.900  1.00  0.00    -0.014 A 
BRANCH  35  36
ATOM     36  C   UNL     1       2.159  -1.768  10.781  1.00  0.00     0.031 A 
ATOM     37  C   UNL     1       2.752  -0.972  11.912  1.00  0.00     0.074 A 
ATOM     38  C   UNL     1       2.601  -3.015  10.524  1.00  0.00     0.049 A 
ATOM     39  N   UNL     1       3.696  -1.309  12.753  1.00  0.00    -0.248 NA
ATOM     40  C   UNL     1       2.238   0.394  12.105  1.00  0.00     0.031 C 
ATOM     41  C   UNL     1       2.149  -3.862   9.418  1.00  0.00     0.029 A 
ATOM     42  N   UNL     1       3.537  -3.784  11.169  1.00  0.00    -0.354 N 
ATOM     43  C   UNL     1       3.896  -0.199  13.565  1.00  0.00     0.074 A 
ATOM     44  C   UNL     1       3.018   0.843  13.078  1.00  0.00     0.031 C 
ATOM     45  C   UNL     1       2.790  -5.040   9.475  1.00  0.00     0.029 A 
ATOM     46  C   UNL     1       3.721  -5.021  10.599  1.00  0.00     0.049 A 
ATOM     47  H   UNL     1       4.030  -3.478  11.964  1.00  0.00     0.167 HD
ATOM     48  C   UNL     1       4.716  -0.067  14.635  1.00  0.00     0.037 A 
ATOM     49  C   UNL     1       4.548  -6.027  10.941  1.00  0.00     0.037 A 
ATOM     50  C   UNL     1       5.570  -1.116  15.129  1.00  0.00     0.049 A 
ATOM     51  C   UNL     1       5.431  -5.869  12.148  1.00  0.00     0.074 A 
ATOM     52  C   UNL     1       6.400  -1.103  16.236  1.00  0.00     0.029 A 
ATOM     53  N   UNL     1       5.702  -2.369  14.547  1.00  0.00    -0.354 N 
ATOM     54  N   UNL     1       5.563  -4.832  12.941  1.00  0.00    -0.248 NA
ATOM     55  C   UNL     1       6.268  -7.019  12.514  1.00  0.00     0.031 C 
ATOM     56  C   UNL     1       7.059  -2.335  16.304  1.00  0.00     0.029 A 
ATOM     57  C   UNL     1       6.609  -3.132  15.264  1.00  0.00     0.049 A 
ATOM     58  H   UNL     1       5.221  -2.671  13.742  1.00  0.00     0.167 HD
ATOM     59  C   UNL     1       6.485  -5.210  13.911  1.00  0.00     0.074 A 
ATOM     60  C   UNL     1       6.862  -6.578  13.615  1.00  0.00     0.031 C 
ATOM     61  C   UNL     1       6.976  -4.491  14.951  1.00  0.00     0.037 A 
BRANCH  48  62
ATOM     62  C   UNL     1       4.717   1.257  15.349  1.00  0.00     0.058 A 
ATOM     63  C   UNL     1       3.614   1.684  16.108  1.00  0.00     0.135 A 
ATOM     64  C   UNL     1       5.836   2.103  15.292  1.00  0.00     0.135 A 
ATOM     65  F   UNL     1       2.511   0.922  16.184  1.00  0.00    -0.206 F 
ATOM     66  C   UNL     1       3.606   2.915  16.755  1.00  0.00     0.059 A 
ATOM     67  C   UNL     1       5.861   3.328  15.955  1.00  0.00     0.059 A 
ATOM     68  F   UNL     1       6.918   1.747  14.582  1.00  0.00    -0.206 F 
ATOM     69  C   UNL     1       4.734   3.732  16.670  1.00  0.00     0.060 A 
BRANCH  69  70
ATOM     70  S   UNL     1       4.707   5.329  17.511  1.00  0.00     0.124 S 
ATOM     71  O   UNL     1       3.831   6.103  16.636  1.00  0.00    -0.237 OA
ATOM     72  O   UNL     1       4.155   4.986  18.817  1.00  0.00    -0.237 OA
ATOM     73  O   UNL     1       6.109   5.736  17.513  1.00  0.00    -0.744 OA
ENDBRANCH  69  70
ENDBRANCH  48  62
BRANCH  49  74
ATOM     74  C   UNL     1       4.556  -7.281  10.143  1.00  0.00     0.058 A 
ATOM     75  C   UNL     1       4.005  -8.466  10.653  1.00  0.00     0.135 A 
ATOM     76  C   UNL     1       5.087  -7.312   8.844  1.00  0.00     0.135 A 
ATOM     77  F   UNL     1       3.489  -8.486  11.892  1.00  0.00    -0.206 F 
ATOM     78  C   UNL     1       3.990  -9.641   9.910  1.00  0.00     0.059 A 
ATOM     79  C   UNL     1       5.062  -8.469   8.072  1.00  0.00     0.059 A 
ATOM     80  F   UNL     1       5.607  -6.199   8.304  1.00  0.00    -0.206 F 
ATOM     81  C   UNL     1       4.519  -9.632   8.618  1.00  0.00     0.060 A 
BRANCH  81  82
ATOM     82  S   UNL     1       4.443 -11.147   7.638  1.00  0.00     0.124 S 
ATOM     83  O   UNL     1       5.491 -11.950   8.257  1.00  0.00    -0.237 OA
ATOM     84  O   UNL     1       3.073 -11.595   7.870  1.00  0.00    -0.237 OA
ATOM     85  O   UNL     1       4.720 -10.682   6.282  1.00  0.00    -0.744 OA
ENDBRANCH  81  82
ENDBRANCH  49  74
BRANCH  61  86
ATOM     86  C   UNL     1       7.960  -5.179  15.855  1.00  0.00     0.058 A 
ATOM     87  C   UNL     1       9.276  -5.444  15.445  1.00  0.00     0.135 A 
ATOM     88  C   UNL     1       7.590  -5.552  17.157  1.00  0.00     0.135 A 
ATOM     89  F   UNL     1       9.677  -5.112  14.207  1.00  0.00    -0.206 F 
ATOM     90  C   UNL     1      10.183  -6.083  16.283  1.00  0.00     0.059 A 
ATOM     91  C   UNL     1       8.489  -6.169  18.022  1.00  0.00     0.059 A 
ATOM     92  F   UNL     1       6.347  -5.312  17.603  1.00  0.00    -0.206 F 
ATOM     93  C   UNL     1       9.779  -6.444  17.570  1.00  0.00     0.060 A 
BRANCH  93  94
ATOM     94  S   UNL     1      10.968  -7.261  18.654  1.00  0.00     0.124 S 
ATOM     95  O   UNL     1      10.989  -8.612  18.101  1.00  0.00    -0.237 OA
ATOM     96  O   UNL     1      12.178  -6.472  18.445  1.00  0.00    -0.237 OA
ATOM     97  O   UNL     1      10.364  -7.133  19.977  1.00  0.00    -0.744 OA
ENDBRANCH  93  94
ENDBRANCH  61  86
ENDBRANCH  35  36
ENDBRANCH  27  30
ENDBRANCH  25  26
ENDBRANCH  24  25
ENDBRANCH   1  24
TORSDOF 17
