REMARK SMILES C[C@H](C(=O)NCCCNC(=O)c1ccc(-c2c3nc(c(-c4c(F)cc(S(=O)(=O)[O-])cc4F)c4ccc([nH]4)c(-c4c(F)cc(S(=O)(=O)[O-])cc4F)c4nc(c(-c5c(F)cc(S(=O)(=O)[O-])cc5F)c5ccc2[nH]5)C=C4)C=C3)cc1)n1c(=O)ssc1=O
REMARK SMILES IDX 8 1 7 2 6 3 5 4 3 5 4 6 2 8 1 9 78 10 79 11 83 12 80 13
REMARK SMILES IDX 81 14 82 15 84 16 9 17 10 18 11 20 12 21 13 22 77 23 14 24
REMARK SMILES IDX 76 25 15 26 16 27 17 28 70 29 18 30 75 31 69 32 71 33 19 34
REMARK SMILES IDX 74 35 68 36 67 37 20 39 54 40 33 41 53 42 34 43 37 44 52 45
REMARK SMILES IDX 72 46 35 47 36 48 51 50 73 51 38 52 21 53 22 54 31 55 23 56
REMARK SMILES IDX 24 57 30 58 32 59 25 60 26 61 27 62 28 63 29 64 55 65 56 66
REMARK SMILES IDX 65 67 57 68 58 69 64 70 66 71 59 72 60 73 61 74 62 75 63 76
REMARK SMILES IDX 39 77 40 78 49 79 41 80 42 81 48 82 50 83 43 84 44 85 45 86
REMARK SMILES IDX 46 87 47 88
REMARK H PARENT 5 7 9 19 71 38 37 49
REMARK Flexibility Score: inf
ROOT
ATOM      1  C   UNL     1       0.052   3.137   2.380  1.00  0.00     0.118 C 
ENDROOT
BRANCH   1   2
ATOM      2  C   UNL     1      -0.812   1.892   2.232  1.00  0.00     0.042 C 
BRANCH   2   3
ATOM      3  C   UNL     1      -0.834   1.244   0.855  1.00  0.00     0.117 C 
BRANCH   3   4
ATOM      4  N   UNL     1       0.480   0.923   0.332  1.00  0.00    -0.354 N 
ATOM      5  C   UNL     1       0.960  -0.158  -0.342  1.00  0.00     0.243 C 
ATOM      6  O   UNL     1       2.115  -0.055  -0.775  1.00  0.00    -0.273 OA
ATOM      7  H   UNL     1       1.155   1.621   0.496  1.00  0.00     0.163 HD
BRANCH   5   8
ATOM      8  C   UNL     1       0.267  -1.544  -0.364  1.00  0.00     0.181 C 
ATOM      9  C   UNL     1       0.805  -2.256   0.891  1.00  0.00     0.042 C 
BRANCH   8  10
ATOM     10  N   UNL     1      -1.196  -1.550  -0.498  1.00  0.00    -0.244 N 
ATOM     11  C   UNL     1      -1.952  -2.608  -0.047  1.00  0.00     0.321 A 
ATOM     12  C   UNL     1      -1.746  -0.782  -1.510  1.00  0.00     0.321 A 
ATOM     13  O   UNL     1      -1.543  -3.697   0.333  1.00  0.00    -0.256 OA
ATOM     14  S   UNL     1      -3.674  -2.294  -0.146  1.00  0.00    -0.014 S 
ATOM     15  S   UNL     1      -3.497  -0.894  -1.599  1.00  0.00    -0.014 S 
ATOM     16  O   UNL     1      -1.124  -0.097  -2.302  1.00  0.00    -0.256 OA
ENDBRANCH   8  10
ENDBRANCH   5   8
ENDBRANCH   3   4
ENDBRANCH   2   3
ENDBRANCH   1   2
BRANCH   1  17
ATOM     17  N   UNL     1      -0.381   4.262   1.567  1.00  0.00    -0.352 N 
ATOM     18  C   UNL     1      -0.725   5.547   1.923  1.00  0.00     0.251 C 
ATOM     19  H   UNL     1      -0.437   4.074   0.602  1.00  0.00     0.163 HD
ATOM     20  O   UNL     1      -1.150   6.306   1.055  1.00  0.00    -0.269 OA
BRANCH  18  21
ATOM     21  C   UNL     1      -0.630   6.019   3.329  1.00  0.00     0.039 A 
ATOM     22  C   UNL     1      -1.618   6.885   3.812  1.00  0.00     0.014 A 
ATOM     23  C   UNL     1       0.425   5.654   4.167  1.00  0.00     0.014 A 
ATOM     24  C   UNL     1      -1.581   7.326   5.139  1.00  0.00     0.010 A 
ATOM     25  C   UNL     1       0.408   6.012   5.514  1.00  0.00     0.010 A 
ATOM     26  C   UNL     1      -0.585   6.867   6.015  1.00  0.00    -0.014 A 
BRANCH  26  27
ATOM     27  C   UNL     1      -0.536   7.303   7.438  1.00  0.00     0.031 A 
ATOM     28  C   UNL     1       0.660   8.063   7.954  1.00  0.00     0.074 A 
ATOM     29  C   UNL     1      -1.532   6.970   8.284  1.00  0.00     0.049 A 
ATOM     30  N   UNL     1       0.928   8.458   9.173  1.00  0.00    -0.248 NA
ATOM     31  C   UNL     1       1.710   8.389   6.977  1.00  0.00     0.031 C 
ATOM     32  C   UNL     1      -2.716   6.184   7.933  1.00  0.00     0.029 A 
ATOM     33  N   UNL     1      -1.701   7.244   9.619  1.00  0.00    -0.354 N 
ATOM     34  C   UNL     1       2.183   9.053   9.112  1.00  0.00     0.074 A 
ATOM     35  C   UNL     1       2.649   8.912   7.750  1.00  0.00     0.031 C 
ATOM     36  C   UNL     1      -3.498   6.056   9.018  1.00  0.00     0.029 A 
ATOM     37  C   UNL     1      -2.861   6.728  10.147  1.00  0.00     0.049 A 
ATOM     38  H   UNL     1      -1.052   7.761  10.148  1.00  0.00     0.167 HD
ATOM     39  C   UNL     1       2.876   9.686  10.090  1.00  0.00     0.037 A 
ATOM     40  C   UNL     1      -3.358   6.791  11.398  1.00  0.00     0.037 A 
ATOM     41  C   UNL     1       2.395   9.865  11.434  1.00  0.00     0.049 A 
ATOM     42  C   UNL     1      -2.607   7.556  12.452  1.00  0.00     0.074 A 
ATOM     43  C   UNL     1       3.002  10.526  12.488  1.00  0.00     0.029 A 
ATOM     44  N   UNL     1       1.179   9.393  11.906  1.00  0.00    -0.354 N 
ATOM     45  N   UNL     1      -1.439   8.148  12.365  1.00  0.00    -0.248 NA
ATOM     46  C   UNL     1      -3.248   7.679  13.769  1.00  0.00     0.031 C 
ATOM     47  C   UNL     1       2.159  10.440  13.603  1.00  0.00     0.029 A 
ATOM     48  C   UNL     1       1.013   9.755  13.233  1.00  0.00     0.049 A 
ATOM     49  H   UNL     1       0.529   8.877  11.376  1.00  0.00     0.167 HD
ATOM     50  C   UNL     1      -1.219   8.737  13.605  1.00  0.00     0.074 A 
ATOM     51  C   UNL     1      -2.378   8.438  14.421  1.00  0.00     0.031 C 
ATOM     52  C   UNL     1      -0.153   9.462  14.028  1.00  0.00     0.037 A 
BRANCH  39  53
ATOM     53  C   UNL     1       4.224  10.245   9.724  1.00  0.00     0.058 A 
ATOM     54  C   UNL     1       4.351  11.354   8.870  1.00  0.00     0.135 A 
ATOM     55  C   UNL     1       5.402   9.666  10.223  1.00  0.00     0.135 A 
ATOM     56  F   UNL     1       3.258  11.936   8.352  1.00  0.00    -0.206 F 
ATOM     57  C   UNL     1       5.597  11.838   8.486  1.00  0.00     0.059 A 
ATOM     58  C   UNL     1       6.659  10.153   9.875  1.00  0.00     0.059 A 
ATOM     59  F   UNL     1       5.340   8.607  11.046  1.00  0.00    -0.206 F 
ATOM     60  C   UNL     1       6.746  11.225   8.987  1.00  0.00     0.060 A 
BRANCH  60  61
ATOM     61  S   UNL     1       8.357  11.845   8.459  1.00  0.00     0.124 S 
ATOM     62  O   UNL     1       8.460  11.274   7.119  1.00  0.00    -0.237 OA
ATOM     63  O   UNL     1       8.174  13.291   8.518  1.00  0.00    -0.237 OA
ATOM     64  O   UNL     1       9.274  11.291   9.450  1.00  0.00    -0.744 OA
ENDBRANCH  60  61
ENDBRANCH  39  53
BRANCH  40  65
ATOM     65  C   UNL     1      -4.662   6.146  11.705  1.00  0.00     0.058 A 
ATOM     66  C   UNL     1      -5.820   6.916  11.891  1.00  0.00     0.135 A 
ATOM     67  C   UNL     1      -4.784   4.751  11.786  1.00  0.00     0.135 A 
ATOM     68  F   UNL     1      -5.752   8.255  11.827  1.00  0.00    -0.206 F 
ATOM     69  C   UNL     1      -7.052   6.328  12.157  1.00  0.00     0.059 A 
ATOM     70  C   UNL     1      -6.009   4.138  12.031  1.00  0.00     0.059 A 
ATOM     71  F   UNL     1      -3.708   3.971  11.597  1.00  0.00    -0.206 F 
ATOM     72  C   UNL     1      -7.137   4.936  12.222  1.00  0.00     0.060 A 
BRANCH  72  73
ATOM     73  S   UNL     1      -8.752   4.177  12.499  1.00  0.00     0.124 S 
ATOM     74  O   UNL     1      -8.944   4.407  13.926  1.00  0.00    -0.237 OA
ATOM     75  O   UNL     1      -9.612   4.947  11.606  1.00  0.00    -0.237 OA
ATOM     76  O   UNL     1      -8.540   2.787  12.105  1.00  0.00    -0.744 OA
ENDBRANCH  72  73
ENDBRANCH  40  65
BRANCH  52  77
ATOM     77  C   UNL     1      -0.210  10.021  15.421  1.00  0.00     0.058 A 
ATOM     78  C   UNL     1      -0.037   9.208  16.552  1.00  0.00     0.135 A 
ATOM     79  C   UNL     1      -0.405  11.396  15.624  1.00  0.00     0.135 A 
ATOM     80  F   UNL     1       0.149   7.886  16.411  1.00  0.00    -0.206 F 
ATOM     81  C   UNL     1      -0.084   9.735  17.838  1.00  0.00     0.059 A 
ATOM     82  C   UNL     1      -0.433  11.948  16.901  1.00  0.00     0.059 A 
ATOM     83  F   UNL     1      -0.564  12.219  14.575  1.00  0.00    -0.206 F 
ATOM     84  C   UNL     1      -0.286  11.106  18.003  1.00  0.00     0.060 A 
BRANCH  84  85
ATOM     85  S   UNL     1      -0.330  11.785  19.675  1.00  0.00     0.124 S 
ATOM     86  O   UNL     1      -1.671  11.407  20.109  1.00  0.00    -0.237 OA
ATOM     87  O   UNL     1       0.769  11.082  20.330  1.00  0.00    -0.237 OA
ATOM     88  O   UNL     1      -0.115  13.214  19.466  1.00  0.00    -0.744 OA
ENDBRANCH  84  85
ENDBRANCH  52  77
ENDBRANCH  26  27
ENDBRANCH  18  21
ENDBRANCH   1  17
TORSDOF 14
