REMARK SMILES O=C(Nc1ccc2c(c1)OCO2)N[C@H]1C=C[C@@H](C(=O)NCCCNC(=O)c2ccc(-c3c4nc(c(-c5c(F)cc(S(=O)(=O)[O-])cc5F)c5ccc([nH]5)c(-c5c(F)cc(S(=O)(=O)[O-])cc5F)c5nc(c(-c6c(F)cc(S(=O)(=O)[O-])cc6F)c6ccc3[nH]6)C=C5)C=C4)cc2)C1
REMARK SMILES IDX 22 1 21 2 20 3 18 4 19 5 17 7 14 8 15 9 93 10 16 11 13 12
REMARK SMILES IDX 1 13 2 14 3 15 4 18 5 19 9 20 6 21 8 22 7 23 10 24 12 25
REMARK SMILES IDX 11 26 23 27 24 28 25 29 26 31 27 32 28 33 92 34 29 35 91 36
REMARK SMILES IDX 30 37 31 38 32 39 85 40 33 41 90 42 84 43 86 44 34 45 89 46
REMARK SMILES IDX 83 47 82 48 35 50 69 51 48 52 68 53 49 54 52 55 67 56 87 57
REMARK SMILES IDX 50 58 51 59 66 61 88 62 53 63 36 64 37 65 46 66 38 67 39 68
REMARK SMILES IDX 45 69 47 70 40 71 41 72 42 73 43 74 44 75 70 76 71 77 80 78
REMARK SMILES IDX 72 79 73 80 79 81 81 82 74 83 75 84 76 85 77 86 78 87 54 88
REMARK SMILES IDX 55 89 64 90 56 91 57 92 63 93 65 94 58 95 59 96 60 97 61 98
REMARK SMILES IDX 62 99
REMARK H PARENT 20 6 3 16 13 17 24 30 86 49 52 60
REMARK Flexibility Score: inf
ROOT
ATOM      1  C   UNL     1       6.495  -0.978   2.741  1.00  0.00     0.042 C 
ENDROOT
BRANCH   1   2
ATOM      2  C   UNL     1       5.730  -2.238   3.119  1.00  0.00     0.117 C 
BRANCH   2   3
ATOM      3  N   UNL     1       5.459  -2.299   4.542  1.00  0.00    -0.356 N 
ATOM      4  C   UNL     1       4.290  -2.226   5.234  1.00  0.00     0.227 C 
ATOM      5  O   UNL     1       4.359  -2.322   6.463  1.00  0.00    -0.274 OA
ATOM      6  H   UNL     1       6.259  -2.411   5.105  1.00  0.00     0.163 HD
BRANCH   4   7
ATOM      7  C   UNL     1       2.929  -2.045   4.555  1.00  0.00     0.103 C 
ATOM      8  C   UNL     1       2.027  -1.120   2.468  1.00  0.00     0.107 C 
ATOM      9  C   UNL     1       2.116  -2.611   2.429  1.00  0.00    -0.006 C 
ATOM     10  C   UNL     1       2.762  -0.743   3.765  1.00  0.00     0.047 C 
ATOM     11  C   UNL     1       2.601  -3.121   3.566  1.00  0.00    -0.016 C 
BRANCH   8  12
ATOM     12  N   UNL     1       2.675  -0.593   1.297  1.00  0.00    -0.332 N 
ATOM     13  O   UNL     1       0.755  -0.172   0.141  1.00  0.00    -0.248 OA
ATOM     14  C   UNL     1       1.979  -0.169   0.203  1.00  0.00     0.319 C 
ATOM     15  N   UNL     1       2.712   0.395  -0.800  1.00  0.00    -0.308 N 
ATOM     16  H   UNL     1       2.196   0.951  -1.426  1.00  0.00     0.171 HD
ATOM     17  H   UNL     1       3.658  -0.536   1.284  1.00  0.00     0.165 HD
BRANCH  15  18
ATOM     18  C   UNL     1       4.082   0.310  -1.083  1.00  0.00     0.046 A 
ATOM     19  C   UNL     1       4.857  -0.834  -0.787  1.00  0.00     0.030 A 
ATOM     20  C   UNL     1       4.665   1.416  -1.698  1.00  0.00     0.076 A 
ATOM     21  C   UNL     1       6.235  -0.848  -1.030  1.00  0.00     0.053 A 
ATOM     22  C   UNL     1       6.024   1.388  -1.882  1.00  0.00     0.167 A 
ATOM     23  C   UNL     1       6.793   0.298  -1.541  1.00  0.00     0.165 A 
ATOM     24  O   UNL     1       6.765   2.414  -2.370  1.00  0.00    -0.454 OA
ATOM     25  O   UNL     1       8.116   0.519  -1.751  1.00  0.00    -0.454 OA
ATOM     26  C   UNL     1       8.077   1.932  -2.047  1.00  0.00     0.468 C 
ENDBRANCH  15  18
ENDBRANCH   8  12
ENDBRANCH   4   7
ENDBRANCH   2   3
ENDBRANCH   1   2
BRANCH   1  27
ATOM     27  C   UNL     1       7.953  -0.967   3.182  1.00  0.00     0.118 C 
BRANCH  27  28
ATOM     28  N   UNL     1       8.742  -2.013   2.545  1.00  0.00    -0.352 N 
ATOM     29  C   UNL     1       9.829  -1.944   1.707  1.00  0.00     0.251 C 
ATOM     30  H   UNL     1       8.444  -2.928   2.750  1.00  0.00     0.163 HD
ATOM     31  O   UNL     1      10.203  -2.973   1.149  1.00  0.00    -0.269 OA
BRANCH  29  32
ATOM     32  C   UNL     1      10.543  -0.668   1.458  1.00  0.00     0.039 A 
ATOM     33  C   UNL     1      11.105  -0.445   0.195  1.00  0.00     0.014 A 
ATOM     34  C   UNL     1      10.719   0.288   2.459  1.00  0.00     0.014 A 
ATOM     35  C   UNL     1      11.780   0.752  -0.077  1.00  0.00     0.010 A 
ATOM     36  C   UNL     1      11.295   1.521   2.156  1.00  0.00     0.010 A 
ATOM     37  C   UNL     1      11.840   1.770   0.885  1.00  0.00    -0.014 A 
BRANCH  37  38
ATOM     38  C   UNL     1      12.451   3.104   0.611  1.00  0.00     0.031 A 
ATOM     39  C   UNL     1      13.607   3.583   1.433  1.00  0.00     0.074 A 
ATOM     40  C   UNL     1      11.902   3.936  -0.297  1.00  0.00     0.049 A 
ATOM     41  N   UNL     1      14.189   4.753   1.419  1.00  0.00    -0.248 NA
ATOM     42  C   UNL     1      14.190   2.629   2.389  1.00  0.00     0.031 C 
ATOM     43  C   UNL     1      10.821   3.569  -1.196  1.00  0.00     0.029 A 
ATOM     44  N   UNL     1      12.133   5.254  -0.603  1.00  0.00    -0.354 N 
ATOM     45  C   UNL     1      15.223   4.668   2.339  1.00  0.00     0.074 A 
ATOM     46  C   UNL     1      15.130   3.365   2.962  1.00  0.00     0.031 C 
ATOM     47  C   UNL     1      10.406   4.642  -1.884  1.00  0.00     0.029 A 
ATOM     48  C   UNL     1      11.226   5.779  -1.500  1.00  0.00     0.049 A 
ATOM     49  H   UNL     1      12.875   5.775  -0.219  1.00  0.00     0.167 HD
ATOM     50  C   UNL     1      16.189   5.577   2.599  1.00  0.00     0.037 A 
ATOM     51  C   UNL     1      11.072   7.028  -1.978  1.00  0.00     0.037 A 
ATOM     52  C   UNL     1      16.268   6.869   1.969  1.00  0.00     0.049 A 
ATOM     53  C   UNL     1      12.095   8.057  -1.601  1.00  0.00     0.074 A 
ATOM     54  C   UNL     1      17.234   7.846   2.130  1.00  0.00     0.029 A 
ATOM     55  N   UNL     1      15.338   7.372   1.068  1.00  0.00    -0.354 N 
ATOM     56  N   UNL     1      13.117   7.930  -0.789  1.00  0.00    -0.248 NA
ATOM     57  C   UNL     1      11.987   9.374  -2.240  1.00  0.00     0.031 C 
ATOM     58  C   UNL     1      16.859   8.960   1.373  1.00  0.00     0.029 A 
ATOM     59  C   UNL     1      15.690   8.659   0.691  1.00  0.00     0.049 A 
ATOM     60  H   UNL     1      14.546   6.886   0.745  1.00  0.00     0.167 HD
ATOM     61  C   UNL     1      13.810   9.129  -0.863  1.00  0.00     0.074 A 
ATOM     62  C   UNL     1      13.083   9.972  -1.793  1.00  0.00     0.031 C 
ATOM     63  C   UNL     1      14.956   9.488  -0.234  1.00  0.00     0.037 A 
BRANCH  50  64
ATOM     64  C   UNL     1      17.238   5.191   3.603  1.00  0.00     0.058 A 
ATOM     65  C   UNL     1      18.177   4.181   3.333  1.00  0.00     0.135 A 
ATOM     66  C   UNL     1      17.308   5.835   4.848  1.00  0.00     0.135 A 
ATOM     67  F   UNL     1      18.142   3.518   2.166  1.00  0.00    -0.206 F 
ATOM     68  C   UNL     1      19.125   3.799   4.275  1.00  0.00     0.059 A 
ATOM     69  C   UNL     1      18.268   5.490   5.794  1.00  0.00     0.059 A 
ATOM     70  F   UNL     1      16.431   6.802   5.159  1.00  0.00    -0.206 F 
ATOM     71  C   UNL     1      19.161   4.459   5.504  1.00  0.00     0.060 A 
BRANCH  71  72
ATOM     72  S   UNL     1      20.392   3.944   6.719  1.00  0.00     0.124 S 
ATOM     73  O   UNL     1      19.863   2.649   7.136  1.00  0.00    -0.237 OA
ATOM     74  O   UNL     1      21.615   3.904   5.924  1.00  0.00    -0.237 OA
ATOM     75  O   UNL     1      20.336   4.998   7.726  1.00  0.00    -0.744 OA
ENDBRANCH  71  72
ENDBRANCH  50  64
BRANCH  51  76
ATOM     76  C   UNL     1       9.958   7.344  -2.914  1.00  0.00     0.058 A 
ATOM     77  C   UNL     1      10.199   7.570  -4.277  1.00  0.00     0.135 A 
ATOM     78  C   UNL     1       8.627   7.405  -2.471  1.00  0.00     0.135 A 
ATOM     79  F   UNL     1      11.453   7.516  -4.752  1.00  0.00    -0.206 F 
ATOM     80  C   UNL     1       9.168   7.871  -5.163  1.00  0.00     0.059 A 
ATOM     81  C   UNL     1       7.575   7.684  -3.341  1.00  0.00     0.059 A 
ATOM     82  F   UNL     1       8.336   7.172  -1.181  1.00  0.00    -0.206 F 
ATOM     83  C   UNL     1       7.858   7.925  -4.685  1.00  0.00     0.060 A 
BRANCH  83  84
ATOM     84  S   UNL     1       6.529   8.288  -5.854  1.00  0.00     0.124 S 
ATOM     85  O   UNL     1       6.794   9.685  -6.177  1.00  0.00    -0.237 OA
ATOM     86  O   UNL     1       6.792   7.325  -6.919  1.00  0.00    -0.237 OA
ATOM     87  O   UNL     1       5.319   8.038  -5.077  1.00  0.00    -0.744 OA
ENDBRANCH  83  84
ENDBRANCH  51  76
BRANCH  63  88
ATOM     88  C   UNL     1      15.518  10.842  -0.557  1.00  0.00     0.058 A 
ATOM     89  C   UNL     1      14.903  12.023  -0.113  1.00  0.00     0.135 A 
ATOM     90  C   UNL     1      16.715  10.956  -1.283  1.00  0.00     0.135 A 
ATOM     91  F   UNL     1      13.751  11.969   0.573  1.00  0.00    -0.206 F 
ATOM     92  C   UNL     1      15.446  13.271  -0.394  1.00  0.00     0.059 A 
ATOM     93  C   UNL     1      17.293  12.193  -1.547  1.00  0.00     0.059 A 
ATOM     94  F   UNL     1      17.345   9.856  -1.726  1.00  0.00    -0.206 F 
ATOM     95  C   UNL     1      16.644  13.345  -1.107  1.00  0.00     0.060 A 
BRANCH  95  96
ATOM     96  S   UNL     1      17.359  14.971  -1.424  1.00  0.00     0.124 S 
ATOM     97  O   UNL     1      16.457  15.495  -2.444  1.00  0.00    -0.237 OA
ATOM     98  O   UNL     1      17.274  15.608  -0.114  1.00  0.00    -0.237 OA
ATOM     99  O   UNL     1      18.712  14.664  -1.879  1.00  0.00    -0.744 OA
ENDBRANCH  95  96
ENDBRANCH  63  88
ENDBRANCH  37  38
ENDBRANCH  29  32
ENDBRANCH  27  28
ENDBRANCH   1  27
TORSDOF 15
