REMARK SMILES O=C(C[C@H]1C(=O)NCC[N@@H+]1Cc1ccc(Cl)c(F)c1)NCCCNC(=O)c1ccc(-c2c3nc(c(-c4c(F)cc(S(=O)(=O)[O-])cc4F)c4ccc([nH]4)c(-c4c(F)cc(S(=O)(=O)[O-])cc4F)c4nc(c(-c5c(F)cc(S(=O)(=O)[O-])cc5F)c5ccc2[nH]5)C=C4)C=C3)cc1
REMARK SMILES IDX 22 1 21 2 20 3 1 4 2 5 3 7 4 8 5 9 10 10 6 11 7 12 9 13 8 15
REMARK SMILES IDX 11 17 12 18 13 19 19 20 14 21 17 22 15 23 18 24 16 25 23 26
REMARK SMILES IDX 24 27 25 28 26 30 27 31 28 32 92 33 29 34 91 35 30 36 31 37
REMARK SMILES IDX 32 38 85 39 33 40 90 41 84 42 86 43 34 44 89 45 83 46 82 47
REMARK SMILES IDX 35 49 69 50 48 51 68 52 49 53 52 54 67 55 87 56 50 57 51 58
REMARK SMILES IDX 66 60 88 61 53 62 36 63 37 64 46 65 38 66 39 67 45 68 47 69
REMARK SMILES IDX 40 70 41 71 42 72 43 73 44 74 70 75 71 76 80 77 72 78 73 79
REMARK SMILES IDX 79 80 81 81 74 82 75 83 76 84 77 85 78 86 54 87 55 88 64 89
REMARK SMILES IDX 56 90 57 91 63 92 65 93 58 94 59 95 60 96 61 97 62 98
REMARK H PARENT 20 6 10 14 7 16 24 29 86 48 52 59
REMARK Flexibility Score: inf
ROOT
ATOM      1  C   UNL     1       3.868   3.279  -2.038  1.00  0.00     0.042 C 
ENDROOT
BRANCH   1   2
ATOM      2  C   UNL     1       4.821   2.222  -1.494  1.00  0.00     0.117 C 
BRANCH   2   3
ATOM      3  N   UNL     1       4.176   0.939  -1.307  1.00  0.00    -0.356 N 
ATOM      4  O   UNL     1       5.134  -0.069  -3.133  1.00  0.00    -0.275 OA
ATOM      5  C   UNL     1       4.421  -0.131  -2.134  1.00  0.00     0.226 C 
ATOM      6  H   UNL     1       3.540   0.830  -0.563  1.00  0.00     0.163 HD
BRANCH   5   7
ATOM      7  C   UNL     1       3.701  -1.405  -1.760  1.00  0.00     0.175 C 
BRANCH   7   8
ATOM      8  C   UNL     1       3.971  -1.897  -0.328  1.00  0.00     0.283 C 
ATOM      9  C   UNL     1       3.519  -3.366  -0.284  1.00  0.00     0.279 C 
ATOM     10  N   UNL     1       5.375  -1.732   0.115  1.00  0.00    -0.319 N 
ATOM     11  O   UNL     1       2.349  -3.683  -0.078  1.00  0.00    -0.268 OA
ATOM     12  N   UNL     1       4.444  -4.327  -0.589  1.00  0.00    -0.345 N 
ATOM     13  C   UNL     1       6.296  -2.615  -0.606  1.00  0.00     0.284 C 
ATOM     14  H   UNL     1       5.642  -0.790  -0.173  1.00  0.00     0.349 HD
ATOM     15  C   UNL     1       5.864  -4.086  -0.726  1.00  0.00     0.177 C 
ATOM     16  H   UNL     1       4.120  -5.247  -0.725  1.00  0.00     0.163 HD
BRANCH  10  17
ATOM     17  C   UNL     1       5.576  -1.628   1.565  1.00  0.00     0.299 C 
BRANCH  17  18
ATOM     18  C   UNL     1       5.192  -2.830   2.396  1.00  0.00     0.009 A 
ATOM     19  C   UNL     1       3.897  -2.952   2.925  1.00  0.00     0.011 A 
ATOM     20  C   UNL     1       6.107  -3.869   2.610  1.00  0.00     0.050 A 
ATOM     21  C   UNL     1       3.501  -4.120   3.584  1.00  0.00     0.024 A 
ATOM     22  C   UNL     1       5.703  -5.036   3.254  1.00  0.00     0.142 A 
ATOM     23  C   UNL     1       4.402  -5.172   3.730  1.00  0.00     0.076 A 
ATOM     24  F   UNL     1       6.588  -6.037   3.377  1.00  0.00    -0.205 F 
ATOM     25  Cl  UNL     1       3.890  -6.633   4.480  1.00  0.00    -0.081 Cl
ENDBRANCH  17  18
ENDBRANCH  10  17
ENDBRANCH   7   8
ENDBRANCH   5   7
ENDBRANCH   2   3
ENDBRANCH   1   2
BRANCH   1  26
ATOM     26  C   UNL     1       2.664   3.565  -1.146  1.00  0.00     0.118 C 
BRANCH  26  27
ATOM     27  N   UNL     1       3.033   4.053   0.175  1.00  0.00    -0.352 N 
ATOM     28  C   UNL     1       2.607   5.157   0.867  1.00  0.00     0.251 C 
ATOM     29  H   UNL     1       3.696   3.500   0.648  1.00  0.00     0.163 HD
ATOM     30  O   UNL     1       3.172   5.445   1.923  1.00  0.00    -0.269 OA
BRANCH  28  31
ATOM     31  C   UNL     1       1.505   6.010   0.365  1.00  0.00     0.039 A 
ATOM     32  C   UNL     1       1.597   7.394   0.550  1.00  0.00     0.014 A 
ATOM     33  C   UNL     1       0.363   5.469  -0.232  1.00  0.00     0.014 A 
ATOM     34  C   UNL     1       0.569   8.230   0.107  1.00  0.00     0.010 A 
ATOM     35  C   UNL     1      -0.627   6.310  -0.743  1.00  0.00     0.010 A 
ATOM     36  C   UNL     1      -0.545   7.698  -0.562  1.00  0.00    -0.014 A 
BRANCH  36  37
ATOM     37  C   UNL     1      -1.643   8.582  -1.036  1.00  0.00     0.031 A 
ATOM     38  C   UNL     1      -3.025   8.460  -0.448  1.00  0.00     0.074 A 
ATOM     39  C   UNL     1      -1.407   9.478  -2.016  1.00  0.00     0.049 A 
ATOM     40  N   UNL     1      -4.110   9.133  -0.738  1.00  0.00    -0.248 NA
ATOM     41  C   UNL     1      -3.220   7.429   0.585  1.00  0.00     0.031 C 
ATOM     42  C   UNL     1      -0.128   9.660  -2.706  1.00  0.00     0.029 A 
ATOM     43  N   UNL     1      -2.234  10.402  -2.604  1.00  0.00    -0.354 N 
ATOM     44  C   UNL     1      -5.114   8.601   0.064  1.00  0.00     0.074 A 
ATOM     45  C   UNL     1      -4.523   7.511   0.810  1.00  0.00     0.031 C 
ATOM     46  C   UNL     1      -0.249  10.654  -3.601  1.00  0.00     0.029 A 
ATOM     47  C   UNL     1      -1.617  11.161  -3.571  1.00  0.00     0.049 A 
ATOM     48  H   UNL     1      -3.181  10.512  -2.357  1.00  0.00     0.167 HD
ATOM     49  C   UNL     1      -6.403   8.998   0.189  1.00  0.00     0.037 A 
ATOM     50  C   UNL     1      -2.098  12.155  -4.342  1.00  0.00     0.037 A 
ATOM     51  C   UNL     1      -6.982  10.102  -0.533  1.00  0.00     0.049 A 
ATOM     52  C   UNL     1      -3.526  12.599  -4.166  1.00  0.00     0.074 A 
ATOM     53  C   UNL     1      -8.264  10.614  -0.442  1.00  0.00     0.029 A 
ATOM     54  N   UNL     1      -6.313  10.868  -1.477  1.00  0.00    -0.354 N 
ATOM     55  N   UNL     1      -4.444  12.122  -3.360  1.00  0.00    -0.248 NA
ATOM     56  C   UNL     1      -3.977  13.727  -4.991  1.00  0.00     0.031 C 
ATOM     57  C   UNL     1      -8.382  11.668  -1.355  1.00  0.00     0.029 A 
ATOM     58  C   UNL     1      -7.159  11.843  -1.981  1.00  0.00     0.049 A 
ATOM     59  H   UNL     1      -5.376  10.738  -1.749  1.00  0.00     0.167 HD
ATOM     60  C   UNL     1      -5.570  12.915  -3.554  1.00  0.00     0.074 A 
ATOM     61  C   UNL     1      -5.214  13.906  -4.549  1.00  0.00     0.031 C 
ATOM     62  C   UNL     1      -6.786  12.833  -2.960  1.00  0.00     0.037 A 
BRANCH  49  63
ATOM     63  C   UNL     1      -7.275   8.238   1.152  1.00  0.00     0.058 A 
ATOM     64  C   UNL     1      -7.089   8.327   2.542  1.00  0.00     0.135 A 
ATOM     65  C   UNL     1      -8.326   7.433   0.684  1.00  0.00     0.135 A 
ATOM     66  F   UNL     1      -6.090   9.070   3.044  1.00  0.00    -0.206 F 
ATOM     67  C   UNL     1      -7.890   7.618   3.431  1.00  0.00     0.059 A 
ATOM     68  C   UNL     1      -9.159   6.737   1.557  1.00  0.00     0.059 A 
ATOM     69  F   UNL     1      -8.551   7.312  -0.633  1.00  0.00    -0.206 F 
ATOM     70  C   UNL     1      -8.921   6.823   2.928  1.00  0.00     0.060 A 
BRANCH  70  71
ATOM     71  S   UNL     1      -9.951   5.906   4.094  1.00  0.00     0.124 S 
ATOM     72  O   UNL     1      -9.043   4.839   4.505  1.00  0.00    -0.237 OA
ATOM     73  O   UNL     1     -10.244   6.912   5.111  1.00  0.00    -0.237 OA
ATOM     74  O   UNL     1     -11.090   5.486   3.286  1.00  0.00    -0.744 OA
ENDBRANCH  70  71
ENDBRANCH  49  63
BRANCH  50  75
ATOM     75  C   UNL     1      -1.207  12.832  -5.322  1.00  0.00     0.058 A 
ATOM     76  C   UNL     1      -0.766  14.147  -5.110  1.00  0.00     0.135 A 
ATOM     77  C   UNL     1      -0.771  12.177  -6.484  1.00  0.00     0.135 A 
ATOM     78  F   UNL     1      -1.160  14.817  -4.016  1.00  0.00    -0.206 F 
ATOM     79  C   UNL     1       0.057  14.797  -6.024  1.00  0.00     0.059 A 
ATOM     80  C   UNL     1       0.073  12.797  -7.400  1.00  0.00     0.059 A 
ATOM     81  F   UNL     1      -1.149  10.911  -6.725  1.00  0.00    -0.206 F 
ATOM     82  C   UNL     1       0.472  14.112  -7.167  1.00  0.00     0.060 A 
BRANCH  82  83
ATOM     83  S   UNL     1       1.577  14.949  -8.325  1.00  0.00     0.124 S 
ATOM     84  O   UNL     1       0.666  15.883  -8.976  1.00  0.00    -0.237 OA
ATOM     85  O   UNL     1       2.567  15.541  -7.431  1.00  0.00    -0.237 OA
ATOM     86  O   UNL     1       2.071  13.860  -9.162  1.00  0.00    -0.744 OA
ENDBRANCH  82  83
ENDBRANCH  50  75
BRANCH  62  87
ATOM     87  C   UNL     1      -7.806  13.876  -3.328  1.00  0.00     0.058 A 
ATOM     88  C   UNL     1      -8.441  13.886  -4.579  1.00  0.00     0.135 A 
ATOM     89  C   UNL     1      -8.174  14.863  -2.398  1.00  0.00     0.135 A 
ATOM     90  F   UNL     1      -8.125  12.967  -5.505  1.00  0.00    -0.206 F 
ATOM     91  C   UNL     1      -9.379  14.860  -4.910  1.00  0.00     0.059 A 
ATOM     92  C   UNL     1      -9.129  15.829  -2.697  1.00  0.00     0.059 A 
ATOM     93  F   UNL     1      -7.607  14.890  -1.181  1.00  0.00    -0.206 F 
ATOM     94  C   UNL     1      -9.713  15.830  -3.963  1.00  0.00     0.060 A 
BRANCH  94  95
ATOM     95  S   UNL     1     -10.937  17.083  -4.398  1.00  0.00     0.124 S 
ATOM     96  O   UNL     1     -10.161  17.962  -5.266  1.00  0.00    -0.237 OA
ATOM     97  O   UNL     1     -11.974  16.295  -5.058  1.00  0.00    -0.237 OA
ATOM     98  O   UNL     1     -11.317  17.649  -3.107  1.00  0.00    -0.744 OA
ENDBRANCH  94  95
ENDBRANCH  62  87
ENDBRANCH  36  37
ENDBRANCH  28  31
ENDBRANCH  26  27
ENDBRANCH   1  26
TORSDOF 16
