REMARK SMILES CC(C)C[C@@H]([NH3+])C(=O)N1CC[C@H](C(=O)NCCCNC(=O)c2ccc(-c3c4nc(c(-c5c(F)cc(S(=O)(=O)[O-])cc5F)c5ccc([nH]5)c(-c5c(F)cc(S(=O)(=O)[O-])cc5F)c5nc(c(-c6c(F)cc(S(=O)(=O)[O-])cc6F)c6ccc3[nH]6)C=C5)C=C4)cc2)[C@@H]1C
REMARK SMILES IDX 16 1 15 2 13 3 14 4 12 6 9 7 10 8 88 9 11 10 89 11 7 12 8 13
REMARK SMILES IDX 5 14 4 15 2 16 1 17 3 18 6 19 17 23 18 24 19 25 20 26 21 28
REMARK SMILES IDX 22 29 23 30 87 31 24 32 86 33 25 34 26 35 27 36 80 37 28 38
REMARK SMILES IDX 85 39 79 40 81 41 29 42 84 43 78 44 77 45 30 47 64 48 43 49
REMARK SMILES IDX 63 50 44 51 47 52 62 53 82 54 45 55 46 56 61 58 83 59 48 60
REMARK SMILES IDX 31 61 32 62 41 63 33 64 34 65 40 66 42 67 35 68 36 69 37 70
REMARK SMILES IDX 38 71 39 72 65 73 66 74 75 75 67 76 68 77 74 78 76 79 69 80
REMARK SMILES IDX 70 81 71 82 72 83 73 84 49 85 50 86 59 87 51 88 52 89 58 90
REMARK SMILES IDX 60 91 53 92 54 93 55 94 56 95 57 96
REMARK H PARENT 15 5 6 20 6 21 6 22 19 27 81 46 47 57
REMARK Flexibility Score: inf
ROOT
ATOM      1  C   UNL     1      -6.249   6.420   2.375  1.00  0.00     0.117 C 
ENDROOT
BRANCH   1   2
ATOM      2  N   UNL     1      -6.476   5.633   1.174  1.00  0.00    -0.356 N 
ATOM      3  C   UNL     1      -5.780   4.564   0.685  1.00  0.00     0.225 C 
ATOM      4  O   UNL     1      -6.210   4.032  -0.335  1.00  0.00    -0.275 OA
ATOM      5  H   UNL     1      -7.248   5.913   0.631  1.00  0.00     0.163 HD
BRANCH   3   6
ATOM      6  C   UNL     1      -4.571   4.072   1.473  1.00  0.00     0.102 C 
ATOM      7  N   UNL     1      -3.804   1.796   1.426  1.00  0.00    -0.334 N 
ATOM      8  C   UNL     1      -5.029   1.837   2.195  1.00  0.00     0.121 C 
ATOM      9  C   UNL     1      -3.564   3.102   0.801  1.00  0.00     0.094 C 
ATOM     10  C   UNL     1      -5.076   3.275   2.684  1.00  0.00     0.037 C 
ATOM     11  C   UNL     1      -3.649   3.021  -0.723  1.00  0.00     0.032 C 
BRANCH   7  12
ATOM     12  C   UNL     1      -3.018   0.665   1.477  1.00  0.00     0.280 C 
ATOM     13  O   UNL     1      -3.521  -0.424   1.792  1.00  0.00    -0.268 OA
BRANCH  12  14
ATOM     14  C   UNL     1      -1.461   0.751   1.409  1.00  0.00     0.271 C 
BRANCH  14  15
ATOM     15  C   UNL     1      -0.813   1.415   0.191  1.00  0.00     0.078 C 
BRANCH  15  16
ATOM     16  C   UNL     1       0.730   1.359   0.128  1.00  0.00    -0.011 C 
ATOM     17  C   UNL     1       1.261  -0.065  -0.018  1.00  0.00     0.007 C 
ATOM     18  C   UNL     1       1.224   2.224  -1.036  1.00  0.00     0.007 C 
ENDBRANCH  15  16
ENDBRANCH  14  15
BRANCH  14  19
ATOM     19  N   UNL     1      -0.991   1.353   2.679  1.00  0.00    -0.347 N 
ATOM     20  H   UNL     1      -1.338   2.310   2.751  1.00  0.00     0.345 HD
ATOM     21  H   UNL     1       0.029   1.358   2.696  1.00  0.00     0.345 HD
ATOM     22  H   UNL     1      -1.341   0.805   3.465  1.00  0.00     0.345 HD
ENDBRANCH  14  19
ENDBRANCH  12  14
ENDBRANCH   7  12
ENDBRANCH   3   6
ENDBRANCH   1   2
BRANCH   1  23
ATOM     23  C   UNL     1      -5.815   7.844   2.059  1.00  0.00     0.042 C 
BRANCH  23  24
ATOM     24  C   UNL     1      -6.808   8.628   1.208  1.00  0.00     0.118 C 
BRANCH  24  25
ATOM     25  N   UNL     1      -8.129   8.722   1.816  1.00  0.00    -0.352 N 
ATOM     26  C   UNL     1      -8.873   9.827   2.148  1.00  0.00     0.251 C 
ATOM     27  H   UNL     1      -8.554   7.859   2.021  1.00  0.00     0.163 HD
ATOM     28  O   UNL     1      -9.899   9.686   2.810  1.00  0.00    -0.269 OA
BRANCH  26  29
ATOM     29  C   UNL     1      -8.434  11.178   1.738  1.00  0.00     0.039 A 
ATOM     30  C   UNL     1      -8.527  12.225   2.659  1.00  0.00     0.014 A 
ATOM     31  C   UNL     1      -7.939  11.418   0.454  1.00  0.00     0.014 A 
ATOM     32  C   UNL     1      -8.056  13.493   2.315  1.00  0.00     0.010 A 
ATOM     33  C   UNL     1      -7.393  12.660   0.142  1.00  0.00     0.010 A 
ATOM     34  C   UNL     1      -7.446  13.712   1.069  1.00  0.00    -0.014 A 
BRANCH  34  35
ATOM     35  C   UNL     1      -6.847  15.028   0.723  1.00  0.00     0.031 A 
ATOM     36  C   UNL     1      -7.378  15.824  -0.438  1.00  0.00     0.074 A 
ATOM     37  C   UNL     1      -5.775  15.470   1.411  1.00  0.00     0.049 A 
ATOM     38  N   UNL     1      -6.942  16.954  -0.932  1.00  0.00    -0.248 NA
ATOM     39  C   UNL     1      -8.533  15.261  -1.156  1.00  0.00     0.031 C 
ATOM     40  C   UNL     1      -5.131  14.761   2.520  1.00  0.00     0.029 A 
ATOM     41  N   UNL     1      -5.026  16.611   1.270  1.00  0.00    -0.354 N 
ATOM     42  C   UNL     1      -7.754  17.228  -2.026  1.00  0.00     0.074 A 
ATOM     43  C   UNL     1      -8.675  16.120  -2.155  1.00  0.00     0.031 C 
ATOM     44  C   UNL     1      -4.096  15.490   2.967  1.00  0.00     0.029 A 
ATOM     45  C   UNL     1      -3.974  16.695   2.153  1.00  0.00     0.049 A 
ATOM     46  H   UNL     1      -5.223  17.305   0.600  1.00  0.00     0.167 HD
ATOM     47  C   UNL     1      -7.746  18.314  -2.837  1.00  0.00     0.037 A 
ATOM     48  C   UNL     1      -3.010  17.627   2.284  1.00  0.00     0.037 A 
ATOM     49  C   UNL     1      -6.837  19.422  -2.688  1.00  0.00     0.049 A 
ATOM     50  C   UNL     1      -3.023  18.827   1.377  1.00  0.00     0.074 A 
ATOM     51  C   UNL     1      -6.795  20.602  -3.410  1.00  0.00     0.029 A 
ATOM     52  N   UNL     1      -5.804  19.484  -1.763  1.00  0.00    -0.354 N 
ATOM     53  N   UNL     1      -3.851  19.111   0.400  1.00  0.00    -0.248 NA
ATOM     54  C   UNL     1      -1.978  19.837   1.593  1.00  0.00     0.031 C 
ATOM     55  C   UNL     1      -5.703  21.351  -2.962  1.00  0.00     0.029 A 
ATOM     56  C   UNL     1      -5.100  20.667  -1.917  1.00  0.00     0.049 A 
ATOM     57  H   UNL     1      -5.601  18.789  -1.096  1.00  0.00     0.167 HD
ATOM     58  C   UNL     1      -3.442  20.343  -0.100  1.00  0.00     0.074 A 
ATOM     59  C   UNL     1      -2.302  20.756   0.693  1.00  0.00     0.031 C 
ATOM     60  C   UNL     1      -3.965  21.067  -1.121  1.00  0.00     0.037 A 
BRANCH  47  61
ATOM     61  C   UNL     1      -8.744  18.353  -3.963  1.00  0.00     0.058 A 
ATOM     62  C   UNL     1     -10.123  18.488  -3.729  1.00  0.00     0.135 A 
ATOM     63  C   UNL     1      -8.314  18.282  -5.299  1.00  0.00     0.135 A 
ATOM     64  F   UNL     1     -10.593  18.547  -2.473  1.00  0.00    -0.206 F 
ATOM     65  C   UNL     1     -11.041  18.511  -4.774  1.00  0.00     0.059 A 
ATOM     66  C   UNL     1      -9.212  18.337  -6.361  1.00  0.00     0.059 A 
ATOM     67  F   UNL     1      -7.008  18.156  -5.583  1.00  0.00    -0.206 F 
ATOM     68  C   UNL     1     -10.575  18.433  -6.088  1.00  0.00     0.060 A 
BRANCH  68  69
ATOM     69  S   UNL     1     -11.780  18.457  -7.431  1.00  0.00     0.124 S 
ATOM     70  O   UNL     1     -12.387  17.136  -7.301  1.00  0.00    -0.237 OA
ATOM     71  O   UNL     1     -12.632  19.584  -7.066  1.00  0.00    -0.237 OA
ATOM     72  O   UNL     1     -10.959  18.655  -8.622  1.00  0.00    -0.744 OA
ENDBRANCH  68  69
ENDBRANCH  47  61
BRANCH  48  73
ATOM     73  C   UNL     1      -1.959  17.460   3.324  1.00  0.00     0.058 A 
ATOM     74  C   UNL     1      -1.920  18.287   4.456  1.00  0.00     0.135 A 
ATOM     75  C   UNL     1      -0.991  16.448   3.220  1.00  0.00     0.135 A 
ATOM     76  F   UNL     1      -2.819  19.272   4.598  1.00  0.00    -0.206 F 
ATOM     77  C   UNL     1      -0.953  18.125   5.444  1.00  0.00     0.059 A 
ATOM     78  C   UNL     1      -0.031  16.249   4.208  1.00  0.00     0.059 A 
ATOM     79  F   UNL     1      -0.995  15.619   2.165  1.00  0.00    -0.206 F 
ATOM     80  C   UNL     1      -0.016  17.098   5.313  1.00  0.00     0.060 A 
BRANCH  80  81
ATOM     81  S   UNL     1       1.194  16.856   6.632  1.00  0.00     0.124 S 
ATOM     82  O   UNL     1       2.071  18.005   6.441  1.00  0.00    -0.237 OA
ATOM     83  O   UNL     1       0.353  16.884   7.825  1.00  0.00    -0.237 OA
ATOM     84  O   UNL     1       1.778  15.556   6.317  1.00  0.00    -0.744 OA
ENDBRANCH  80  81
ENDBRANCH  48  73
BRANCH  60  85
ATOM     85  C   UNL     1      -3.332  22.398  -1.425  1.00  0.00     0.058 A 
ATOM     86  C   UNL     1      -2.065  22.496  -2.022  1.00  0.00     0.135 A 
ATOM     87  C   UNL     1      -4.028  23.591  -1.167  1.00  0.00     0.135 A 
ATOM     88  F   UNL     1      -1.353  21.388  -2.283  1.00  0.00    -0.206 F 
ATOM     89  C   UNL     1      -1.500  23.730  -2.331  1.00  0.00     0.059 A 
ATOM     90  C   UNL     1      -3.496  24.833  -1.496  1.00  0.00     0.059 A 
ATOM     91  F   UNL     1      -5.247  23.555  -0.607  1.00  0.00    -0.206 F 
ATOM     92  C   UNL     1      -2.226  24.893  -2.067  1.00  0.00     0.060 A 
BRANCH  92  93
ATOM     93  S   UNL     1      -1.497  26.485  -2.507  1.00  0.00     0.124 S 
ATOM     94  O   UNL     1      -0.459  26.624  -1.491  1.00  0.00    -0.237 OA
ATOM     95  O   UNL     1      -1.026  26.247  -3.868  1.00  0.00    -0.237 OA
ATOM     96  O   UNL     1      -2.616  27.416  -2.391  1.00  0.00    -0.744 OA
ENDBRANCH  92  93
ENDBRANCH  60  85
ENDBRANCH  34  35
ENDBRANCH  26  29
ENDBRANCH  24  25
ENDBRANCH  23  24
ENDBRANCH   1  23
TORSDOF 18
