REMARK SMILES COc1cc(Br)ccc1[C@H]([NH3+])C(=O)NCCCNC(=O)c1ccc(-c2c3nc(c(-c4c(F)cc(S(=O)(=O)[O-])cc4F)c4ccc([nH]4)c(-c4c(F)cc(S(=O)(=O)[O-])cc4F)c4nc(c(-c5c(F)cc(S(=O)(=O)[O-])cc5F)c5ccc2[nH]5)C=C4)C=C3)cc1
REMARK SMILES IDX 16 1 15 2 14 3 12 4 13 5 10 7 9 8 3 9 4 10 5 11 8 12 6 13
REMARK SMILES IDX 7 14 2 15 1 16 11 17 17 21 18 22 19 23 20 25 21 26 22 27
REMARK SMILES IDX 86 28 23 29 85 30 24 31 25 32 26 33 79 34 27 35 84 36 78 37
REMARK SMILES IDX 80 38 28 39 83 40 77 41 76 42 29 44 63 45 42 46 62 47 43 48
REMARK SMILES IDX 46 49 61 50 81 51 44 52 45 53 60 55 82 56 47 57 30 58 31 59
REMARK SMILES IDX 40 60 32 61 33 62 39 63 41 64 34 65 35 66 36 67 37 68 38 69
REMARK SMILES IDX 64 70 65 71 74 72 66 73 67 74 73 75 75 76 68 77 69 78 70 79
REMARK SMILES IDX 71 80 72 81 48 82 49 83 58 84 50 85 51 86 57 87 59 88 52 89
REMARK SMILES IDX 53 90 54 91 55 92 56 93
REMARK H PARENT 14 6 11 18 11 19 11 20 18 24 80 43 46 54
REMARK Flexibility Score: inf
ROOT
ATOM      1  C   UNL     1      -0.454   5.940  -3.484  1.00  0.00     0.042 C 
ENDROOT
BRANCH   1   2
ATOM      2  C   UNL     1      -1.725   5.268  -2.995  1.00  0.00     0.118 C 
BRANCH   2   3
ATOM      3  N   UNL     1      -2.011   3.998  -3.627  1.00  0.00    -0.351 N 
ATOM      4  C   UNL     1      -1.995   2.744  -3.073  1.00  0.00     0.283 C 
ATOM      5  O   UNL     1      -2.429   1.810  -3.759  1.00  0.00    -0.268 OA
ATOM      6  H   UNL     1      -2.249   4.040  -4.582  1.00  0.00     0.163 HD
BRANCH   4   7
ATOM      7  C   UNL     1      -1.430   2.482  -1.644  1.00  0.00     0.306 C 
BRANCH   7   8
ATOM      8  C   UNL     1      -2.249   3.150  -0.533  1.00  0.00     0.061 A 
ATOM      9  C   UNL     1      -1.792   4.196   0.304  1.00  0.00     0.129 A 
ATOM     10  C   UNL     1      -2.676   4.833   1.182  1.00  0.00     0.062 A 
ATOM     11  C   UNL     1      -4.004   4.416   1.260  1.00  0.00     0.021 A 
ATOM     12  C   UNL     1      -3.587   2.719  -0.391  1.00  0.00     0.015 A 
ATOM     13  Br  UNL     1      -5.205   5.321   2.407  1.00  0.00    -0.051 Br
ATOM     14  C   UNL     1      -4.458   3.346   0.499  1.00  0.00     0.016 A 
BRANCH   9  15
ATOM     15  O   UNL     1      -0.469   4.538   0.206  1.00  0.00    -0.496 OA
ATOM     16  C   UNL     1      -0.070   5.845   0.606  1.00  0.00     0.278 C 
ENDBRANCH   9  15
ENDBRANCH   7   8
BRANCH   7  17
ATOM     17  N   UNL     1       0.019   2.742  -1.668  1.00  0.00    -0.343 N 
ATOM     18  H   UNL     1       0.186   3.714  -1.926  1.00  0.00     0.345 HD
ATOM     19  H   UNL     1       0.464   2.128  -2.351  1.00  0.00     0.345 HD
ATOM     20  H   UNL     1       0.412   2.563  -0.744  1.00  0.00     0.345 HD
ENDBRANCH   7  17
ENDBRANCH   4   7
ENDBRANCH   2   3
ENDBRANCH   1   2
BRANCH   1  21
ATOM     21  C   UNL     1      -0.621   6.649  -4.818  1.00  0.00     0.118 C 
BRANCH  21  22
ATOM     22  N   UNL     1      -1.602   7.731  -4.763  1.00  0.00    -0.352 N 
ATOM     23  C   UNL     1      -1.467   9.081  -4.977  1.00  0.00     0.251 C 
ATOM     24  H   UNL     1      -2.515   7.442  -4.533  1.00  0.00     0.163 HD
ATOM     25  O   UNL     1      -2.391   9.832  -4.683  1.00  0.00    -0.269 OA
BRANCH  23  26
ATOM     26  C   UNL     1      -0.214   9.630  -5.539  1.00  0.00     0.039 A 
ATOM     27  C   UNL     1       0.269  10.850  -5.059  1.00  0.00     0.014 A 
ATOM     28  C   UNL     1       0.477   8.955  -6.546  1.00  0.00     0.014 A 
ATOM     29  C   UNL     1       1.483  11.351  -5.536  1.00  0.00     0.010 A 
ATOM     30  C   UNL     1       1.732   9.399  -6.943  1.00  0.00     0.010 A 
ATOM     31  C   UNL     1       2.246  10.606  -6.450  1.00  0.00    -0.014 A 
BRANCH  31  32
ATOM     32  C   UNL     1       3.578  11.070  -6.915  1.00  0.00     0.031 A 
ATOM     33  C   UNL     1       3.813  11.329  -8.380  1.00  0.00     0.074 A 
ATOM     34  C   UNL     1       4.592  11.181  -6.033  1.00  0.00     0.049 A 
ATOM     35  N   UNL     1       4.924  11.643  -8.995  1.00  0.00    -0.248 NA
ATOM     36  C   UNL     1       2.654  11.185  -9.276  1.00  0.00     0.031 C 
ATOM     37  C   UNL     1       4.500  10.906  -4.597  1.00  0.00     0.029 A 
ATOM     38  N   UNL     1       5.904  11.539  -6.216  1.00  0.00    -0.354 N 
ATOM     39  C   UNL     1       4.602  11.714 -10.345  1.00  0.00     0.074 A 
ATOM     40  C   UNL     1       3.208  11.352 -10.467  1.00  0.00     0.031 C 
ATOM     41  C   UNL     1       5.694  11.130  -4.027  1.00  0.00     0.029 A 
ATOM     42  C   UNL     1       6.649  11.518  -5.060  1.00  0.00     0.049 A 
ATOM     43  H   UNL     1       6.277  11.788  -7.092  1.00  0.00     0.167 HD
ATOM     44  C   UNL     1       5.390  12.075 -11.386  1.00  0.00     0.037 A 
ATOM     45  C   UNL     1       7.957  11.769  -4.857  1.00  0.00     0.037 A 
ATOM     46  C   UNL     1       6.770  12.460 -11.249  1.00  0.00     0.049 A 
ATOM     47  C   UNL     1       8.815  12.162  -6.030  1.00  0.00     0.074 A 
ATOM     48  C   UNL     1       7.640  12.900 -12.231  1.00  0.00     0.029 A 
ATOM     49  N   UNL     1       7.482  12.449 -10.059  1.00  0.00    -0.354 N 
ATOM     50  N   UNL     1       8.477  12.289  -7.292  1.00  0.00    -0.248 NA
ATOM     51  C   UNL     1      10.228  12.453  -5.754  1.00  0.00     0.031 C 
ATOM     52  C   UNL     1       8.893  13.105 -11.643  1.00  0.00     0.029 A 
ATOM     53  C   UNL     1       8.788  12.852 -10.285  1.00  0.00     0.049 A 
ATOM     54  H   UNL     1       7.114  12.192  -9.182  1.00  0.00     0.167 HD
ATOM     55  C   UNL     1       9.628  12.705  -7.954  1.00  0.00     0.074 A 
ATOM     56  C   UNL     1      10.666  12.818  -6.950  1.00  0.00     0.031 C 
ATOM     57  C   UNL     1       9.807  12.970  -9.271  1.00  0.00     0.037 A 
BRANCH  44  58
ATOM     58  C   UNL     1       4.777  12.076 -12.761  1.00  0.00     0.058 A 
ATOM     59  C   UNL     1       3.793  13.007 -13.131  1.00  0.00     0.135 A 
ATOM     60  C   UNL     1       5.205  11.158 -13.734  1.00  0.00     0.135 A 
ATOM     61  F   UNL     1       3.333  13.898 -12.238  1.00  0.00    -0.206 F 
ATOM     62  C   UNL     1       3.233  13.008 -14.405  1.00  0.00     0.059 A 
ATOM     63  C   UNL     1       4.683  11.162 -15.024  1.00  0.00     0.059 A 
ATOM     64  F   UNL     1       6.143  10.244 -13.436  1.00  0.00    -0.206 F 
ATOM     65  C   UNL     1       3.687  12.082 -15.346  1.00  0.00     0.060 A 
BRANCH  65  66
ATOM     66  S   UNL     1       2.957  12.106 -16.996  1.00  0.00     0.124 S 
ATOM     67  O   UNL     1       1.622  11.579 -16.732  1.00  0.00    -0.237 OA
ATOM     68  O   UNL     1       3.022  13.522 -17.344  1.00  0.00    -0.237 OA
ATOM     69  O   UNL     1       3.834  11.233 -17.770  1.00  0.00    -0.744 OA
ENDBRANCH  65  66
ENDBRANCH  44  58
BRANCH  45  70
ATOM     70  C   UNL     1       8.530  11.676  -3.487  1.00  0.00     0.058 A 
ATOM     71  C   UNL     1       8.954  12.824  -2.801  1.00  0.00     0.135 A 
ATOM     72  C   UNL     1       8.655  10.441  -2.830  1.00  0.00     0.135 A 
ATOM     73  F   UNL     1       8.861  14.027  -3.388  1.00  0.00    -0.206 F 
ATOM     74  C   UNL     1       9.498  12.752  -1.523  1.00  0.00     0.059 A 
ATOM     75  C   UNL     1       9.169  10.347  -1.540  1.00  0.00     0.059 A 
ATOM     76  F   UNL     1       8.248   9.313  -3.433  1.00  0.00    -0.206 F 
ATOM     77  C   UNL     1       9.598  11.508  -0.899  1.00  0.00     0.060 A 
BRANCH  77  78
ATOM     78  S   UNL     1      10.264  11.432   0.778  1.00  0.00     0.124 S 
ATOM     79  O   UNL     1      11.677  11.708   0.547  1.00  0.00    -0.237 OA
ATOM     80  O   UNL     1       9.509  12.483   1.454  1.00  0.00    -0.237 OA
ATOM     81  O   UNL     1       9.947  10.072   1.204  1.00  0.00    -0.744 OA
ENDBRANCH  77  78
ENDBRANCH  45  70
BRANCH  57  82
ATOM     82  C   UNL     1      11.165  13.454  -9.705  1.00  0.00     0.058 A 
ATOM     83  C   UNL     1      12.278  12.601  -9.744  1.00  0.00     0.135 A 
ATOM     84  C   UNL     1      11.336  14.777 -10.146  1.00  0.00     0.135 A 
ATOM     85  F   UNL     1      12.171  11.329  -9.327  1.00  0.00    -0.206 F 
ATOM     86  C   UNL     1      13.519  13.047 -10.184  1.00  0.00     0.059 A 
ATOM     87  C   UNL     1      12.560  15.236 -10.620  1.00  0.00     0.059 A 
ATOM     88  F   UNL     1      10.301  15.632 -10.139  1.00  0.00    -0.206 F 
ATOM     89  C   UNL     1      13.649  14.366 -10.625  1.00  0.00     0.060 A 
BRANCH  89  90
ATOM     90  S   UNL     1      15.256  14.920 -11.233  1.00  0.00     0.124 S 
ATOM     91  O   UNL     1      16.024  15.007  -9.995  1.00  0.00    -0.237 OA
ATOM     92  O   UNL     1      15.635  13.841 -12.140  1.00  0.00    -0.237 OA
ATOM     93  O   UNL     1      14.956  16.195 -11.876  1.00  0.00    -0.744 OA
ENDBRANCH  89  90
ENDBRANCH  57  82
ENDBRANCH  31  32
ENDBRANCH  23  26
ENDBRANCH  21  22
ENDBRANCH   1  21
TORSDOF 16
