REMARK SMILES CC[C@@H]1CCCC[C@@H]1OCC[C@@H]1CCC[C@]1([NH2+]C)C(=O)NCCCNC(=O)c1ccc(-c2c3nc(c(-c4c(F)cc(S(=O)(=O)[O-])cc4F)c4ccc([nH]4)c(-c4c(F)cc(S(=O)(=O)[O-])cc4F)c4nc(c(-c5c(F)cc(S(=O)(=O)[O-])cc5F)c5ccc2[nH]5)C=C4)C=C3)cc1
REMARK SMILES IDX 22 1 21 2 19 3 20 4 16 6 12 7 13 8 14 9 15 10 11 11 10 12
REMARK SMILES IDX 9 13 8 14 3 15 4 16 5 17 7 18 6 19 2 20 1 21 17 22 18 23
REMARK SMILES IDX 23 26 24 27 25 28 26 29 27 31 28 32 29 33 93 34 30 35 92 36
REMARK SMILES IDX 31 37 32 38 33 39 86 40 34 41 91 42 85 43 87 44 35 45 90 46
REMARK SMILES IDX 84 47 83 48 36 50 70 51 49 52 69 53 50 54 53 55 68 56 88 57
REMARK SMILES IDX 51 58 52 59 67 61 89 62 54 63 37 64 38 65 47 66 39 67 40 68
REMARK SMILES IDX 46 69 48 70 41 71 42 72 43 73 44 74 45 75 71 76 72 77 81 78
REMARK SMILES IDX 73 79 74 80 80 81 82 82 75 83 76 84 77 85 78 86 79 87 55 88
REMARK SMILES IDX 56 89 65 90 57 91 58 92 64 93 66 94 59 95 60 96 61 97 62 98
REMARK SMILES IDX 63 99
REMARK H PARENT 21 5 17 24 17 25 25 30 87 49 53 60
REMARK Flexibility Score: inf
ROOT
ATOM      1  C   UNL     1      -1.426   0.686   1.603  1.00  0.00     0.118 C 
ENDROOT
BRANCH   1   2
ATOM      2  N   UNL     1      -0.272   1.635   1.849  1.00  0.00    -0.351 N 
ATOM      3  C   UNL     1       1.091   1.357   1.717  1.00  0.00     0.281 C 
ATOM      4  O   UNL     1       1.532   1.325   0.559  1.00  0.00    -0.268 OA
ATOM      5  H   UNL     1      -0.507   2.547   2.133  1.00  0.00     0.163 HD
BRANCH   3   6
ATOM      6  C   UNL     1       2.131   1.375   2.975  1.00  0.00     0.178 C 
ATOM      7  C   UNL     1       1.685   2.197   4.216  1.00  0.00     0.063 C 
ATOM      8  C   UNL     1       1.789   3.641   3.701  1.00  0.00     0.011 C 
ATOM      9  C   UNL     1       3.097   3.646   2.902  1.00  0.00     0.008 C 
ATOM     10  C   UNL     1       3.390   2.190   2.561  1.00  0.00     0.079 C 
BRANCH   7  11
ATOM     11  C   UNL     1       0.489   1.874   5.148  1.00  0.00     0.039 C 
BRANCH  11  12
ATOM     12  C   UNL     1      -0.856   1.274   4.706  1.00  0.00     0.161 C 
BRANCH  12  13
ATOM     13  O   UNL     1      -1.041  -0.091   4.215  1.00  0.00    -0.378 OA
BRANCH  13  14
ATOM     14  C   UNL     1       0.021  -1.014   4.368  1.00  0.00     0.121 C 
ATOM     15  C   UNL     1       0.261  -2.234   3.338  1.00  0.00     0.018 C 
ATOM     16  C   UNL     1      -0.359  -3.533   3.891  1.00  0.00     0.006 C 
ATOM     17  C   UNL     1       0.073  -3.808   5.312  1.00  0.00     0.000 C 
ATOM     18  C   UNL     1       0.154  -1.393   5.856  1.00  0.00     0.032 C 
ATOM     19  C   UNL     1      -0.472  -2.725   6.213  1.00  0.00     0.003 C 
BRANCH  15  20
ATOM     20  C   UNL     1      -0.044  -2.331   1.792  1.00  0.00     0.003 C 
ATOM     21  C   UNL     1       0.730  -1.570   0.723  1.00  0.00     0.004 C 
ENDBRANCH  15  20
ENDBRANCH  13  14
ENDBRANCH  12  13
ENDBRANCH  11  12
ENDBRANCH   7  11
BRANCH   6  22
ATOM     22  N   UNL     1       2.615   0.035   3.405  1.00  0.00    -0.336 N 
ATOM     23  C   UNL     1       3.683  -0.662   2.723  1.00  0.00     0.331 C 
ATOM     24  H   UNL     1       1.805  -0.583   3.369  1.00  0.00     0.346 HD
ATOM     25  H   UNL     1       3.046   0.248   4.305  1.00  0.00     0.346 HD
ENDBRANCH   6  22
ENDBRANCH   3   6
ENDBRANCH   1   2
BRANCH   1  26
ATOM     26  C   UNL     1      -2.776   1.080   2.244  1.00  0.00     0.042 C 
BRANCH  26  27
ATOM     27  C   UNL     1      -4.054   0.683   1.516  1.00  0.00     0.118 C 
BRANCH  27  28
ATOM     28  N   UNL     1      -4.606  -0.647   1.782  1.00  0.00    -0.352 N 
ATOM     29  C   UNL     1      -5.926  -1.013   2.030  1.00  0.00     0.251 C 
ATOM     30  H   UNL     1      -3.954  -1.385   1.784  1.00  0.00     0.163 HD
ATOM     31  O   UNL     1      -6.210  -2.190   2.237  1.00  0.00    -0.269 OA
BRANCH  29  32
ATOM     32  C   UNL     1      -6.996   0.022   2.100  1.00  0.00     0.039 A 
ATOM     33  C   UNL     1      -7.993  -0.055   3.081  1.00  0.00     0.014 A 
ATOM     34  C   UNL     1      -6.985   1.110   1.231  1.00  0.00     0.014 A 
ATOM     35  C   UNL     1      -8.893   1.009   3.252  1.00  0.00     0.010 A 
ATOM     36  C   UNL     1      -7.769   2.223   1.499  1.00  0.00     0.010 A 
ATOM     37  C   UNL     1      -8.755   2.182   2.494  1.00  0.00    -0.014 A 
BRANCH  37  38
ATOM     38  C   UNL     1      -9.650   3.362   2.651  1.00  0.00     0.031 A 
ATOM     39  C   UNL     1     -10.416   3.868   1.450  1.00  0.00     0.074 A 
ATOM     40  C   UNL     1      -9.701   4.039   3.817  1.00  0.00     0.049 A 
ATOM     41  N   UNL     1     -11.123   4.960   1.313  1.00  0.00    -0.248 NA
ATOM     42  C   UNL     1     -10.324   3.064   0.217  1.00  0.00     0.031 C 
ATOM     43  C   UNL     1      -8.956   3.700   5.032  1.00  0.00     0.029 A 
ATOM     44  N   UNL     1     -10.402   5.168   4.168  1.00  0.00    -0.354 N 
ATOM     45  C   UNL     1     -11.521   4.987  -0.020  1.00  0.00     0.074 A 
ATOM     46  C   UNL     1     -10.913   3.850  -0.669  1.00  0.00     0.031 C 
ATOM     47  C   UNL     1      -9.264   4.580   6.000  1.00  0.00     0.029 A 
ATOM     48  C   UNL     1     -10.196   5.569   5.468  1.00  0.00     0.049 A 
ATOM     49  H   UNL     1     -10.996   5.646   3.546  1.00  0.00     0.167 HD
ATOM     50  C   UNL     1     -12.352   5.856  -0.642  1.00  0.00     0.037 A 
ATOM     51  C   UNL     1     -10.702   6.615   6.152  1.00  0.00     0.037 A 
ATOM     52  C   UNL     1     -13.012   6.943   0.028  1.00  0.00     0.049 A 
ATOM     53  C   UNL     1     -11.665   7.542   5.455  1.00  0.00     0.074 A 
ATOM     54  C   UNL     1     -13.939   7.834  -0.482  1.00  0.00     0.029 A 
ATOM     55  N   UNL     1     -12.825   7.275   1.362  1.00  0.00    -0.354 N 
ATOM     56  N   UNL     1     -12.080   7.514   4.210  1.00  0.00    -0.248 NA
ATOM     57  C   UNL     1     -12.235   8.635   6.254  1.00  0.00     0.031 C 
ATOM     58  C   UNL     1     -14.287   8.728   0.536  1.00  0.00     0.029 A 
ATOM     59  C   UNL     1     -13.611   8.365   1.691  1.00  0.00     0.049 A 
ATOM     60  H   UNL     1     -12.222   6.805   1.982  1.00  0.00     0.167 HD
ATOM     61  C   UNL     1     -12.981   8.566   4.085  1.00  0.00     0.074 A 
ATOM     62  C   UNL     1     -13.059   9.203   5.384  1.00  0.00     0.031 C 
ATOM     63  C   UNL     1     -13.681   8.971   2.997  1.00  0.00     0.037 A 
BRANCH  50  64
ATOM     64  C   UNL     1     -12.614   5.645  -2.110  1.00  0.00     0.058 A 
ATOM     65  C   UNL     1     -13.342   4.538  -2.578  1.00  0.00     0.135 A 
ATOM     66  C   UNL     1     -12.149   6.568  -3.060  1.00  0.00     0.135 A 
ATOM     67  F   UNL     1     -13.796   3.614  -1.717  1.00  0.00    -0.206 F 
ATOM     68  C   UNL     1     -13.568   4.335  -3.935  1.00  0.00     0.059 A 
ATOM     69  C   UNL     1     -12.390   6.401  -4.421  1.00  0.00     0.059 A 
ATOM     70  F   UNL     1     -11.445   7.643  -2.671  1.00  0.00    -0.206 F 
ATOM     71  C   UNL     1     -13.087   5.272  -4.850  1.00  0.00     0.060 A 
BRANCH  71  72
ATOM     72  S   UNL     1     -13.396   4.997  -6.607  1.00  0.00     0.124 S 
ATOM     73  O   UNL     1     -12.466   3.911  -6.899  1.00  0.00    -0.237 OA
ATOM     74  O   UNL     1     -14.811   4.639  -6.622  1.00  0.00    -0.237 OA
ATOM     75  O   UNL     1     -13.071   6.283  -7.215  1.00  0.00    -0.744 OA
ENDBRANCH  71  72
ENDBRANCH  50  64
BRANCH  51  76
ATOM     76  C   UNL     1     -10.344   6.821   7.582  1.00  0.00     0.058 A 
ATOM     77  C   UNL     1     -11.286   6.602   8.600  1.00  0.00     0.135 A 
ATOM     78  C   UNL     1      -9.057   7.229   7.966  1.00  0.00     0.135 A 
ATOM     79  F   UNL     1     -12.533   6.217   8.286  1.00  0.00    -0.206 F 
ATOM     80  C   UNL     1     -10.973   6.796   9.942  1.00  0.00     0.059 A 
ATOM     81  C   UNL     1      -8.712   7.406   9.303  1.00  0.00     0.059 A 
ATOM     82  F   UNL     1      -8.112   7.438   7.035  1.00  0.00    -0.206 F 
ATOM     83  C   UNL     1      -9.680   7.197  10.284  1.00  0.00     0.060 A 
BRANCH  83  84
ATOM     84  S   UNL     1      -9.273   7.402  12.033  1.00  0.00     0.124 S 
ATOM     85  O   UNL     1      -9.966   8.641  12.354  1.00  0.00    -0.237 OA
ATOM     86  O   UNL     1      -9.823   6.187  12.622  1.00  0.00    -0.237 OA
ATOM     87  O   UNL     1      -7.811   7.479  12.027  1.00  0.00    -0.744 OA
ENDBRANCH  83  84
ENDBRANCH  51  76
BRANCH  63  88
ATOM     88  C   UNL     1     -14.619  10.132   3.168  1.00  0.00     0.058 A 
ATOM     89  C   UNL     1     -14.148  11.447   3.297  1.00  0.00     0.135 A 
ATOM     90  C   UNL     1     -16.008   9.930   3.137  1.00  0.00     0.135 A 
ATOM     91  F   UNL     1     -12.828  11.691   3.336  1.00  0.00    -0.206 F 
ATOM     92  C   UNL     1     -15.022  12.521   3.410  1.00  0.00     0.059 A 
ATOM     93  C   UNL     1     -16.901  10.992   3.220  1.00  0.00     0.059 A 
ATOM     94  F   UNL     1     -16.509   8.691   3.002  1.00  0.00    -0.206 F 
ATOM     95  C   UNL     1     -16.398  12.284   3.368  1.00  0.00     0.060 A 
BRANCH  95  96
ATOM     96  S   UNL     1     -17.522  13.692   3.478  1.00  0.00     0.124 S 
ATOM     97  O   UNL     1     -17.428  14.033   4.893  1.00  0.00    -0.237 OA
ATOM     98  O   UNL     1     -16.918  14.647   2.554  1.00  0.00    -0.237 OA
ATOM     99  O   UNL     1     -18.803  13.138   3.048  1.00  0.00    -0.744 OA
ENDBRANCH  95  96
ENDBRANCH  63  88
ENDBRANCH  37  38
ENDBRANCH  29  32
ENDBRANCH  27  28
ENDBRANCH  26  27
ENDBRANCH   1  26
TORSDOF 19
