REMARK SMILES O=C(NCCCNC(=O)[C@H](c1ccccc1)N1C(=O)/C(=C/c2ccc(-c3nc4ccccc4s3)o2)SC1=S)c1ccc(-c2c3nc(c(-c4c(F)cc(S(=O)(=O)[O-])cc4F)c4ccc([nH]4)c(-c4c(F)cc(S(=O)(=O)[O-])cc4F)c4nc(c(-c5c(F)cc(S(=O)(=O)[O-])cc5F)c5ccc2[nH]5)C=C4)C=C3)cc1
REMARK SMILES IDX 5 1 4 2 3 3 1 4 2 5 39 7 40 8 104 9 41 10 103 11 42 12 43 13
REMARK SMILES IDX 44 14 97 15 45 16 102 17 96 18 98 19 46 20 101 21 95 22
REMARK SMILES IDX 94 23 47 25 81 26 60 27 80 28 61 29 64 30 79 31 99 32 62 33
REMARK SMILES IDX 63 34 78 36 100 37 65 38 48 39 49 40 58 41 50 42 51 43 57 44
REMARK SMILES IDX 59 45 52 46 53 47 54 48 55 49 56 50 82 51 83 52 92 53 84 54
REMARK SMILES IDX 85 55 91 56 93 57 86 58 87 59 88 60 89 61 90 62 66 63 67 64
REMARK SMILES IDX 76 65 68 66 69 67 75 68 77 69 70 70 71 71 72 72 73 73 74 74
REMARK SMILES IDX 6 75 7 76 8 77 9 79 10 80 17 81 18 82 37 83 19 84 20 85
REMARK SMILES IDX 36 86 38 87 21 88 22 89 23 90 35 91 24 92 25 93 26 94 27 95
REMARK SMILES IDX 34 96 28 97 33 98 29 99 32 100 30 101 31 102 11 103 12 104
REMARK SMILES IDX 16 105 13 106 15 107 14 108
REMARK H PARENT 3 6 98 24 64 35 7 78
REMARK Flexibility Score: inf
ROOT
ATOM      1  C   UNL     1       7.495   1.040  -2.481  1.00  0.00     0.042 C 
ENDROOT
BRANCH   1   2
ATOM      2  C   UNL     1       8.066   0.180  -1.362  1.00  0.00     0.118 C 
BRANCH   2   3
ATOM      3  N   UNL     1       9.403   0.596  -0.962  1.00  0.00    -0.352 N 
ATOM      4  O   UNL     1      10.980   1.668   0.226  1.00  0.00    -0.269 OA
ATOM      5  C   UNL     1       9.841   1.207   0.190  1.00  0.00     0.251 C 
ATOM      6  H   UNL     1      10.108   0.409  -1.623  1.00  0.00     0.163 HD
BRANCH   5   7
ATOM      7  C   UNL     1       8.959   1.322   1.375  1.00  0.00     0.039 A 
ATOM      8  C   UNL     1       8.119   0.273   1.746  1.00  0.00     0.014 A 
ATOM      9  C   UNL     1       9.012   2.477   2.164  1.00  0.00     0.014 A 
ATOM     10  C   UNL     1       7.227   0.434   2.799  1.00  0.00     0.010 A 
ATOM     11  C   UNL     1       8.190   2.595   3.291  1.00  0.00     0.010 A 
ATOM     12  C   UNL     1       7.272   1.583   3.605  1.00  0.00    -0.014 A 
BRANCH  12  13
ATOM     13  C   UNL     1       6.408   1.645   4.814  1.00  0.00     0.031 A 
ATOM     14  C   UNL     1       5.337   2.690   4.960  1.00  0.00     0.074 A 
ATOM     15  C   UNL     1       6.575   0.705   5.767  1.00  0.00     0.049 A 
ATOM     16  N   UNL     1       4.482   2.859   5.937  1.00  0.00    -0.248 NA
ATOM     17  C   UNL     1       5.208   3.677   3.876  1.00  0.00     0.031 C 
ATOM     18  C   UNL     1       7.597  -0.347   5.741  1.00  0.00     0.029 A 
ATOM     19  N   UNL     1       5.884   0.461   6.926  1.00  0.00    -0.354 N 
ATOM     20  C   UNL     1       3.720   3.970   5.594  1.00  0.00     0.074 A 
ATOM     21  C   UNL     1       4.237   4.458   4.332  1.00  0.00     0.031 C 
ATOM     22  C   UNL     1       7.433  -1.151   6.800  1.00  0.00     0.029 A 
ATOM     23  C   UNL     1       6.343  -0.635   7.619  1.00  0.00     0.049 A 
ATOM     24  H   UNL     1       5.132   1.018   7.233  1.00  0.00     0.167 HD
ATOM     25  C   UNL     1       2.678   4.520   6.263  1.00  0.00     0.037 A 
ATOM     26  C   UNL     1       5.948  -1.158   8.794  1.00  0.00     0.037 A 
ATOM     27  C   UNL     1       2.172   4.023   7.519  1.00  0.00     0.049 A 
ATOM     28  C   UNL     1       4.808  -0.511   9.526  1.00  0.00     0.074 A 
ATOM     29  C   UNL     1       1.122   4.511   8.279  1.00  0.00     0.029 A 
ATOM     30  N   UNL     1       2.677   2.924   8.200  1.00  0.00    -0.354 N 
ATOM     31  N   UNL     1       4.092   0.531   9.176  1.00  0.00    -0.248 NA
ATOM     32  C   UNL     1       4.422  -1.107  10.810  1.00  0.00     0.031 C 
ATOM     33  C   UNL     1       1.016   3.730   9.436  1.00  0.00     0.029 A 
ATOM     34  C   UNL     1       1.968   2.726   9.375  1.00  0.00     0.049 A 
ATOM     35  H   UNL     1       3.428   2.367   7.894  1.00  0.00     0.167 HD
ATOM     36  C   UNL     1       3.162   0.708  10.192  1.00  0.00     0.074 A 
ATOM     37  C   UNL     1       3.389  -0.351  11.155  1.00  0.00     0.031 C 
ATOM     38  C   UNL     1       2.209   1.664  10.320  1.00  0.00     0.037 A 
BRANCH  25  39
ATOM     39  C   UNL     1       2.013   5.728   5.657  1.00  0.00     0.058 A 
ATOM     40  C   UNL     1       1.206   5.625   4.513  1.00  0.00     0.135 A 
ATOM     41  C   UNL     1       2.140   6.993   6.254  1.00  0.00     0.135 A 
ATOM     42  F   UNL     1       1.060   4.443   3.892  1.00  0.00    -0.206 F 
ATOM     43  C   UNL     1       0.566   6.735   3.970  1.00  0.00     0.059 A 
ATOM     44  C   UNL     1       1.489   8.113   5.742  1.00  0.00     0.059 A 
ATOM     45  F   UNL     1       2.898   7.150   7.350  1.00  0.00    -0.206 F 
ATOM     46  C   UNL     1       0.713   7.976   4.592  1.00  0.00     0.060 A 
BRANCH  46  47
ATOM     47  S   UNL     1      -0.130   9.404   3.877  1.00  0.00     0.124 S 
ATOM     48  O   UNL     1       0.662   9.635   2.672  1.00  0.00    -0.237 OA
ATOM     49  O   UNL     1      -1.479   8.893   3.659  1.00  0.00    -0.237 OA
ATOM     50  O   UNL     1      -0.009  10.425   4.912  1.00  0.00    -0.744 OA
ENDBRANCH  46  47
ENDBRANCH  25  39
BRANCH  26  51
ATOM     51  C   UNL     1       6.654  -2.340   9.355  1.00  0.00     0.058 A 
ATOM     52  C   UNL     1       6.021  -3.587   9.461  1.00  0.00     0.135 A 
ATOM     53  C   UNL     1       7.986  -2.245   9.790  1.00  0.00     0.135 A 
ATOM     54  F   UNL     1       4.748  -3.728   9.060  1.00  0.00    -0.206 F 
ATOM     55  C   UNL     1       6.672  -4.691  10.001  1.00  0.00     0.059 A 
ATOM     56  C   UNL     1       8.669  -3.342  10.303  1.00  0.00     0.059 A 
ATOM     57  F   UNL     1       8.645  -1.080   9.691  1.00  0.00    -0.206 F 
ATOM     58  C   UNL     1       7.997  -4.557  10.420  1.00  0.00     0.060 A 
BRANCH  58  59
ATOM     59  S   UNL     1       8.846  -6.000  11.096  1.00  0.00     0.124 S 
ATOM     60  O   UNL     1       8.254  -6.090  12.425  1.00  0.00    -0.237 OA
ATOM     61  O   UNL     1       8.468  -7.050  10.155  1.00  0.00    -0.237 OA
ATOM     62  O   UNL     1      10.252  -5.610  11.055  1.00  0.00    -0.744 OA
ENDBRANCH  58  59
ENDBRANCH  26  51
BRANCH  38  63
ATOM     63  C   UNL     1       1.325   1.585  11.533  1.00  0.00     0.058 A 
ATOM     64  C   UNL     1       1.801   1.907  12.814  1.00  0.00     0.135 A 
ATOM     65  C   UNL     1      -0.020   1.202  11.409  1.00  0.00     0.135 A 
ATOM     66  F   UNL     1       3.082   2.270  12.987  1.00  0.00    -0.206 F 
ATOM     67  C   UNL     1       0.983   1.820  13.935  1.00  0.00     0.059 A 
ATOM     68  C   UNL     1      -0.864   1.135  12.513  1.00  0.00     0.059 A 
ATOM     69  F   UNL     1      -0.526   0.892  10.205  1.00  0.00    -0.206 F 
ATOM     70  C   UNL     1      -0.348   1.431  13.774  1.00  0.00     0.060 A 
BRANCH  70  71
ATOM     71  S   UNL     1      -1.406   1.339  15.234  1.00  0.00     0.124 S 
ATOM     72  O   UNL     1      -0.931   0.111  15.863  1.00  0.00    -0.237 OA
ATOM     73  O   UNL     1      -1.081   2.577  15.935  1.00  0.00    -0.237 OA
ATOM     74  O   UNL     1      -2.752   1.279  14.674  1.00  0.00    -0.744 OA
ENDBRANCH  70  71
ENDBRANCH  38  63
ENDBRANCH  12  13
ENDBRANCH   5   7
ENDBRANCH   2   3
ENDBRANCH   1   2
BRANCH   1  75
ATOM     75  C   UNL     1       8.166   0.824  -3.832  1.00  0.00     0.117 C 
BRANCH  75  76
ATOM     76  N   UNL     1       7.847  -0.450  -4.463  1.00  0.00    -0.354 N 
ATOM     77  C   UNL     1       7.045  -0.784  -5.520  1.00  0.00     0.247 C 
ATOM     78  H   UNL     1       8.296  -1.221  -4.048  1.00  0.00     0.163 HD
ATOM     79  O   UNL     1       7.347  -1.845  -6.088  1.00  0.00    -0.272 OA
BRANCH  77  80
ATOM     80  C   UNL     1       5.925   0.121  -6.122  1.00  0.00     0.211 C 
BRANCH  80  81
ATOM     81  N   UNL     1       4.777  -0.586  -6.766  1.00  0.00    -0.276 N 
ATOM     82  C   UNL     1       4.325  -1.819  -6.315  1.00  0.00     0.267 C 
ATOM     83  C   UNL     1       3.989   0.015  -7.735  1.00  0.00     0.149 C 
ATOM     84  O   UNL     1       4.739  -2.454  -5.349  1.00  0.00    -0.268 OA
ATOM     85  C   UNL     1       3.182  -2.297  -7.155  1.00  0.00     0.084 C 
ATOM     86  S   UNL     1       2.591  -0.980  -8.084  1.00  0.00    -0.054 SA
ATOM     87  S   UNL     1       4.207   1.454  -8.553  1.00  0.00    -0.052 S 
ATOM     88  C   UNL     1       2.720  -3.559  -7.158  1.00  0.00     0.068 C 
BRANCH  88  89
ATOM     89  C   UNL     1       1.625  -3.991  -7.969  1.00  0.00     0.129 A 
ATOM     90  C   UNL     1       1.400  -3.821  -9.331  1.00  0.00     0.051 A 
ATOM     91  O   UNL     1       0.547  -4.695  -7.465  1.00  0.00    -0.454 OA
ATOM     92  C   UNL     1       0.143  -4.380  -9.639  1.00  0.00     0.054 A 
ATOM     93  C   UNL     1      -0.366  -4.909  -8.469  1.00  0.00     0.163 A 
BRANCH  93  94
ATOM     94  C   UNL     1      -1.641  -5.557  -8.315  1.00  0.00     0.160 A 
ATOM     95  N   UNL     1      -2.287  -6.046  -9.354  1.00  0.00    -0.233 NA
ATOM     96  S   UNL     1      -2.453  -5.676  -6.812  1.00  0.00    -0.111 S 
ATOM     97  C   UNL     1      -3.523  -6.522  -8.962  1.00  0.00     0.082 A 
ATOM     98  C   UNL     1      -3.816  -6.380  -7.604  1.00  0.00     0.055 A 
ATOM     99  C   UNL     1      -4.486  -7.104  -9.811  1.00  0.00     0.030 A 
ATOM    100  C   UNL     1      -5.055  -6.779  -7.072  1.00  0.00     0.021 A 
ATOM    101  C   UNL     1      -5.720  -7.506  -9.292  1.00  0.00     0.002 A 
ATOM    102  C   UNL     1      -6.001  -7.337  -7.940  1.00  0.00     0.002 A 
ENDBRANCH  93  94
ENDBRANCH  88  89
ENDBRANCH  80  81
BRANCH  80 103
ATOM    103  C   UNL     1       5.449   1.310  -5.298  1.00  0.00    -0.016 A 
ATOM    104  C   UNL     1       4.523   1.181  -4.256  1.00  0.00     0.006 A 
ATOM    105  C   UNL     1       5.922   2.600  -5.624  1.00  0.00     0.006 A 
ATOM    106  C   UNL     1       4.119   2.311  -3.536  1.00  0.00     0.000 A 
ATOM    107  C   UNL     1       5.522   3.720  -4.902  1.00  0.00     0.000 A 
ATOM    108  C   UNL     1       4.623   3.573  -3.853  1.00  0.00     0.000 A 
ENDBRANCH  80 103
ENDBRANCH  77  80
ENDBRANCH  75  76
ENDBRANCH   1  75
TORSDOF 17
