REMARK SMILES Cc1cc(C)c2c(OCCCC(=O)NCCCNC(=O)c3ccc(-c4c5nc(c(-c6c(F)cc(S(=O)(=O)[O-])cc6F)c6ccc([nH]6)c(-c6c(F)cc(S(=O)(=O)[O-])cc6F)c6nc(c(-c7c(F)cc(S(=O)(=O)[O-])cc7F)c7ccc4[nH]7)C=C6)C=C5)cc3)nsc2n1
REMARK SMILES IDX 15 1 14 2 12 3 13 4 11 6 10 7 9 8 8 9 7 10 1 11 2 12 3 13
REMARK SMILES IDX 90 14 4 15 89 16 5 17 6 18 88 19 87 20 16 21 17 22 18 23
REMARK SMILES IDX 19 24 20 26 21 27 22 28 86 29 23 30 85 31 24 32 25 33 26 34
REMARK SMILES IDX 79 35 27 36 84 37 78 38 80 39 28 40 83 41 77 42 76 43 29 45
REMARK SMILES IDX 63 46 42 47 62 48 43 49 46 50 61 51 81 52 44 53 45 54 60 56
REMARK SMILES IDX 82 57 47 58 30 59 31 60 40 61 32 62 33 63 39 64 41 65 34 66
REMARK SMILES IDX 35 67 36 68 37 69 38 70 64 71 65 72 74 73 66 74 67 75 73 76
REMARK SMILES IDX 75 77 68 78 69 79 70 80 71 81 72 82 48 83 49 84 58 85 50 86
REMARK SMILES IDX 51 87 57 88 59 89 52 90 53 91 54 92 55 93 56 94
REMARK H PARENT 14 5 18 25 80 44 46 55
REMARK Flexibility Score: inf
ROOT
ATOM      1  C   UNL     1       0.121  -4.835   2.274  1.00  0.00     0.117 C 
ENDROOT
BRANCH   1   2
ATOM      2  N   UNL     1       1.587  -4.760   1.832  1.00  0.00    -0.356 N 
ATOM      3  C   UNL     1       2.556  -4.689   0.876  1.00  0.00     0.220 C 
ATOM      4  O   UNL     1       3.680  -4.732   1.421  1.00  0.00    -0.275 OA
ATOM      5  H   UNL     1       2.090  -4.767   2.678  1.00  0.00     0.163 HD
BRANCH   3   6
ATOM      6  C   UNL     1       2.602  -4.414  -0.699  1.00  0.00     0.103 C 
BRANCH   6   7
ATOM      7  C   UNL     1       2.730  -5.393  -1.949  1.00  0.00     0.051 C 
BRANCH   7   8
ATOM      8  C   UNL     1       1.633  -6.177  -2.781  1.00  0.00     0.232 C 
BRANCH   8   9
ATOM      9  O   UNL     1       0.957  -5.639  -3.932  1.00  0.00    -0.477 OA
BRANCH   9  10
ATOM     10  C   UNL     1      -0.062  -4.742  -3.838  1.00  0.00     0.235 A 
ATOM     11  C   UNL     1      -0.088  -0.243  -0.740  1.00  0.00     0.067 C 
ATOM     12  C   UNL     1      -0.470  -1.541  -1.395  1.00  0.00     0.039 A 
ATOM     13  C   UNL     1      -0.166  -2.715  -0.729  1.00  0.00     0.027 A 
ATOM     14  N   UNL     1      -1.016  -1.514  -2.635  1.00  0.00    -0.240 NA
ATOM     15  C   UNL     1      -0.252  -3.934  -1.411  1.00  0.00    -0.034 A 
ATOM     16  C   UNL     1      -0.944  -2.704  -3.274  1.00  0.00     0.147 A 
ATOM     17  C   UNL     1      -0.253  -5.242  -0.748  1.00  0.00     0.045 C 
ATOM     18  C   UNL     1      -0.410  -3.879  -2.776  1.00  0.00     0.078 A 
ATOM     19  S   UNL     1      -1.528  -3.059  -4.833  1.00  0.00    -0.012 S 
ATOM     20  N   UNL     1      -0.707  -4.517  -4.985  1.00  0.00    -0.153 NA
ENDBRANCH   9  10
ENDBRANCH   8   9
ENDBRANCH   7   8
ENDBRANCH   6   7
ENDBRANCH   3   6
ENDBRANCH   1   2
BRANCH   1  21
ATOM     21  C   UNL     1      -0.531  -6.244   2.088  1.00  0.00     0.042 C 
BRANCH  21  22
ATOM     22  C   UNL     1      -1.616  -6.714   3.051  1.00  0.00     0.118 C 
BRANCH  22  23
ATOM     23  N   UNL     1      -2.988  -6.294   2.706  1.00  0.00    -0.352 N 
ATOM     24  C   UNL     1      -4.064  -6.201   3.590  1.00  0.00     0.251 C 
ATOM     25  H   UNL     1      -3.160  -6.058   1.766  1.00  0.00     0.163 HD
ATOM     26  O   UNL     1      -5.214  -6.274   3.238  1.00  0.00    -0.269 OA
BRANCH  24  27
ATOM     27  C   UNL     1      -3.685  -5.996   5.000  1.00  0.00     0.039 A 
ATOM     28  C   UNL     1      -3.877  -7.018   5.927  1.00  0.00     0.014 A 
ATOM     29  C   UNL     1      -2.802  -4.944   5.221  1.00  0.00     0.014 A 
ATOM     30  C   UNL     1      -3.045  -7.051   7.042  1.00  0.00     0.010 A 
ATOM     31  C   UNL     1      -1.893  -5.072   6.248  1.00  0.00     0.010 A 
ATOM     32  C   UNL     1      -1.998  -6.117   7.169  1.00  0.00    -0.014 A 
BRANCH  32  33
ATOM     33  C   UNL     1      -0.956  -6.328   8.183  1.00  0.00     0.031 A 
ATOM     34  C   UNL     1      -0.526  -7.740   8.425  1.00  0.00     0.074 A 
ATOM     35  C   UNL     1      -0.280  -5.346   8.818  1.00  0.00     0.049 A 
ATOM     36  N   UNL     1      -0.854  -8.492   9.426  1.00  0.00    -0.248 NA
ATOM     37  C   UNL     1       0.275  -8.436   7.406  1.00  0.00     0.031 C 
ATOM     38  C   UNL     1      -0.311  -3.896   8.590  1.00  0.00     0.029 A 
ATOM     39  N   UNL     1       0.653  -5.473   9.804  1.00  0.00    -0.354 N 
ATOM     40  C   UNL     1      -0.124  -9.670   9.291  1.00  0.00     0.074 A 
ATOM     41  C   UNL     1       0.421  -9.645   7.957  1.00  0.00     0.031 C 
ATOM     42  C   UNL     1       0.707  -3.306   9.250  1.00  0.00     0.029 A 
ATOM     43  C   UNL     1       1.318  -4.297  10.111  1.00  0.00     0.049 A 
ATOM     44  H   UNL     1       0.839  -6.326  10.259  1.00  0.00     0.167 HD
ATOM     45  C   UNL     1       0.152 -10.464  10.366  1.00  0.00     0.037 A 
ATOM     46  C   UNL     1       2.262  -4.104  11.058  1.00  0.00     0.037 A 
ATOM     47  C   UNL     1      -0.663 -10.112  11.502  1.00  0.00     0.049 A 
ATOM     48  C   UNL     1       2.051  -5.145  12.090  1.00  0.00     0.074 A 
ATOM     49  C   UNL     1      -2.018 -10.052  11.759  1.00  0.00     0.029 A 
ATOM     50  N   UNL     1      -0.061  -9.393  12.506  1.00  0.00    -0.354 N 
ATOM     51  N   UNL     1       0.993  -5.210  12.852  1.00  0.00    -0.248 NA
ATOM     52  C   UNL     1       2.853  -6.355  12.033  1.00  0.00     0.031 C 
ATOM     53  C   UNL     1      -2.184  -8.918  12.610  1.00  0.00     0.029 A 
ATOM     54  C   UNL     1      -0.918  -8.385  12.863  1.00  0.00     0.049 A 
ATOM     55  H   UNL     1       0.825  -9.570  12.898  1.00  0.00     0.167 HD
ATOM     56  C   UNL     1       0.768  -6.565  13.032  1.00  0.00     0.074 A 
ATOM     57  C   UNL     1       2.011  -7.208  12.620  1.00  0.00     0.031 C 
ATOM     58  C   UNL     1      -0.489  -7.054  13.244  1.00  0.00     0.037 A 
BRANCH  45  59
ATOM     59  C   UNL     1       1.402 -11.304  10.529  1.00  0.00     0.058 A 
ATOM     60  C   UNL     1       1.491 -12.219  11.602  1.00  0.00     0.135 A 
ATOM     61  C   UNL     1       2.616 -11.030   9.864  1.00  0.00     0.135 A 
ATOM     62  F   UNL     1       0.400 -12.548  12.313  1.00  0.00    -0.206 F 
ATOM     63  C   UNL     1       2.707 -12.755  12.032  1.00  0.00     0.059 A 
ATOM     64  C   UNL     1       3.830 -11.594  10.242  1.00  0.00     0.059 A 
ATOM     65  F   UNL     1       2.700 -10.123   8.884  1.00  0.00    -0.206 F 
ATOM     66  C   UNL     1       3.875 -12.419  11.355  1.00  0.00     0.060 A 
BRANCH  66  67
ATOM     67  S   UNL     1       5.461 -13.002  11.981  1.00  0.00     0.124 S 
ATOM     68  O   UNL     1       5.593 -12.218  13.204  1.00  0.00    -0.237 OA
ATOM     69  O   UNL     1       5.212 -14.429  12.158  1.00  0.00    -0.237 OA
ATOM     70  O   UNL     1       6.389 -12.662  10.907  1.00  0.00    -0.744 OA
ENDBRANCH  66  67
ENDBRANCH  45  59
BRANCH  46  71
ATOM     71  C   UNL     1       3.474  -3.259  10.964  1.00  0.00     0.058 A 
ATOM     72  C   UNL     1       4.261  -3.004  12.098  1.00  0.00     0.135 A 
ATOM     73  C   UNL     1       4.043  -2.928   9.717  1.00  0.00     0.135 A 
ATOM     74  F   UNL     1       3.794  -3.292  13.323  1.00  0.00    -0.206 F 
ATOM     75  C   UNL     1       5.569  -2.524  12.000  1.00  0.00     0.059 A 
ATOM     76  C   UNL     1       5.341  -2.438   9.594  1.00  0.00     0.059 A 
ATOM     77  F   UNL     1       3.385  -3.161   8.570  1.00  0.00    -0.206 F 
ATOM     78  C   UNL     1       6.110  -2.273  10.739  1.00  0.00     0.060 A 
BRANCH  78  79
ATOM     79  S   UNL     1       7.863  -1.857  10.603  1.00  0.00     0.124 S 
ATOM     80  O   UNL     1       7.908  -0.538  11.224  1.00  0.00    -0.237 OA
ATOM     81  O   UNL     1       8.492  -2.939  11.353  1.00  0.00    -0.237 OA
ATOM     82  O   UNL     1       8.105  -1.877   9.162  1.00  0.00    -0.744 OA
ENDBRANCH  78  79
ENDBRANCH  46  71
BRANCH  58  83
ATOM     83  C   UNL     1      -1.570  -6.101  13.683  1.00  0.00     0.058 A 
ATOM     84  C   UNL     1      -2.086  -5.056  12.898  1.00  0.00     0.135 A 
ATOM     85  C   UNL     1      -2.221  -6.371  14.898  1.00  0.00     0.135 A 
ATOM     86  F   UNL     1      -1.582  -4.788  11.685  1.00  0.00    -0.206 F 
ATOM     87  C   UNL     1      -3.186  -4.301  13.314  1.00  0.00     0.059 A 
ATOM     88  C   UNL     1      -3.336  -5.652  15.318  1.00  0.00     0.059 A 
ATOM     89  F   UNL     1      -1.808  -7.391  15.669  1.00  0.00    -0.206 F 
ATOM     90  C   UNL     1      -3.811  -4.612  14.523  1.00  0.00     0.060 A 
BRANCH  90  91
ATOM     91  S   UNL     1      -5.296  -3.705  15.007  1.00  0.00     0.124 S 
ATOM     92  O   UNL     1      -4.760  -2.388  15.333  1.00  0.00    -0.237 OA
ATOM     93  O   UNL     1      -6.117  -3.774  13.801  1.00  0.00    -0.237 OA
ATOM     94  O   UNL     1      -5.809  -4.468  16.143  1.00  0.00    -0.744 OA
ENDBRANCH  90  91
ENDBRANCH  58  83
ENDBRANCH  32  33
ENDBRANCH  24  27
ENDBRANCH  22  23
ENDBRANCH  21  22
ENDBRANCH   1  21
TORSDOF 17
