REMARK SMILES O=C(NCCCNC(=O)c1ccc(-c2c3nc(c(-c4c(F)cc(S(=O)(=O)[O-])cc4F)c4ccc([nH]4)c(-c4c(F)cc(S(=O)(=O)[O-])cc4F)c4nc(c(-c5c(F)cc(S(=O)(=O)[O-])cc5F)c5ccc2[nH]5)C=C4)C=C3)cc1)C1=C[C@H]2C(=N1)C=CC(Cl)=C2Cl
REMARK SMILES IDX 7 1 8 2 9 3 6 5 5 6 4 7 3 8 1 9 2 10 76 12 77 13 80 14 78 15
REMARK SMILES IDX 79 16 85 17 81 18 83 19 86 20 82 21 84 22 10 23 11 24 75 25
REMARK SMILES IDX 12 26 74 27 13 28 14 29 15 30 68 31 16 32 73 33 67 34 69 35
REMARK SMILES IDX 17 36 72 37 66 38 65 39 18 41 52 42 31 43 51 44 32 45 35 46
REMARK SMILES IDX 50 47 70 48 33 49 34 50 49 52 71 53 36 54 19 55 20 56 29 57
REMARK SMILES IDX 21 58 22 59 28 60 30 61 23 62 24 63 25 64 26 65 27 66 53 67
REMARK SMILES IDX 54 68 63 69 55 70 56 71 62 72 64 73 57 74 58 75 59 76 60 77
REMARK SMILES IDX 61 78 37 79 38 80 47 81 39 82 40 83 46 84 48 85 41 86 42 87
REMARK SMILES IDX 43 88 44 89 45 90
REMARK H PARENT 7 4 3 11 69 40 35 51
REMARK Flexibility Score: inf
ROOT
ATOM      1  N   UNL     1       5.109  -0.810   3.897  1.00  0.00    -0.352 N 
ATOM      2  C   UNL     1       5.803  -1.042   5.060  1.00  0.00     0.251 C 
ATOM      3  O   UNL     1       6.211  -2.185   5.267  1.00  0.00    -0.269 OA
ATOM      4  H   UNL     1       4.915  -1.623   3.378  1.00  0.00     0.163 HD
ENDROOT
BRANCH   1   5
ATOM      5  C   UNL     1       4.606   0.412   3.289  1.00  0.00     0.118 C 
BRANCH   5   6
ATOM      6  C   UNL     1       5.176   0.684   1.894  1.00  0.00     0.042 C 
BRANCH   6   7
ATOM      7  C   UNL     1       4.901  -0.382   0.832  1.00  0.00     0.118 C 
BRANCH   7   8
ATOM      8  N   UNL     1       3.489  -0.649   0.637  1.00  0.00    -0.351 N 
ATOM      9  O   UNL     1       1.496  -0.717  -0.377  1.00  0.00    -0.268 OA
ATOM     10  C   UNL     1       2.678  -0.374  -0.419  1.00  0.00     0.269 C 
ATOM     11  H   UNL     1       3.047  -1.103   1.391  1.00  0.00     0.163 HD
BRANCH  10  12
ATOM     12  C   UNL     1       3.183   0.408  -1.578  1.00  0.00     0.125 C 
ATOM     13  C   UNL     1       2.625   1.600  -1.815  1.00  0.00     0.023 C 
ATOM     14  N   UNL     1       3.950  -0.085  -2.618  1.00  0.00    -0.247 NA
ATOM     15  C   UNL     1       3.067   2.069  -3.143  1.00  0.00     0.106 C 
ATOM     16  C   UNL     1       3.816   0.814  -3.548  1.00  0.00     0.054 C 
ATOM     17  C   UNL     1       2.084   2.357  -4.227  1.00  0.00     0.050 C 
ATOM     18  C   UNL     1       4.295   0.731  -4.952  1.00  0.00     0.026 C 
ATOM     19  C   UNL     1       2.548   2.376  -5.488  1.00  0.00     0.056 C 
ATOM     20  Cl  UNL     1       0.397   2.411  -3.877  1.00  0.00    -0.086 Cl
ATOM     21  C   UNL     1       3.700   1.554  -5.840  1.00  0.00     0.023 C 
ATOM     22  Cl  UNL     1       1.856   3.385  -6.703  1.00  0.00    -0.083 Cl
ENDBRANCH  10  12
ENDBRANCH   7   8
ENDBRANCH   6   7
ENDBRANCH   5   6
ENDBRANCH   1   5
BRANCH   2  23
ATOM     23  C   UNL     1       6.096   0.022   6.055  1.00  0.00     0.039 A 
ATOM     24  C   UNL     1       7.308  -0.050   6.755  1.00  0.00     0.014 A 
ATOM     25  C   UNL     1       5.187   1.031   6.381  1.00  0.00     0.014 A 
ATOM     26  C   UNL     1       7.622   0.900   7.734  1.00  0.00     0.010 A 
ATOM     27  C   UNL     1       5.534   2.025   7.307  1.00  0.00     0.010 A 
ATOM     28  C   UNL     1       6.750   1.965   8.005  1.00  0.00    -0.014 A 
BRANCH  28  29
ATOM     29  C   UNL     1       7.102   2.999   9.022  1.00  0.00     0.031 A 
ATOM     30  C   UNL     1       6.266   3.177  10.266  1.00  0.00     0.074 A 
ATOM     31  C   UNL     1       8.165   3.804   8.819  1.00  0.00     0.049 A 
ATOM     32  N   UNL     1       6.422   4.023  11.254  1.00  0.00    -0.248 NA
ATOM     33  C   UNL     1       5.089   2.307  10.407  1.00  0.00     0.031 C 
ATOM     34  C   UNL     1       9.032   3.776   7.639  1.00  0.00     0.029 A 
ATOM     35  N   UNL     1       8.700   4.802   9.598  1.00  0.00    -0.354 N 
ATOM     36  C   UNL     1       5.362   3.796  12.126  1.00  0.00     0.074 A 
ATOM     37  C   UNL     1       4.538   2.771  11.520  1.00  0.00     0.031 C 
ATOM     38  C   UNL     1      10.003   4.692   7.784  1.00  0.00     0.029 A 
ATOM     39  C   UNL     1       9.813   5.396   9.049  1.00  0.00     0.049 A 
ATOM     40  H   UNL     1       8.322   5.067  10.467  1.00  0.00     0.167 HD
ATOM     41  C   UNL     1       5.106   4.368  13.329  1.00  0.00     0.037 A 
ATOM     42  C   UNL     1      10.596   6.392   9.509  1.00  0.00     0.037 A 
ATOM     43  C   UNL     1       5.936   5.375  13.941  1.00  0.00     0.049 A 
ATOM     44  C   UNL     1      10.303   7.002  10.853  1.00  0.00     0.074 A 
ATOM     45  C   UNL     1       5.789   5.976  15.180  1.00  0.00     0.029 A 
ATOM     46  N   UNL     1       7.066   5.934  13.362  1.00  0.00    -0.354 N 
ATOM     47  N   UNL     1       9.331   6.728  11.690  1.00  0.00    -0.248 NA
ATOM     48  C   UNL     1      11.225   8.045  11.323  1.00  0.00     0.031 C 
ATOM     49  C   UNL     1       6.801   6.931  15.330  1.00  0.00     0.029 A 
ATOM     50  C   UNL     1       7.615   6.885  14.210  1.00  0.00     0.049 A 
ATOM     51  H   UNL     1       7.426   5.692  12.479  1.00  0.00     0.167 HD
ATOM     52  C   UNL     1       9.543   7.542  12.799  1.00  0.00     0.074 A 
ATOM     53  C   UNL     1      10.744   8.306  12.530  1.00  0.00     0.031 C 
ATOM     54  C   UNL     1       8.810   7.644  13.937  1.00  0.00     0.037 A 
BRANCH  41  55
ATOM     55  C   UNL     1       3.872   3.917  14.067  1.00  0.00     0.058 A 
ATOM     56  C   UNL     1       3.768   2.628  14.617  1.00  0.00     0.135 A 
ATOM     57  C   UNL     1       2.791   4.793  14.255  1.00  0.00     0.135 A 
ATOM     58  F   UNL     1       4.765   1.743  14.460  1.00  0.00    -0.206 F 
ATOM     59  C   UNL     1       2.623   2.212  15.290  1.00  0.00     0.059 A 
ATOM     60  C   UNL     1       1.648   4.410  14.953  1.00  0.00     0.059 A 
ATOM     61  F   UNL     1       2.835   6.039  13.757  1.00  0.00    -0.206 F 
ATOM     62  C   UNL     1       1.567   3.111  15.451  1.00  0.00     0.060 A 
BRANCH  62  63
ATOM     63  S   UNL     1       0.086   2.554  16.322  1.00  0.00     0.124 S 
ATOM     64  O   UNL     1      -0.511   1.658  15.336  1.00  0.00    -0.237 OA
ATOM     65  O   UNL     1       0.644   1.909  17.506  1.00  0.00    -0.237 OA
ATOM     66  O   UNL     1      -0.647   3.790  16.571  1.00  0.00    -0.744 OA
ENDBRANCH  62  63
ENDBRANCH  41  55
BRANCH  42  67
ATOM     67  C   UNL     1      11.758   6.855   8.701  1.00  0.00     0.058 A 
ATOM     68  C   UNL     1      13.075   6.592   9.107  1.00  0.00     0.135 A 
ATOM     69  C   UNL     1      11.574   7.558   7.500  1.00  0.00     0.135 A 
ATOM     70  F   UNL     1      13.303   5.930  10.252  1.00  0.00    -0.206 F 
ATOM     71  C   UNL     1      14.168   7.022   8.363  1.00  0.00     0.059 A 
ATOM     72  C   UNL     1      12.651   7.974   6.723  1.00  0.00     0.059 A 
ATOM     73  F   UNL     1      10.335   7.822   7.058  1.00  0.00    -0.206 F 
ATOM     74  C   UNL     1      13.946   7.709   7.169  1.00  0.00     0.060 A 
BRANCH  74  75
ATOM     75  S   UNL     1      15.367   8.214   6.174  1.00  0.00     0.124 S 
ATOM     76  O   UNL     1      15.908   9.313   6.975  1.00  0.00    -0.237 OA
ATOM     77  O   UNL     1      16.173   6.990   6.155  1.00  0.00    -0.237 OA
ATOM     78  O   UNL     1      14.777   8.587   4.905  1.00  0.00    -0.744 OA
ENDBRANCH  74  75
ENDBRANCH  42  67
BRANCH  54  79
ATOM     79  C   UNL     1       9.314   8.588  14.998  1.00  0.00     0.058 A 
ATOM     80  C   UNL     1       9.290   9.982  14.828  1.00  0.00     0.135 A 
ATOM     81  C   UNL     1       9.826   8.087  16.206  1.00  0.00     0.135 A 
ATOM     82  F   UNL     1       8.812  10.516  13.692  1.00  0.00    -0.206 F 
ATOM     83  C   UNL     1       9.802  10.842  15.795  1.00  0.00     0.059 A 
ATOM     84  C   UNL     1      10.313   8.931  17.201  1.00  0.00     0.059 A 
ATOM     85  F   UNL     1       9.860   6.764  16.431  1.00  0.00    -0.206 F 
ATOM     86  C   UNL     1      10.318  10.306  16.976  1.00  0.00     0.060 A 
BRANCH  86  87
ATOM     87  S   UNL     1      10.995  11.429  18.216  1.00  0.00     0.124 S 
ATOM     88  O   UNL     1      12.266  11.807  17.607  1.00  0.00    -0.237 OA
ATOM     89  O   UNL     1       9.983  12.480  18.274  1.00  0.00    -0.237 OA
ATOM     90  O   UNL     1      11.094  10.596  19.411  1.00  0.00    -0.744 OA
ENDBRANCH  86  87
ENDBRANCH  54  79
ENDBRANCH  28  29
ENDBRANCH   2  23
TORSDOF 13
