REMARK SMILES CC(C)CN(C)c1ccc([N+](=O)[O-])cc1C(=O)NCCCNC(=O)c1ccc(-c2c3nc(c(-c4c(F)cc(S(=O)(=O)[O-])cc4F)c4ccc([nH]4)c(-c4c(F)cc(S(=O)(=O)[O-])cc4F)c4nc(c(-c5c(F)cc(S(=O)(=O)[O-])cc5F)c5ccc2[nH]5)C=C4)C=C3)cc1
REMARK SMILES IDX 20 1 19 2 18 3 16 4 17 5 15 7 7 8 8 9 9 10 14 11 10 12 5 13
REMARK SMILES IDX 6 14 4 15 2 16 1 17 3 18 11 19 12 20 13 21 21 22 22 23 23 24
REMARK SMILES IDX 24 26 25 27 26 28 90 29 27 30 89 31 28 32 29 33 30 34 83 35
REMARK SMILES IDX 31 36 88 37 82 38 84 39 32 40 87 41 81 42 80 43 33 45 67 46
REMARK SMILES IDX 46 47 66 48 47 49 50 50 65 51 85 52 48 53 49 54 64 56 86 57
REMARK SMILES IDX 51 58 34 59 35 60 44 61 36 62 37 63 43 64 45 65 38 66 39 67
REMARK SMILES IDX 40 68 41 69 42 70 68 71 69 72 78 73 70 74 71 75 77 76 79 77
REMARK SMILES IDX 72 78 73 79 74 80 75 81 76 82 52 83 53 84 62 85 54 86 55 87
REMARK SMILES IDX 61 88 63 89 56 90 57 91 58 92 59 93 60 94
REMARK H PARENT 18 6 22 25 84 44 50 55
REMARK Flexibility Score: inf
ROOT
ATOM      1  C   UNL     1       0.086   3.114   3.275  1.00  0.00     0.042 C 
ENDROOT
BRANCH   1   2
ATOM      2  C   UNL     1      -0.154   1.724   2.712  1.00  0.00     0.118 C 
BRANCH   2   3
ATOM      3  N   UNL     1       1.062   1.037   2.337  1.00  0.00    -0.352 N 
ATOM      4  C   UNL     1       1.243  -0.177   1.730  1.00  0.00     0.253 C 
ATOM      5  O   UNL     1       2.400  -0.486   1.429  1.00  0.00    -0.269 OA
ATOM      6  H   UNL     1       1.893   1.518   2.554  1.00  0.00     0.163 HD
BRANCH   4   7
ATOM      7  C   UNL     1       0.160  -1.180   1.494  1.00  0.00     0.069 A 
ATOM      8  C   UNL     1      -1.151  -0.954   1.003  1.00  0.00     0.050 A 
ATOM      9  C   UNL     1      -2.014  -2.073   0.903  1.00  0.00     0.034 A 
ATOM     10  C   UNL     1      -1.594  -3.373   1.188  1.00  0.00     0.088 A 
ATOM     11  C   UNL     1       0.593  -2.506   1.738  1.00  0.00     0.101 A 
ATOM     12  C   UNL     1      -0.274  -3.586   1.567  1.00  0.00     0.270 A 
BRANCH   8  13
ATOM     13  N   UNL     1      -1.632   0.282   0.560  1.00  0.00    -0.374 N 
ATOM     14  C   UNL     1      -2.920   0.712   1.129  1.00  0.00     0.143 C 
BRANCH  13  15
ATOM     15  C   UNL     1      -1.395   0.690  -0.845  1.00  0.00     0.119 C 
BRANCH  15  16
ATOM     16  C   UNL     1       0.081   0.984  -1.180  1.00  0.00     0.002 C 
ATOM     17  C   UNL     1       0.766  -0.227  -1.819  1.00  0.00     0.009 C 
ATOM     18  C   UNL     1       0.212   2.182  -2.127  1.00  0.00     0.009 C 
ENDBRANCH  15  16
ENDBRANCH  13  15
ENDBRANCH   8  13
BRANCH  12  19
ATOM     19  N   UNL     1       0.216  -4.954   1.750  1.00  0.00     0.062 N 
ATOM     20  O   UNL     1      -0.626  -5.845   1.931  1.00  0.00    -0.258 OA
ATOM     21  O   UNL     1       1.439  -5.143   1.690  1.00  0.00    -0.258 OA
ENDBRANCH  12  19
ENDBRANCH   4   7
ENDBRANCH   2   3
ENDBRANCH   1   2
BRANCH   1  22
ATOM     22  C   UNL     1       0.717   4.057   2.250  1.00  0.00     0.118 C 
BRANCH  22  23
ATOM     23  N   UNL     1      -0.158   4.421   1.135  1.00  0.00    -0.352 N 
ATOM     24  C   UNL     1      -0.841   5.575   0.819  1.00  0.00     0.251 C 
ATOM     25  H   UNL     1      -0.284   3.697   0.480  1.00  0.00     0.163 HD
ATOM     26  O   UNL     1      -1.560   5.591  -0.179  1.00  0.00    -0.269 OA
BRANCH  24  27
ATOM     27  C   UNL     1      -0.784   6.760   1.705  1.00  0.00     0.039 A 
ATOM     28  C   UNL     1      -1.956   7.482   1.953  1.00  0.00     0.014 A 
ATOM     29  C   UNL     1       0.392   7.129   2.346  1.00  0.00     0.014 A 
ATOM     30  C   UNL     1      -1.973   8.453   2.959  1.00  0.00     0.010 A 
ATOM     31  C   UNL     1       0.337   7.974   3.446  1.00  0.00     0.010 A 
ATOM     32  C   UNL     1      -0.851   8.637   3.783  1.00  0.00    -0.014 A 
BRANCH  32  33
ATOM     33  C   UNL     1      -0.897   9.475   5.014  1.00  0.00     0.031 A 
ATOM     34  C   UNL     1       0.128  10.560   5.235  1.00  0.00     0.074 A 
ATOM     35  C   UNL     1      -1.777   9.176   5.994  1.00  0.00     0.049 A 
ATOM     36  N   UNL     1       0.360  11.271   6.308  1.00  0.00    -0.248 NA
ATOM     37  C   UNL     1       1.051  10.842   4.123  1.00  0.00     0.031 C 
ATOM     38  C   UNL     1      -2.762   8.090   5.955  1.00  0.00     0.029 A 
ATOM     39  N   UNL     1      -1.979   9.750   7.225  1.00  0.00    -0.354 N 
ATOM     40  C   UNL     1       1.482  12.040   6.018  1.00  0.00     0.074 A 
ATOM     41  C   UNL     1       1.917  11.668   4.690  1.00  0.00     0.031 C 
ATOM     42  C   UNL     1      -3.485   8.103   7.085  1.00  0.00     0.029 A 
ATOM     43  C   UNL     1      -2.990   9.164   7.953  1.00  0.00     0.049 A 
ATOM     44  H   UNL     1      -1.449  10.511   7.557  1.00  0.00     0.167 HD
ATOM     45  C   UNL     1       2.079  12.992   6.774  1.00  0.00     0.037 A 
ATOM     46  C   UNL     1      -3.463   9.444   9.182  1.00  0.00     0.037 A 
ATOM     47  C   UNL     1       1.591  13.421   8.057  1.00  0.00     0.049 A 
ATOM     48  C   UNL     1      -2.845  10.570   9.964  1.00  0.00     0.074 A 
ATOM     49  C   UNL     1       2.059  14.449   8.857  1.00  0.00     0.029 A 
ATOM     50  N   UNL     1       0.510  12.858   8.720  1.00  0.00    -0.354 N 
ATOM     51  N   UNL     1      -1.827  11.331   9.643  1.00  0.00    -0.248 NA
ATOM     52  C   UNL     1      -3.441  10.880  11.271  1.00  0.00     0.031 C 
ATOM     53  C   UNL     1       1.273  14.495  10.013  1.00  0.00     0.029 A 
ATOM     54  C   UNL     1       0.297  13.516   9.919  1.00  0.00     0.049 A 
ATOM     55  H   UNL     1      -0.026  12.103   8.386  1.00  0.00     0.167 HD
ATOM     56  C   UNL     1      -1.673  12.223  10.697  1.00  0.00     0.074 A 
ATOM     57  C   UNL     1      -2.712  11.917  11.659  1.00  0.00     0.031 C 
ATOM     58  C   UNL     1      -0.752  13.205  10.856  1.00  0.00     0.037 A 
BRANCH  45  59
ATOM     59  C   UNL     1       3.308  13.657   6.216  1.00  0.00     0.058 A 
ATOM     60  C   UNL     1       3.238  14.536   5.123  1.00  0.00     0.135 A 
ATOM     61  C   UNL     1       4.568  13.431   6.794  1.00  0.00     0.135 A 
ATOM     62  F   UNL     1       2.061  14.775   4.523  1.00  0.00    -0.206 F 
ATOM     63  C   UNL     1       4.376  15.137   4.598  1.00  0.00     0.059 A 
ATOM     64  C   UNL     1       5.717  14.046   6.303  1.00  0.00     0.059 A 
ATOM     65  F   UNL     1       4.693  12.602   7.842  1.00  0.00    -0.206 F 
ATOM     66  C   UNL     1       5.612  14.883   5.193  1.00  0.00     0.060 A 
BRANCH  66  67
ATOM     67  S   UNL     1       7.081  15.670   4.499  1.00  0.00     0.124 S 
ATOM     68  O   UNL     1       7.303  14.865   3.302  1.00  0.00    -0.237 OA
ATOM     69  O   UNL     1       6.625  17.037   4.267  1.00  0.00    -0.237 OA
ATOM     70  O   UNL     1       8.078  15.517   5.553  1.00  0.00    -0.744 OA
ENDBRANCH  66  67
ENDBRANCH  45  59
BRANCH  46  71
ATOM     71  C   UNL     1      -4.609   8.673   9.734  1.00  0.00     0.058 A 
ATOM     72  C   UNL     1      -5.881   9.255   9.835  1.00  0.00     0.135 A 
ATOM     73  C   UNL     1      -4.464   7.342  10.154  1.00  0.00     0.135 A 
ATOM     74  F   UNL     1      -6.069  10.526   9.449  1.00  0.00    -0.206 F 
ATOM     75  C   UNL     1      -6.966   8.553  10.350  1.00  0.00     0.059 A 
ATOM     76  C   UNL     1      -5.539   6.612  10.652  1.00  0.00     0.059 A 
ATOM     77  F   UNL     1      -3.272   6.732  10.058  1.00  0.00    -0.206 F 
ATOM     78  C   UNL     1      -6.785   7.230  10.756  1.00  0.00     0.060 A 
BRANCH  78  79
ATOM     79  S   UNL     1      -8.210   6.309  11.376  1.00  0.00     0.124 S 
ATOM     80  O   UNL     1      -8.357   6.864  12.716  1.00  0.00    -0.237 OA
ATOM     81  O   UNL     1      -9.251   6.670  10.418  1.00  0.00    -0.237 OA
ATOM     82  O   UNL     1      -7.764   4.921  11.311  1.00  0.00    -0.744 OA
ENDBRANCH  78  79
ENDBRANCH  46  71
BRANCH  58  83
ATOM     83  C   UNL     1      -0.846  14.042  12.098  1.00  0.00     0.058 A 
ATOM     84  C   UNL     1      -0.436  13.550  13.347  1.00  0.00     0.135 A 
ATOM     85  C   UNL     1      -1.296  15.370  12.027  1.00  0.00     0.135 A 
ATOM     86  F   UNL     1      -0.005  12.285  13.466  1.00  0.00    -0.206 F 
ATOM     87  C   UNL     1      -0.487  14.342  14.488  1.00  0.00     0.059 A 
ATOM     88  C   UNL     1      -1.333  16.187  13.152  1.00  0.00     0.059 A 
ATOM     89  F   UNL     1      -1.690  15.889  10.853  1.00  0.00    -0.206 F 
ATOM     90  C   UNL     1      -0.935  15.660  14.381  1.00  0.00     0.060 A 
BRANCH  90  91
ATOM     91  S   UNL     1      -0.958  16.692  15.861  1.00  0.00     0.124 S 
ATOM     92  O   UNL     1      -2.143  16.191  16.549  1.00  0.00    -0.237 OA
ATOM     93  O   UNL     1       0.321  16.372  16.488  1.00  0.00    -0.237 OA
ATOM     94  O   UNL     1      -1.066  18.047  15.328  1.00  0.00    -0.744 OA
ENDBRANCH  90  91
ENDBRANCH  58  83
ENDBRANCH  32  33
ENDBRANCH  24  27
ENDBRANCH  22  23
ENDBRANCH   1  22
TORSDOF 17
