REMARK SMILES C[C@@H]1[C@H](C(=O)NCCCNC(=O)c2ccc(-c3c4nc(c(-c5c(F)cc(S(=O)(=O)[O-])cc5F)c5ccc([nH]5)c(-c5c(F)cc(S(=O)(=O)[O-])cc5F)c5nc(c(-c6c(F)cc(S(=O)(=O)[O-])cc6F)c6ccc3[nH]6)C=C5)C=C4)cc2)CCN1S(=O)(=O)c1cc(F)cc(F)c1
REMARK SMILES IDX 8 1 7 2 6 3 4 4 5 5 3 7 1 8 2 9 81 10 79 11 80 12 82 13
REMARK SMILES IDX 83 14 84 15 85 16 86 17 92 18 87 19 90 20 88 21 89 22 91 23
REMARK SMILES IDX 9 24 10 25 11 26 12 28 13 29 14 30 78 31 15 32 77 33 16 34
REMARK SMILES IDX 17 35 18 36 71 37 19 38 76 39 70 40 72 41 20 42 75 43 69 44
REMARK SMILES IDX 68 45 21 47 55 48 34 49 54 50 35 51 38 52 53 53 73 54 36 55
REMARK SMILES IDX 37 56 52 58 74 59 39 60 22 61 23 62 32 63 24 64 25 65 31 66
REMARK SMILES IDX 33 67 26 68 27 69 28 70 29 71 30 72 56 73 57 74 66 75 58 76
REMARK SMILES IDX 59 77 65 78 67 79 60 80 61 81 62 82 63 83 64 84 40 85 41 86
REMARK SMILES IDX 50 87 42 88 43 89 49 90 51 91 44 92 45 93 46 94 47 95 48 96
REMARK H PARENT 6 6 10 27 72 46 38 57
REMARK Flexibility Score: inf
ROOT
ATOM      1  C   UNL     1       2.346   1.883   3.114  1.00  0.00     0.042 C 
ENDROOT
BRANCH   1   2
ATOM      2  C   UNL     1       0.973   2.240   2.532  1.00  0.00     0.117 C 
BRANCH   2   3
ATOM      3  N   UNL     1       1.025   2.800   1.186  1.00  0.00    -0.356 N 
ATOM      4  C   UNL     1       0.629   2.394  -0.044  1.00  0.00     0.224 C 
ATOM      5  O   UNL     1       0.817   3.214  -0.954  1.00  0.00    -0.275 OA
ATOM      6  H   UNL     1       1.451   3.688   1.167  1.00  0.00     0.163 HD
BRANCH   4   7
ATOM      7  C   UNL     1       0.026   1.043  -0.410  1.00  0.00     0.098 C 
ATOM      8  C   UNL     1       2.066  -0.184   0.522  1.00  0.00     0.026 C 
ATOM      9  C   UNL     1       0.976  -0.163  -0.521  1.00  0.00     0.082 C 
ATOM     10  N   UNL     1       0.067  -1.371  -0.523  1.00  0.00    -0.194 NA
ATOM     11  C   UNL     1      -1.160   0.519   0.362  1.00  0.00     0.032 C 
ATOM     12  C   UNL     1      -1.326  -0.875  -0.228  1.00  0.00     0.104 C 
BRANCH  10  13
ATOM     13  S   UNL     1       0.392  -2.833   0.289  1.00  0.00     0.243 S 
ATOM     14  O   UNL     1       0.575  -2.502   1.690  1.00  0.00    -0.207 OA
ATOM     15  O   UNL     1      -0.650  -3.755  -0.110  1.00  0.00    -0.207 OA
BRANCH  13  16
ATOM     16  C   UNL     1       1.908  -3.552  -0.277  1.00  0.00     0.088 A 
ATOM     17  C   UNL     1       2.264  -4.775   0.308  1.00  0.00     0.061 A 
ATOM     18  C   UNL     1       2.763  -2.951  -1.197  1.00  0.00     0.061 A 
ATOM     19  C   UNL     1       3.498  -5.344   0.018  1.00  0.00     0.127 A 
ATOM     20  C   UNL     1       4.016  -3.518  -1.428  1.00  0.00     0.127 A 
ATOM     21  F   UNL     1       3.826  -6.516   0.574  1.00  0.00    -0.207 F 
ATOM     22  C   UNL     1       4.397  -4.710  -0.826  1.00  0.00     0.078 A 
ATOM     23  F   UNL     1       4.877  -2.884  -2.235  1.00  0.00    -0.207 F 
ENDBRANCH  13  16
ENDBRANCH  10  13
ENDBRANCH   4   7
ENDBRANCH   2   3
ENDBRANCH   1   2
BRANCH   1  24
ATOM     24  C   UNL     1       3.287   3.062   3.327  1.00  0.00     0.118 C 
BRANCH  24  25
ATOM     25  N   UNL     1       3.219   3.556   4.688  1.00  0.00    -0.352 N 
ATOM     26  C   UNL     1       3.990   3.257   5.786  1.00  0.00     0.251 C 
ATOM     27  H   UNL     1       2.504   4.213   4.854  1.00  0.00     0.163 HD
ATOM     28  O   UNL     1       3.560   3.566   6.897  1.00  0.00    -0.269 OA
BRANCH  26  29
ATOM     29  C   UNL     1       5.309   2.576   5.677  1.00  0.00     0.039 A 
ATOM     30  C   UNL     1       5.702   1.720   6.714  1.00  0.00     0.014 A 
ATOM     31  C   UNL     1       6.215   2.851   4.649  1.00  0.00     0.014 A 
ATOM     32  C   UNL     1       6.977   1.136   6.712  1.00  0.00     0.010 A 
ATOM     33  C   UNL     1       7.457   2.209   4.606  1.00  0.00     0.010 A 
ATOM     34  C   UNL     1       7.866   1.368   5.652  1.00  0.00    -0.014 A 
BRANCH  34  35
ATOM     35  C   UNL     1       9.244   0.799   5.656  1.00  0.00     0.031 A 
ATOM     36  C   UNL     1      10.441   1.716   5.718  1.00  0.00     0.074 A 
ATOM     37  C   UNL     1       9.432  -0.533   5.569  1.00  0.00     0.049 A 
ATOM     38  N   UNL     1      11.716   1.422   5.651  1.00  0.00    -0.248 NA
ATOM     39  C   UNL     1      10.168   3.156   5.847  1.00  0.00     0.031 C 
ATOM     40  C   UNL     1       8.369  -1.535   5.475  1.00  0.00     0.029 A 
ATOM     41  N   UNL     1      10.588  -1.274   5.539  1.00  0.00    -0.354 N 
ATOM     42  C   UNL     1      12.391   2.637   5.701  1.00  0.00     0.074 A 
ATOM     43  C   UNL     1      11.385   3.675   5.765  1.00  0.00     0.031 C 
ATOM     44  C   UNL     1       8.921  -2.758   5.418  1.00  0.00     0.029 A 
ATOM     45  C   UNL     1      10.375  -2.629   5.439  1.00  0.00     0.049 A 
ATOM     46  H   UNL     1      11.486  -0.873   5.586  1.00  0.00     0.167 HD
ATOM     47  C   UNL     1      13.726   2.871   5.715  1.00  0.00     0.037 A 
ATOM     48  C   UNL     1      11.250  -3.652   5.368  1.00  0.00     0.037 A 
ATOM     49  C   UNL     1      14.732   1.841   5.702  1.00  0.00     0.049 A 
ATOM     50  C   UNL     1      12.727  -3.371   5.411  1.00  0.00     0.074 A 
ATOM     51  C   UNL     1      16.108   1.979   5.768  1.00  0.00     0.029 A 
ATOM     52  N   UNL     1      14.470   0.481   5.631  1.00  0.00    -0.354 N 
ATOM     53  N   UNL     1      13.344  -2.217   5.491  1.00  0.00    -0.248 NA
ATOM     54  C   UNL     1      13.628  -4.533   5.359  1.00  0.00     0.031 C 
ATOM     55  C   UNL     1      16.680   0.703   5.713  1.00  0.00     0.029 A 
ATOM     56  C   UNL     1      15.658  -0.230   5.644  1.00  0.00     0.049 A 
ATOM     57  H   UNL     1      13.572   0.081   5.579  1.00  0.00     0.167 HD
ATOM     58  C   UNL     1      14.703  -2.514   5.521  1.00  0.00     0.074 A 
ATOM     59  C   UNL     1      14.818  -3.956   5.461  1.00  0.00     0.031 C 
ATOM     60  C   UNL     1      15.758  -1.667   5.594  1.00  0.00     0.037 A 
BRANCH  47  61
ATOM     61  C   UNL     1      14.179   4.305   5.754  1.00  0.00     0.058 A 
ATOM     62  C   UNL     1      14.054   5.084   6.915  1.00  0.00     0.135 A 
ATOM     63  C   UNL     1      14.765   4.901   4.625  1.00  0.00     0.135 A 
ATOM     64  F   UNL     1      13.488   4.567   8.017  1.00  0.00    -0.206 F 
ATOM     65  C   UNL     1      14.463   6.413   6.947  1.00  0.00     0.059 A 
ATOM     66  C   UNL     1      15.203   6.222   4.642  1.00  0.00     0.059 A 
ATOM     67  F   UNL     1      14.910   4.200   3.490  1.00  0.00    -0.206 F 
ATOM     68  C   UNL     1      15.031   6.975   5.802  1.00  0.00     0.060 A 
BRANCH  68  69
ATOM     69  S   UNL     1      15.548   8.704   5.852  1.00  0.00     0.124 S 
ATOM     70  O   UNL     1      14.267   9.393   5.726  1.00  0.00    -0.237 OA
ATOM     71  O   UNL     1      16.195   8.804   7.156  1.00  0.00    -0.237 OA
ATOM     72  O   UNL     1      16.441   8.824   4.703  1.00  0.00    -0.744 OA
ENDBRANCH  68  69
ENDBRANCH  47  61
BRANCH  48  73
ATOM     73  C   UNL     1      10.748  -5.048   5.276  1.00  0.00     0.058 A 
ATOM     74  C   UNL     1      10.829  -5.913   6.377  1.00  0.00     0.135 A 
ATOM     75  C   UNL     1      10.168  -5.539   4.097  1.00  0.00     0.135 A 
ATOM     76  F   UNL     1      11.384  -5.489   7.523  1.00  0.00    -0.206 F 
ATOM     77  C   UNL     1      10.362  -7.221   6.311  1.00  0.00     0.059 A 
ATOM     78  C   UNL     1       9.675  -6.837   4.013  1.00  0.00     0.059 A 
ATOM     79  F   UNL     1      10.055  -4.744   3.021  1.00  0.00    -0.206 F 
ATOM     80  C   UNL     1       9.785  -7.674   5.123  1.00  0.00     0.060 A 
BRANCH  80  81
ATOM     81  S   UNL     1       9.131  -9.357   5.062  1.00  0.00     0.124 S 
ATOM     82  O   UNL     1      10.353 -10.141   4.928  1.00  0.00    -0.237 OA
ATOM     83  O   UNL     1       8.439  -9.466   6.343  1.00  0.00    -0.237 OA
ATOM     84  O   UNL     1       8.262  -9.334   3.890  1.00  0.00    -0.744 OA
ENDBRANCH  80  81
ENDBRANCH  48  73
BRANCH  60  85
ATOM     85  C   UNL     1      17.131  -2.275   5.642  1.00  0.00     0.058 A 
ATOM     86  C   UNL     1      17.742  -2.799   4.494  1.00  0.00     0.135 A 
ATOM     87  C   UNL     1      17.862  -2.286   6.841  1.00  0.00     0.135 A 
ATOM     88  F   UNL     1      17.082  -2.817   3.325  1.00  0.00    -0.206 F 
ATOM     89  C   UNL     1      19.027  -3.330   4.534  1.00  0.00     0.059 A 
ATOM     90  C   UNL     1      19.156  -2.794   6.900  1.00  0.00     0.059 A 
ATOM     91  F   UNL     1      17.324  -1.788   7.965  1.00  0.00    -0.206 F 
ATOM     92  C   UNL     1      19.727  -3.324   5.743  1.00  0.00     0.060 A 
BRANCH  92  93
ATOM     93  S   UNL     1      21.408  -3.981   5.779  1.00  0.00     0.124 S 
ATOM     94  O   UNL     1      21.160  -5.419   5.796  1.00  0.00    -0.237 OA
ATOM     95  O   UNL     1      21.981  -3.451   4.545  1.00  0.00    -0.237 OA
ATOM     96  O   UNL     1      21.963  -3.424   7.009  1.00  0.00    -0.744 OA
ENDBRANCH  92  93
ENDBRANCH  60  85
ENDBRANCH  34  35
ENDBRANCH  26  29
ENDBRANCH  24  25
ENDBRANCH   1  24
TORSDOF 15
