REMARK SMILES O=C(NCCCNC(=O)[C@@H]1CS[C@H](c2ncc(-c3ccccc3)s2)[NH2+]1)c1ccc(-c2c3nc(c(-c4c(F)cc(S(=O)(=O)[O-])cc4F)c4ccc([nH]4)c(-c4c(F)cc(S(=O)(=O)[O-])cc4F)c4nc(c(-c5c(F)cc(S(=O)(=O)[O-])cc5F)c5ccc2[nH]5)C=C4)C=C3)cc1
REMARK SMILES IDX 4 1 3 2 1 3 2 4 26 6 27 7 91 8 28 9 90 10 29 11 30 12 31 13
REMARK SMILES IDX 84 14 32 15 89 16 83 17 85 18 33 19 88 20 82 21 81 22 34 24
REMARK SMILES IDX 68 25 47 26 67 27 48 28 51 29 66 30 86 31 49 32 50 33 65 35
REMARK SMILES IDX 87 36 52 37 35 38 36 39 45 40 37 41 38 42 44 43 46 44 39 45
REMARK SMILES IDX 40 46 41 47 42 48 43 49 69 50 70 51 79 52 71 53 72 54 78 55
REMARK SMILES IDX 80 56 73 57 74 58 75 59 76 60 77 61 53 62 54 63 63 64 55 65
REMARK SMILES IDX 56 66 62 67 64 68 57 69 58 70 59 71 60 72 61 73 5 74 6 75
REMARK SMILES IDX 7 76 8 77 9 79 10 80 11 81 25 82 12 83 13 84 14 87 15 88
REMARK SMILES IDX 24 89 16 90 17 91 18 92 19 93 23 94 20 95 22 96 21 97
REMARK H PARENT 3 5 85 23 51 34 7 78 25 85 25 86
REMARK Flexibility Score: inf
ROOT
ATOM      1  C   UNL     1      10.473  -0.950   8.486  1.00  0.00     0.118 C 
ENDROOT
BRANCH   1   2
ATOM      2  N   UNL     1      11.231  -2.191   8.481  1.00  0.00    -0.352 N 
ATOM      3  O   UNL     1      13.043  -3.513   8.398  1.00  0.00    -0.269 OA
ATOM      4  C   UNL     1      12.572  -2.409   8.674  1.00  0.00     0.251 C 
ATOM      5  H   UNL     1      10.698  -3.002   8.313  1.00  0.00     0.163 HD
BRANCH   4   6
ATOM      6  C   UNL     1      13.450  -1.340   9.197  1.00  0.00     0.039 A 
ATOM      7  C   UNL     1      13.037  -0.512  10.244  1.00  0.00     0.014 A 
ATOM      8  C   UNL     1      14.741  -1.207   8.674  1.00  0.00     0.014 A 
ATOM      9  C   UNL     1      13.859   0.521  10.683  1.00  0.00     0.010 A 
ATOM     10  C   UNL     1      15.597  -0.221   9.172  1.00  0.00     0.010 A 
ATOM     11  C   UNL     1      15.156   0.665  10.167  1.00  0.00    -0.014 A 
BRANCH  11  12
ATOM     12  C   UNL     1      16.067   1.692  10.735  1.00  0.00     0.031 A 
ATOM     13  C   UNL     1      16.568   2.834   9.898  1.00  0.00     0.074 A 
ATOM     14  C   UNL     1      16.455   1.573  12.020  1.00  0.00     0.049 A 
ATOM     15  N   UNL     1      17.389   3.798  10.227  1.00  0.00    -0.248 NA
ATOM     16  C   UNL     1      16.096   2.897   8.507  1.00  0.00     0.031 C 
ATOM     17  C   UNL     1      16.054   0.489  12.921  1.00  0.00     0.029 A 
ATOM     18  N   UNL     1      17.273   2.359  12.790  1.00  0.00    -0.354 N 
ATOM     19  C   UNL     1      17.550   4.571   9.084  1.00  0.00     0.074 A 
ATOM     20  C   UNL     1      16.759   3.948   8.043  1.00  0.00     0.031 C 
ATOM     21  C   UNL     1      16.615   0.686  14.122  1.00  0.00     0.029 A 
ATOM     22  C   UNL     1      17.459   1.875  14.063  1.00  0.00     0.049 A 
ATOM     23  H   UNL     1      17.688   3.190  12.463  1.00  0.00     0.167 HD
ATOM     24  C   UNL     1      18.285   5.699   8.922  1.00  0.00     0.037 A 
ATOM     25  C   UNL     1      18.243   2.315  15.064  1.00  0.00     0.037 A 
ATOM     26  C   UNL     1      19.063   6.311   9.969  1.00  0.00     0.049 A 
ATOM     27  C   UNL     1      19.059   3.558  14.860  1.00  0.00     0.074 A 
ATOM     28  C   UNL     1      19.799   7.483   9.921  1.00  0.00     0.029 A 
ATOM     29  N   UNL     1      19.222   5.794  11.248  1.00  0.00    -0.354 N 
ATOM     30  N   UNL     1      19.152   4.311  13.790  1.00  0.00    -0.248 NA
ATOM     31  C   UNL     1      19.874   4.014  15.993  1.00  0.00     0.031 C 
ATOM     32  C   UNL     1      20.442   7.646  11.153  1.00  0.00     0.029 A 
ATOM     33  C   UNL     1      20.066   6.606  11.988  1.00  0.00     0.049 A 
ATOM     34  H   UNL     1      18.796   4.971  11.580  1.00  0.00     0.167 HD
ATOM     35  C   UNL     1      20.025   5.339  14.124  1.00  0.00     0.074 A 
ATOM     36  C   UNL     1      20.422   5.117  15.501  1.00  0.00     0.031 C 
ATOM     37  C   UNL     1      20.456   6.371  13.358  1.00  0.00     0.037 A 
BRANCH  24  38
ATOM     38  C   UNL     1      18.305   6.326   7.553  1.00  0.00     0.058 A 
ATOM     39  C   UNL     1      17.179   6.968   7.013  1.00  0.00     0.135 A 
ATOM     40  C   UNL     1      19.474   6.295   6.774  1.00  0.00     0.135 A 
ATOM     41  F   UNL     1      16.032   7.021   7.708  1.00  0.00    -0.206 F 
ATOM     42  C   UNL     1      17.198   7.518   5.734  1.00  0.00     0.059 A 
ATOM     43  C   UNL     1      19.524   6.863   5.504  1.00  0.00     0.059 A 
ATOM     44  F   UNL     1      20.582   5.700   7.242  1.00  0.00    -0.206 F 
ATOM     45  C   UNL     1      18.373   7.452   4.984  1.00  0.00     0.060 A 
BRANCH  45  46
ATOM     46  S   UNL     1      18.372   8.137   3.313  1.00  0.00     0.124 S 
ATOM     47  O   UNL     1      17.599   7.132   2.589  1.00  0.00    -0.237 OA
ATOM     48  O   UNL     1      17.714   9.426   3.502  1.00  0.00    -0.237 OA
ATOM     49  O   UNL     1      19.789   8.204   2.971  1.00  0.00    -0.744 OA
ENDBRANCH  45  46
ENDBRANCH  24  38
BRANCH  25  50
ATOM     50  C   UNL     1      18.289   1.549  16.337  1.00  0.00     0.058 A 
ATOM     51  C   UNL     1      17.678   2.034  17.500  1.00  0.00     0.135 A 
ATOM     52  C   UNL     1      18.882   0.276  16.388  1.00  0.00     0.135 A 
ATOM     53  F   UNL     1      17.102   3.246  17.501  1.00  0.00    -0.206 F 
ATOM     54  C   UNL     1      17.646   1.282  18.671  1.00  0.00     0.059 A 
ATOM     55  C   UNL     1      18.841  -0.504  17.538  1.00  0.00     0.059 A 
ATOM     56  F   UNL     1      19.463  -0.239  15.293  1.00  0.00    -0.206 F 
ATOM     57  C   UNL     1      18.222   0.010  18.676  1.00  0.00     0.060 A 
BRANCH  57  58
ATOM     58  S   UNL     1      18.093  -0.994  20.172  1.00  0.00     0.124 S 
ATOM     59  O   UNL     1      19.054  -0.337  21.050  1.00  0.00    -0.237 OA
ATOM     60  O   UNL     1      16.687  -0.831  20.529  1.00  0.00    -0.237 OA
ATOM     61  O   UNL     1      18.464  -2.329  19.714  1.00  0.00    -0.744 OA
ENDBRANCH  57  58
ENDBRANCH  25  50
BRANCH  37  62
ATOM     62  C   UNL     1      21.394   7.359  13.994  1.00  0.00     0.058 A 
ATOM     63  C   UNL     1      22.740   7.046  14.236  1.00  0.00     0.135 A 
ATOM     64  C   UNL     1      20.956   8.658  14.301  1.00  0.00     0.135 A 
ATOM     65  F   UNL     1      23.206   5.816  13.971  1.00  0.00    -0.206 F 
ATOM     66  C   UNL     1      23.618   7.984  14.770  1.00  0.00     0.059 A 
ATOM     67  C   UNL     1      21.822   9.619  14.811  1.00  0.00     0.059 A 
ATOM     68  F   UNL     1      19.678   9.009  14.083  1.00  0.00    -0.206 F 
ATOM     69  C   UNL     1      23.151   9.270  15.048  1.00  0.00     0.060 A 
BRANCH  69  70
ATOM     70  S   UNL     1      24.314  10.495  15.687  1.00  0.00     0.124 S 
ATOM     71  O   UNL     1      24.493  10.041  17.062  1.00  0.00    -0.237 OA
ATOM     72  O   UNL     1      25.466  10.321  14.807  1.00  0.00    -0.237 OA
ATOM     73  O   UNL     1      23.598  11.757  15.530  1.00  0.00    -0.744 OA
ENDBRANCH  69  70
ENDBRANCH  37  62
ENDBRANCH  11  12
ENDBRANCH   4   6
ENDBRANCH   1   2
BRANCH   1  74
ATOM     74  C   UNL     1       9.961  -0.573   7.099  1.00  0.00     0.042 C 
BRANCH  74  75
ATOM     75  C   UNL     1       8.928  -1.542   6.531  1.00  0.00     0.118 C 
BRANCH  75  76
ATOM     76  N   UNL     1       7.725  -1.598   7.337  1.00  0.00    -0.351 N 
ATOM     77  C   UNL     1       6.479  -1.085   7.192  1.00  0.00     0.279 C 
ATOM     78  H   UNL     1       7.836  -2.119   8.165  1.00  0.00     0.163 HD
ATOM     79  O   UNL     1       5.666  -1.463   8.047  1.00  0.00    -0.268 OA
BRANCH  77  80
ATOM     80  C   UNL     1       6.031  -0.192   6.002  1.00  0.00     0.284 C 
ATOM     81  C   UNL     1       7.072   0.692   5.315  1.00  0.00     0.151 C 
ATOM     82  N   UNL     1       4.858   0.642   6.447  1.00  0.00    -0.319 N 
ATOM     83  S   UNL     1       6.199   2.214   4.919  1.00  0.00    -0.085 SA
ATOM     84  C   UNL     1       5.228   2.067   6.443  1.00  0.00     0.303 C 
ATOM     85  H   UNL     1       4.585   0.366   7.390  1.00  0.00     0.348 HD
ATOM     86  H   UNL     1       4.078   0.496   5.806  1.00  0.00     0.348 HD
BRANCH  84  87
ATOM     87  C   UNL     1       6.002   2.568   7.662  1.00  0.00     0.162 A 
ATOM     88  N   UNL     1       6.739   3.666   7.673  1.00  0.00    -0.242 NA
ATOM     89  S   UNL     1       5.938   1.750   9.183  1.00  0.00    -0.112 S 
ATOM     90  C   UNL     1       7.351   3.825   8.902  1.00  0.00     0.132 A 
ATOM     91  C   UNL     1       7.075   2.849   9.835  1.00  0.00     0.055 A 
BRANCH  91  92
ATOM     92  C   UNL     1       7.580   2.680  11.191  1.00  0.00    -0.007 A 
ATOM     93  C   UNL     1       8.467   1.637  11.494  1.00  0.00     0.009 A 
ATOM     94  C   UNL     1       7.202   3.569  12.204  1.00  0.00     0.009 A 
ATOM     95  C   UNL     1       8.963   1.483  12.790  1.00  0.00     0.001 A 
ATOM     96  C   UNL     1       7.694   3.410  13.502  1.00  0.00     0.001 A 
ATOM     97  C   UNL     1       8.574   2.369  13.793  1.00  0.00     0.000 A 
ENDBRANCH  91  92
ENDBRANCH  84  87
ENDBRANCH  77  80
ENDBRANCH  75  76
ENDBRANCH  74  75
ENDBRANCH   1  74
TORSDOF 15
