REMARK SMILES CC[C@@H](Oc1ccccc1/C=C1\S/C(=[NH+]\c2cccc(O)c2)N(CC)C1=O)C(=O)NCCCNC(=O)c1ccc(-c2c3nc(c(-c4c(F)cc(S(=O)(=O)[O-])cc4F)c4ccc([nH]4)c(-c4c(F)cc(S(=O)(=O)[O-])cc4F)c4nc(c(-c5c(F)cc(S(=O)(=O)[O-])cc5F)c5ccc2[nH]5)C=C4)C=C3)cc1
REMARK SMILES IDX 31 1 30 2 28 3 29 4 3 6 2 7 1 8 4 9 5 10 6 11 10 12 7 13
REMARK SMILES IDX 9 14 8 15 11 16 12 17 13 18 26 19 14 20 23 21 27 22 15 23
REMARK SMILES IDX 24 25 25 26 16 27 17 28 22 29 18 30 20 31 19 32 21 33 32 35
REMARK SMILES IDX 33 36 34 37 35 38 36 40 37 41 38 42 102 43 39 44 101 45
REMARK SMILES IDX 40 46 41 47 42 48 95 49 43 50 100 51 94 52 96 53 44 54 99 55
REMARK SMILES IDX 93 56 92 57 45 59 79 60 58 61 78 62 59 63 62 64 77 65 97 66
REMARK SMILES IDX 60 67 61 68 76 70 98 71 63 72 46 73 47 74 56 75 48 76 49 77
REMARK SMILES IDX 55 78 57 79 50 80 51 81 52 82 53 83 54 84 80 85 81 86 90 87
REMARK SMILES IDX 82 88 83 89 89 90 91 91 84 92 85 93 86 94 87 95 88 96 64 97
REMARK SMILES IDX 65 98 74 99 66 100 67 101 73 102 75 103 68 104 69 105 70 106
REMARK SMILES IDX 71 107 72 108
REMARK H PARENT 30 5 15 24 21 34 34 39 96 58 62 69
REMARK Flexibility Score: inf
ROOT
ATOM      1  C   UNL     1      -1.692  -4.004   0.359  1.00  0.00     0.118 C 
ENDROOT
BRANCH   1   2
ATOM      2  N   UNL     1      -0.373  -4.565   0.117  1.00  0.00    -0.353 N 
ATOM      3  C   UNL     1       0.880  -4.075   0.348  1.00  0.00     0.261 C 
ATOM      4  O   UNL     1       1.807  -4.893   0.256  1.00  0.00    -0.271 OA
ATOM      5  H   UNL     1      -0.386  -5.462  -0.289  1.00  0.00     0.163 HD
BRANCH   3   6
ATOM      6  C   UNL     1       1.214  -2.572   0.570  1.00  0.00     0.261 C 
BRANCH   6   7
ATOM      7  C   UNL     1       1.495  -1.987  -0.829  1.00  0.00     0.052 C 
ATOM      8  C   UNL     1       2.649  -0.989  -0.842  1.00  0.00     0.008 C 
ENDBRANCH   6   7
BRANCH   6   9
ATOM      9  O   UNL     1       0.197  -1.816   1.223  1.00  0.00    -0.480 OA
BRANCH   9  10
ATOM     10  C   UNL     1       0.622  -0.823   2.075  1.00  0.00     0.127 A 
ATOM     11  C   UNL     1       0.978  -1.159   3.382  1.00  0.00     0.047 A 
ATOM     12  C   UNL     1       0.510   0.536   1.702  1.00  0.00     0.018 A 
ATOM     13  C   UNL     1       1.239  -0.150   4.314  1.00  0.00     0.004 A 
ATOM     14  C   UNL     1       0.774   1.537   2.643  1.00  0.00     0.012 A 
ATOM     15  C   UNL     1       1.130   1.193   3.947  1.00  0.00     0.001 A 
BRANCH  12  16
ATOM     16  C   UNL     1       0.182   0.922   0.323  1.00  0.00     0.036 C 
ATOM     17  C   UNL     1      -0.995   0.687  -0.265  1.00  0.00     0.110 C 
ATOM     18  S   UNL     1      -2.437   0.178   0.485  1.00  0.00     0.007 SA
ATOM     19  C   UNL     1      -1.118   0.604  -1.743  1.00  0.00     0.348 C 
ATOM     20  C   UNL     1      -3.236  -0.120  -1.045  1.00  0.00     0.324 C 
ATOM     21  N   UNL     1      -2.346   0.070  -2.080  1.00  0.00    -0.186 N 
ATOM     22  O   UNL     1      -0.184   0.837  -2.504  1.00  0.00    -0.240 OA
ATOM     23  N   UNL     1      -4.454  -0.524  -1.211  1.00  0.00    -0.234 N 
ATOM     24  H   UNL     1      -4.832  -0.570  -2.119  1.00  0.00     0.313 HD
BRANCH  21  25
ATOM     25  C   UNL     1      -2.534  -0.534  -3.396  1.00  0.00     0.244 C 
ATOM     26  C   UNL     1      -2.540   0.449  -4.551  1.00  0.00     0.055 C 
ENDBRANCH  21  25
BRANCH  23  27
ATOM     27  C   UNL     1      -5.245  -0.901  -0.106  1.00  0.00     0.129 A 
ATOM     28  C   UNL     1      -5.696  -2.219  -0.080  1.00  0.00     0.052 A 
ATOM     29  C   UNL     1      -5.548  -0.083   0.982  1.00  0.00     0.097 A 
ATOM     30  C   UNL     1      -6.333  -2.765   1.032  1.00  0.00     0.008 A 
ATOM     31  C   UNL     1      -6.149  -0.636   2.115  1.00  0.00     0.119 A 
ATOM     32  C   UNL     1      -6.540  -1.970   2.149  1.00  0.00     0.046 A 
BRANCH  31  33
ATOM     33  O   UNL     1      -6.332   0.102   3.248  1.00  0.00    -0.508 OA
ATOM     34  H   UNL     1      -6.738  -0.285   3.998  1.00  0.00     0.293 HD
ENDBRANCH  31  33
ENDBRANCH  23  27
ENDBRANCH  12  16
ENDBRANCH   9  10
ENDBRANCH   6   9
ENDBRANCH   3   6
ENDBRANCH   1   2
BRANCH   1  35
ATOM     35  C   UNL     1      -2.443  -3.628  -0.914  1.00  0.00     0.042 C 
BRANCH  35  36
ATOM     36  C   UNL     1      -3.123  -4.763  -1.692  1.00  0.00     0.118 C 
BRANCH  36  37
ATOM     37  N   UNL     1      -4.224  -5.427  -0.994  1.00  0.00    -0.352 N 
ATOM     38  C   UNL     1      -5.576  -5.534  -1.256  1.00  0.00     0.251 C 
ATOM     39  H   UNL     1      -3.945  -5.891  -0.172  1.00  0.00     0.163 HD
ATOM     40  O   UNL     1      -6.276  -6.147  -0.450  1.00  0.00    -0.269 OA
BRANCH  38  41
ATOM     41  C   UNL     1      -6.232  -4.867  -2.414  1.00  0.00     0.039 A 
ATOM     42  C   UNL     1      -7.462  -4.215  -2.203  1.00  0.00     0.014 A 
ATOM     43  C   UNL     1      -5.678  -4.864  -3.692  1.00  0.00     0.014 A 
ATOM     44  C   UNL     1      -8.076  -3.484  -3.228  1.00  0.00     0.010 A 
ATOM     45  C   UNL     1      -6.279  -4.118  -4.711  1.00  0.00     0.010 A 
ATOM     46  C   UNL     1      -7.480  -3.418  -4.491  1.00  0.00    -0.014 A 
BRANCH  46  47
ATOM     47  C   UNL     1      -8.140  -2.742  -5.640  1.00  0.00     0.031 A 
ATOM     48  C   UNL     1      -8.719  -3.597  -6.735  1.00  0.00     0.074 A 
ATOM     49  C   UNL     1      -8.155  -1.399  -5.756  1.00  0.00     0.049 A 
ATOM     50  N   UNL     1      -9.160  -3.251  -7.915  1.00  0.00    -0.248 NA
ATOM     51  C   UNL     1      -8.785  -5.044  -6.467  1.00  0.00     0.031 C 
ATOM     52  C   UNL     1      -7.652  -0.452  -4.761  1.00  0.00     0.029 A 
ATOM     53  N   UNL     1      -8.586  -0.597  -6.789  1.00  0.00    -0.354 N 
ATOM     54  C   UNL     1      -9.518  -4.436  -8.546  1.00  0.00     0.074 A 
ATOM     55  C   UNL     1      -9.227  -5.513  -7.624  1.00  0.00     0.031 C 
ATOM     56  C   UNL     1      -7.783   0.798  -5.241  1.00  0.00     0.029 A 
ATOM     57  C   UNL     1      -8.334   0.742  -6.594  1.00  0.00     0.049 A 
ATOM     58  H   UNL     1      -9.034  -0.949  -7.592  1.00  0.00     0.167 HD
ATOM     59  C   UNL     1     -10.043  -4.611  -9.781  1.00  0.00     0.037 A 
ATOM     60  C   UNL     1      -8.493   1.795  -7.426  1.00  0.00     0.037 A 
ATOM     61  C   UNL     1     -10.364  -3.536 -10.681  1.00  0.00     0.049 A 
ATOM     62  C   UNL     1      -9.039   1.567  -8.818  1.00  0.00     0.074 A 
ATOM     63  C   UNL     1     -10.966  -3.611 -11.924  1.00  0.00     0.029 A 
ATOM     64  N   UNL     1     -10.103  -2.196 -10.442  1.00  0.00    -0.354 N 
ATOM     65  N   UNL     1      -9.427   0.447  -9.381  1.00  0.00    -0.248 NA
ATOM     66  C   UNL     1      -9.161   2.745  -9.692  1.00  0.00     0.031 C 
ATOM     67  C   UNL     1     -11.009  -2.324 -12.466  1.00  0.00     0.029 A 
ATOM     68  C   UNL     1     -10.492  -1.439 -11.534  1.00  0.00     0.049 A 
ATOM     69  H   UNL     1      -9.700  -1.835  -9.619  1.00  0.00     0.167 HD
ATOM     70  C   UNL     1      -9.864   0.791 -10.658  1.00  0.00     0.074 A 
ATOM     71  C   UNL     1      -9.706   2.223 -10.783  1.00  0.00     0.031 C 
ATOM     72  C   UNL     1     -10.349  -0.008 -11.640  1.00  0.00     0.037 A 
BRANCH  59  73
ATOM     73  C   UNL     1     -10.283  -6.017 -10.253  1.00  0.00     0.058 A 
ATOM     74  C   UNL     1     -11.313  -6.813  -9.730  1.00  0.00     0.135 A 
ATOM     75  C   UNL     1      -9.507  -6.550 -11.296  1.00  0.00     0.135 A 
ATOM     76  F   UNL     1     -12.071  -6.360  -8.719  1.00  0.00    -0.206 F 
ATOM     77  C   UNL     1     -11.557  -8.094 -10.215  1.00  0.00     0.059 A 
ATOM     78  C   UNL     1      -9.753  -7.816 -11.816  1.00  0.00     0.059 A 
ATOM     79  F   UNL     1      -8.505  -5.832 -11.828  1.00  0.00    -0.206 F 
ATOM     80  C   UNL     1     -10.776  -8.584 -11.263  1.00  0.00     0.060 A 
BRANCH  80  81
ATOM     81  S   UNL     1     -11.133 -10.232 -11.905  1.00  0.00     0.124 S 
ATOM     82  O   UNL     1     -10.673 -11.077 -10.807  1.00  0.00    -0.237 OA
ATOM     83  O   UNL     1     -12.577 -10.182 -12.103  1.00  0.00    -0.237 OA
ATOM     84  O   UNL     1     -10.336 -10.303 -13.126  1.00  0.00    -0.744 OA
ENDBRANCH  80  81
ENDBRANCH  59  73
BRANCH  60  85
ATOM     85  C   UNL     1      -8.099   3.168  -6.997  1.00  0.00     0.058 A 
ATOM     86  C   UNL     1      -9.057   4.183  -6.841  1.00  0.00     0.135 A 
ATOM     87  C   UNL     1      -6.754   3.509  -6.782  1.00  0.00     0.135 A 
ATOM     88  F   UNL     1     -10.355   3.917  -7.051  1.00  0.00    -0.206 F 
ATOM     89  C   UNL     1      -8.696   5.488  -6.519  1.00  0.00     0.059 A 
ATOM     90  C   UNL     1      -6.370   4.800  -6.428  1.00  0.00     0.059 A 
ATOM     91  F   UNL     1      -5.794   2.579  -6.911  1.00  0.00    -0.206 F 
ATOM     92  C   UNL     1      -7.348   5.787  -6.315  1.00  0.00     0.060 A 
BRANCH  92  93
ATOM     93  S   UNL     1      -6.891   7.479  -5.878  1.00  0.00     0.124 S 
ATOM     94  O   UNL     1      -7.101   8.177  -7.141  1.00  0.00    -0.237 OA
ATOM     95  O   UNL     1      -7.840   7.787  -4.812  1.00  0.00    -0.237 OA
ATOM     96  O   UNL     1      -5.501   7.351  -5.450  1.00  0.00    -0.744 OA
ENDBRANCH  92  93
ENDBRANCH  60  85
BRANCH  72  97
ATOM     97  C   UNL     1     -10.785   0.635 -12.930  1.00  0.00     0.058 A 
ATOM     98  C   UNL     1      -9.857   1.132 -13.858  1.00  0.00     0.135 A 
ATOM     99  C   UNL     1     -12.144   0.665 -13.286  1.00  0.00     0.135 A 
ATOM    100  F   UNL     1      -8.546   1.134 -13.568  1.00  0.00    -0.206 F 
ATOM    101  C   UNL     1     -10.260   1.641 -15.089  1.00  0.00     0.059 A 
ATOM    102  C   UNL     1     -12.568   1.141 -14.523  1.00  0.00     0.059 A 
ATOM    103  F   UNL     1     -13.074   0.193 -12.440  1.00  0.00    -0.206 F 
ATOM    104  C   UNL     1     -11.618   1.631 -15.417  1.00  0.00     0.060 A 
BRANCH 104 105
ATOM    105  S   UNL     1     -12.118   2.231 -17.045  1.00  0.00     0.124 S 
ATOM    106  O   UNL     1     -11.898   3.667 -16.912  1.00  0.00    -0.237 OA
ATOM    107  O   UNL     1     -11.196   1.528 -17.932  1.00  0.00    -0.237 OA
ATOM    108  O   UNL     1     -13.515   1.817 -17.147  1.00  0.00    -0.744 OA
ENDBRANCH 104 105
ENDBRANCH  72  97
ENDBRANCH  46  47
ENDBRANCH  38  41
ENDBRANCH  36  37
ENDBRANCH  35  36
ENDBRANCH   1  35
TORSDOF 20
