REMARK SMILES O=C(NCCCNC(=O)c1nc(NC[C@H]2c3ccccc3CSc3ccccc32)c2ccccc2n1)c1ccc(-c2c3nc(c(-c4c(F)cc(S(=O)(=O)[O-])cc4F)c4ccc([nH]4)c(-c4c(F)cc(S(=O)(=O)[O-])cc4F)c4nc(c(-c5c(F)cc(S(=O)(=O)[O-])cc5F)c5ccc2[nH]5)C=C4)C=C3)cc1
REMARK SMILES IDX 5 1 4 2 3 3 1 4 2 5 37 7 38 8 102 9 39 10 101 11 40 12 41 13
REMARK SMILES IDX 42 14 95 15 43 16 100 17 94 18 96 19 44 20 99 21 93 22 92 23
REMARK SMILES IDX 45 25 79 26 58 27 78 28 59 29 62 30 77 31 97 32 60 33 61 34
REMARK SMILES IDX 76 36 98 37 63 38 46 39 47 40 56 41 48 42 49 43 55 44 57 45
REMARK SMILES IDX 50 46 51 47 52 48 53 49 54 50 80 51 81 52 90 53 82 54 83 55
REMARK SMILES IDX 89 56 91 57 84 58 85 59 86 60 87 61 88 62 64 63 65 64 74 65
REMARK SMILES IDX 66 66 67 67 73 68 75 69 68 70 69 71 70 72 71 73 72 74 6 75
REMARK SMILES IDX 7 76 8 77 9 79 10 80 11 81 36 82 12 83 35 84 30 85 34 86
REMARK SMILES IDX 31 87 33 88 32 89 13 90 14 92 15 93 16 94 29 95 17 96 21 97
REMARK SMILES IDX 24 98 28 99 18 100 20 101 22 102 23 103 25 104 27 105 19 106
REMARK SMILES IDX 26 107
REMARK H PARENT 3 6 96 24 62 35 7 78 13 91
REMARK Flexibility Score: inf
ROOT
ATOM      1  C   UNL     1       5.010   1.146  -2.441  1.00  0.00     0.042 C 
ENDROOT
BRANCH   1   2
ATOM      2  C   UNL     1       4.618   1.152  -0.971  1.00  0.00     0.118 C 
BRANCH   2   3
ATOM      3  N   UNL     1       3.185   1.023  -0.759  1.00  0.00    -0.352 N 
ATOM      4  O   UNL     1       1.239   0.102  -0.131  1.00  0.00    -0.269 OA
ATOM      5  C   UNL     1       2.469   0.093  -0.047  1.00  0.00     0.251 C 
ATOM      6  H   UNL     1       2.639   1.714  -1.199  1.00  0.00     0.163 HD
BRANCH   5   7
ATOM      7  C   UNL     1       3.140  -0.927   0.795  1.00  0.00     0.039 A 
ATOM      8  C   UNL     1       2.578  -2.206   0.874  1.00  0.00     0.014 A 
ATOM      9  C   UNL     1       4.285  -0.637   1.541  1.00  0.00     0.014 A 
ATOM     10  C   UNL     1       3.182  -3.190   1.662  1.00  0.00     0.010 A 
ATOM     11  C   UNL     1       4.945  -1.647   2.241  1.00  0.00     0.010 A 
ATOM     12  C   UNL     1       4.388  -2.929   2.335  1.00  0.00    -0.014 A 
BRANCH  12  13
ATOM     13  C   UNL     1       5.034  -3.970   3.183  1.00  0.00     0.031 A 
ATOM     14  C   UNL     1       5.217  -3.731   4.662  1.00  0.00     0.074 A 
ATOM     15  C   UNL     1       5.462  -5.123   2.629  1.00  0.00     0.049 A 
ATOM     16  N   UNL     1       5.758  -4.513   5.562  1.00  0.00    -0.248 NA
ATOM     17  C   UNL     1       4.757  -2.439   5.201  1.00  0.00     0.031 C 
ATOM     18  C   UNL     1       5.385  -5.457   1.205  1.00  0.00     0.029 A 
ATOM     19  N   UNL     1       6.039  -6.235   3.194  1.00  0.00    -0.354 N 
ATOM     20  C   UNL     1       5.705  -3.809   6.760  1.00  0.00     0.074 A 
ATOM     21  C   UNL     1       5.146  -2.510   6.466  1.00  0.00     0.031 C 
ATOM     22  C   UNL     1       5.849  -6.703   1.017  1.00  0.00     0.029 A 
ATOM     23  C   UNL     1       6.295  -7.247   2.296  1.00  0.00     0.049 A 
ATOM     24  H   UNL     1       6.250  -6.302   4.154  1.00  0.00     0.167 HD
ATOM     25  C   UNL     1       6.051  -4.221   8.002  1.00  0.00     0.037 A 
ATOM     26  C   UNL     1       6.824  -8.473   2.481  1.00  0.00     0.037 A 
ATOM     27  C   UNL     1       6.561  -5.531   8.300  1.00  0.00     0.049 A 
ATOM     28  C   UNL     1       7.214  -8.903   3.872  1.00  0.00     0.074 A 
ATOM     29  C   UNL     1       6.890  -6.059   9.536  1.00  0.00     0.029 A 
ATOM     30  N   UNL     1       6.804  -6.521   7.361  1.00  0.00    -0.354 N 
ATOM     31  N   UNL     1       7.098  -8.241   4.999  1.00  0.00    -0.248 NA
ATOM     32  C   UNL     1       7.804 -10.242   4.022  1.00  0.00     0.031 C 
ATOM     33  C   UNL     1       7.379  -7.352   9.340  1.00  0.00     0.029 A 
ATOM     34  C   UNL     1       7.300  -7.650   7.988  1.00  0.00     0.049 A 
ATOM     35  H   UNL     1       6.649  -6.433   6.393  1.00  0.00     0.167 HD
ATOM     36  C   UNL     1       7.568  -9.094   5.992  1.00  0.00     0.074 A 
ATOM     37  C   UNL     1       7.966 -10.321   5.337  1.00  0.00     0.031 C 
ATOM     38  C   UNL     1       7.661  -8.877   7.325  1.00  0.00     0.037 A 
BRANCH  25  39
ATOM     39  C   UNL     1       5.856  -3.268   9.150  1.00  0.00     0.058 A 
ATOM     40  C   UNL     1       4.574  -2.954   9.628  1.00  0.00     0.135 A 
ATOM     41  C   UNL     1       6.961  -2.750   9.846  1.00  0.00     0.135 A 
ATOM     42  F   UNL     1       3.484  -3.409   8.990  1.00  0.00    -0.206 F 
ATOM     43  C   UNL     1       4.394  -2.158  10.753  1.00  0.00     0.059 A 
ATOM     44  C   UNL     1       6.804  -1.974  10.991  1.00  0.00     0.059 A 
ATOM     45  F   UNL     1       8.208  -3.017   9.429  1.00  0.00    -0.206 F 
ATOM     46  C   UNL     1       5.515  -1.683  11.435  1.00  0.00     0.060 A 
BRANCH  46  47
ATOM     47  S   UNL     1       5.255  -0.702  12.928  1.00  0.00     0.124 S 
ATOM     48  O   UNL     1       4.668   0.517  12.378  1.00  0.00    -0.237 OA
ATOM     49  O   UNL     1       4.351  -1.547  13.700  1.00  0.00    -0.237 OA
ATOM     50  O   UNL     1       6.598  -0.555  13.479  1.00  0.00    -0.744 OA
ENDBRANCH  46  47
ENDBRANCH  25  39
BRANCH  26  51
ATOM     51  C   UNL     1       6.989  -9.399   1.325  1.00  0.00     0.058 A 
ATOM     52  C   UNL     1       6.220 -10.568   1.220  1.00  0.00     0.135 A 
ATOM     53  C   UNL     1       7.916  -9.136   0.304  1.00  0.00     0.135 A 
ATOM     54  F   UNL     1       5.325 -10.870   2.172  1.00  0.00    -0.206 F 
ATOM     55  C   UNL     1       6.377 -11.453   0.157  1.00  0.00     0.059 A 
ATOM     56  C   UNL     1       8.070  -9.990  -0.784  1.00  0.00     0.059 A 
ATOM     57  F   UNL     1       8.666  -8.024   0.346  1.00  0.00    -0.206 F 
ATOM     58  C   UNL     1       7.305 -11.153  -0.842  1.00  0.00     0.060 A 
BRANCH  58  59
ATOM     59  S   UNL     1       7.478 -12.295  -2.231  1.00  0.00     0.124 S 
ATOM     60  O   UNL     1       8.103 -13.446  -1.589  1.00  0.00    -0.237 OA
ATOM     61  O   UNL     1       6.093 -12.473  -2.654  1.00  0.00    -0.237 OA
ATOM     62  O   UNL     1       8.323 -11.560  -3.168  1.00  0.00    -0.744 OA
ENDBRANCH  58  59
ENDBRANCH  26  51
BRANCH  38  63
ATOM     63  C   UNL     1       8.176  -9.987   8.198  1.00  0.00     0.058 A 
ATOM     64  C   UNL     1       9.542 -10.298   8.256  1.00  0.00     0.135 A 
ATOM     65  C   UNL     1       7.312 -10.636   9.097  1.00  0.00     0.135 A 
ATOM     66  F   UNL     1      10.406  -9.710   7.414  1.00  0.00    -0.206 F 
ATOM     67  C   UNL     1      10.038 -11.204   9.188  1.00  0.00     0.059 A 
ATOM     68  C   UNL     1       7.790 -11.526  10.053  1.00  0.00     0.059 A 
ATOM     69  F   UNL     1       5.997 -10.365   9.086  1.00  0.00    -0.206 F 
ATOM     70  C   UNL     1       9.157 -11.799  10.094  1.00  0.00     0.060 A 
BRANCH  70  71
ATOM     71  S   UNL     1       9.835 -12.888  11.364  1.00  0.00     0.124 S 
ATOM     72  O   UNL     1      10.265 -14.035  10.570  1.00  0.00    -0.237 OA
ATOM     73  O   UNL     1      10.904 -12.073  11.931  1.00  0.00    -0.237 OA
ATOM     74  O   UNL     1       8.700 -13.130  12.249  1.00  0.00    -0.744 OA
ENDBRANCH  70  71
ENDBRANCH  38  63
ENDBRANCH  12  13
ENDBRANCH   5   7
ENDBRANCH   2   3
ENDBRANCH   1   2
BRANCH   1  75
ATOM     75  C   UNL     1       4.504   2.330  -3.257  1.00  0.00     0.118 C 
BRANCH  75  76
ATOM     76  N   UNL     1       5.057   3.602  -2.816  1.00  0.00    -0.349 N 
ATOM     77  C   UNL     1       5.797   4.541  -3.518  1.00  0.00     0.289 C 
ATOM     78  H   UNL     1       4.878   3.831  -1.875  1.00  0.00     0.163 HD
ATOM     79  O   UNL     1       6.236   5.512  -2.900  1.00  0.00    -0.266 OA
BRANCH  77  80
ATOM     80  C   UNL     1       6.095   4.364  -4.984  1.00  0.00     0.220 A 
ATOM     81  N   UNL     1       7.357   4.622  -5.362  1.00  0.00    -0.206 NA
ATOM     82  N   UNL     1       5.138   3.840  -5.760  1.00  0.00    -0.224 NA
ATOM     83  C   UNL     1       7.735   4.231  -6.588  1.00  0.00     0.138 A 
ATOM     84  C   UNL     1       5.506   3.484  -6.987  1.00  0.00     0.077 A 
ATOM     85  C   UNL     1       6.814   3.644  -7.480  1.00  0.00     0.043 A 
ATOM     86  C   UNL     1       4.549   2.876  -7.786  1.00  0.00     0.029 A 
ATOM     87  C   UNL     1       7.107   3.187  -8.790  1.00  0.00     0.014 A 
ATOM     88  C   UNL     1       4.844   2.425  -9.072  1.00  0.00     0.002 A 
ATOM     89  C   UNL     1       6.126   2.587  -9.578  1.00  0.00     0.001 A 
BRANCH  83  90
ATOM     90  N   UNL     1       9.100   4.253  -6.878  1.00  0.00    -0.368 N 
ATOM     91  H   UNL     1       9.415   3.950  -7.761  1.00  0.00     0.162 HD
BRANCH  90  92
ATOM     92  C   UNL     1      10.075   4.723  -5.881  1.00  0.00     0.127 C 
BRANCH  92  93
ATOM     93  C   UNL     1      11.237   3.698  -5.564  1.00  0.00     0.070 C 
ATOM     94  C   UNL     1      12.434   4.434  -4.925  1.00  0.00    -0.035 A 
ATOM     95  C   UNL     1      10.861   2.388  -4.831  1.00  0.00    -0.025 A 
ATOM     96  C   UNL     1      12.287   5.641  -4.210  1.00  0.00     0.005 A 
ATOM     97  C   UNL     1      13.737   3.908  -5.060  1.00  0.00    -0.034 A 
ATOM     98  C   UNL     1      11.748   1.317  -4.557  1.00  0.00     0.011 A 
ATOM     99  C   UNL     1       9.513   2.178  -4.466  1.00  0.00     0.005 A 
ATOM    100  C   UNL     1      13.389   6.310  -3.669  1.00  0.00     0.000 A 
ATOM    101  C   UNL     1      14.833   4.570  -4.473  1.00  0.00     0.005 A 
ATOM    102  C   UNL     1      13.972   2.614  -5.784  1.00  0.00     0.110 C 
ATOM    103  S   UNL     1      13.526   1.191  -4.782  1.00  0.00    -0.121 SA
ATOM    104  C   UNL     1      11.239   0.117  -3.992  1.00  0.00     0.015 A 
ATOM    105  C   UNL     1       9.021   0.974  -3.960  1.00  0.00     0.000 A 
ATOM    106  C   UNL     1      14.662   5.770  -3.792  1.00  0.00     0.000 A 
ATOM    107  C   UNL     1       9.889  -0.067  -3.721  1.00  0.00     0.001 A 
ENDBRANCH  92  93
ENDBRANCH  90  92
ENDBRANCH  83  90
ENDBRANCH  77  80
ENDBRANCH  75  76
ENDBRANCH   1  75
TORSDOF 16
