REMARK SMILES COc1ccc(/C=C/c2ncc(C(=O)NCCCNC(=O)c3ccc(-c4c5nc(c(-c6c(F)cc(S(=O)(=O)[O-])cc6F)c6ccc([nH]6)c(-c6c(F)cc(S(=O)(=O)[O-])cc6F)c6nc(c(-c7c(F)cc(S(=O)(=O)[O-])cc7F)c7ccc4[nH]7)C=C6)C=C5)cc3)s2)cc1O
REMARK SMILES IDX 17 1 16 2 15 3 13 4 14 5 12 7 9 8 10 9 88 10 11 11 8 12 7 13
REMARK SMILES IDX 6 14 3 15 4 16 90 17 5 18 89 19 2 20 1 21 91 22 18 24 19 25
REMARK SMILES IDX 20 26 21 28 22 29 23 30 87 31 24 32 86 33 25 34 26 35 27 36
REMARK SMILES IDX 80 37 28 38 85 39 79 40 81 41 29 42 84 43 78 44 77 45 30 47
REMARK SMILES IDX 64 48 43 49 63 50 44 51 47 52 62 53 82 54 45 55 46 56 61 58
REMARK SMILES IDX 83 59 48 60 31 61 32 62 41 63 33 64 34 65 40 66 42 67 35 68
REMARK SMILES IDX 36 69 37 70 38 71 39 72 65 73 66 74 75 75 67 76 68 77 74 78
REMARK SMILES IDX 76 79 69 80 70 81 71 82 72 83 73 84 49 85 50 86 59 87 51 88
REMARK SMILES IDX 52 89 58 90 60 91 53 92 54 93 55 94 56 95 57 96
REMARK H PARENT 15 6 91 23 19 27 81 46 47 57
REMARK Flexibility Score: inf
ROOT
ATOM      1  C   UNL     1      -6.412   2.192  11.764  1.00  0.00     0.042 C 
ENDROOT
BRANCH   1   2
ATOM      2  C   UNL     1      -7.235   2.003  10.492  1.00  0.00     0.118 C 
BRANCH   2   3
ATOM      3  N   UNL     1      -7.538   3.270   9.853  1.00  0.00    -0.351 N 
ATOM      4  C   UNL     1      -6.993   3.899   8.759  1.00  0.00     0.263 C 
ATOM      5  O   UNL     1      -7.568   4.933   8.409  1.00  0.00    -0.268 OA
ATOM      6  H   UNL     1      -8.269   3.771  10.283  1.00  0.00     0.163 HD
BRANCH   4   7
ATOM      7  C   UNL     1      -5.844   3.356   8.063  1.00  0.00     0.112 A 
ATOM      8  C   UNL     1      -4.175   2.813   6.341  1.00  0.00     0.116 A 
ATOM      9  N   UNL     1      -3.919   2.161   7.458  1.00  0.00    -0.244 NA
ATOM     10  S   UNL     1      -5.553   3.850   6.437  1.00  0.00    -0.109 S 
ATOM     11  C   UNL     1      -4.829   2.504   8.441  1.00  0.00     0.137 A 
BRANCH   8  12
ATOM     12  C   UNL     1      -3.439   2.737   5.125  1.00  0.00     0.040 C 
ATOM     13  C   UNL     1      -2.660   1.672   4.866  1.00  0.00     0.011 C 
BRANCH  13  14
ATOM     14  C   UNL     1      -1.859   1.506   3.645  1.00  0.00    -0.022 A 
ATOM     15  C   UNL     1      -0.289   1.098   1.334  1.00  0.00     0.160 A 
ATOM     16  C   UNL     1      -0.430   2.375   1.878  1.00  0.00     0.051 A 
ATOM     17  C   UNL     1      -0.959   0.033   1.939  1.00  0.00     0.158 A 
ATOM     18  C   UNL     1      -1.205   2.579   3.027  1.00  0.00     0.012 A 
ATOM     19  C   UNL     1      -1.708   0.225   3.101  1.00  0.00     0.058 A 
BRANCH  15  20
ATOM     20  O   UNL     1       0.453   1.024   0.187  1.00  0.00    -0.493 OA
ATOM     21  C   UNL     1       1.357  -0.076   0.101  1.00  0.00     0.278 C 
ENDBRANCH  15  20
BRANCH  17  22
ATOM     22  O   UNL     1      -0.980  -1.224   1.402  1.00  0.00    -0.504 OA
ATOM     23  H   UNL     1      -0.494  -1.408   0.623  1.00  0.00     0.293 HD
ENDBRANCH  17  22
ENDBRANCH  13  14
ENDBRANCH   8  12
ENDBRANCH   4   7
ENDBRANCH   2   3
ENDBRANCH   1   2
BRANCH   1  24
ATOM     24  C   UNL     1      -7.216   2.755  12.936  1.00  0.00     0.118 C 
BRANCH  24  25
ATOM     25  N   UNL     1      -8.227   1.819  13.405  1.00  0.00    -0.352 N 
ATOM     26  C   UNL     1      -8.444   1.292  14.652  1.00  0.00     0.251 C 
ATOM     27  H   UNL     1      -8.857   1.513  12.713  1.00  0.00     0.163 HD
ATOM     28  O   UNL     1      -9.219   0.345  14.765  1.00  0.00    -0.269 OA
BRANCH  26  29
ATOM     29  C   UNL     1      -7.770   1.841  15.851  1.00  0.00     0.039 A 
ATOM     30  C   UNL     1      -7.388   0.956  16.865  1.00  0.00     0.014 A 
ATOM     31  C   UNL     1      -7.588   3.216  16.027  1.00  0.00     0.014 A 
ATOM     32  C   UNL     1      -6.802   1.443  18.036  1.00  0.00     0.010 A 
ATOM     33  C   UNL     1      -6.942   3.696  17.167  1.00  0.00     0.010 A 
ATOM     34  C   UNL     1      -6.561   2.817  18.192  1.00  0.00    -0.014 A 
BRANCH  34  35
ATOM     35  C   UNL     1      -5.946   3.348  19.436  1.00  0.00     0.031 A 
ATOM     36  C   UNL     1      -6.740   4.244  20.350  1.00  0.00     0.074 A 
ATOM     37  C   UNL     1      -4.664   3.053  19.725  1.00  0.00     0.049 A 
ATOM     38  N   UNL     1      -6.369   4.834  21.457  1.00  0.00    -0.248 NA
ATOM     39  C   UNL     1      -8.127   4.537  19.953  1.00  0.00     0.031 C 
ATOM     40  C   UNL     1      -3.777   2.235  18.896  1.00  0.00     0.029 A 
ATOM     41  N   UNL     1      -3.882   3.412  20.793  1.00  0.00    -0.354 N 
ATOM     42  C   UNL     1      -7.465   5.579  21.878  1.00  0.00     0.074 A 
ATOM     43  C   UNL     1      -8.499   5.406  20.881  1.00  0.00     0.031 C 
ATOM     44  C   UNL     1      -2.580   2.135  19.498  1.00  0.00     0.029 A 
ATOM     45  C   UNL     1      -2.606   2.902  20.739  1.00  0.00     0.049 A 
ATOM     46  H   UNL     1      -4.203   3.982  21.529  1.00  0.00     0.167 HD
ATOM     47  C   UNL     1      -7.607   6.320  23.004  1.00  0.00     0.037 A 
ATOM     48  C   UNL     1      -1.575   3.035  21.596  1.00  0.00     0.037 A 
ATOM     49  C   UNL     1      -6.586   6.463  24.009  1.00  0.00     0.049 A 
ATOM     50  C   UNL     1      -1.768   3.833  22.856  1.00  0.00     0.074 A 
ATOM     51  C   UNL     1      -6.645   7.152  25.208  1.00  0.00     0.029 A 
ATOM     52  N   UNL     1      -5.321   5.897  23.937  1.00  0.00    -0.354 N 
ATOM     53  N   UNL     1      -2.828   4.491  23.262  1.00  0.00    -0.248 NA
ATOM     54  C   UNL     1      -0.629   3.895  23.782  1.00  0.00     0.031 C 
ATOM     55  C   UNL     1      -5.407   7.026  25.848  1.00  0.00     0.029 A 
ATOM     56  C   UNL     1      -4.589   6.225  25.067  1.00  0.00     0.049 A 
ATOM     57  H   UNL     1      -4.992   5.343  23.193  1.00  0.00     0.167 HD
ATOM     58  C   UNL     1      -2.494   5.021  24.503  1.00  0.00     0.074 A 
ATOM     59  C   UNL     1      -1.137   4.597  24.786  1.00  0.00     0.031 C 
ATOM     60  C   UNL     1      -3.243   5.786  25.335  1.00  0.00     0.037 A 
BRANCH  47  61
ATOM     61  C   UNL     1      -8.919   7.028  23.208  1.00  0.00     0.058 A 
ATOM     62  C   UNL     1     -10.095   6.323  23.511  1.00  0.00     0.135 A 
ATOM     63  C   UNL     1      -9.001   8.427  23.119  1.00  0.00     0.135 A 
ATOM     64  F   UNL     1     -10.078   4.983  23.593  1.00  0.00    -0.206 F 
ATOM     65  C   UNL     1     -11.312   6.975  23.682  1.00  0.00     0.059 A 
ATOM     66  C   UNL     1     -10.202   9.103  23.313  1.00  0.00     0.059 A 
ATOM     67  F   UNL     1      -7.907   9.151  22.833  1.00  0.00    -0.206 F 
ATOM     68  C   UNL     1     -11.356   8.366  23.577  1.00  0.00     0.060 A 
BRANCH  68  69
ATOM     69  S   UNL     1     -12.944   9.199  23.794  1.00  0.00     0.124 S 
ATOM     70  O   UNL     1     -13.601   8.903  22.524  1.00  0.00    -0.237 OA
ATOM     71  O   UNL     1     -13.495   8.525  24.964  1.00  0.00    -0.237 OA
ATOM     72  O   UNL     1     -12.569  10.595  23.997  1.00  0.00    -0.744 OA
ENDBRANCH  68  69
ENDBRANCH  47  61
BRANCH  48  73
ATOM     73  C   UNL     1      -0.283   2.358  21.311  1.00  0.00     0.058 A 
ATOM     74  C   UNL     1       0.120   1.237  22.050  1.00  0.00     0.135 A 
ATOM     75  C   UNL     1       0.564   2.806  20.286  1.00  0.00     0.135 A 
ATOM     76  F   UNL     1      -0.655   0.774  23.043  1.00  0.00    -0.206 F 
ATOM     77  C   UNL     1       1.326   0.592  21.797  1.00  0.00     0.059 A 
ATOM     78  C   UNL     1       1.764   2.164  19.998  1.00  0.00     0.059 A 
ATOM     79  F   UNL     1       0.214   3.864  19.537  1.00  0.00    -0.206 F 
ATOM     80  C   UNL     1       2.142   1.063  20.766  1.00  0.00     0.060 A 
BRANCH  80  81
ATOM     81  S   UNL     1       3.682   0.189  20.411  1.00  0.00     0.124 S 
ATOM     82  O   UNL     1       4.530   0.631  21.511  1.00  0.00    -0.237 OA
ATOM     83  O   UNL     1       3.260  -1.208  20.451  1.00  0.00    -0.237 OA
ATOM     84  O   UNL     1       4.050   0.686  19.088  1.00  0.00    -0.744 OA
ENDBRANCH  80  81
ENDBRANCH  48  73
BRANCH  60  85
ATOM     85  C   UNL     1      -2.625   6.179  26.648  1.00  0.00     0.058 A 
ATOM     86  C   UNL     1      -1.613   7.148  26.727  1.00  0.00     0.135 A 
ATOM     87  C   UNL     1      -3.070   5.594  27.844  1.00  0.00     0.135 A 
ATOM     88  F   UNL     1      -1.149   7.734  25.611  1.00  0.00    -0.206 F 
ATOM     89  C   UNL     1      -1.040   7.501  27.944  1.00  0.00     0.059 A 
ATOM     90  C   UNL     1      -2.529   5.950  29.075  1.00  0.00     0.059 A 
ATOM     91  F   UNL     1      -4.044   4.670  27.824  1.00  0.00    -0.206 F 
ATOM     92  C   UNL     1      -1.502   6.893  29.113  1.00  0.00     0.060 A 
BRANCH  92  93
ATOM     93  S   UNL     1      -0.761   7.364  30.690  1.00  0.00     0.124 S 
ATOM     94  O   UNL     1       0.501   6.633  30.650  1.00  0.00    -0.237 OA
ATOM     95  O   UNL     1      -0.657   8.815  30.569  1.00  0.00    -0.237 OA
ATOM     96  O   UNL     1      -1.731   6.892  31.674  1.00  0.00    -0.744 OA
ENDBRANCH  92  93
ENDBRANCH  60  85
ENDBRANCH  34  35
ENDBRANCH  26  29
ENDBRANCH  24  25
ENDBRANCH   1  24
TORSDOF 17
