REMARK SMILES O=C(CCc1cccnc1)Nc1cccc(F)c1C(=O)NCCCNC(=O)c1ccc(-c2c3nc(c(-c4c(F)cc(S(=O)(=O)[O-])cc4F)c4ccc([nH]4)c(-c4c(F)cc(S(=O)(=O)[O-])cc4F)c4nc(c(-c5c(F)cc(S(=O)(=O)[O-])cc5F)c5ccc2[nH]5)C=C4)C=C3)cc1
REMARK SMILES IDX 22 1 21 2 19 3 20 4 18 6 12 7 13 8 14 9 16 10 15 11 17 12
REMARK SMILES IDX 11 13 1 14 2 15 3 17 4 18 5 19 6 20 10 21 7 22 9 23 8 24
REMARK SMILES IDX 23 25 24 26 25 27 26 28 27 30 28 31 29 32 93 33 30 34 92 35
REMARK SMILES IDX 31 36 32 37 33 38 86 39 34 40 91 41 85 42 87 43 35 44 90 45
REMARK SMILES IDX 84 46 83 47 36 49 70 50 49 51 69 52 50 53 53 54 68 55 88 56
REMARK SMILES IDX 51 57 52 58 67 60 89 61 54 62 37 63 38 64 47 65 39 66 40 67
REMARK SMILES IDX 46 68 48 69 41 70 42 71 43 72 44 73 45 74 71 75 72 76 81 77
REMARK SMILES IDX 73 78 74 79 80 80 82 81 75 82 76 83 77 84 78 85 79 86 55 87
REMARK SMILES IDX 56 88 65 89 57 90 58 91 64 92 66 93 59 94 60 95 61 96 62 97
REMARK SMILES IDX 63 98
REMARK H PARENT 21 5 11 16 25 29 87 48 53 59
REMARK Flexibility Score: inf
ROOT
ATOM      1  C   UNL     1       3.555   6.299   0.522  1.00  0.00     0.118 C 
ENDROOT
BRANCH   1   2
ATOM      2  N   UNL     1       4.120   4.960   0.486  1.00  0.00    -0.352 N 
ATOM      3  C   UNL     1       3.774   3.786   1.096  1.00  0.00     0.256 C 
ATOM      4  O   UNL     1       4.579   2.855   1.022  1.00  0.00    -0.269 OA
ATOM      5  H   UNL     1       4.911   4.883  -0.095  1.00  0.00     0.163 HD
BRANCH   3   6
ATOM      6  C   UNL     1       2.464   3.506   1.720  1.00  0.00     0.099 A 
ATOM      7  C   UNL     1       1.844   2.254   1.461  1.00  0.00     0.056 A 
ATOM      8  C   UNL     1       0.604   1.975   2.053  1.00  0.00     0.027 A 
ATOM      9  C   UNL     1      -0.004   2.895   2.909  1.00  0.00     0.005 A 
ATOM     10  C   UNL     1       1.857   4.394   2.608  1.00  0.00     0.138 A 
ATOM     11  C   UNL     1       0.626   4.102   3.190  1.00  0.00     0.040 A 
ATOM     12  F   UNL     1       2.455   5.533   2.977  1.00  0.00    -0.206 F 
BRANCH   7  13
ATOM     13  N   UNL     1       2.524   1.273   0.685  1.00  0.00    -0.325 N 
ATOM     14  O   UNL     1       0.811  -0.155   0.053  1.00  0.00    -0.275 OA
ATOM     15  C   UNL     1       2.006   0.118   0.144  1.00  0.00     0.224 C 
ATOM     16  H   UNL     1       3.480   1.441   0.516  1.00  0.00     0.169 HD
BRANCH  15  17
ATOM     17  C   UNL     1       3.053  -0.875  -0.334  1.00  0.00     0.105 C 
BRANCH  17  18
ATOM     18  C   UNL     1       3.809  -0.436  -1.589  1.00  0.00     0.047 C 
BRANCH  18  19
ATOM     19  C   UNL     1       5.041   0.390  -1.324  1.00  0.00    -0.029 A 
ATOM     20  C   UNL     1       5.212   1.647  -1.908  1.00  0.00     0.007 A 
ATOM     21  C   UNL     1       6.071  -0.077  -0.508  1.00  0.00     0.114 A 
ATOM     22  C   UNL     1       6.353   2.393  -1.619  1.00  0.00     0.020 A 
ATOM     23  N   UNL     1       7.190   0.621  -0.215  1.00  0.00    -0.264 NA
ATOM     24  C   UNL     1       7.295   1.850  -0.761  1.00  0.00     0.111 A 
ENDBRANCH  18  19
ENDBRANCH  17  18
ENDBRANCH  15  17
ENDBRANCH   7  13
ENDBRANCH   3   6
ENDBRANCH   1   2
BRANCH   1  25
ATOM     25  C   UNL     1       4.376   7.188   1.460  1.00  0.00     0.042 C 
BRANCH  25  26
ATOM     26  C   UNL     1       5.772   7.518   0.927  1.00  0.00     0.118 C 
BRANCH  26  27
ATOM     27  N   UNL     1       5.728   8.482  -0.162  1.00  0.00    -0.352 N 
ATOM     28  C   UNL     1       6.299   9.728  -0.255  1.00  0.00     0.251 C 
ATOM     29  H   UNL     1       5.211   8.198  -0.950  1.00  0.00     0.163 HD
ATOM     30  O   UNL     1       5.949  10.478  -1.162  1.00  0.00    -0.269 OA
BRANCH  28  31
ATOM     31  C   UNL     1       7.320  10.174   0.722  1.00  0.00     0.039 A 
ATOM     32  C   UNL     1       7.268  11.490   1.193  1.00  0.00     0.014 A 
ATOM     33  C   UNL     1       8.361   9.332   1.126  1.00  0.00     0.014 A 
ATOM     34  C   UNL     1       8.230  11.947   2.098  1.00  0.00     0.010 A 
ATOM     35  C   UNL     1       9.288   9.772   2.073  1.00  0.00     0.010 A 
ATOM     36  C   UNL     1       9.237  11.086   2.564  1.00  0.00    -0.014 A 
BRANCH  36  37
ATOM     37  C   UNL     1      10.245  11.547   3.555  1.00  0.00     0.031 A 
ATOM     38  C   UNL     1      11.698  11.646   3.174  1.00  0.00     0.074 A 
ATOM     39  C   UNL     1       9.859  11.836   4.814  1.00  0.00     0.049 A 
ATOM     40  N   UNL     1      12.728  11.960   3.918  1.00  0.00    -0.248 NA
ATOM     41  C   UNL     1      12.042  11.333   1.777  1.00  0.00     0.031 C 
ATOM     42  C   UNL     1       8.487  11.751   5.317  1.00  0.00     0.029 A 
ATOM     43  N   UNL     1      10.585  12.255   5.902  1.00  0.00    -0.354 N 
ATOM     44  C   UNL     1      13.839  11.869   3.088  1.00  0.00     0.074 A 
ATOM     45  C   UNL     1      13.364  11.429   1.794  1.00  0.00     0.031 C 
ATOM     46  C   UNL     1       8.466  12.130   6.605  1.00  0.00     0.029 A 
ATOM     47  C   UNL     1       9.825  12.450   7.031  1.00  0.00     0.049 A 
ATOM     48  H   UNL     1      11.558  12.401   5.876  1.00  0.00     0.167 HD
ATOM     49  C   UNL     1      15.134  12.149   3.372  1.00  0.00     0.037 A 
ATOM     50  C   UNL     1      10.181  12.840   8.272  1.00  0.00     0.037 A 
ATOM     51  C   UNL     1      15.600  12.616   4.653  1.00  0.00     0.049 A 
ATOM     52  C   UNL     1      11.624  13.146   8.563  1.00  0.00     0.074 A 
ATOM     53  C   UNL     1      16.887  12.962   5.026  1.00  0.00     0.029 A 
ATOM     54  N   UNL     1      14.796  12.811   5.766  1.00  0.00    -0.354 N 
ATOM     55  N   UNL     1      12.657  13.080   7.758  1.00  0.00    -0.248 NA
ATOM     56  C   UNL     1      11.951  13.582   9.928  1.00  0.00     0.031 C 
ATOM     57  C   UNL     1      16.867  13.337   6.373  1.00  0.00     0.029 A 
ATOM     58  C   UNL     1      15.561  13.264   6.828  1.00  0.00     0.049 A 
ATOM     59  H   UNL     1      13.825  12.651   5.797  1.00  0.00     0.167 HD
ATOM     60  C   UNL     1      13.752  13.486   8.511  1.00  0.00     0.074 A 
ATOM     61  C   UNL     1      13.255  13.806   9.833  1.00  0.00     0.031 C 
ATOM     62  C   UNL     1      15.052  13.586   8.138  1.00  0.00     0.037 A 
BRANCH  49  63
ATOM     63  C   UNL     1      16.147  11.973   2.274  1.00  0.00     0.058 A 
ATOM     64  C   UNL     1      17.097  10.942   2.332  1.00  0.00     0.135 A 
ATOM     65  C   UNL     1      16.213  12.863   1.189  1.00  0.00     0.135 A 
ATOM     66  F   UNL     1      17.078  10.060   3.344  1.00  0.00    -0.206 F 
ATOM     67  C   UNL     1      18.084  10.805   1.360  1.00  0.00     0.059 A 
ATOM     68  C   UNL     1      17.175  12.730   0.193  1.00  0.00     0.059 A 
ATOM     69  F   UNL     1      15.315  13.855   1.075  1.00  0.00    -0.206 F 
ATOM     70  C   UNL     1      18.115  11.705   0.294  1.00  0.00     0.060 A 
BRANCH  70  71
ATOM     71  S   UNL     1      19.376  11.492  -0.981  1.00  0.00     0.124 S 
ATOM     72  O   UNL     1      20.583  11.919  -0.284  1.00  0.00    -0.237 OA
ATOM     73  O   UNL     1      19.279  10.065  -1.274  1.00  0.00    -0.237 OA
ATOM     74  O   UNL     1      18.922  12.373  -2.054  1.00  0.00    -0.744 OA
ENDBRANCH  70  71
ENDBRANCH  49  63
BRANCH  50  75
ATOM     75  C   UNL     1       9.138  12.997   9.319  1.00  0.00     0.058 A 
ATOM     76  C   UNL     1       8.494  11.885   9.883  1.00  0.00     0.135 A 
ATOM     77  C   UNL     1       8.736  14.272   9.746  1.00  0.00     0.135 A 
ATOM     78  F   UNL     1       8.835  10.644   9.502  1.00  0.00    -0.206 F 
ATOM     79  C   UNL     1       7.470  12.032  10.812  1.00  0.00     0.059 A 
ATOM     80  C   UNL     1       7.730  14.444  10.691  1.00  0.00     0.059 A 
ATOM     81  F   UNL     1       9.333  15.364   9.244  1.00  0.00    -0.206 F 
ATOM     82  C   UNL     1       7.090  13.316  11.205  1.00  0.00     0.060 A 
BRANCH  82  83
ATOM     83  S   UNL     1       5.742  13.488  12.394  1.00  0.00     0.124 S 
ATOM     84  O   UNL     1       4.591  13.097  11.587  1.00  0.00    -0.237 OA
ATOM     85  O   UNL     1       6.133  12.547  13.440  1.00  0.00    -0.237 OA
ATOM     86  O   UNL     1       5.799  14.897  12.768  1.00  0.00    -0.744 OA
ENDBRANCH  82  83
ENDBRANCH  50  75
BRANCH  62  87
ATOM     87  C   UNL     1      16.034  14.083   9.161  1.00  0.00     0.058 A 
ATOM     88  C   UNL     1      16.597  15.363   9.041  1.00  0.00     0.135 A 
ATOM     89  C   UNL     1      16.475  13.266  10.214  1.00  0.00     0.135 A 
ATOM     90  F   UNL     1      16.213  16.182   8.050  1.00  0.00    -0.206 F 
ATOM     91  C   UNL     1      17.576  15.811   9.921  1.00  0.00     0.059 A 
ATOM     92  C   UNL     1      17.437  13.703  11.120  1.00  0.00     0.059 A 
ATOM     93  F   UNL     1      15.958  12.038  10.377  1.00  0.00    -0.206 F 
ATOM     94  C   UNL     1      17.994  14.972  10.954  1.00  0.00     0.060 A 
BRANCH  94  95
ATOM     95  S   UNL     1      19.259  15.571  12.095  1.00  0.00     0.124 S 
ATOM     96  O   UNL     1      20.459  15.512  11.267  1.00  0.00    -0.237 OA
ATOM     97  O   UNL     1      18.776  16.911  12.417  1.00  0.00    -0.237 OA
ATOM     98  O   UNL     1      19.205  14.613  13.194  1.00  0.00    -0.744 OA
ENDBRANCH  94  95
ENDBRANCH  62  87
ENDBRANCH  36  37
ENDBRANCH  28  31
ENDBRANCH  26  27
ENDBRANCH  25  26
ENDBRANCH   1  25
TORSDOF 17
