REMARK SMILES Cc1ccc2c(c1C)O[C@@H](C(=O)NCCCNC(=O)c1ccc(-c3c4nc(c(-c5c(F)cc(S(=O)(=O)[O-])cc5F)c5ccc([nH]5)c(-c5c(F)cc(S(=O)(=O)[O-])cc5F)c5nc(c(-c6c(F)cc(S(=O)(=O)[O-])cc6F)c6ccc3[nH]6)C=C5)C=C4)cc1)CC2=O
REMARK SMILES IDX 17 1 18 2 19 3 16 5 15 6 14 7 13 8 11 9 12 10 10 12 1 13
REMARK SMILES IDX 2 14 3 15 7 16 4 17 6 18 8 19 5 20 9 21 87 22 86 23 88 24
REMARK SMILES IDX 20 25 21 26 85 27 22 28 84 29 23 30 24 31 25 32 78 33 26 34
REMARK SMILES IDX 83 35 77 36 79 37 27 38 82 39 76 40 75 41 28 43 62 44 41 45
REMARK SMILES IDX 61 46 42 47 45 48 60 49 80 50 43 51 44 52 59 54 81 55 46 56
REMARK SMILES IDX 29 57 30 58 39 59 31 60 32 61 38 62 40 63 33 64 34 65 35 66
REMARK SMILES IDX 36 67 37 68 63 69 64 70 73 71 65 72 66 73 72 74 74 75 67 76
REMARK SMILES IDX 68 77 69 78 70 79 71 80 47 81 48 82 57 83 49 84 50 85 56 86
REMARK SMILES IDX 58 87 51 88 52 89 53 90 54 91 55 92
REMARK H PARENT 17 4 13 11 79 42 45 53
REMARK Flexibility Score: inf
ROOT
ATOM      1  N   UNL     1       4.256  -2.583  -3.966  1.00  0.00    -0.352 N 
ATOM      2  C   UNL     1       4.832  -3.495  -3.116  1.00  0.00     0.251 C 
ATOM      3  O   UNL     1       5.265  -3.121  -2.028  1.00  0.00    -0.269 OA
ATOM      4  H   UNL     1       4.393  -1.639  -3.722  1.00  0.00     0.163 HD
ENDROOT
BRANCH   1   5
ATOM      5  C   UNL     1       3.470  -2.801  -5.179  1.00  0.00     0.118 C 
BRANCH   5   6
ATOM      6  C   UNL     1       2.052  -2.264  -5.037  1.00  0.00     0.042 C 
BRANCH   6   7
ATOM      7  C   UNL     1       2.010  -0.741  -4.979  1.00  0.00     0.118 C 
BRANCH   7   8
ATOM      8  N   UNL     1       1.502  -0.153  -6.201  1.00  0.00    -0.353 N 
ATOM      9  C   UNL     1       0.280   0.314  -6.563  1.00  0.00     0.261 C 
ATOM     10  O   UNL     1       0.220   0.854  -7.676  1.00  0.00    -0.271 OA
ATOM     11  H   UNL     1       2.179  -0.076  -6.912  1.00  0.00     0.163 HD
BRANCH   9  12
ATOM     12  C   UNL     1      -1.015   0.158  -5.721  1.00  0.00     0.269 C 
ATOM     13  C   UNL     1       0.797   0.041   0.077  1.00  0.00     0.045 C 
ATOM     14  C   UNL     1       0.061  -0.461  -1.137  1.00  0.00    -0.044 A 
ATOM     15  C   UNL     1      -0.080  -1.852  -1.286  1.00  0.00     0.005 A 
ATOM     16  C   UNL     1      -0.378   0.394  -2.172  1.00  0.00    -0.005 A 
ATOM     17  C   UNL     1      -0.630  -2.397  -2.444  1.00  0.00     0.016 A 
ATOM     18  C   UNL     1      -0.856  -0.176  -3.373  1.00  0.00     0.134 A 
ATOM     19  C   UNL     1      -0.255   1.895  -2.094  1.00  0.00     0.049 C 
ATOM     20  C   UNL     1      -0.990  -1.557  -3.497  1.00  0.00     0.060 A 
ATOM     21  O   UNL     1      -1.058   0.690  -4.410  1.00  0.00    -0.479 OA
ATOM     22  C   UNL     1      -1.393  -2.136  -4.786  1.00  0.00     0.170 C 
ATOM     23  C   UNL     1      -1.679  -1.195  -5.911  1.00  0.00     0.136 C 
ATOM     24  O   UNL     1      -1.509  -3.350  -4.916  1.00  0.00    -0.294 OA
ENDBRANCH   9  12
ENDBRANCH   7   8
ENDBRANCH   6   7
ENDBRANCH   5   6
ENDBRANCH   1   5
BRANCH   2  25
ATOM     25  C   UNL     1       4.918  -4.919  -3.501  1.00  0.00     0.039 A 
ATOM     26  C   UNL     1       4.639  -5.904  -2.549  1.00  0.00     0.014 A 
ATOM     27  C   UNL     1       5.290  -5.281  -4.798  1.00  0.00     0.014 A 
ATOM     28  C   UNL     1       4.668  -7.251  -2.917  1.00  0.00     0.010 A 
ATOM     29  C   UNL     1       5.244  -6.615  -5.183  1.00  0.00     0.010 A 
ATOM     30  C   UNL     1       4.943  -7.613  -4.244  1.00  0.00    -0.014 A 
BRANCH  30  31
ATOM     31  C   UNL     1       4.973  -9.030  -4.679  1.00  0.00     0.031 A 
ATOM     32  C   UNL     1       6.273  -9.630  -5.138  1.00  0.00     0.074 A 
ATOM     33  C   UNL     1       3.832  -9.741  -4.736  1.00  0.00     0.049 A 
ATOM     34  N   UNL     1       6.500 -10.797  -5.680  1.00  0.00    -0.248 NA
ATOM     35  C   UNL     1       7.475  -8.790  -4.992  1.00  0.00     0.031 C 
ATOM     36  C   UNL     1       2.508  -9.254  -4.342  1.00  0.00     0.029 A 
ATOM     37  N   UNL     1       3.599 -11.024  -5.163  1.00  0.00    -0.354 N 
ATOM     38  C   UNL     1       7.863 -10.828  -5.950  1.00  0.00     0.074 A 
ATOM     39  C   UNL     1       8.402  -9.543  -5.566  1.00  0.00     0.031 C 
ATOM     40  C   UNL     1       1.606 -10.231  -4.531  1.00  0.00     0.029 A 
ATOM     41  C   UNL     1       2.278 -11.399  -5.094  1.00  0.00     0.049 A 
ATOM     42  H   UNL     1       4.312 -11.620  -5.489  1.00  0.00     0.167 HD
ATOM     43  C   UNL     1       8.602 -11.847  -6.447  1.00  0.00     0.037 A 
ATOM     44  C   UNL     1       1.680 -12.551  -5.452  1.00  0.00     0.037 A 
ATOM     45  C   UNL     1       8.059 -13.130  -6.805  1.00  0.00     0.049 A 
ATOM     46  C   UNL     1       2.519 -13.662  -6.024  1.00  0.00     0.074 A 
ATOM     47  C   UNL     1       8.725 -14.242  -7.290  1.00  0.00     0.029 A 
ATOM     48  N   UNL     1       6.719 -13.475  -6.710  1.00  0.00    -0.354 N 
ATOM     49  N   UNL     1       3.811 -13.685  -6.252  1.00  0.00    -0.248 NA
ATOM     50  C   UNL     1       1.821 -14.903  -6.386  1.00  0.00     0.031 C 
ATOM     51  C   UNL     1       7.782 -15.249  -7.519  1.00  0.00     0.029 A 
ATOM     52  C   UNL     1       6.535 -14.780  -7.135  1.00  0.00     0.049 A 
ATOM     53  H   UNL     1       6.004 -12.880  -6.387  1.00  0.00     0.167 HD
ATOM     54  C   UNL     1       4.085 -14.951  -6.759  1.00  0.00     0.074 A 
ATOM     55  C   UNL     1       2.826 -15.666  -6.796  1.00  0.00     0.031 C 
ATOM     56  C   UNL     1       5.271 -15.474  -7.158  1.00  0.00     0.037 A 
BRANCH  43  57
ATOM     57  C   UNL     1      10.078 -11.616  -6.615  1.00  0.00     0.058 A 
ATOM     58  C   UNL     1      10.934 -11.517  -5.506  1.00  0.00     0.135 A 
ATOM     59  C   UNL     1      10.650 -11.521  -7.894  1.00  0.00     0.135 A 
ATOM     60  F   UNL     1      10.436 -11.579  -4.261  1.00  0.00    -0.206 F 
ATOM     61  C   UNL     1      12.300 -11.308  -5.657  1.00  0.00     0.059 A 
ATOM     62  C   UNL     1      12.019 -11.340  -8.069  1.00  0.00     0.059 A 
ATOM     63  F   UNL     1       9.877 -11.604  -8.988  1.00  0.00    -0.206 F 
ATOM     64  C   UNL     1      12.834 -11.223  -6.944  1.00  0.00     0.060 A 
BRANCH  64  65
ATOM     65  S   UNL     1      14.612 -10.964  -7.119  1.00  0.00     0.124 S 
ATOM     66  O   UNL     1      14.749  -9.579  -6.681  1.00  0.00    -0.237 OA
ATOM     67  O   UNL     1      15.163 -11.971  -6.218  1.00  0.00    -0.237 OA
ATOM     68  O   UNL     1      14.852 -11.199  -8.540  1.00  0.00    -0.744 OA
ENDBRANCH  64  65
ENDBRANCH  43  57
BRANCH  44  69
ATOM     69  C   UNL     1       0.217 -12.724  -5.246  1.00  0.00     0.058 A 
ATOM     70  C   UNL     1      -0.267 -13.574  -4.241  1.00  0.00     0.135 A 
ATOM     71  C   UNL     1      -0.723 -12.032  -6.025  1.00  0.00     0.135 A 
ATOM     72  F   UNL     1       0.593 -14.263  -3.475  1.00  0.00    -0.206 F 
ATOM     73  C   UNL     1      -1.629 -13.739  -4.019  1.00  0.00     0.059 A 
ATOM     74  C   UNL     1      -2.092 -12.163  -5.807  1.00  0.00     0.059 A 
ATOM     75  F   UNL     1      -0.311 -11.197  -6.992  1.00  0.00    -0.206 F 
ATOM     76  C   UNL     1      -2.535 -13.025  -4.804  1.00  0.00     0.060 A 
BRANCH  76  77
ATOM     77  S   UNL     1      -4.300 -13.209  -4.466  1.00  0.00     0.124 S 
ATOM     78  O   UNL     1      -4.550 -14.567  -4.934  1.00  0.00    -0.237 OA
ATOM     79  O   UNL     1      -4.355 -13.011  -3.021  1.00  0.00    -0.237 OA
ATOM     80  O   UNL     1      -4.908 -12.146  -5.261  1.00  0.00    -0.744 OA
ENDBRANCH  76  77
ENDBRANCH  44  69
BRANCH  56  81
ATOM     81  C   UNL     1       5.272 -16.897  -7.641  1.00  0.00     0.058 A 
ATOM     82  C   UNL     1       4.753 -17.248  -8.896  1.00  0.00     0.135 A 
ATOM     83  C   UNL     1       5.857 -17.910  -6.864  1.00  0.00     0.135 A 
ATOM     84  F   UNL     1       4.178 -16.317  -9.674  1.00  0.00    -0.206 F 
ATOM     85  C   UNL     1       4.796 -18.559  -9.357  1.00  0.00     0.059 A 
ATOM     86  C   UNL     1       5.935 -19.223  -7.316  1.00  0.00     0.059 A 
ATOM     87  F   UNL     1       6.379 -17.623  -5.660  1.00  0.00    -0.206 F 
ATOM     88  C   UNL     1       5.392 -19.540  -8.560  1.00  0.00     0.060 A 
BRANCH  88  89
ATOM     89  S   UNL     1       5.472 -21.230  -9.187  1.00  0.00     0.124 S 
ATOM     90  O   UNL     1       4.081 -21.655  -9.067  1.00  0.00    -0.237 OA
ATOM     91  O   UNL     1       5.960 -21.035 -10.549  1.00  0.00    -0.237 OA
ATOM     92  O   UNL     1       6.410 -21.886  -8.280  1.00  0.00    -0.744 OA
ENDBRANCH  88  89
ENDBRANCH  56  81
ENDBRANCH  30  31
ENDBRANCH   2  25
TORSDOF 13
