REMARK SMILES C=CCn1nc(C(=O)NCCCNC(=O)c2ccc(-c3c4nc(c(-c5c(F)cc(S(=O)(=O)[O-])cc5F)c5ccc([nH]5)c(-c5c(F)cc(S(=O)(=O)[O-])cc5F)c5nc(c(-c6c(F)cc(S(=O)(=O)[O-])cc6F)c6ccc3[nH]6)C=C5)C=C4)cc2)c2c1CC[C@@H]([NH+]1CCC(C(C)(C)O)CC1)C2
REMARK SMILES IDX 11 1 10 2 9 3 7 4 8 5 6 7 4 8 5 9 83 10 82 11 84 12 97 13
REMARK SMILES IDX 85 14 86 15 3 16 2 17 1 18 87 19 88 20 96 21 89 23 95 24
REMARK SMILES IDX 90 25 91 26 92 27 93 28 94 29 12 31 13 32 14 33 15 35 16 36
REMARK SMILES IDX 17 37 81 38 18 39 80 40 19 41 20 42 21 43 74 44 22 45 79 46
REMARK SMILES IDX 73 47 75 48 23 49 78 50 72 51 71 52 24 54 58 55 37 56 57 57
REMARK SMILES IDX 38 58 41 59 56 60 76 61 39 62 40 63 55 65 77 66 42 67 25 68
REMARK SMILES IDX 26 69 35 70 27 71 28 72 34 73 36 74 29 75 30 76 31 77 32 78
REMARK SMILES IDX 33 79 59 80 60 81 69 82 61 83 62 84 68 85 70 86 63 87 64 88
REMARK SMILES IDX 65 89 66 90 67 91 43 92 44 93 53 94 45 95 46 96 52 97 54 98
REMARK SMILES IDX 47 99 48 100 49 101 50 102 51 103
REMARK H PARENT 9 6 87 22 94 30 13 34 75 53 41 64
REMARK Flexibility Score: inf
ROOT
ATOM      1  C   UNL     1      -3.889  -7.451  -0.677  1.00  0.00     0.042 C 
ENDROOT
BRANCH   1   2
ATOM      2  C   UNL     1      -3.310  -7.474   0.752  1.00  0.00     0.118 C 
BRANCH   2   3
ATOM      3  N   UNL     1      -1.906  -7.064   0.816  1.00  0.00    -0.351 N 
ATOM      4  C   UNL     1      -1.216  -5.884   1.048  1.00  0.00     0.272 C 
ATOM      5  O   UNL     1       0.000  -6.037   1.210  1.00  0.00    -0.267 OA
ATOM      6  H   UNL     1      -1.295  -7.819   0.653  1.00  0.00     0.163 HD
BRANCH   4   7
ATOM      7  C   UNL     1      -1.832  -4.528   1.111  1.00  0.00     0.153 A 
ATOM      8  N   UNL     1      -1.876  -2.379   1.336  1.00  0.00    -0.265 N 
ATOM      9  N   UNL     1      -1.116  -3.472   1.577  1.00  0.00    -0.167 NA
ATOM     10  C   UNL     1      -3.164  -2.717   1.037  1.00  0.00     0.043 A 
ATOM     11  C   UNL     1      -3.085  -4.036   0.671  1.00  0.00     0.012 A 
ATOM     12  C   UNL     1      -4.359  -1.850   0.887  1.00  0.00     0.062 C 
ATOM     13  C   UNL     1      -4.144  -4.660  -0.115  1.00  0.00     0.105 C 
ATOM     14  C   UNL     1      -5.502  -2.620   0.181  1.00  0.00     0.072 C 
ATOM     15  C   UNL     1      -5.113  -3.721  -0.835  1.00  0.00     0.189 C 
BRANCH   8  16
ATOM     16  C   UNL     1      -1.301  -1.029   1.291  1.00  0.00     0.171 C 
BRANCH  16  17
ATOM     17  C   UNL     1       0.187  -0.971   1.058  1.00  0.00    -0.011 C 
ATOM     18  C   UNL     1       0.799  -0.257   0.101  1.00  0.00     0.006 C 
ENDBRANCH  16  17
ENDBRANCH   8  16
BRANCH  15  19
ATOM     19  N   UNL     1      -4.666  -3.540  -2.231  1.00  0.00    -0.332 N 
ATOM     20  C   UNL     1      -3.440  -2.824  -2.522  1.00  0.00     0.262 C 
ATOM     21  C   UNL     1      -5.683  -3.193  -3.205  1.00  0.00     0.262 C 
ATOM     22  H   UNL     1      -4.411  -4.520  -2.348  1.00  0.00     0.348 HD
ATOM     23  C   UNL     1      -3.603  -1.319  -2.425  1.00  0.00     0.068 C 
ATOM     24  C   UNL     1      -6.104  -1.743  -3.081  1.00  0.00     0.068 C 
ATOM     25  C   UNL     1      -4.941  -0.725  -2.934  1.00  0.00     0.031 C 
BRANCH  25  26
ATOM     26  C   UNL     1      -5.401   0.538  -2.120  1.00  0.00     0.062 C 
ATOM     27  C   UNL     1      -4.258   1.503  -1.792  1.00  0.00     0.042 C 
ATOM     28  C   UNL     1      -6.525   1.271  -2.857  1.00  0.00     0.042 C 
BRANCH  26  29
ATOM     29  O   UNL     1      -5.948   0.143  -0.860  1.00  0.00    -0.390 OA
ATOM     30  H   UNL     1      -5.273  -0.329  -0.348  1.00  0.00     0.211 HD
ENDBRANCH  26  29
ENDBRANCH  25  26
ENDBRANCH  15  19
ENDBRANCH   4   7
ENDBRANCH   2   3
ENDBRANCH   1   2
BRANCH   1  31
ATOM     31  C   UNL     1      -4.332  -8.751  -1.280  1.00  0.00     0.118 C 
BRANCH  31  32
ATOM     32  N   UNL     1      -5.587  -9.242  -0.698  1.00  0.00    -0.352 N 
ATOM     33  C   UNL     1      -6.161 -10.492  -0.892  1.00  0.00     0.251 C 
ATOM     34  H   UNL     1      -6.072  -8.620  -0.108  1.00  0.00     0.163 HD
ATOM     35  O   UNL     1      -7.353 -10.674  -0.748  1.00  0.00    -0.269 OA
BRANCH  33  36
ATOM     36  C   UNL     1      -5.248 -11.577  -1.293  1.00  0.00     0.039 A 
ATOM     37  C   UNL     1      -5.550 -12.472  -2.318  1.00  0.00     0.014 A 
ATOM     38  C   UNL     1      -3.985 -11.537  -0.720  1.00  0.00     0.014 A 
ATOM     39  C   UNL     1      -4.515 -13.253  -2.826  1.00  0.00     0.010 A 
ATOM     40  C   UNL     1      -2.944 -12.053  -1.430  1.00  0.00     0.010 A 
ATOM     41  C   UNL     1      -3.199 -13.004  -2.400  1.00  0.00    -0.014 A 
BRANCH  41  42
ATOM     42  C   UNL     1      -2.039 -13.639  -3.011  1.00  0.00     0.031 A 
ATOM     43  C   UNL     1      -2.039 -13.578  -4.493  1.00  0.00     0.074 A 
ATOM     44  C   UNL     1      -0.970 -14.062  -2.296  1.00  0.00     0.049 A 
ATOM     45  N   UNL     1      -2.383 -14.520  -5.304  1.00  0.00    -0.248 NA
ATOM     46  C   UNL     1      -1.857 -12.272  -5.150  1.00  0.00     0.031 C 
ATOM     47  C   UNL     1      -0.688 -13.894  -0.862  1.00  0.00     0.029 A 
ATOM     48  N   UNL     1       0.160 -14.677  -2.734  1.00  0.00    -0.354 N 
ATOM     49  C   UNL     1      -2.161 -14.014  -6.579  1.00  0.00     0.074 A 
ATOM     50  C   UNL     1      -2.102 -12.585  -6.426  1.00  0.00     0.031 C 
ATOM     51  C   UNL     1       0.610 -14.169  -0.609  1.00  0.00     0.029 A 
ATOM     52  C   UNL     1       1.201 -14.725  -1.809  1.00  0.00     0.049 A 
ATOM     53  H   UNL     1       0.237 -15.060  -3.638  1.00  0.00     0.167 HD
ATOM     54  C   UNL     1      -1.740 -14.836  -7.581  1.00  0.00     0.037 A 
ATOM     55  C   UNL     1       2.458 -15.195  -2.020  1.00  0.00     0.037 A 
ATOM     56  C   UNL     1      -1.901 -16.223  -7.200  1.00  0.00     0.049 A 
ATOM     57  C   UNL     1       2.382 -16.081  -3.211  1.00  0.00     0.074 A 
ATOM     58  C   UNL     1      -2.966 -17.003  -6.791  1.00  0.00     0.029 A 
ATOM     59  N   UNL     1      -0.770 -16.897  -6.801  1.00  0.00    -0.354 N 
ATOM     60  N   UNL     1       1.729 -17.212  -3.229  1.00  0.00    -0.248 NA
ATOM     61  C   UNL     1       2.609 -15.474  -4.513  1.00  0.00     0.031 C 
ATOM     62  C   UNL     1      -2.440 -17.834  -5.757  1.00  0.00     0.029 A 
ATOM     63  C   UNL     1      -1.069 -17.591  -5.657  1.00  0.00     0.049 A 
ATOM     64  H   UNL     1       0.102 -16.884  -7.258  1.00  0.00     0.167 HD
ATOM     65  C   UNL     1       1.083 -17.228  -4.457  1.00  0.00     0.074 A 
ATOM     66  C   UNL     1       1.730 -16.172  -5.237  1.00  0.00     0.031 C 
ATOM     67  C   UNL     1      -0.103 -17.887  -4.620  1.00  0.00     0.037 A 
BRANCH  54  68
ATOM     68  C   UNL     1      -0.808 -14.424  -8.702  1.00  0.00     0.058 A 
ATOM     69  C   UNL     1      -0.529 -15.356  -9.726  1.00  0.00     0.135 A 
ATOM     70  C   UNL     1       0.033 -13.290  -8.673  1.00  0.00     0.135 A 
ATOM     71  F   UNL     1      -1.266 -16.471  -9.856  1.00  0.00    -0.206 F 
ATOM     72  C   UNL     1       0.556 -15.217 -10.590  1.00  0.00     0.059 A 
ATOM     73  C   UNL     1       1.088 -13.106  -9.559  1.00  0.00     0.059 A 
ATOM     74  F   UNL     1      -0.057 -12.345  -7.732  1.00  0.00    -0.206 F 
ATOM     75  C   UNL     1       1.369 -14.094 -10.487  1.00  0.00     0.060 A 
BRANCH  75  76
ATOM     76  S   UNL     1       2.821 -13.952 -11.540  1.00  0.00     0.124 S 
ATOM     77  O   UNL     1       3.668 -15.013 -11.008  1.00  0.00    -0.237 OA
ATOM     78  O   UNL     1       2.254 -14.187 -12.864  1.00  0.00    -0.237 OA
ATOM     79  O   UNL     1       3.281 -12.589 -11.294  1.00  0.00    -0.744 OA
ENDBRANCH  75  76
ENDBRANCH  54  68
BRANCH  55  80
ATOM     80  C   UNL     1       3.750 -14.685  -1.488  1.00  0.00     0.058 A 
ATOM     81  C   UNL     1       4.938 -15.426  -1.631  1.00  0.00     0.135 A 
ATOM     82  C   UNL     1       3.904 -13.336  -1.110  1.00  0.00     0.135 A 
ATOM     83  F   UNL     1       4.887 -16.715  -2.000  1.00  0.00    -0.206 F 
ATOM     84  C   UNL     1       6.204 -14.848  -1.477  1.00  0.00     0.059 A 
ATOM     85  C   UNL     1       5.155 -12.740  -0.945  1.00  0.00     0.059 A 
ATOM     86  F   UNL     1       2.838 -12.530  -0.986  1.00  0.00    -0.206 F 
ATOM     87  C   UNL     1       6.303 -13.495  -1.159  1.00  0.00     0.060 A 
BRANCH  87  88
ATOM     88  S   UNL     1       7.930 -12.700  -1.153  1.00  0.00     0.124 S 
ATOM     89  O   UNL     1       8.548 -13.284   0.033  1.00  0.00    -0.237 OA
ATOM     90  O   UNL     1       8.486 -13.122  -2.434  1.00  0.00    -0.237 OA
ATOM     91  O   UNL     1       7.612 -11.277  -1.055  1.00  0.00    -0.744 OA
ENDBRANCH  87  88
ENDBRANCH  55  80
BRANCH  67  92
ATOM     92  C   UNL     1      -0.524 -18.872  -3.557  1.00  0.00     0.058 A 
ATOM     93  C   UNL     1      -0.788 -18.559  -2.210  1.00  0.00     0.135 A 
ATOM     94  C   UNL     1      -0.781 -20.191  -3.964  1.00  0.00     0.135 A 
ATOM     95  F   UNL     1      -0.677 -17.301  -1.758  1.00  0.00    -0.206 F 
ATOM     96  C   UNL     1      -1.226 -19.527  -1.301  1.00  0.00     0.059 A 
ATOM     97  C   UNL     1      -1.251 -21.161  -3.086  1.00  0.00     0.059 A 
ATOM     98  F   UNL     1      -0.612 -20.542  -5.249  1.00  0.00    -0.206 F 
ATOM     99  C   UNL     1      -1.448 -20.829  -1.749  1.00  0.00     0.060 A 
BRANCH  99 100
ATOM    100  S   UNL     1      -2.031 -22.082  -0.586  1.00  0.00     0.124 S 
ATOM    101  O   UNL     1      -0.862 -22.277   0.266  1.00  0.00    -0.237 OA
ATOM    102  O   UNL     1      -3.173 -21.425   0.044  1.00  0.00    -0.237 OA
ATOM    103  O   UNL     1      -2.371 -23.214  -1.445  1.00  0.00    -0.744 OA
ENDBRANCH  99 100
ENDBRANCH  67  92
ENDBRANCH  41  42
ENDBRANCH  33  36
ENDBRANCH  31  32
ENDBRANCH   1  31
TORSDOF 18
