REMARK SMILES O=C(NCCCNC(=O)c1c(/C=C2/SC(=S)N=C2O)cnc2ccccc12)c1ccc(-c2c3nc(c(-c4c(F)cc(S(=O)(=O)[O-])cc4F)c4ccc([nH]4)c(-c4c(F)cc(S(=O)(=O)[O-])cc4F)c4nc(c(-c5c(F)cc(S(=O)(=O)[O-])cc5F)c5ccc2[nH]5)C=C4)C=C3)cc1
REMARK SMILES IDX 4 1 3 2 1 3 2 4 28 6 29 7 93 8 30 9 92 10 31 11 32 12 33 13
REMARK SMILES IDX 86 14 34 15 91 16 85 17 87 18 35 19 90 20 84 21 83 22 36 24
REMARK SMILES IDX 70 25 49 26 69 27 50 28 53 29 68 30 88 31 51 32 52 33 67 35
REMARK SMILES IDX 89 36 54 37 37 38 38 39 47 40 39 41 40 42 46 43 48 44 41 45
REMARK SMILES IDX 42 46 43 47 44 48 45 49 71 50 72 51 81 52 73 53 74 54 80 55
REMARK SMILES IDX 82 56 75 57 76 58 77 59 78 60 79 61 55 62 56 63 65 64 57 65
REMARK SMILES IDX 58 66 64 67 66 68 59 69 60 70 61 71 62 72 63 73 5 74 6 75
REMARK SMILES IDX 7 76 8 77 9 79 10 80 11 81 27 82 20 83 22 84 26 85 21 86
REMARK SMILES IDX 23 87 25 88 24 89 12 90 13 91 14 92 18 93 15 94 17 95 16 96
REMARK SMILES IDX 19 97
REMARK H PARENT 3 5 87 23 53 34 7 78 19 98
REMARK Flexibility Score: inf
ROOT
ATOM      1  C   UNL     1       4.547  -1.244  -0.575  1.00  0.00     0.118 C 
ENDROOT
BRANCH   1   2
ATOM      2  N   UNL     1       3.107  -1.016  -0.549  1.00  0.00    -0.352 N 
ATOM      3  O   UNL     1       1.149  -0.028  -0.074  1.00  0.00    -0.269 OA
ATOM      4  C   UNL     1       2.368   0.082  -0.175  1.00  0.00     0.251 C 
ATOM      5  H   UNL     1       2.570  -1.783  -0.852  1.00  0.00     0.163 HD
BRANCH   4   6
ATOM      6  C   UNL     1       3.024   1.371   0.137  1.00  0.00     0.039 A 
ATOM      7  C   UNL     1       4.104   1.830  -0.614  1.00  0.00     0.014 A 
ATOM      8  C   UNL     1       2.530   2.153   1.186  1.00  0.00     0.014 A 
ATOM      9  C   UNL     1       4.813   2.950  -0.197  1.00  0.00     0.010 A 
ATOM     10  C   UNL     1       3.170   3.350   1.528  1.00  0.00     0.010 A 
ATOM     11  C   UNL     1       4.346   3.735   0.868  1.00  0.00    -0.014 A 
BRANCH  11  12
ATOM     12  C   UNL     1       5.079   4.978   1.224  1.00  0.00     0.031 A 
ATOM     13  C   UNL     1       5.708   5.152   2.579  1.00  0.00     0.074 A 
ATOM     14  C   UNL     1       5.211   5.941   0.289  1.00  0.00     0.049 A 
ATOM     15  N   UNL     1       6.411   6.157   3.037  1.00  0.00    -0.248 NA
ATOM     16  C   UNL     1       5.517   4.065   3.551  1.00  0.00     0.031 C 
ATOM     17  C   UNL     1       4.638   5.888  -1.059  1.00  0.00     0.029 A 
ATOM     18  N   UNL     1       5.888   7.133   0.312  1.00  0.00    -0.354 N 
ATOM     19  C   UNL     1       6.725   5.838   4.354  1.00  0.00     0.074 A 
ATOM     20  C   UNL     1       6.112   4.556   4.630  1.00  0.00     0.031 C 
ATOM     21  C   UNL     1       5.039   6.962  -1.752  1.00  0.00     0.029 A 
ATOM     22  C   UNL     1       5.835   7.816  -0.879  1.00  0.00     0.049 A 
ATOM     23  H   UNL     1       6.365   7.467   1.106  1.00  0.00     0.167 HD
ATOM     24  C   UNL     1       7.460   6.547   5.246  1.00  0.00     0.037 A 
ATOM     25  C   UNL     1       6.357   9.005  -1.233  1.00  0.00     0.037 A 
ATOM     26  C   UNL     1       8.078   7.816   4.954  1.00  0.00     0.049 A 
ATOM     27  C   UNL     1       7.152   9.779  -0.223  1.00  0.00     0.074 A 
ATOM     28  C   UNL     1       8.871   8.598   5.777  1.00  0.00     0.029 A 
ATOM     29  N   UNL     1       7.969   8.495   3.748  1.00  0.00    -0.354 N 
ATOM     30  N   UNL     1       7.456   9.450   1.010  1.00  0.00    -0.248 NA
ATOM     31  C   UNL     1       7.667  11.086  -0.647  1.00  0.00     0.031 C 
ATOM     32  C   UNL     1       9.202   9.768   5.085  1.00  0.00     0.029 A 
ATOM     33  C   UNL     1       8.659   9.695   3.812  1.00  0.00     0.049 A 
ATOM     34  H   UNL     1       7.473   8.170   2.961  1.00  0.00     0.167 HD
ATOM     35  C   UNL     1       8.215  10.503   1.506  1.00  0.00     0.074 A 
ATOM     36  C   UNL     1       8.333  11.472   0.434  1.00  0.00     0.031 C 
ATOM     37  C   UNL     1       8.764  10.652   2.737  1.00  0.00     0.037 A 
BRANCH  24  38
ATOM     38  C   UNL     1       7.608   5.978   6.632  1.00  0.00     0.058 A 
ATOM     39  C   UNL     1       8.386   4.837   6.889  1.00  0.00     0.135 A 
ATOM     40  C   UNL     1       6.968   6.588   7.723  1.00  0.00     0.135 A 
ATOM     41  F   UNL     1       9.012   4.204   5.884  1.00  0.00    -0.206 F 
ATOM     42  C   UNL     1       8.488   4.298   8.169  1.00  0.00     0.059 A 
ATOM     43  C   UNL     1       7.077   6.082   9.016  1.00  0.00     0.059 A 
ATOM     44  F   UNL     1       6.215   7.684   7.538  1.00  0.00    -0.206 F 
ATOM     45  C   UNL     1       7.822   4.923   9.224  1.00  0.00     0.060 A 
BRANCH  45  46
ATOM     46  S   UNL     1       7.931   4.190  10.871  1.00  0.00     0.124 S 
ATOM     47  O   UNL     1       7.054   3.032  10.731  1.00  0.00    -0.237 OA
ATOM     48  O   UNL     1       9.356   3.894  10.989  1.00  0.00    -0.237 OA
ATOM     49  O   UNL     1       7.439   5.248  11.748  1.00  0.00    -0.744 OA
ENDBRANCH  45  46
ENDBRANCH  24  38
BRANCH  25  50
ATOM     50  C   UNL     1       6.142   9.517  -2.611  1.00  0.00     0.058 A 
ATOM     51  C   UNL     1       7.193   9.558  -3.537  1.00  0.00     0.135 A 
ATOM     52  C   UNL     1       4.867   9.913  -3.047  1.00  0.00     0.135 A 
ATOM     53  F   UNL     1       8.430   9.193  -3.165  1.00  0.00    -0.206 F 
ATOM     54  C   UNL     1       6.990   9.973  -4.849  1.00  0.00     0.059 A 
ATOM     55  C   UNL     1       4.634  10.306  -4.360  1.00  0.00     0.059 A 
ATOM     56  F   UNL     1       3.825   9.873  -2.203  1.00  0.00    -0.206 F 
ATOM     57  C   UNL     1       5.704  10.337  -5.253  1.00  0.00     0.060 A 
BRANCH  57  58
ATOM     58  S   UNL     1       5.436  10.798  -6.978  1.00  0.00     0.124 S 
ATOM     59  O   UNL     1       6.044  12.122  -7.026  1.00  0.00    -0.237 OA
ATOM     60  O   UNL     1       6.147   9.742  -7.692  1.00  0.00    -0.237 OA
ATOM     61  O   UNL     1       3.982  10.764  -7.112  1.00  0.00    -0.744 OA
ENDBRANCH  57  58
ENDBRANCH  25  50
BRANCH  37  62
ATOM     62  C   UNL     1       9.568  11.898   2.981  1.00  0.00     0.058 A 
ATOM     63  C   UNL     1       8.958  13.152   3.136  1.00  0.00     0.135 A 
ATOM     64  C   UNL     1      10.966  11.829   3.094  1.00  0.00     0.135 A 
ATOM     65  F   UNL     1       7.625  13.274   3.026  1.00  0.00    -0.206 F 
ATOM     66  C   UNL     1       9.708  14.300   3.371  1.00  0.00     0.059 A 
ATOM     67  C   UNL     1      11.733  12.959   3.355  1.00  0.00     0.059 A 
ATOM     68  F   UNL     1      11.598  10.652   2.961  1.00  0.00    -0.206 F 
ATOM     69  C   UNL     1      11.096  14.193   3.479  1.00  0.00     0.060 A 
BRANCH  69  70
ATOM     70  S   UNL     1      12.057  15.684   3.814  1.00  0.00     0.124 S 
ATOM     71  O   UNL     1      12.030  16.348   2.515  1.00  0.00    -0.237 OA
ATOM     72  O   UNL     1      11.282  16.326   4.871  1.00  0.00    -0.237 OA
ATOM     73  O   UNL     1      13.357  15.164   4.227  1.00  0.00    -0.744 OA
ENDBRANCH  69  70
ENDBRANCH  37  62
ENDBRANCH  11  12
ENDBRANCH   4   6
ENDBRANCH   1   2
BRANCH   1  74
ATOM     74  C   UNL     1       5.038  -2.105   0.578  1.00  0.00     0.042 C 
BRANCH  74  75
ATOM     75  C   UNL     1       4.410  -3.484   0.638  1.00  0.00     0.118 C 
BRANCH  75  76
ATOM     76  N   UNL     1       4.535  -4.242  -0.601  1.00  0.00    -0.352 N 
ATOM     77  C   UNL     1       4.929  -5.544  -0.740  1.00  0.00     0.252 C 
ATOM     78  H   UNL     1       4.309  -3.762  -1.431  1.00  0.00     0.163 HD
ATOM     79  O   UNL     1       4.740  -6.192  -1.760  1.00  0.00    -0.269 OA
BRANCH  77  80
ATOM     80  C   UNL     1       5.601  -6.218   0.356  1.00  0.00     0.058 A 
ATOM     81  C   UNL     1       6.993  -6.337   0.349  1.00  0.00     0.007 A 
ATOM     82  C   UNL     1       4.772  -6.694   1.415  1.00  0.00     0.014 A 
ATOM     83  C   UNL     1       7.489  -6.952   1.502  1.00  0.00     0.120 A 
ATOM     84  C   UNL     1       5.429  -7.225   2.531  1.00  0.00     0.071 A 
ATOM     85  C   UNL     1       3.352  -6.613   1.434  1.00  0.00     0.011 A 
ATOM     86  N   UNL     1       6.759  -7.375   2.564  1.00  0.00    -0.256 NA
ATOM     87  C   UNL     1       4.680  -7.576   3.648  1.00  0.00     0.029 A 
ATOM     88  C   UNL     1       2.620  -6.973   2.561  1.00  0.00     0.001 A 
ATOM     89  C   UNL     1       3.289  -7.441   3.680  1.00  0.00     0.002 A 
BRANCH  81  90
ATOM     90  C   UNL     1       8.019  -5.755  -0.564  1.00  0.00     0.031 C 
ATOM     91  C   UNL     1       8.209  -5.250  -1.802  1.00  0.00     0.077 C 
ATOM     92  S   UNL     1       9.812  -4.528  -2.090  1.00  0.00    -0.053 SA
ATOM     93  C   UNL     1       7.511  -4.996  -3.089  1.00  0.00     0.227 C 
ATOM     94  C   UNL     1       9.262  -3.767  -3.586  1.00  0.00     0.168 C 
ATOM     95  N   UNL     1       8.035  -4.223  -3.985  1.00  0.00    -0.194 NA
ATOM     96  S   UNL     1      10.193  -2.639  -4.393  1.00  0.00    -0.050 S 
BRANCH  93  97
ATOM     97  O   UNL     1       6.386  -5.610  -3.423  1.00  0.00    -0.492 OA
ATOM     98  H   UNL     1       5.964  -6.181  -2.811  1.00  0.00     0.295 HD
ENDBRANCH  93  97
ENDBRANCH  81  90
ENDBRANCH  77  80
ENDBRANCH  75  76
ENDBRANCH  74  75
ENDBRANCH   1  74
TORSDOF 15
