REMARK SMILES CCOC(=O)c1c(NC(=O)c2ncccc2C(=O)NCCCNC(=O)c2ccc(-c3c4nc(c(-c5c(F)cc(S(=O)(=O)[O-])cc5F)c5ccc([nH]5)c(-c5c(F)cc(S(=O)(=O)[O-])cc5F)c5nc(c(-c6c(F)cc(S(=O)(=O)[O-])cc6F)c6ccc3[nH]6)C=C5)C=C4)cc2)sc2c1CC[C@H](C)C2
REMARK SMILES IDX 20 1 19 2 17 3 18 4 16 6 11 7 12 8 13 9 15 10 14 11 9 12
REMARK SMILES IDX 8 13 10 15 7 16 6 17 94 18 92 19 93 20 95 21 99 22 96 23
REMARK SMILES IDX 97 24 98 25 4 26 5 27 3 28 2 29 1 30 21 31 22 32 23 33 24 34
REMARK SMILES IDX 25 36 26 37 27 38 91 39 28 40 90 41 29 42 30 43 31 44 84 45
REMARK SMILES IDX 32 46 89 47 83 48 85 49 33 50 88 51 82 52 81 53 34 55 68 56
REMARK SMILES IDX 47 57 67 58 48 59 51 60 66 61 86 62 49 63 50 64 65 66 87 67
REMARK SMILES IDX 52 68 35 69 36 70 45 71 37 72 38 73 44 74 46 75 39 76 40 77
REMARK SMILES IDX 41 78 42 79 43 80 69 81 70 82 79 83 71 84 72 85 78 86 80 87
REMARK SMILES IDX 73 88 74 89 75 90 76 91 77 92 53 93 54 94 63 95 55 96 56 97
REMARK SMILES IDX 62 98 64 99 57 100 58 101 59 102 60 103 61 104
REMARK H PARENT 19 5 8 14 23 35 85 54 51 65
REMARK Flexibility Score: inf
ROOT
ATOM      1  C   UNL     1       5.317   2.968   0.134  1.00  0.00     0.118 C 
ENDROOT
BRANCH   1   2
ATOM      2  N   UNL     1       4.822   4.275  -0.292  1.00  0.00    -0.352 N 
ATOM      3  C   UNL     1       3.587   4.871  -0.180  1.00  0.00     0.253 C 
ATOM      4  O   UNL     1       3.440   6.011  -0.609  1.00  0.00    -0.269 OA
ATOM      5  H   UNL     1       5.497   4.832  -0.743  1.00  0.00     0.163 HD
BRANCH   3   6
ATOM      6  C   UNL     1       2.447   4.196   0.470  1.00  0.00     0.071 A 
ATOM      7  C   UNL     1       1.143   4.302  -0.011  1.00  0.00     0.141 A 
ATOM      8  N   UNL     1       0.064   3.753   0.635  1.00  0.00    -0.250 NA
ATOM      9  C   UNL     1       0.285   3.105   1.793  1.00  0.00     0.112 A 
ATOM     10  C   UNL     1       2.623   3.528   1.690  1.00  0.00     0.018 A 
ATOM     11  C   UNL     1       1.538   2.953   2.347  1.00  0.00     0.021 A 
BRANCH   7  12
ATOM     12  C   UNL     1       0.737   5.179  -1.135  1.00  0.00     0.275 C 
ATOM     13  N   UNL     1       1.198   5.077  -2.417  1.00  0.00    -0.311 N 
ATOM     14  H   UNL     1       0.898   5.824  -2.984  1.00  0.00     0.171 HD
ATOM     15  O   UNL     1      -0.068   6.084  -0.883  1.00  0.00    -0.267 OA
BRANCH  13  16
ATOM     16  C   UNL     1       1.979   4.183  -3.099  1.00  0.00     0.110 A 
ATOM     17  C   UNL     1       2.452   2.886  -2.989  1.00  0.00     0.098 A 
ATOM     18  C   UNL     1       3.398   2.605  -4.063  1.00  0.00    -0.017 A 
ATOM     19  S   UNL     1       2.507   4.957  -4.531  1.00  0.00    -0.122 S 
ATOM     20  C   UNL     1       3.512   3.668  -4.938  1.00  0.00     0.011 A 
ATOM     21  C   UNL     1       4.155   1.327  -4.317  1.00  0.00     0.038 C 
ATOM     22  C   UNL     1       4.414   3.741  -6.131  1.00  0.00     0.050 C 
ATOM     23  C   UNL     1       5.342   1.549  -5.281  1.00  0.00     0.008 C 
ATOM     24  C   UNL     1       4.882   2.330  -6.532  1.00  0.00    -0.009 C 
ATOM     25  C   UNL     1       5.970   2.427  -7.595  1.00  0.00     0.008 C 
BRANCH  17  26
ATOM     26  C   UNL     1       2.077   1.925  -1.969  1.00  0.00     0.341 C 
ATOM     27  O   UNL     1       2.882   1.483  -1.147  1.00  0.00    -0.246 OA
BRANCH  26  28
ATOM     28  O   UNL     1       0.776   1.546  -2.040  1.00  0.00    -0.462 OA
BRANCH  28  29
ATOM     29  C   UNL     1       0.275   0.715  -0.980  1.00  0.00     0.230 C 
ATOM     30  C   UNL     1       0.888  -0.674  -0.910  1.00  0.00     0.049 C 
ENDBRANCH  28  29
ENDBRANCH  26  28
ENDBRANCH  17  26
ENDBRANCH  13  16
ENDBRANCH   7  12
ENDBRANCH   3   6
ENDBRANCH   1   2
BRANCH   1  31
ATOM     31  C   UNL     1       5.968   2.154  -0.981  1.00  0.00     0.042 C 
BRANCH  31  32
ATOM     32  C   UNL     1       7.259   2.739  -1.509  1.00  0.00     0.118 C 
BRANCH  32  33
ATOM     33  N   UNL     1       8.368   2.667  -0.565  1.00  0.00    -0.352 N 
ATOM     34  C   UNL     1       9.700   2.936  -0.819  1.00  0.00     0.251 C 
ATOM     35  H   UNL     1       8.144   2.396   0.354  1.00  0.00     0.163 HD
ATOM     36  O   UNL     1      10.566   2.586  -0.026  1.00  0.00    -0.269 OA
BRANCH  34  37
ATOM     37  C   UNL     1      10.056   3.615  -2.082  1.00  0.00     0.039 A 
ATOM     38  C   UNL     1      11.129   3.165  -2.852  1.00  0.00     0.014 A 
ATOM     39  C   UNL     1       9.258   4.665  -2.530  1.00  0.00     0.014 A 
ATOM     40  C   UNL     1      11.333   3.719  -4.115  1.00  0.00     0.010 A 
ATOM     41  C   UNL     1       9.367   5.102  -3.831  1.00  0.00     0.010 A 
ATOM     42  C   UNL     1      10.428   4.668  -4.620  1.00  0.00    -0.014 A 
BRANCH  42  43
ATOM     43  C   UNL     1      10.545   5.128  -6.007  1.00  0.00     0.031 A 
ATOM     44  C   UNL     1      10.673   4.055  -7.041  1.00  0.00     0.074 A 
ATOM     45  C   UNL     1      10.350   6.407  -6.396  1.00  0.00     0.049 A 
ATOM     46  N   UNL     1      11.636   3.857  -7.878  1.00  0.00    -0.248 NA
ATOM     47  C   UNL     1       9.628   3.023  -7.098  1.00  0.00     0.031 C 
ATOM     48  C   UNL     1       9.905   7.556  -5.596  1.00  0.00     0.029 A 
ATOM     49  N   UNL     1      10.416   6.930  -7.652  1.00  0.00    -0.354 N 
ATOM     50  C   UNL     1      11.243   2.799  -8.699  1.00  0.00     0.074 A 
ATOM     51  C   UNL     1      10.047   2.258  -8.108  1.00  0.00     0.031 C 
ATOM     52  C   UNL     1       9.520   8.558  -6.416  1.00  0.00     0.029 A 
ATOM     53  C   UNL     1       9.867   8.199  -7.777  1.00  0.00     0.049 A 
ATOM     54  H   UNL     1      10.820   6.447  -8.409  1.00  0.00     0.167 HD
ATOM     55  C   UNL     1      11.851   2.556  -9.895  1.00  0.00     0.037 A 
ATOM     56  C   UNL     1       9.694   8.909  -8.919  1.00  0.00     0.037 A 
ATOM     57  C   UNL     1      13.134   3.209  -9.964  1.00  0.00     0.049 A 
ATOM     58  C   UNL     1      10.634   8.351  -9.924  1.00  0.00     0.074 A 
ATOM     59  C   UNL     1      14.290   3.147  -9.209  1.00  0.00     0.029 A 
ATOM     60  N   UNL     1      13.237   4.365 -10.699  1.00  0.00    -0.354 N 
ATOM     61  N   UNL     1      11.933   8.434  -9.833  1.00  0.00    -0.248 NA
ATOM     62  C   UNL     1      10.136   7.321 -10.821  1.00  0.00     0.031 C 
ATOM     63  C   UNL     1      14.752   4.493  -9.138  1.00  0.00     0.029 A 
ATOM     64  C   UNL     1      13.891   5.277  -9.910  1.00  0.00     0.049 A 
ATOM     65  H   UNL     1      12.907   4.511 -11.615  1.00  0.00     0.167 HD
ATOM     66  C   UNL     1      12.401   7.220 -10.312  1.00  0.00     0.074 A 
ATOM     67  C   UNL     1      11.258   6.620 -10.998  1.00  0.00     0.031 C 
ATOM     68  C   UNL     1      13.584   6.690  -9.882  1.00  0.00     0.037 A 
BRANCH  55  69
ATOM     69  C   UNL     1      11.170   1.999 -11.126  1.00  0.00     0.058 A 
ATOM     70  C   UNL     1      11.944   1.694 -12.268  1.00  0.00     0.135 A 
ATOM     71  C   UNL     1       9.774   2.035 -11.332  1.00  0.00     0.135 A 
ATOM     72  F   UNL     1      13.282   1.618 -12.190  1.00  0.00    -0.206 F 
ATOM     73  C   UNL     1      11.382   1.542 -13.537  1.00  0.00     0.059 A 
ATOM     74  C   UNL     1       9.189   1.838 -12.581  1.00  0.00     0.059 A 
ATOM     75  F   UNL     1       8.917   2.357 -10.356  1.00  0.00    -0.206 F 
ATOM     76  C   UNL     1      10.003   1.643 -13.685  1.00  0.00     0.060 A 
BRANCH  76  77
ATOM     77  S   UNL     1       9.288   1.588 -15.339  1.00  0.00     0.124 S 
ATOM     78  O   UNL     1       9.735   2.862 -15.889  1.00  0.00    -0.237 OA
ATOM     79  O   UNL     1       9.912   0.394 -15.900  1.00  0.00    -0.237 OA
ATOM     80  O   UNL     1       7.856   1.477 -15.079  1.00  0.00    -0.744 OA
ENDBRANCH  76  77
ENDBRANCH  55  69
BRANCH  56  81
ATOM     81  C   UNL     1       8.582   9.827  -9.271  1.00  0.00     0.058 A 
ATOM     82  C   UNL     1       8.674  10.686 -10.380  1.00  0.00     0.135 A 
ATOM     83  C   UNL     1       7.301   9.680  -8.701  1.00  0.00     0.135 A 
ATOM     84  F   UNL     1       9.852  10.872 -10.994  1.00  0.00    -0.206 F 
ATOM     85  C   UNL     1       7.551  11.313 -10.930  1.00  0.00     0.059 A 
ATOM     86  C   UNL     1       6.170  10.305  -9.224  1.00  0.00     0.059 A 
ATOM     87  F   UNL     1       7.093   8.842  -7.673  1.00  0.00    -0.206 F 
ATOM     88  C   UNL     1       6.298  11.097 -10.358  1.00  0.00     0.060 A 
BRANCH  88  89
ATOM     89  S   UNL     1       4.824  11.742 -11.183  1.00  0.00     0.124 S 
ATOM     90  O   UNL     1       4.950  13.176 -10.949  1.00  0.00    -0.237 OA
ATOM     91  O   UNL     1       5.024  11.300 -12.559  1.00  0.00    -0.237 OA
ATOM     92  O   UNL     1       3.726  11.087 -10.476  1.00  0.00    -0.744 OA
ENDBRANCH  88  89
ENDBRANCH  56  81
BRANCH  68  93
ATOM     93  C   UNL     1      14.538   7.569  -9.111  1.00  0.00     0.058 A 
ATOM     94  C   UNL     1      14.256   8.155  -7.864  1.00  0.00     0.135 A 
ATOM     95  C   UNL     1      15.856   7.679  -9.583  1.00  0.00     0.135 A 
ATOM     96  F   UNL     1      13.056   8.010  -7.286  1.00  0.00    -0.206 F 
ATOM     97  C   UNL     1      15.228   8.851  -7.142  1.00  0.00     0.059 A 
ATOM     98  C   UNL     1      16.849   8.338  -8.864  1.00  0.00     0.059 A 
ATOM     99  F   UNL     1      16.208   7.088 -10.738  1.00  0.00    -0.206 F 
ATOM    100  C   UNL     1      16.524   8.934  -7.648  1.00  0.00     0.060 A 
BRANCH 100 101
ATOM    101  S   UNL     1      17.802   9.758  -6.673  1.00  0.00     0.124 S 
ATOM    102  O   UNL     1      17.432  11.163  -6.808  1.00  0.00    -0.237 OA
ATOM    103  O   UNL     1      17.615   9.177  -5.346  1.00  0.00    -0.237 OA
ATOM    104  O   UNL     1      19.043   9.373  -7.341  1.00  0.00    -0.744 OA
ENDBRANCH 100 101
ENDBRANCH  68  93
ENDBRANCH  42  43
ENDBRANCH  34  37
ENDBRANCH  32  33
ENDBRANCH  31  32
ENDBRANCH   1  31
TORSDOF 18
