REMARK SMILES Cc1ccc(C(=O)NCCCNC(=O)c2ccc(-c3c4nc(c(-c5c(F)cc(S(=O)(=O)[O-])cc5F)c5ccc([nH]5)c(-c5c(F)cc(S(=O)(=O)[O-])cc5F)c5nc(c(-c6c(F)cc(S(=O)(=O)[O-])cc6F)c6ccc3[nH]6)C=C5)C=C4)cc2)cc1NC(=O)C(=O)NC[C@@H](c1ccccc1)[NH+]1CC[NH+](C)CC1
REMARK SMILES IDX 9 1 8 2 6 3 7 4 5 6 1 7 2 8 3 9 82 10 4 11 81 12 83 13 84 14
REMARK SMILES IDX 85 16 86 17 87 18 88 19 89 21 90 22 97 23 98 24 103 25 99 27
REMARK SMILES IDX 102 28 100 29 101 30 91 32 92 33 96 34 93 35 95 36 94 37
REMARK SMILES IDX 10 38 11 39 12 40 13 41 14 43 15 44 16 45 80 46 17 47 79 48
REMARK SMILES IDX 18 49 19 50 20 51 73 52 21 53 78 54 72 55 74 56 22 57 77 58
REMARK SMILES IDX 71 59 70 60 23 62 57 63 36 64 56 65 37 66 40 67 55 68 75 69
REMARK SMILES IDX 38 70 39 71 54 73 76 74 41 75 24 76 25 77 34 78 26 79 27 80
REMARK SMILES IDX 33 81 35 82 28 83 29 84 30 85 31 86 32 87 58 88 59 89 68 90
REMARK SMILES IDX 60 91 61 92 67 93 69 94 62 95 63 96 64 97 65 98 66 99 42 100
REMARK SMILES IDX 43 101 52 102 44 103 45 104 51 105 53 106 46 107 47 108
REMARK SMILES IDX 48 109 49 110 50 111
REMARK H PARENT 8 5 83 15 88 20 97 26 100 31 12 42 74 61 40 72
REMARK Flexibility Score: inf
ROOT
ATOM      1  C   UNL     1       1.760   9.432  -4.195  1.00  0.00     0.118 C 
ENDROOT
BRANCH   1   2
ATOM      2  N   UNL     1       2.762   9.610  -5.283  1.00  0.00    -0.352 N 
ATOM      3  C   UNL     1       3.100  10.787  -5.945  1.00  0.00     0.251 C 
ATOM      4  O   UNL     1       4.012  10.829  -6.767  1.00  0.00    -0.269 OA
ATOM      5  H   UNL     1       3.242   8.798  -5.568  1.00  0.00     0.163 HD
BRANCH   3   6
ATOM      6  C   UNL     1       2.235  11.989  -5.754  1.00  0.00     0.041 A 
ATOM      7  C   UNL     1      -1.056  14.717  -5.643  1.00  0.00     0.046 C 
ATOM      8  C   UNL     1       0.065  13.714  -5.619  1.00  0.00    -0.027 A 
ATOM      9  C   UNL     1       0.864  13.655  -6.786  1.00  0.00     0.006 A 
ATOM     10  C   UNL     1       0.378  12.905  -4.498  1.00  0.00     0.045 A 
ATOM     11  C   UNL     1       1.907  12.743  -6.880  1.00  0.00     0.014 A 
ATOM     12  C   UNL     1       1.581  12.226  -4.534  1.00  0.00     0.040 A 
BRANCH  10  13
ATOM     13  N   UNL     1      -0.558  12.774  -3.443  1.00  0.00    -0.318 N 
ATOM     14  C   UNL     1      -0.828  11.924  -2.379  1.00  0.00     0.313 C 
ATOM     15  H   UNL     1      -1.215  13.507  -3.474  1.00  0.00     0.170 HD
ATOM     16  O   UNL     1      -1.814  12.191  -1.684  1.00  0.00    -0.263 OA
BRANCH  14  17
ATOM     17  C   UNL     1      -0.064  10.659  -1.989  1.00  0.00     0.309 C 
ATOM     18  O   UNL     1       1.102  10.733  -1.628  1.00  0.00    -0.264 OA
ATOM     19  N   UNL     1      -0.803   9.472  -1.947  1.00  0.00    -0.341 N 
ATOM     20  H   UNL     1      -1.011   9.006  -2.789  1.00  0.00     0.164 HD
BRANCH  19  21
ATOM     21  C   UNL     1      -1.279   8.904  -0.675  1.00  0.00     0.186 C 
BRANCH  21  22
ATOM     22  C   UNL     1      -1.865   7.423  -0.760  1.00  0.00     0.235 C 
BRANCH  22  23
ATOM     23  N   UNL     1      -3.268   7.196  -1.177  1.00  0.00    -0.318 N 
ATOM     24  C   UNL     1      -3.636   7.757  -2.479  1.00  0.00     0.325 C 
ATOM     25  C   UNL     1      -4.319   7.484  -0.200  1.00  0.00     0.325 C 
ATOM     26  H   UNL     1      -3.239   6.180  -1.261  1.00  0.00     0.349 HD
ATOM     27  C   UNL     1      -4.051   9.244  -2.445  1.00  0.00     0.324 C 
ATOM     28  C   UNL     1      -4.676   8.972  -0.076  1.00  0.00     0.324 C 
ATOM     29  N   UNL     1      -4.978   9.631  -1.360  1.00  0.00    -0.328 N 
ATOM     30  C   UNL     1      -4.952  11.084  -1.183  1.00  0.00     0.333 C 
ATOM     31  H   UNL     1      -5.907   9.321  -1.642  1.00  0.00     0.348 HD
ENDBRANCH  22  23
BRANCH  22  32
ATOM     32  C   UNL     1      -1.530   6.553   0.470  1.00  0.00     0.011 A 
ATOM     33  C   UNL     1      -1.554   5.149   0.340  1.00  0.00     0.010 A 
ATOM     34  C   UNL     1      -1.173   7.087   1.718  1.00  0.00     0.010 A 
ATOM     35  C   UNL     1      -1.176   4.316   1.397  1.00  0.00     0.001 A 
ATOM     36  C   UNL     1      -0.775   6.253   2.768  1.00  0.00     0.001 A 
ATOM     37  C   UNL     1      -0.766   4.870   2.605  1.00  0.00     0.000 A 
ENDBRANCH  22  32
ENDBRANCH  21  22
ENDBRANCH  19  21
ENDBRANCH  14  17
ENDBRANCH  10  13
ENDBRANCH   3   6
ENDBRANCH   1   2
BRANCH   1  38
ATOM     38  C   UNL     1       1.270   8.014  -3.773  1.00  0.00     0.042 C 
BRANCH  38  39
ATOM     39  C   UNL     1       1.730   7.295  -2.377  1.00  0.00     0.118 C 
BRANCH  39  40
ATOM     40  N   UNL     1       1.189   5.937  -1.544  1.00  0.00    -0.352 N 
ATOM     41  C   UNL     1       1.441   4.506  -1.146  1.00  0.00     0.251 C 
ATOM     42  H   UNL     1       0.328   6.189  -1.138  1.00  0.00     0.163 HD
ATOM     43  O   UNL     1       1.653   4.408   0.082  1.00  0.00    -0.269 OA
BRANCH  41  44
ATOM     44  C   UNL     1       1.558   3.032  -1.875  1.00  0.00     0.039 A 
ATOM     45  C   UNL     1       2.668   2.173  -1.646  1.00  0.00     0.014 A 
ATOM     46  C   UNL     1       0.748   2.499  -2.854  1.00  0.00     0.014 A 
ATOM     47  C   UNL     1       3.335   1.580  -2.770  1.00  0.00     0.010 A 
ATOM     48  C   UNL     1       1.383   1.911  -3.984  1.00  0.00     0.010 A 
ATOM     49  C   UNL     1       2.774   1.711  -4.033  1.00  0.00    -0.014 A 
BRANCH  49  50
ATOM     50  C   UNL     1       3.575   1.756  -5.328  1.00  0.00     0.031 A 
ATOM     51  C   UNL     1       3.413   0.686  -6.292  1.00  0.00     0.074 A 
ATOM     52  C   UNL     1       4.380   2.733  -5.861  1.00  0.00     0.049 A 
ATOM     53  N   UNL     1       4.388  -0.060  -6.690  1.00  0.00    -0.248 NA
ATOM     54  C   UNL     1       2.134   0.439  -6.934  1.00  0.00     0.031 C 
ATOM     55  C   UNL     1       5.093   2.885  -7.149  1.00  0.00     0.029 A 
ATOM     56  N   UNL     1       4.677   3.968  -5.325  1.00  0.00    -0.354 N 
ATOM     57  C   UNL     1       3.926  -0.672  -7.828  1.00  0.00     0.074 A 
ATOM     58  C   UNL     1       2.486  -0.501  -7.813  1.00  0.00     0.031 C 
ATOM     59  C   UNL     1       6.013   3.876  -7.048  1.00  0.00     0.029 A 
ATOM     60  C   UNL     1       5.939   4.400  -5.704  1.00  0.00     0.049 A 
ATOM     61  H   UNL     1       4.068   4.480  -4.745  1.00  0.00     0.167 HD
ATOM     62  C   UNL     1       4.779  -1.008  -8.838  1.00  0.00     0.037 A 
ATOM     63  C   UNL     1       6.886   4.523  -4.726  1.00  0.00     0.037 A 
ATOM     64  C   UNL     1       6.079  -0.338  -8.683  1.00  0.00     0.049 A 
ATOM     65  C   UNL     1       7.920   3.457  -4.879  1.00  0.00     0.074 A 
ATOM     66  C   UNL     1       6.630   0.751  -9.346  1.00  0.00     0.029 A 
ATOM     67  N   UNL     1       6.869  -0.536  -7.554  1.00  0.00    -0.354 N 
ATOM     68  N   UNL     1       7.793   2.498  -5.746  1.00  0.00    -0.248 NA
ATOM     69  C   UNL     1       9.146   3.341  -4.103  1.00  0.00     0.031 C 
ATOM     70  C   UNL     1       7.724   1.232  -8.588  1.00  0.00     0.029 A 
ATOM     71  C   UNL     1       7.855   0.433  -7.465  1.00  0.00     0.049 A 
ATOM     72  H   UNL     1       6.744  -1.267  -6.906  1.00  0.00     0.167 HD
ATOM     73  C   UNL     1       8.808   1.609  -5.620  1.00  0.00     0.074 A 
ATOM     74  C   UNL     1       9.666   2.208  -4.614  1.00  0.00     0.031 C 
ATOM     75  C   UNL     1       8.801   0.458  -6.351  1.00  0.00     0.037 A 
BRANCH  62  76
ATOM     76  C   UNL     1       4.303  -1.628 -10.136  1.00  0.00     0.058 A 
ATOM     77  C   UNL     1       5.053  -1.528 -11.324  1.00  0.00     0.135 A 
ATOM     78  C   UNL     1       3.120  -2.391 -10.251  1.00  0.00     0.135 A 
ATOM     79  F   UNL     1       6.267  -0.962 -11.347  1.00  0.00    -0.206 F 
ATOM     80  C   UNL     1       4.613  -2.040 -12.544  1.00  0.00     0.059 A 
ATOM     81  C   UNL     1       2.624  -2.856 -11.471  1.00  0.00     0.059 A 
ATOM     82  F   UNL     1       2.428  -2.775  -9.167  1.00  0.00    -0.206 F 
ATOM     83  C   UNL     1       3.384  -2.680 -12.616  1.00  0.00     0.060 A 
BRANCH  83  84
ATOM     84  S   UNL     1       2.845  -3.351 -14.197  1.00  0.00     0.124 S 
ATOM     85  O   UNL     1       2.882  -2.177 -15.063  1.00  0.00    -0.237 OA
ATOM     86  O   UNL     1       3.864  -4.364 -14.457  1.00  0.00    -0.237 OA
ATOM     87  O   UNL     1       1.510  -3.870 -13.912  1.00  0.00    -0.744 OA
ENDBRANCH  83  84
ENDBRANCH  62  76
BRANCH  63  88
ATOM     88  C   UNL     1       6.357   5.085  -3.406  1.00  0.00     0.058 A 
ATOM     89  C   UNL     1       5.781   6.351  -3.586  1.00  0.00     0.135 A 
ATOM     90  C   UNL     1       5.527   4.263  -2.676  1.00  0.00     0.135 A 
ATOM     91  F   UNL     1       6.587   7.418  -3.656  1.00  0.00    -0.206 F 
ATOM     92  C   UNL     1       4.401   6.497  -3.869  1.00  0.00     0.059 A 
ATOM     93  C   UNL     1       4.137   4.504  -2.717  1.00  0.00     0.059 A 
ATOM     94  F   UNL     1       6.000   3.166  -2.056  1.00  0.00    -0.206 F 
ATOM     95  C   UNL     1       3.539   5.444  -3.576  1.00  0.00     0.060 A 
BRANCH  95  96
ATOM     96  S   UNL     1       1.791   5.075  -4.697  1.00  0.00     0.124 S 
ATOM     97  O   UNL     1       1.552   6.206  -5.584  1.00  0.00    -0.237 OA
ATOM     98  O   UNL     1       2.137   3.973  -5.587  1.00  0.00    -0.237 OA
ATOM     99  O   UNL     1       0.729   4.854  -3.770  1.00  0.00    -0.744 OA
ENDBRANCH  95  96
ENDBRANCH  63  88
BRANCH  75 100
ATOM    100  C   UNL     1       9.747  -0.689  -6.156  1.00  0.00     0.058 A 
ATOM    101  C   UNL     1      10.388  -0.983  -4.942  1.00  0.00     0.135 A 
ATOM    102  C   UNL     1       9.964  -1.609  -7.207  1.00  0.00     0.135 A 
ATOM    103  F   UNL     1      10.151  -0.274  -3.830  1.00  0.00    -0.206 F 
ATOM    104  C   UNL     1      11.277  -2.046  -4.814  1.00  0.00     0.059 A 
ATOM    105  C   UNL     1      10.790  -2.717  -7.078  1.00  0.00     0.059 A 
ATOM    106  F   UNL     1       9.377  -1.466  -8.405  1.00  0.00    -0.206 F 
ATOM    107  C   UNL     1      11.479  -2.901  -5.891  1.00  0.00     0.060 A 
BRANCH 107 108
ATOM    108  S   UNL     1      12.631  -4.270  -5.727  1.00  0.00     0.124 S 
ATOM    109  O   UNL     1      13.902  -3.611  -6.008  1.00  0.00    -0.237 OA
ATOM    110  O   UNL     1      12.432  -4.692  -4.343  1.00  0.00    -0.237 OA
ATOM    111  O   UNL     1      12.174  -5.220  -6.736  1.00  0.00    -0.744 OA
ENDBRANCH 107 108
ENDBRANCH  75 100
ENDBRANCH  49  50
ENDBRANCH  41  44
ENDBRANCH  39  40
ENDBRANCH  38  39
ENDBRANCH   1  38
TORSDOF 19
