REMARK SMILES CC1(C)S[C@@H](c2cccc3c2sc2ccccc23)[NH2+][C@@H]1C(=O)NCCCNC(=O)c1ccc(-c2c3nc(c(-c4c(F)cc(S(=O)(=O)[O-])cc4F)c4ccc([nH]4)c(-c4c(F)cc(S(=O)(=O)[O-])cc4F)c4nc(c(-c5c(F)cc(S(=O)(=O)[O-])cc5F)c5ccc2[nH]5)C=C4)C=C3)cc1
REMARK SMILES IDX 26 1 25 2 24 3 23 4 21 5 22 6 20 8 1 9 2 10 3 11 4 12 5 13
REMARK SMILES IDX 19 14 6 17 7 18 11 19 8 20 10 21 12 22 9 23 18 24 13 25
REMARK SMILES IDX 17 26 14 27 16 28 15 29 27 30 28 31 29 33 30 34 31 35 95 36
REMARK SMILES IDX 32 37 94 38 33 39 34 40 35 41 88 42 36 43 93 44 87 45 89 46
REMARK SMILES IDX 37 47 92 48 86 49 85 50 38 52 72 53 51 54 71 55 52 56 55 57
REMARK SMILES IDX 70 58 90 59 53 60 54 61 69 63 91 64 56 65 39 66 40 67 49 68
REMARK SMILES IDX 41 69 42 70 48 71 50 72 43 73 44 74 45 75 46 76 47 77 73 78
REMARK SMILES IDX 74 79 83 80 75 81 76 82 82 83 84 84 77 85 78 86 79 87 80 88
REMARK SMILES IDX 81 89 57 90 58 91 67 92 59 93 60 94 66 95 68 96 61 97 62 98
REMARK SMILES IDX 63 99 64 100 65 101
REMARK H PARENT 23 7 19 15 19 16 27 32 89 51 55 62
REMARK Flexibility Score: inf
ROOT
ATOM      1  C   UNL     1      -3.426   3.340  -4.034  1.00  0.00     0.118 C 
ENDROOT
BRANCH   1   2
ATOM      2  C   UNL     1      -3.174   3.350  -2.535  1.00  0.00     0.042 C 
BRANCH   2   3
ATOM      3  C   UNL     1      -2.743   2.008  -1.968  1.00  0.00     0.118 C 
BRANCH   3   4
ATOM      4  N   UNL     1      -1.492   1.542  -2.546  1.00  0.00    -0.351 N 
ATOM      5  C   UNL     1      -0.295   1.190  -2.002  1.00  0.00     0.279 C 
ATOM      6  O   UNL     1       0.596   0.948  -2.823  1.00  0.00    -0.268 OA
ATOM      7  H   UNL     1      -1.516   1.465  -3.527  1.00  0.00     0.163 HD
BRANCH   5   8
ATOM      8  C   UNL     1      -0.013   1.207  -0.471  1.00  0.00     0.289 C 
ATOM      9  C   UNL     1       1.596   0.603   1.415  1.00  0.00     0.030 C 
ATOM     10  C   UNL     1       1.015   0.161   0.056  1.00  0.00     0.077 C 
ATOM     11  C   UNL     1       2.183  -0.199  -0.862  1.00  0.00     0.030 C 
ATOM     12  S   UNL     1      -0.012  -1.330   0.370  1.00  0.00    -0.081 SA
ATOM     13  C   UNL     1      -1.578  -0.418   0.276  1.00  0.00     0.276 C 
ATOM     14  N   UNL     1      -1.244   1.008   0.336  1.00  0.00    -0.320 N 
ATOM     15  H   UNL     1      -1.076   1.286   1.303  1.00  0.00     0.348 HD
ATOM     16  H   UNL     1      -2.010   1.574  -0.028  1.00  0.00     0.348 HD
BRANCH  13  17
ATOM     17  C   UNL     1      -2.583  -0.786   1.353  1.00  0.00     0.038 A 
ATOM     18  C   UNL     1      -2.223  -0.691   2.718  1.00  0.00     0.012 A 
ATOM     19  C   UNL     1      -3.926  -1.180   1.073  1.00  0.00     0.046 A 
ATOM     20  C   UNL     1      -3.112  -0.980   3.739  1.00  0.00     0.001 A 
ATOM     21  C   UNL     1      -4.838  -1.497   2.087  1.00  0.00     0.001 A 
ATOM     22  S   UNL     1      -4.682  -1.333  -0.472  1.00  0.00    -0.135 S 
ATOM     23  C   UNL     1      -4.406  -1.389   3.433  1.00  0.00     0.010 A 
ATOM     24  C   UNL     1      -6.133  -1.903   1.568  1.00  0.00     0.000 A 
ATOM     25  C   UNL     1      -6.182  -1.835   0.178  1.00  0.00     0.036 A 
ATOM     26  C   UNL     1      -7.303  -2.331   2.250  1.00  0.00     0.010 A 
ATOM     27  C   UNL     1      -7.353  -2.157  -0.538  1.00  0.00     0.019 A 
ATOM     28  C   UNL     1      -8.463  -2.666   1.546  1.00  0.00     0.001 A 
ATOM     29  C   UNL     1      -8.487  -2.573   0.163  1.00  0.00     0.002 A 
ENDBRANCH  13  17
ENDBRANCH   5   8
ENDBRANCH   3   4
ENDBRANCH   2   3
ENDBRANCH   1   2
BRANCH   1  30
ATOM     30  N   UNL     1      -4.514   2.451  -4.421  1.00  0.00    -0.352 N 
ATOM     31  C   UNL     1      -5.729   2.743  -4.992  1.00  0.00     0.251 C 
ATOM     32  H   UNL     1      -4.353   1.496  -4.248  1.00  0.00     0.163 HD
ATOM     33  O   UNL     1      -6.587   1.866  -5.075  1.00  0.00    -0.269 OA
BRANCH  31  34
ATOM     34  C   UNL     1      -6.013   4.110  -5.477  1.00  0.00     0.039 A 
ATOM     35  C   UNL     1      -7.264   4.676  -5.221  1.00  0.00     0.014 A 
ATOM     36  C   UNL     1      -5.047   4.839  -6.174  1.00  0.00     0.014 A 
ATOM     37  C   UNL     1      -7.515   5.997  -5.597  1.00  0.00     0.010 A 
ATOM     38  C   UNL     1      -5.259   6.184  -6.451  1.00  0.00     0.010 A 
ATOM     39  C   UNL     1      -6.499   6.778  -6.173  1.00  0.00    -0.014 A 
BRANCH  39  40
ATOM     40  C   UNL     1      -6.712   8.212  -6.498  1.00  0.00     0.031 A 
ATOM     41  C   UNL     1      -6.589   8.691  -7.920  1.00  0.00     0.074 A 
ATOM     42  C   UNL     1      -6.955   9.092  -5.505  1.00  0.00     0.049 A 
ATOM     43  N   UNL     1      -6.676   9.909  -8.392  1.00  0.00    -0.248 NA
ATOM     44  C   UNL     1      -6.300   7.673  -8.944  1.00  0.00     0.031 C 
ATOM     45  C   UNL     1      -7.046   8.758  -4.081  1.00  0.00     0.029 A 
ATOM     46  N   UNL     1      -7.164  10.448  -5.539  1.00  0.00    -0.354 N 
ATOM     47  C   UNL     1      -6.444   9.803  -9.758  1.00  0.00     0.074 A 
ATOM     48  C   UNL     1      -6.147   8.415 -10.031  1.00  0.00     0.031 C 
ATOM     49  C   UNL     1      -7.325   9.871  -3.384  1.00  0.00     0.029 A 
ATOM     50  C   UNL     1      -7.387  11.005  -4.301  1.00  0.00     0.049 A 
ATOM     51  H   UNL     1      -7.155  10.973  -6.372  1.00  0.00     0.167 HD
ATOM     52  C   UNL     1      -6.503  10.770 -10.706  1.00  0.00     0.037 A 
ATOM     53  C   UNL     1      -7.611  12.284  -3.944  1.00  0.00     0.037 A 
ATOM     54  C   UNL     1      -6.820  12.146 -10.429  1.00  0.00     0.049 A 
ATOM     55  C   UNL     1      -7.657  13.343  -5.012  1.00  0.00     0.074 A 
ATOM     56  C   UNL     1      -6.954  13.194 -11.323  1.00  0.00     0.029 A 
ATOM     57  N   UNL     1      -7.050  12.669  -9.164  1.00  0.00    -0.354 N 
ATOM     58  N   UNL     1      -7.497  13.215  -6.308  1.00  0.00    -0.248 NA
ATOM     59  C   UNL     1      -7.919  14.720  -4.572  1.00  0.00     0.031 C 
ATOM     60  C   UNL     1      -7.214  14.359 -10.595  1.00  0.00     0.029 A 
ATOM     61  C   UNL     1      -7.302  14.028  -9.252  1.00  0.00     0.049 A 
ATOM     62  H   UNL     1      -7.036  12.150  -8.328  1.00  0.00     0.167 HD
ATOM     63  C   UNL     1      -7.669  14.488  -6.841  1.00  0.00     0.074 A 
ATOM     64  C   UNL     1      -7.960  15.368  -5.728  1.00  0.00     0.031 C 
ATOM     65  C   UNL     1      -7.596  14.891  -8.134  1.00  0.00     0.037 A 
BRANCH  52  66
ATOM     66  C   UNL     1      -6.225  10.370 -12.130  1.00  0.00     0.058 A 
ATOM     67  C   UNL     1      -7.109   9.550 -12.852  1.00  0.00     0.135 A 
ATOM     68  C   UNL     1      -5.081  10.839 -12.796  1.00  0.00     0.135 A 
ATOM     69  F   UNL     1      -8.210   9.058 -12.263  1.00  0.00    -0.206 F 
ATOM     70  C   UNL     1      -6.854   9.186 -14.171  1.00  0.00     0.059 A 
ATOM     71  C   UNL     1      -4.822  10.515 -14.125  1.00  0.00     0.059 A 
ATOM     72  F   UNL     1      -4.201  11.625 -12.156  1.00  0.00    -0.206 F 
ATOM     73  C   UNL     1      -5.708   9.675 -14.799  1.00  0.00     0.060 A 
BRANCH  73  74
ATOM     74  S   UNL     1      -5.399   9.201 -16.513  1.00  0.00     0.124 S 
ATOM     75  O   UNL     1      -5.040   7.794 -16.366  1.00  0.00    -0.237 OA
ATOM     76  O   UNL     1      -6.688   9.463 -17.145  1.00  0.00    -0.237 OA
ATOM     77  O   UNL     1      -4.312  10.086 -16.921  1.00  0.00    -0.744 OA
ENDBRANCH  73  74
ENDBRANCH  52  66
BRANCH  53  78
ATOM     78  C   UNL     1      -7.832  12.631  -2.513  1.00  0.00     0.058 A 
ATOM     79  C   UNL     1      -9.091  13.055  -2.060  1.00  0.00     0.135 A 
ATOM     80  C   UNL     1      -6.798  12.538  -1.569  1.00  0.00     0.135 A 
ATOM     81  F   UNL     1     -10.111  13.167  -2.924  1.00  0.00    -0.206 F 
ATOM     82  C   UNL     1      -9.312  13.392  -0.729  1.00  0.00     0.059 A 
ATOM     83  C   UNL     1      -7.002  12.841  -0.227  1.00  0.00     0.059 A 
ATOM     84  F   UNL     1      -5.579  12.121  -1.946  1.00  0.00    -0.206 F 
ATOM     85  C   UNL     1      -8.261  13.278   0.182  1.00  0.00     0.060 A 
BRANCH  85  86
ATOM     86  S   UNL     1      -8.571  13.675   1.916  1.00  0.00     0.124 S 
ATOM     87  O   UNL     1      -8.703  15.127   1.867  1.00  0.00    -0.237 OA
ATOM     88  O   UNL     1      -9.797  12.931   2.185  1.00  0.00    -0.237 OA
ATOM     89  O   UNL     1      -7.380  13.172   2.594  1.00  0.00    -0.744 OA
ENDBRANCH  85  86
ENDBRANCH  53  78
BRANCH  65  90
ATOM     90  C   UNL     1      -7.871  16.342  -8.424  1.00  0.00     0.058 A 
ATOM     91  C   UNL     1      -6.969  17.354  -8.062  1.00  0.00     0.135 A 
ATOM     92  C   UNL     1      -9.033  16.718  -9.119  1.00  0.00     0.135 A 
ATOM     93  F   UNL     1      -5.846  17.051  -7.391  1.00  0.00    -0.206 F 
ATOM     94  C   UNL     1      -7.222  18.691  -8.353  1.00  0.00     0.059 A 
ATOM     95  C   UNL     1      -9.290  18.044  -9.449  1.00  0.00     0.059 A 
ATOM     96  F   UNL     1      -9.924  15.789  -9.500  1.00  0.00    -0.206 F 
ATOM     97  C   UNL     1      -8.385  19.026  -9.049  1.00  0.00     0.060 A 
BRANCH  97  98
ATOM     98  S   UNL     1      -8.685  20.761  -9.446  1.00  0.00     0.124 S 
ATOM     99  O   UNL     1      -9.030  21.306  -8.137  1.00  0.00    -0.237 OA
ATOM    100  O   UNL     1      -7.398  21.183  -9.990  1.00  0.00    -0.237 OA
ATOM    101  O   UNL     1      -9.779  20.705 -10.411  1.00  0.00    -0.744 OA
ENDBRANCH  97  98
ENDBRANCH  65  90
ENDBRANCH  39  40
ENDBRANCH  31  34
ENDBRANCH   1  30
TORSDOF 14
