REMARK SMILES Cc1ccc(-c2ncccc2C(=O)NCCCNC(=O)c2ccc(-c3c4nc(c(-c5c(F)cc(S(=O)(=O)[O-])cc5F)c5ccc([nH]5)c(-c5c(F)cc(S(=O)(=O)[O-])cc5F)c5nc(c(-c6c(F)cc(S(=O)(=O)[O-])cc6F)c6ccc3[nH]6)C=C5)C=C4)cc2)c(Cl)c1
REMARK SMILES IDX 17 1 16 2 15 3 14 4 12 5 13 6 11 8 6 9 7 10 8 11 10 12 9 13
REMARK SMILES IDX 5 14 1 15 2 16 3 17 89 18 4 19 87 20 88 21 18 22 19 23 20 25
REMARK SMILES IDX 21 26 22 27 86 28 23 29 85 30 24 31 25 32 26 33 79 34 27 35
REMARK SMILES IDX 84 36 78 37 80 38 28 39 83 40 77 41 76 42 29 44 63 45 42 46
REMARK SMILES IDX 62 47 43 48 46 49 61 50 81 51 44 52 45 53 60 55 82 56 47 57
REMARK SMILES IDX 30 58 31 59 40 60 32 61 33 62 39 63 41 64 34 65 35 66 36 67
REMARK SMILES IDX 37 68 38 69 64 70 65 71 74 72 66 73 67 74 73 75 75 76 68 77
REMARK SMILES IDX 69 78 70 79 71 80 72 81 48 82 49 83 58 84 50 85 51 86 57 87
REMARK SMILES IDX 59 88 52 89 53 90 54 91 55 92 56 93
REMARK H PARENT 14 7 18 24 80 43 46 54
REMARK Flexibility Score: inf
ROOT
ATOM      1  C   UNL     1       0.140  -6.625  -4.706  1.00  0.00     0.118 C 
ENDROOT
BRANCH   1   2
ATOM      2  C   UNL     1       1.281  -6.370  -3.716  1.00  0.00     0.042 C 
BRANCH   2   3
ATOM      3  C   UNL     1       1.873  -4.963  -3.812  1.00  0.00     0.118 C 
BRANCH   3   4
ATOM      4  N   UNL     1       0.919  -3.961  -3.377  1.00  0.00    -0.352 N 
ATOM      5  C   UNL     1       0.679  -3.262  -2.223  1.00  0.00     0.253 C 
ATOM      6  O   UNL     1      -0.266  -2.479  -2.313  1.00  0.00    -0.269 OA
ATOM      7  H   UNL     1       0.284  -3.723  -4.090  1.00  0.00     0.163 HD
BRANCH   5   8
ATOM      8  C   UNL     1       1.474  -3.372  -0.955  1.00  0.00     0.066 A 
ATOM      9  C   UNL     1       1.354  -2.398   0.061  1.00  0.00     0.084 A 
ATOM     10  N   UNL     1       2.121  -2.411   1.196  1.00  0.00    -0.255 NA
ATOM     11  C   UNL     1       3.012  -3.405   1.352  1.00  0.00     0.112 A 
ATOM     12  C   UNL     1       2.355  -4.428  -0.694  1.00  0.00     0.018 A 
ATOM     13  C   UNL     1       3.149  -4.439   0.453  1.00  0.00     0.021 A 
BRANCH   9  14
ATOM     14  C   UNL     1       0.347  -1.323   0.096  1.00  0.00     0.020 A 
ATOM     15  C   UNL     1      -2.758   1.704   0.081  1.00  0.00     0.044 C 
ATOM     16  C   UNL     1      -1.687   0.656   0.117  1.00  0.00    -0.050 A 
ATOM     17  C   UNL     1      -2.007  -0.685   0.335  1.00  0.00     0.004 A 
ATOM     18  C   UNL     1      -0.345   1.011  -0.068  1.00  0.00     0.024 A 
ATOM     19  C   UNL     1      -1.002  -1.655   0.341  1.00  0.00     0.012 A 
ATOM     20  C   UNL     1       0.661   0.033  -0.085  1.00  0.00     0.050 A 
ATOM     21  Cl  UNL     1       2.284   0.569  -0.368  1.00  0.00    -0.084 Cl
ENDBRANCH   9  14
ENDBRANCH   5   8
ENDBRANCH   3   4
ENDBRANCH   2   3
ENDBRANCH   1   2
BRANCH   1  22
ATOM     22  N   UNL     1       0.594  -6.573  -6.089  1.00  0.00    -0.352 N 
ATOM     23  C   UNL     1       0.617  -7.548  -7.055  1.00  0.00     0.251 C 
ATOM     24  H   UNL     1       0.941  -5.697  -6.378  1.00  0.00     0.163 HD
ATOM     25  O   UNL     1       1.274  -7.362  -8.075  1.00  0.00    -0.269 OA
BRANCH  23  26
ATOM     26  C   UNL     1      -0.137  -8.809  -6.880  1.00  0.00     0.039 A 
ATOM     27  C   UNL     1       0.447 -10.007  -7.306  1.00  0.00     0.014 A 
ATOM     28  C   UNL     1      -1.438  -8.811  -6.369  1.00  0.00     0.014 A 
ATOM     29  C   UNL     1      -0.253 -11.209  -7.174  1.00  0.00     0.010 A 
ATOM     30  C   UNL     1      -2.111 -10.017  -6.181  1.00  0.00     0.010 A 
ATOM     31  C   UNL     1      -1.529 -11.228  -6.588  1.00  0.00    -0.014 A 
BRANCH  31  32
ATOM     32  C   UNL     1      -2.273 -12.500  -6.400  1.00  0.00     0.031 A 
ATOM     33  C   UNL     1      -3.562 -12.738  -7.141  1.00  0.00     0.074 A 
ATOM     34  C   UNL     1      -1.821 -13.412  -5.517  1.00  0.00     0.049 A 
ATOM     35  N   UNL     1      -4.401 -13.737  -7.039  1.00  0.00    -0.248 NA
ATOM     36  C   UNL     1      -3.975 -11.704  -8.104  1.00  0.00     0.031 C 
ATOM     37  C   UNL     1      -0.606 -13.278  -4.711  1.00  0.00     0.029 A 
ATOM     38  N   UNL     1      -2.338 -14.625  -5.137  1.00  0.00    -0.354 N 
ATOM     39  C   UNL     1      -5.446 -13.446  -7.909  1.00  0.00     0.074 A 
ATOM     40  C   UNL     1      -5.157 -12.156  -8.498  1.00  0.00     0.031 C 
ATOM     41  C   UNL     1      -0.463 -14.372  -3.945  1.00  0.00     0.029 A 
ATOM     42  C   UNL     1      -1.593 -15.267  -4.176  1.00  0.00     0.049 A 
ATOM     43  H   UNL     1      -3.165 -15.001  -5.517  1.00  0.00     0.167 HD
ATOM     44  C   UNL     1      -6.535 -14.195  -8.206  1.00  0.00     0.037 A 
ATOM     45  C   UNL     1      -1.802 -16.438  -3.545  1.00  0.00     0.037 A 
ATOM     46  C   UNL     1      -6.801 -15.492  -7.640  1.00  0.00     0.049 A 
ATOM     47  C   UNL     1      -3.015 -17.255  -3.897  1.00  0.00     0.074 A 
ATOM     48  C   UNL     1      -7.852 -16.351  -7.911  1.00  0.00     0.029 A 
ATOM     49  N   UNL     1      -6.006 -16.121  -6.693  1.00  0.00    -0.354 N 
ATOM     50  N   UNL     1      -3.970 -16.983  -4.755  1.00  0.00    -0.248 NA
ATOM     51  C   UNL     1      -3.179 -18.538  -3.201  1.00  0.00     0.031 C 
ATOM     52  C   UNL     1      -7.709 -17.486  -7.105  1.00  0.00     0.029 A 
ATOM     53  C   UNL     1      -6.547 -17.352  -6.362  1.00  0.00     0.049 A 
ATOM     54  H   UNL     1      -5.178 -15.747  -6.313  1.00  0.00     0.167 HD
ATOM     55  C   UNL     1      -4.832 -18.074  -4.721  1.00  0.00     0.074 A 
ATOM     56  C   UNL     1      -4.280 -19.013  -3.767  1.00  0.00     0.031 C 
ATOM     57  C   UNL     1      -5.976 -18.280  -5.418  1.00  0.00     0.037 A 
BRANCH  44  58
ATOM     58  C   UNL     1      -7.519 -13.635  -9.196  1.00  0.00     0.058 A 
ATOM     59  C   UNL     1      -7.214 -13.547 -10.564  1.00  0.00     0.135 A 
ATOM     60  C   UNL     1      -8.795 -13.219  -8.783  1.00  0.00     0.135 A 
ATOM     61  F   UNL     1      -6.004 -13.917 -11.012  1.00  0.00    -0.206 F 
ATOM     62  C   UNL     1      -8.129 -13.043 -11.483  1.00  0.00     0.059 A 
ATOM     63  C   UNL     1      -9.735 -12.735  -9.688  1.00  0.00     0.059 A 
ATOM     64  F   UNL     1      -9.140 -13.281  -7.487  1.00  0.00    -0.206 F 
ATOM     65  C   UNL     1      -9.387 -12.637 -11.035  1.00  0.00     0.060 A 
BRANCH  65  66
ATOM     66  S   UNL     1     -10.565 -11.992 -12.241  1.00  0.00     0.124 S 
ATOM     67  O   UNL     1     -10.012 -10.668 -12.507  1.00  0.00    -0.237 OA
ATOM     68  O   UNL     1     -10.456 -12.955 -13.332  1.00  0.00    -0.237 OA
ATOM     69  O   UNL     1     -11.834 -12.010 -11.520  1.00  0.00    -0.744 OA
ENDBRANCH  65  66
ENDBRANCH  44  58
BRANCH  45  70
ATOM     70  C   UNL     1      -0.829 -16.921  -2.530  1.00  0.00     0.058 A 
ATOM     71  C   UNL     1       0.007 -18.014  -2.798  1.00  0.00     0.135 A 
ATOM     72  C   UNL     1      -0.714 -16.300  -1.276  1.00  0.00     0.135 A 
ATOM     73  F   UNL     1      -0.070 -18.643  -3.980  1.00  0.00    -0.206 F 
ATOM     74  C   UNL     1       0.911 -18.490  -1.853  1.00  0.00     0.059 A 
ATOM     75  C   UNL     1       0.199 -16.743  -0.324  1.00  0.00     0.059 A 
ATOM     76  F   UNL     1      -1.478 -15.239  -0.978  1.00  0.00    -0.206 F 
ATOM     77  C   UNL     1       0.999 -17.847  -0.617  1.00  0.00     0.060 A 
BRANCH  77  78
ATOM     78  S   UNL     1       2.202 -18.445   0.589  1.00  0.00     0.124 S 
ATOM     79  O   UNL     1       1.550 -19.654   1.079  1.00  0.00    -0.237 OA
ATOM     80  O   UNL     1       3.390 -18.649  -0.235  1.00  0.00    -0.237 OA
ATOM     81  O   UNL     1       2.293 -17.344   1.543  1.00  0.00    -0.744 OA
ENDBRANCH  77  78
ENDBRANCH  45  70
BRANCH  57  82
ATOM     82  C   UNL     1      -6.689 -19.585  -5.204  1.00  0.00     0.058 A 
ATOM     83  C   UNL     1      -7.422 -19.841  -4.036  1.00  0.00     0.135 A 
ATOM     84  C   UNL     1      -6.679 -20.571  -6.204  1.00  0.00     0.135 A 
ATOM     85  F   UNL     1      -7.456 -18.933  -3.047  1.00  0.00    -0.206 F 
ATOM     86  C   UNL     1      -8.104 -21.040  -3.856  1.00  0.00     0.059 A 
ATOM     87  C   UNL     1      -7.374 -21.766  -6.056  1.00  0.00     0.059 A 
ATOM     88  F   UNL     1      -6.000 -20.370  -7.345  1.00  0.00    -0.206 F 
ATOM     89  C   UNL     1      -8.075 -21.996  -4.873  1.00  0.00     0.060 A 
BRANCH  89  90
ATOM     90  S   UNL     1      -8.994 -23.533  -4.644  1.00  0.00     0.124 S 
ATOM     91  O   UNL     1      -8.129 -24.257  -3.719  1.00  0.00    -0.237 OA
ATOM     92  O   UNL     1     -10.261 -23.063  -4.092  1.00  0.00    -0.237 OA
ATOM     93  O   UNL     1      -9.073 -24.085  -5.994  1.00  0.00    -0.744 OA
ENDBRANCH  89  90
ENDBRANCH  57  82
ENDBRANCH  31  32
ENDBRANCH  23  26
ENDBRANCH   1  22
TORSDOF 14
