REMARK SMILES COc1ccc(-c2nc3ccc(C)cc3[nH]2)c(C(=O)NCCCNC(=O)c2ccc(-c3c4nc(c(-c5c(F)cc(S(=O)(=O)[O-])cc5F)c5ccc([nH]5)c(-c5c(F)cc(S(=O)(=O)[O-])cc5F)c5nc(c(-c6c(F)cc(S(=O)(=O)[O-])cc6F)c6ccc3[nH]6)C=C5)C=C4)cc2)c1OC
REMARK SMILES IDX 23 1 22 2 21 3 20 4 18 5 19 6 17 8 3 9 4 10 93 11 5 12 6 13
REMARK SMILES IDX 2 14 1 15 94 16 95 17 7 18 8 19 16 20 9 21 15 22 10 24 14 25
REMARK SMILES IDX 11 26 12 27 13 28 24 29 25 30 26 32 27 33 28 34 92 35 29 36
REMARK SMILES IDX 91 37 30 38 31 39 32 40 85 41 33 42 90 43 84 44 86 45 34 46
REMARK SMILES IDX 89 47 83 48 82 49 35 51 69 52 48 53 68 54 49 55 52 56 67 57
REMARK SMILES IDX 87 58 50 59 51 60 66 62 88 63 53 64 36 65 37 66 46 67 38 68
REMARK SMILES IDX 39 69 45 70 47 71 40 72 41 73 42 74 43 75 44 76 70 77 71 78
REMARK SMILES IDX 80 79 72 80 73 81 79 82 81 83 74 84 75 85 76 86 77 87 78 88
REMARK SMILES IDX 54 89 55 90 64 91 56 92 57 93 63 94 65 95 58 96 59 97 60 98
REMARK SMILES IDX 61 99 62 100
REMARK H PARENT 20 7 16 23 24 31 86 50 52 61
REMARK Flexibility Score: inf
ROOT
ATOM      1  C   UNL     1       7.248  -1.518   1.059  1.00  0.00     0.118 C 
ENDROOT
BRANCH   1   2
ATOM      2  C   UNL     1       5.839  -1.542   1.616  1.00  0.00     0.042 C 
BRANCH   2   3
ATOM      3  C   UNL     1       4.771  -2.009   0.657  1.00  0.00     0.118 C 
BRANCH   3   4
ATOM      4  N   UNL     1       4.846  -3.336   0.103  1.00  0.00    -0.352 N 
ATOM      5  C   UNL     1       3.791  -3.964  -0.543  1.00  0.00     0.255 C 
ATOM      6  O   UNL     1       4.006  -4.740  -1.471  1.00  0.00    -0.269 OA
ATOM      7  H   UNL     1       5.696  -3.826   0.187  1.00  0.00     0.163 HD
BRANCH   5   8
ATOM      8  C   UNL     1       2.397  -3.788  -0.034  1.00  0.00     0.096 A 
ATOM      9  C   UNL     1       0.484  -2.413   0.575  1.00  0.00     0.161 A 
ATOM     10  C   UNL     1      -0.095  -3.559   1.150  1.00  0.00     0.051 A 
ATOM     11  C   UNL     1       1.716  -2.530  -0.090  1.00  0.00     0.174 A 
ATOM     12  C   UNL     1       0.517  -4.810   1.095  1.00  0.00     0.017 A 
ATOM     13  C   UNL     1       1.786  -4.938   0.532  1.00  0.00     0.034 A 
BRANCH   9  14
ATOM     14  O   UNL     1      -0.258  -1.310   0.882  1.00  0.00    -0.493 OA
ATOM     15  C   UNL     1      -0.445  -0.264  -0.048  1.00  0.00     0.278 C 
ENDBRANCH   9  14
BRANCH  11  16
ATOM     16  O   UNL     1       2.276  -1.581  -0.911  1.00  0.00    -0.492 OA
ATOM     17  C   UNL     1       2.462  -0.257  -0.420  1.00  0.00     0.278 C 
ENDBRANCH  11  16
BRANCH  13  18
ATOM     18  C   UNL     1       2.445  -6.251   0.572  1.00  0.00     0.139 A 
ATOM     19  N   UNL     1       3.631  -6.516   1.087  1.00  0.00    -0.228 NA
ATOM     20  N   UNL     1       1.906  -7.394   0.017  1.00  0.00    -0.338 N 
ATOM     21  C   UNL     1       3.920  -7.808   0.723  1.00  0.00     0.089 A 
ATOM     22  C   UNL     1       2.847  -8.394   0.064  1.00  0.00     0.066 A 
ATOM     23  H   UNL     1       0.997  -7.479  -0.352  1.00  0.00     0.168 HD
ATOM     24  C   UNL     1       5.098  -8.545   0.902  1.00  0.00     0.031 A 
ATOM     25  C   UNL     1       2.870  -9.706  -0.427  1.00  0.00     0.031 A 
ATOM     26  C   UNL     1       5.162  -9.848   0.392  1.00  0.00     0.006 A 
ATOM     27  C   UNL     1       4.067 -10.430  -0.266  1.00  0.00    -0.049 A 
ATOM     28  C   UNL     1       4.199 -11.827  -0.805  1.00  0.00     0.044 C 
ENDBRANCH  13  18
ENDBRANCH   5   8
ENDBRANCH   3   4
ENDBRANCH   2   3
ENDBRANCH   1   2
BRANCH   1  29
ATOM     29  N   UNL     1       7.428  -0.661  -0.111  1.00  0.00    -0.352 N 
ATOM     30  C   UNL     1       8.137   0.506  -0.310  1.00  0.00     0.251 C 
ATOM     31  H   UNL     1       6.951  -0.978  -0.912  1.00  0.00     0.163 HD
ATOM     32  O   UNL     1       8.058   1.072  -1.391  1.00  0.00    -0.269 OA
BRANCH  30  33
ATOM     33  C   UNL     1       8.954   1.107   0.776  1.00  0.00     0.039 A 
ATOM     34  C   UNL     1       9.043   2.501   0.873  1.00  0.00     0.014 A 
ATOM     35  C   UNL     1       9.637   0.320   1.697  1.00  0.00     0.014 A 
ATOM     36  C   UNL     1       9.733   3.085   1.942  1.00  0.00     0.010 A 
ATOM     37  C   UNL     1      10.183   0.893   2.838  1.00  0.00     0.010 A 
ATOM     38  C   UNL     1      10.267   2.285   2.964  1.00  0.00    -0.014 A 
BRANCH  38  39
ATOM     39  C   UNL     1      10.964   2.864   4.145  1.00  0.00     0.031 A 
ATOM     40  C   UNL     1      12.386   2.457   4.450  1.00  0.00     0.074 A 
ATOM     41  C   UNL     1      10.305   3.692   4.981  1.00  0.00     0.049 A 
ATOM     42  N   UNL     1      13.136   2.770   5.475  1.00  0.00    -0.248 NA
ATOM     43  C   UNL     1      13.037   1.538   3.499  1.00  0.00     0.031 C 
ATOM     44  C   UNL     1       8.907   4.109   4.837  1.00  0.00     0.029 A 
ATOM     45  N   UNL     1      10.720   4.328   6.124  1.00  0.00    -0.354 N 
ATOM     46  C   UNL     1      14.326   2.070   5.303  1.00  0.00     0.074 A 
ATOM     47  C   UNL     1      14.169   1.253   4.122  1.00  0.00     0.031 C 
ATOM     48  C   UNL     1       8.596   4.962   5.827  1.00  0.00     0.029 A 
ATOM     49  C   UNL     1       9.754   5.120   6.700  1.00  0.00     0.049 A 
ATOM     50  H   UNL     1      11.626   4.227   6.497  1.00  0.00     0.167 HD
ATOM     51  C   UNL     1      15.463   2.130   6.035  1.00  0.00     0.037 A 
ATOM     52  C   UNL     1       9.798   5.888   7.807  1.00  0.00     0.037 A 
ATOM     53  C   UNL     1      15.630   2.982   7.182  1.00  0.00     0.049 A 
ATOM     54  C   UNL     1      11.082   5.961   8.591  1.00  0.00     0.074 A 
ATOM     55  C   UNL     1      16.758   3.167   7.962  1.00  0.00     0.029 A 
ATOM     56  N   UNL     1      14.641   3.801   7.707  1.00  0.00    -0.354 N 
ATOM     57  N   UNL     1      12.216   5.337   8.378  1.00  0.00    -0.248 NA
ATOM     58  C   UNL     1      11.096   6.853   9.758  1.00  0.00     0.031 C 
ATOM     59  C   UNL     1      16.438   4.067   8.983  1.00  0.00     0.029 A 
ATOM     60  C   UNL     1      15.129   4.486   8.807  1.00  0.00     0.049 A 
ATOM     61  H   UNL     1      13.727   3.884   7.350  1.00  0.00     0.167 HD
ATOM     62  C   UNL     1      13.090   5.789   9.361  1.00  0.00     0.074 A 
ATOM     63  C   UNL     1      12.354   6.747  10.162  1.00  0.00     0.031 C 
ATOM     64  C   UNL     1      14.384   5.447   9.582  1.00  0.00     0.037 A 
BRANCH  51  65
ATOM     65  C   UNL     1      16.619   1.267   5.603  1.00  0.00     0.058 A 
ATOM     66  C   UNL     1      17.311   1.506   4.403  1.00  0.00     0.135 A 
ATOM     67  C   UNL     1      17.057   0.201   6.405  1.00  0.00     0.135 A 
ATOM     68  F   UNL     1      16.926   2.499   3.586  1.00  0.00    -0.206 F 
ATOM     69  C   UNL     1      18.370   0.700   3.998  1.00  0.00     0.059 A 
ATOM     70  C   UNL     1      18.137  -0.598   6.036  1.00  0.00     0.059 A 
ATOM     71  F   UNL     1      16.434  -0.076   7.561  1.00  0.00    -0.206 F 
ATOM     72  C   UNL     1      18.776  -0.350   4.822  1.00  0.00     0.060 A 
BRANCH  72  73
ATOM     73  S   UNL     1      20.159  -1.379   4.286  1.00  0.00     0.124 S 
ATOM     74  O   UNL     1      19.550  -2.143   3.201  1.00  0.00    -0.237 OA
ATOM     75  O   UNL     1      21.149  -0.385   3.882  1.00  0.00    -0.237 OA
ATOM     76  O   UNL     1      20.496  -2.146   5.481  1.00  0.00    -0.744 OA
ENDBRANCH  72  73
ENDBRANCH  51  65
BRANCH  52  77
ATOM     77  C   UNL     1       8.607   6.684   8.214  1.00  0.00     0.058 A 
ATOM     78  C   UNL     1       8.608   8.084   8.117  1.00  0.00     0.135 A 
ATOM     79  C   UNL     1       7.445   6.066   8.702  1.00  0.00     0.135 A 
ATOM     80  F   UNL     1       9.696   8.723   7.660  1.00  0.00    -0.206 F 
ATOM     81  C   UNL     1       7.511   8.845   8.510  1.00  0.00     0.059 A 
ATOM     82  C   UNL     1       6.325   6.804   9.075  1.00  0.00     0.059 A 
ATOM     83  F   UNL     1       7.383   4.729   8.797  1.00  0.00    -0.206 F 
ATOM     84  C   UNL     1       6.373   8.194   8.987  1.00  0.00     0.060 A 
BRANCH  84  85
ATOM     85  S   UNL     1       4.940   9.189   9.456  1.00  0.00     0.124 S 
ATOM     86  O   UNL     1       5.399   9.798  10.699  1.00  0.00    -0.237 OA
ATOM     87  O   UNL     1       4.806  10.090   8.315  1.00  0.00    -0.237 OA
ATOM     88  O   UNL     1       3.875   8.200   9.593  1.00  0.00    -0.744 OA
ENDBRANCH  84  85
ENDBRANCH  52  77
BRANCH  64  89
ATOM     89  C   UNL     1      15.104   6.152  10.697  1.00  0.00     0.058 A 
ATOM     90  C   UNL     1      14.812   5.901  12.047  1.00  0.00     0.135 A 
ATOM     91  C   UNL     1      16.129   7.068  10.407  1.00  0.00     0.135 A 
ATOM     92  F   UNL     1      13.841   5.036  12.379  1.00  0.00    -0.206 F 
ATOM     93  C   UNL     1      15.485   6.562  13.069  1.00  0.00     0.059 A 
ATOM     94  C   UNL     1      16.837   7.715  11.414  1.00  0.00     0.059 A 
ATOM     95  F   UNL     1      16.459   7.333   9.133  1.00  0.00    -0.206 F 
ATOM     96  C   UNL     1      16.495   7.469  12.742  1.00  0.00     0.060 A 
BRANCH  96  97
ATOM     97  S   UNL     1      17.367   8.312  14.078  1.00  0.00     0.124 S 
ATOM     98  O   UNL     1      16.362   9.273  14.524  1.00  0.00    -0.237 OA
ATOM     99  O   UNL     1      17.654   7.220  15.003  1.00  0.00    -0.237 OA
ATOM    100  O   UNL     1      18.533   8.886  13.414  1.00  0.00    -0.744 OA
ENDBRANCH  96  97
ENDBRANCH  64  89
ENDBRANCH  38  39
ENDBRANCH  30  33
ENDBRANCH   1  29
TORSDOF 16
