REMARK SMILES CC(C)C(=O)Nc1ccc(NC(=O)[C@@H]2[C@@H](C(=O)NCCCNC(=O)c3ccc(-c4c5nc(c(-c6c(F)cc(S(=O)(=O)[O-])cc6F)c6ccc([nH]6)c(-c6c(F)cc(S(=O)(=O)[O-])cc6F)c6nc(c(-c7c(F)cc(S(=O)(=O)[O-])cc7F)c7ccc4[nH]7)C=C6)C=C5)cc3)C2(C)C)cc1Cl
REMARK SMILES IDX 19 1 18 2 16 3 17 4 15 6 14 7 91 8 92 9 93 10 12 11 11 12
REMARK SMILES IDX 13 14 10 15 7 16 8 17 95 18 9 19 94 20 96 21 6 22 4 23 5 24
REMARK SMILES IDX 2 26 1 27 3 28 20 29 21 30 22 31 23 32 24 34 25 35 26 36
REMARK SMILES IDX 90 37 27 38 89 39 28 40 29 41 30 42 83 43 31 44 88 45 82 46
REMARK SMILES IDX 84 47 32 48 87 49 81 50 80 51 33 53 67 54 46 55 66 56 47 57
REMARK SMILES IDX 50 58 65 59 85 60 48 61 49 62 64 64 86 65 51 66 34 67 35 68
REMARK SMILES IDX 44 69 36 70 37 71 43 72 45 73 38 74 39 75 40 76 41 77 42 78
REMARK SMILES IDX 68 79 69 80 78 81 70 82 71 83 77 84 79 85 72 86 73 87 74 88
REMARK SMILES IDX 75 89 76 90 52 91 53 92 62 93 54 94 55 95 61 96 63 97 56 98
REMARK SMILES IDX 57 99 58 100 59 101 60 102
REMARK H PARENT 18 5 11 13 6 25 22 33 84 52 50 63
REMARK Flexibility Score: inf
ROOT
ATOM      1  C   UNL     1       0.230  -2.924  -3.645  1.00  0.00     0.117 C 
ENDROOT
BRANCH   1   2
ATOM      2  N   UNL     1      -1.199  -3.097  -3.901  1.00  0.00    -0.356 N 
ATOM      3  C   UNL     1      -2.086  -2.733  -4.888  1.00  0.00     0.224 C 
ATOM      4  O   UNL     1      -3.264  -3.036  -4.700  1.00  0.00    -0.275 OA
ATOM      5  H   UNL     1      -1.640  -3.606  -3.183  1.00  0.00     0.163 HD
BRANCH   3   6
ATOM      6  C   UNL     1      -1.755  -2.043  -6.176  1.00  0.00     0.098 C 
ATOM      7  C   UNL     1      -0.364  -1.927  -6.720  1.00  0.00     0.098 C 
ATOM      8  C   UNL     1      -1.121  -0.660  -6.258  1.00  0.00    -0.011 C 
ATOM      9  C   UNL     1      -0.742   0.090  -5.004  1.00  0.00     0.013 C 
ATOM     10  C   UNL     1      -1.605   0.287  -7.339  1.00  0.00     0.013 C 
BRANCH   7  11
ATOM     11  C   UNL     1       0.024  -2.081  -8.143  1.00  0.00     0.228 C 
ATOM     12  N   UNL     1       1.364  -2.011  -8.474  1.00  0.00    -0.326 N 
ATOM     13  H   UNL     1       1.557  -2.255  -9.408  1.00  0.00     0.169 HD
ATOM     14  O   UNL     1      -0.814  -2.331  -9.001  1.00  0.00    -0.274 OA
BRANCH  12  15
ATOM     15  C   UNL     1       2.509  -1.657  -7.726  1.00  0.00     0.042 A 
ATOM     16  C   UNL     1       4.862  -0.803  -6.425  1.00  0.00     0.060 A 
ATOM     17  C   UNL     1       3.634  -0.676  -5.794  1.00  0.00     0.030 A 
ATOM     18  C   UNL     1       4.935  -1.489  -7.643  1.00  0.00     0.066 A 
ATOM     19  C   UNL     1       2.477  -1.073  -6.460  1.00  0.00     0.028 A 
ATOM     20  C   UNL     1       3.762  -1.884  -8.303  1.00  0.00     0.048 A 
ATOM     21  Cl  UNL     1       6.450  -1.960  -8.328  1.00  0.00    -0.082 Cl
BRANCH  16  22
ATOM     22  N   UNL     1       5.958  -0.216  -5.789  1.00  0.00    -0.325 N 
ATOM     23  C   UNL     1       6.445   1.046  -5.993  1.00  0.00     0.226 C 
ATOM     24  O   UNL     1       7.226   1.480  -5.138  1.00  0.00    -0.274 OA
ATOM     25  H   UNL     1       6.429  -0.769  -5.124  1.00  0.00     0.169 HD
BRANCH  23  26
ATOM     26  C   UNL     1       6.061   1.933  -7.184  1.00  0.00     0.072 C 
ATOM     27  C   UNL     1       6.532   1.396  -8.526  1.00  0.00     0.018 C 
ATOM     28  C   UNL     1       4.597   2.362  -7.225  1.00  0.00     0.018 C 
ENDBRANCH  23  26
ENDBRANCH  16  22
ENDBRANCH  12  15
ENDBRANCH   7  11
ENDBRANCH   3   6
ENDBRANCH   1   2
BRANCH   1  29
ATOM     29  C   UNL     1       0.531  -2.164  -2.359  1.00  0.00     0.042 C 
BRANCH  29  30
ATOM     30  C   UNL     1       0.243  -2.944  -1.093  1.00  0.00     0.118 C 
BRANCH  30  31
ATOM     31  N   UNL     1       1.217  -3.999  -0.864  1.00  0.00    -0.352 N 
ATOM     32  C   UNL     1       2.212  -4.099   0.079  1.00  0.00     0.251 C 
ATOM     33  H   UNL     1       1.155  -4.762  -1.482  1.00  0.00     0.163 HD
ATOM     34  O   UNL     1       3.068  -4.971  -0.051  1.00  0.00    -0.269 OA
BRANCH  32  35
ATOM     35  C   UNL     1       2.277  -3.160   1.225  1.00  0.00     0.039 A 
ATOM     36  C   UNL     1       3.529  -2.741   1.684  1.00  0.00     0.014 A 
ATOM     37  C   UNL     1       1.123  -2.712   1.871  1.00  0.00     0.014 A 
ATOM     38  C   UNL     1       3.615  -1.831   2.742  1.00  0.00     0.010 A 
ATOM     39  C   UNL     1       1.205  -1.723   2.846  1.00  0.00     0.010 A 
ATOM     40  C   UNL     1       2.452  -1.283   3.308  1.00  0.00    -0.014 A 
BRANCH  40  41
ATOM     41  C   UNL     1       2.524  -0.263   4.387  1.00  0.00     0.031 A 
ATOM     42  C   UNL     1       1.913  -0.535   5.737  1.00  0.00     0.074 A 
ATOM     43  C   UNL     1       3.082   0.937   4.132  1.00  0.00     0.049 A 
ATOM     44  N   UNL     1       1.843   0.245   6.785  1.00  0.00    -0.248 NA
ATOM     45  C   UNL     1       1.267  -1.844   5.923  1.00  0.00     0.031 C 
ATOM     46  C   UNL     1       3.644   1.350   2.845  1.00  0.00     0.029 A 
ATOM     47  N   UNL     1       3.257   2.035   4.937  1.00  0.00    -0.354 N 
ATOM     48  C   UNL     1       1.129  -0.467   7.743  1.00  0.00     0.074 A 
ATOM     49  C   UNL     1       0.737  -1.717   7.130  1.00  0.00     0.031 C 
ATOM     50  C   UNL     1       4.120   2.600   2.953  1.00  0.00     0.029 A 
ATOM     51  C   UNL     1       3.861   3.094   4.302  1.00  0.00     0.049 A 
ATOM     52  H   UNL     1       2.975   2.062   5.880  1.00  0.00     0.167 HD
ATOM     53  C   UNL     1       0.844  -0.121   9.022  1.00  0.00     0.037 A 
ATOM     54  C   UNL     1       4.163   4.329   4.747  1.00  0.00     0.037 A 
ATOM     55  C   UNL     1       1.256   1.119   9.628  1.00  0.00     0.049 A 
ATOM     56  C   UNL     1       3.860   4.688   6.175  1.00  0.00     0.074 A 
ATOM     57  C   UNL     1       1.097   1.529  10.940  1.00  0.00     0.029 A 
ATOM     58  N   UNL     1       1.894   2.156   8.961  1.00  0.00    -0.354 N 
ATOM     59  N   UNL     1       3.271   3.964   7.098  1.00  0.00    -0.248 NA
ATOM     60  C   UNL     1       4.269   6.023   6.626  1.00  0.00     0.031 C 
ATOM     61  C   UNL     1       1.579   2.838  11.050  1.00  0.00     0.029 A 
ATOM     62  C   UNL     1       2.099   3.221   9.824  1.00  0.00     0.049 A 
ATOM     63  H   UNL     1       2.160   2.138   8.014  1.00  0.00     0.167 HD
ATOM     64  C   UNL     1       3.251   4.751   8.244  1.00  0.00     0.074 A 
ATOM     65  C   UNL     1       3.907   5.998   7.902  1.00  0.00     0.031 C 
ATOM     66  C   UNL     1       2.737   4.466   9.467  1.00  0.00     0.037 A 
BRANCH  53  67
ATOM     67  C   UNL     1       0.032  -1.092   9.841  1.00  0.00     0.058 A 
ATOM     68  C   UNL     1       0.531  -2.349  10.221  1.00  0.00     0.135 A 
ATOM     69  C   UNL     1      -1.269  -0.758  10.253  1.00  0.00     0.135 A 
ATOM     70  F   UNL     1       1.764  -2.729   9.848  1.00  0.00    -0.206 F 
ATOM     71  C   UNL     1      -0.247  -3.259  10.931  1.00  0.00     0.059 A 
ATOM     72  C   UNL     1      -2.052  -1.638  10.995  1.00  0.00     0.059 A 
ATOM     73  F   UNL     1      -1.799   0.431   9.925  1.00  0.00    -0.206 F 
ATOM     74  C   UNL     1      -1.540  -2.896  11.307  1.00  0.00     0.060 A 
BRANCH  74  75
ATOM     75  S   UNL     1      -2.548  -4.099  12.200  1.00  0.00     0.124 S 
ATOM     76  O   UNL     1      -2.856  -5.059  11.144  1.00  0.00    -0.237 OA
ATOM     77  O   UNL     1      -1.632  -4.567  13.234  1.00  0.00    -0.237 OA
ATOM     78  O   UNL     1      -3.679  -3.309  12.677  1.00  0.00    -0.744 OA
ENDBRANCH  74  75
ENDBRANCH  53  67
BRANCH  54  79
ATOM     79  C   UNL     1       4.802   5.301   3.820  1.00  0.00     0.058 A 
ATOM     80  C   UNL     1       6.151   5.658   3.956  1.00  0.00     0.135 A 
ATOM     81  C   UNL     1       4.089   5.841   2.738  1.00  0.00     0.135 A 
ATOM     82  F   UNL     1       6.873   5.174   4.978  1.00  0.00    -0.206 F 
ATOM     83  C   UNL     1       6.773   6.512   3.051  1.00  0.00     0.059 A 
ATOM     84  C   UNL     1       4.695   6.676   1.805  1.00  0.00     0.059 A 
ATOM     85  F   UNL     1       2.799   5.517   2.554  1.00  0.00    -0.206 F 
ATOM     86  C   UNL     1       6.039   7.007   1.971  1.00  0.00     0.060 A 
BRANCH  86  87
ATOM     87  S   UNL     1       6.880   8.040   0.751  1.00  0.00     0.124 S 
ATOM     88  O   UNL     1       7.079   9.276   1.498  1.00  0.00    -0.237 OA
ATOM     89  O   UNL     1       8.082   7.261   0.471  1.00  0.00    -0.237 OA
ATOM     90  O   UNL     1       5.919   8.113  -0.346  1.00  0.00    -0.744 OA
ENDBRANCH  86  87
ENDBRANCH  54  79
BRANCH  66  91
ATOM     91  C   UNL     1       2.870   5.519  10.535  1.00  0.00     0.058 A 
ATOM     92  C   UNL     1       2.136   6.716  10.489  1.00  0.00     0.135 A 
ATOM     93  C   UNL     1       3.713   5.311  11.639  1.00  0.00     0.135 A 
ATOM     94  F   UNL     1       1.320   6.969   9.454  1.00  0.00    -0.206 F 
ATOM     95  C   UNL     1       2.256   7.681  11.484  1.00  0.00     0.059 A 
ATOM     96  C   UNL     1       3.823   6.248  12.662  1.00  0.00     0.059 A 
ATOM     97  F   UNL     1       4.429   4.181  11.741  1.00  0.00    -0.206 F 
ATOM     98  C   UNL     1       3.102   7.438  12.568  1.00  0.00     0.060 A 
BRANCH  98  99
ATOM     99  S   UNL     1       3.234   8.690  13.861  1.00  0.00     0.124 S 
ATOM    100  O   UNL     1       4.003   9.730  13.185  1.00  0.00    -0.237 OA
ATOM    101  O   UNL     1       1.835   9.009  14.130  1.00  0.00    -0.237 OA
ATOM    102  O   UNL     1       3.930   7.995  14.939  1.00  0.00    -0.744 OA
ENDBRANCH  98  99
ENDBRANCH  66  91
ENDBRANCH  40  41
ENDBRANCH  32  35
ENDBRANCH  30  31
ENDBRANCH  29  30
ENDBRANCH   1  29
TORSDOF 17
