REMARK SMILES O=C(Cc1ccc(F)cc1F)Nc1sccc1C(=O)NCCCNC(=O)c1ccc(-c2c3nc(c(-c4c(F)cc(S(=O)(=O)[O-])cc4F)c4ccc([nH]4)c(-c4c(F)cc(S(=O)(=O)[O-])cc4F)c4nc(c(-c5c(F)cc(S(=O)(=O)[O-])cc5F)c5ccc2[nH]5)C=C4)C=C3)cc1
REMARK SMILES IDX 22 1 21 2 20 3 18 4 19 5 17 7 13 8 14 9 15 10 16 11 12 12
REMARK SMILES IDX 1 13 2 14 3 16 4 17 5 18 10 19 6 20 9 21 11 22 7 23 8 24
REMARK SMILES IDX 23 25 24 26 25 27 26 29 27 30 28 31 92 32 29 33 91 34 30 35
REMARK SMILES IDX 31 36 32 37 85 38 33 39 90 40 84 41 86 42 34 43 89 44 83 45
REMARK SMILES IDX 82 46 35 48 69 49 48 50 68 51 49 52 52 53 67 54 87 55 50 56
REMARK SMILES IDX 51 57 66 59 88 60 53 61 36 62 37 63 46 64 38 65 39 66 45 67
REMARK SMILES IDX 47 68 40 69 41 70 42 71 43 72 44 73 70 74 71 75 80 76 72 77
REMARK SMILES IDX 73 78 79 79 81 80 74 81 75 82 76 83 77 84 78 85 54 86 55 87
REMARK SMILES IDX 64 88 56 89 57 90 63 91 65 92 58 93 59 94 60 95 61 96 62 97
REMARK H PARENT 20 6 12 15 24 28 86 47 52 58
REMARK Flexibility Score: inf
ROOT
ATOM      1  C   UNL     1       3.429   3.186   0.877  1.00  0.00     0.042 C 
ENDROOT
BRANCH   1   2
ATOM      2  C   UNL     1       2.624   2.235   0.015  1.00  0.00     0.118 C 
BRANCH   2   3
ATOM      3  N   UNL     1       1.266   2.629  -0.276  1.00  0.00    -0.352 N 
ATOM      4  C   UNL     1       0.446   2.196  -1.294  1.00  0.00     0.254 C 
ATOM      5  O   UNL     1      -0.711   2.625  -1.310  1.00  0.00    -0.269 OA
ATOM      6  H   UNL     1       0.874   3.295   0.334  1.00  0.00     0.163 HD
BRANCH   4   7
ATOM      7  C   UNL     1       0.979   1.427  -2.421  1.00  0.00     0.074 A 
ATOM      8  C   UNL     1       1.828   0.330  -2.447  1.00  0.00     0.108 A 
ATOM      9  S   UNL     1       2.388  -0.037  -4.021  1.00  0.00    -0.126 S 
ATOM     10  C   UNL     1       1.331   1.094  -4.733  1.00  0.00     0.068 A 
ATOM     11  C   UNL     1       0.640   1.802  -3.779  1.00  0.00     0.028 A 
BRANCH   8  12
ATOM     12  N   UNL     1       2.383  -0.524  -1.515  1.00  0.00    -0.317 N 
ATOM     13  O   UNL     1       0.634  -0.553  -0.015  1.00  0.00    -0.274 OA
ATOM     14  C   UNL     1       1.804  -0.811  -0.299  1.00  0.00     0.229 C 
ATOM     15  H   UNL     1       3.242  -0.953  -1.732  1.00  0.00     0.170 HD
BRANCH  14  16
ATOM     16  C   UNL     1       2.756  -1.328   0.774  1.00  0.00     0.139 C 
BRANCH  16  17
ATOM     17  C   UNL     1       3.723  -2.414   0.392  1.00  0.00    -0.003 A 
ATOM     18  C   UNL     1       3.423  -3.756   0.654  1.00  0.00     0.010 A 
ATOM     19  C   UNL     1       4.978  -2.093  -0.143  1.00  0.00     0.129 A 
ATOM     20  C   UNL     1       4.377  -4.743   0.406  1.00  0.00     0.040 A 
ATOM     21  C   UNL     1       5.932  -3.069  -0.395  1.00  0.00     0.078 A 
ATOM     22  F   UNL     1       5.268  -0.814  -0.421  1.00  0.00    -0.207 F 
ATOM     23  C   UNL     1       5.622  -4.390  -0.109  1.00  0.00     0.126 A 
ATOM     24  F   UNL     1       6.534  -5.346  -0.329  1.00  0.00    -0.207 F 
ENDBRANCH  16  17
ENDBRANCH  14  16
ENDBRANCH   8  12
ENDBRANCH   4   7
ENDBRANCH   2   3
ENDBRANCH   1   2
BRANCH   1  25
ATOM     25  C   UNL     1       2.904   3.344   2.300  1.00  0.00     0.118 C 
BRANCH  25  26
ATOM     26  N   UNL     1       2.861   2.103   3.074  1.00  0.00    -0.352 N 
ATOM     27  C   UNL     1       3.654   1.601   4.083  1.00  0.00     0.251 C 
ATOM     28  H   UNL     1       2.118   1.507   2.823  1.00  0.00     0.163 HD
ATOM     29  O   UNL     1       3.460   0.449   4.466  1.00  0.00    -0.269 OA
BRANCH  27  30
ATOM     30  C   UNL     1       4.754   2.397   4.680  1.00  0.00     0.039 A 
ATOM     31  C   UNL     1       5.926   1.751   5.091  1.00  0.00     0.014 A 
ATOM     32  C   UNL     1       4.646   3.774   4.853  1.00  0.00     0.014 A 
ATOM     33  C   UNL     1       7.017   2.500   5.551  1.00  0.00     0.010 A 
ATOM     34  C   UNL     1       5.769   4.526   5.176  1.00  0.00     0.010 A 
ATOM     35  C   UNL     1       6.972   3.902   5.530  1.00  0.00    -0.014 A 
BRANCH  35  36
ATOM     36  C   UNL     1       8.147   4.751   5.872  1.00  0.00     0.031 A 
ATOM     37  C   UNL     1       8.029   5.806   6.944  1.00  0.00     0.074 A 
ATOM     38  C   UNL     1       9.281   4.658   5.148  1.00  0.00     0.049 A 
ATOM     39  N   UNL     1       8.855   6.772   7.252  1.00  0.00    -0.248 NA
ATOM     40  C   UNL     1       6.790   5.803   7.739  1.00  0.00     0.031 C 
ATOM     41  C   UNL     1       9.515   3.719   4.048  1.00  0.00     0.029 A 
ATOM     42  N   UNL     1      10.451   5.375   5.220  1.00  0.00    -0.354 N 
ATOM     43  C   UNL     1       8.217   7.515   8.239  1.00  0.00     0.074 A 
ATOM     44  C   UNL     1       6.912   6.922   8.436  1.00  0.00     0.031 C 
ATOM     45  C   UNL     1      10.762   3.886   3.581  1.00  0.00     0.029 A 
ATOM     46  C   UNL     1      11.400   4.978   4.308  1.00  0.00     0.049 A 
ATOM     47  H   UNL     1      10.596   6.104   5.865  1.00  0.00     0.167 HD
ATOM     48  C   UNL     1       8.684   8.576   8.941  1.00  0.00     0.037 A 
ATOM     49  C   UNL     1      12.644   5.442   4.079  1.00  0.00     0.037 A 
ATOM     50  C   UNL     1      10.006   9.122   8.787  1.00  0.00     0.049 A 
ATOM     51  C   UNL     1      13.162   6.590   4.897  1.00  0.00     0.074 A 
ATOM     52  C   UNL     1      10.597  10.160   9.486  1.00  0.00     0.029 A 
ATOM     53  N   UNL     1      10.951   8.658   7.884  1.00  0.00    -0.354 N 
ATOM     54  N   UNL     1      12.549   7.273   5.835  1.00  0.00    -0.248 NA
ATOM     55  C   UNL     1      14.536   7.034   4.628  1.00  0.00     0.031 C 
ATOM     56  C   UNL     1      11.894  10.335   8.992  1.00  0.00     0.029 A 
ATOM     57  C   UNL     1      12.122   9.386   8.008  1.00  0.00     0.049 A 
ATOM     58  H   UNL     1      10.809   7.920   7.248  1.00  0.00     0.167 HD
ATOM     59  C   UNL     1      13.470   8.212   6.284  1.00  0.00     0.074 A 
ATOM     60  C   UNL     1      14.683   8.006   5.519  1.00  0.00     0.031 C 
ATOM     61  C   UNL     1      13.323   9.158   7.244  1.00  0.00     0.037 A 
BRANCH  48  62
ATOM     62  C   UNL     1       7.755   9.197   9.949  1.00  0.00     0.058 A 
ATOM     63  C   UNL     1       7.210  10.473   9.733  1.00  0.00     0.135 A 
ATOM     64  C   UNL     1       7.393   8.523  11.128  1.00  0.00     0.135 A 
ATOM     65  F   UNL     1       7.524  11.165   8.627  1.00  0.00    -0.206 F 
ATOM     66  C   UNL     1       6.322  11.051  10.637  1.00  0.00     0.059 A 
ATOM     67  C   UNL     1       6.485   9.068  12.029  1.00  0.00     0.059 A 
ATOM     68  F   UNL     1       7.872   7.294  11.378  1.00  0.00    -0.206 F 
ATOM     69  C   UNL     1       5.948  10.330  11.770  1.00  0.00     0.060 A 
BRANCH  69  70
ATOM     70  S   UNL     1       4.743  11.007  12.931  1.00  0.00     0.124 S 
ATOM     71  O   UNL     1       3.560  10.211  12.616  1.00  0.00    -0.237 OA
ATOM     72  O   UNL     1       5.364  10.732  14.223  1.00  0.00    -0.237 OA
ATOM     73  O   UNL     1       4.669  12.416  12.561  1.00  0.00    -0.744 OA
ENDBRANCH  69  70
ENDBRANCH  48  62
BRANCH  49  74
ATOM     74  C   UNL     1      13.501   4.772   3.066  1.00  0.00     0.058 A 
ATOM     75  C   UNL     1      13.264   4.911   1.690  1.00  0.00     0.135 A 
ATOM     76  C   UNL     1      14.542   3.923   3.469  1.00  0.00     0.135 A 
ATOM     77  F   UNL     1      12.269   5.699   1.255  1.00  0.00    -0.206 F 
ATOM     78  C   UNL     1      14.015   4.214   0.747  1.00  0.00     0.059 A 
ATOM     79  C   UNL     1      15.317   3.230   2.546  1.00  0.00     0.059 A 
ATOM     80  F   UNL     1      14.809   3.764   4.774  1.00  0.00    -0.206 F 
ATOM     81  C   UNL     1      15.039   3.375   1.185  1.00  0.00     0.060 A 
BRANCH  81  82
ATOM     82  S   UNL     1      15.997   2.401   0.003  1.00  0.00     0.124 S 
ATOM     83  O   UNL     1      17.302   3.048   0.076  1.00  0.00    -0.237 OA
ATOM     84  O   UNL     1      15.915   1.061   0.576  1.00  0.00    -0.237 OA
ATOM     85  O   UNL     1      15.270   2.584  -1.250  1.00  0.00    -0.744 OA
ENDBRANCH  81  82
ENDBRANCH  49  74
BRANCH  61  86
ATOM     86  C   UNL     1      14.510  10.026   7.548  1.00  0.00     0.058 A 
ATOM     87  C   UNL     1      15.231   9.847   8.740  1.00  0.00     0.135 A 
ATOM     88  C   UNL     1      14.888  11.077   6.701  1.00  0.00     0.135 A 
ATOM     89  F   UNL     1      14.902   8.859   9.587  1.00  0.00    -0.206 F 
ATOM     90  C   UNL     1      16.281  10.689   9.089  1.00  0.00     0.059 A 
ATOM     91  C   UNL     1      15.948  11.919   7.020  1.00  0.00     0.059 A 
ATOM     92  F   UNL     1      14.234  11.283   5.546  1.00  0.00    -0.206 F 
ATOM     93  C   UNL     1      16.635  11.720   8.220  1.00  0.00     0.060 A 
BRANCH  93  94
ATOM     94  S   UNL     1      17.976  12.852   8.644  1.00  0.00     0.124 S 
ATOM     95  O   UNL     1      19.021  12.431   7.717  1.00  0.00    -0.237 OA
ATOM     96  O   UNL     1      17.378  14.156   8.377  1.00  0.00    -0.237 OA
ATOM     97  O   UNL     1      18.232  12.562  10.052  1.00  0.00    -0.744 OA
ENDBRANCH  93  94
ENDBRANCH  61  86
ENDBRANCH  35  36
ENDBRANCH  27  30
ENDBRANCH  25  26
ENDBRANCH   1  25
TORSDOF 16
