REMARK SMILES CC(C)C[C@H](NC(=O)[C@H](Cc1ccccc1)NC(=O)CNC(=O)C[NH3+])C(=O)NCCCNC(=O)c1ccc(-c2c3nc(c(-c4c(F)cc(S(=O)(=O)[O-])cc4F)c4ccc([nH]4)c(-c4c(F)cc(S(=O)(=O)[O-])cc4F)c4nc(c(-c5c(F)cc(S(=O)(=O)[O-])cc5F)c5ccc2[nH]5)C=C4)C=C3)cc1
REMARK SMILES IDX 26 1 27 2 28 3 5 5 4 6 2 7 1 8 3 9 6 10 7 11 8 13 9 14 17 15
REMARK SMILES IDX 18 16 19 18 20 19 21 20 22 21 23 23 24 24 25 25 10 29 11 30
REMARK SMILES IDX 12 31 16 32 13 33 15 34 14 35 29 36 30 37 31 38 32 39 33 40
REMARK SMILES IDX 34 42 35 43 36 44 100 45 37 46 99 47 38 48 39 49 40 50 93 51
REMARK SMILES IDX 41 52 98 53 92 54 94 55 42 56 97 57 91 58 90 59 43 61 77 62
REMARK SMILES IDX 56 63 76 64 57 65 60 66 75 67 95 68 58 69 59 70 74 72 96 73
REMARK SMILES IDX 61 74 44 75 45 76 54 77 46 78 47 79 53 80 55 81 48 82 49 83
REMARK SMILES IDX 50 84 51 85 52 86 78 87 79 88 88 89 80 90 81 91 87 92 89 93
REMARK SMILES IDX 82 94 83 95 84 96 85 97 86 98 62 99 63 100 72 101 64 102
REMARK SMILES IDX 65 103 71 104 73 105 66 106 67 107 68 108 69 109 70 110
REMARK H PARENT 28 4 6 12 17 17 21 22 25 26 25 27 25 28 32 41 94 60 60 71
REMARK Flexibility Score: inf
ROOT
ATOM      1  C   UNL     1      -1.619  -0.989   2.595  1.00  0.00     0.242 C 
ATOM      2  O   UNL     1      -0.819  -1.439   3.419  1.00  0.00    -0.273 OA
ATOM      3  N   UNL     1      -2.382  -1.877   1.899  1.00  0.00    -0.354 N 
ATOM      4  H   UNL     1      -2.162  -2.822   2.062  1.00  0.00     0.163 HD
ENDROOT
BRANCH   1   5
ATOM      5  C   UNL     1      -1.764   0.528   2.375  1.00  0.00     0.171 C 
BRANCH   5   6
ATOM      6  C   UNL     1      -3.171   1.059   2.698  1.00  0.00     0.038 C 
BRANCH   6   7
ATOM      7  C   UNL     1      -3.829   0.471   3.961  1.00  0.00    -0.015 C 
ATOM      8  C   UNL     1      -3.042   0.768   5.234  1.00  0.00     0.007 C 
ATOM      9  C   UNL     1      -5.257   1.006   4.094  1.00  0.00     0.007 C 
ENDBRANCH   6   7
ENDBRANCH   5   6
BRANCH   5  10
ATOM     10  N   UNL     1      -1.382   0.794   0.988  1.00  0.00    -0.343 N 
ATOM     11  C   UNL     1      -0.831   1.823   0.322  1.00  0.00     0.243 C 
ATOM     12  H   UNL     1      -1.577   0.032   0.397  1.00  0.00     0.164 HD
ATOM     13  O   UNL     1      -0.845   1.689  -0.911  1.00  0.00    -0.273 OA
BRANCH  11  14
ATOM     14  C   UNL     1      -0.277   3.127   0.930  1.00  0.00     0.175 C 
BRANCH  14  15
ATOM     15  N   UNL     1      -1.078   4.255   0.464  1.00  0.00    -0.342 N 
ATOM     16  C   UNL     1      -0.712   5.448  -0.075  1.00  0.00     0.240 C 
ATOM     17  H   UNL     1      -2.050   4.130   0.556  1.00  0.00     0.164 HD
ATOM     18  O   UNL     1      -1.625   6.216  -0.397  1.00  0.00    -0.273 OA
BRANCH  16  19
ATOM     19  C   UNL     1       0.741   5.778  -0.450  1.00  0.00     0.216 C 
BRANCH  19  20
ATOM     20  N   UNL     1       1.774   5.425   0.510  1.00  0.00    -0.342 N 
ATOM     21  C   UNL     1       2.900   4.678   0.302  1.00  0.00     0.275 C 
ATOM     22  H   UNL     1       1.646   5.767   1.424  1.00  0.00     0.164 HD
ATOM     23  O   UNL     1       3.610   4.397   1.270  1.00  0.00    -0.268 OA
BRANCH  21  24
ATOM     24  C   UNL     1       3.235   4.185  -1.109  1.00  0.00     0.360 C 
BRANCH  24  25
ATOM     25  N   UNL     1       2.397   3.036  -1.458  1.00  0.00    -0.350 N 
ATOM     26  H   UNL     1       2.567   2.278  -0.796  1.00  0.00     0.344 HD
ATOM     27  H   UNL     1       2.625   2.722  -2.401  1.00  0.00     0.344 HD
ATOM     28  H   UNL     1       1.415   3.307  -1.418  1.00  0.00     0.344 HD
ENDBRANCH  24  25
ENDBRANCH  21  24
ENDBRANCH  19  20
ENDBRANCH  16  19
ENDBRANCH  14  15
BRANCH  14  29
ATOM     29  C   UNL     1       0.186   3.188   2.397  1.00  0.00     0.070 C 
BRANCH  29  30
ATOM     30  C   UNL     1      -0.697   3.632   3.549  1.00  0.00    -0.045 A 
ATOM     31  C   UNL     1      -1.880   4.368   3.427  1.00  0.00     0.004 A 
ATOM     32  C   UNL     1      -0.232   3.361   4.850  1.00  0.00     0.004 A 
ATOM     33  C   UNL     1      -2.598   4.780   4.554  1.00  0.00     0.000 A 
ATOM     34  C   UNL     1      -0.936   3.788   5.979  1.00  0.00     0.000 A 
ATOM     35  C   UNL     1      -2.125   4.494   5.830  1.00  0.00     0.000 A 
ENDBRANCH  29  30
ENDBRANCH  14  29
ENDBRANCH  11  14
ENDBRANCH   5  10
ENDBRANCH   1   5
BRANCH   3  36
ATOM     36  C   UNL     1      -3.469  -1.661   0.956  1.00  0.00     0.117 C 
BRANCH  36  37
ATOM     37  C   UNL     1      -3.343  -2.547  -0.268  1.00  0.00     0.042 C 
BRANCH  37  38
ATOM     38  C   UNL     1      -3.385  -4.032   0.052  1.00  0.00     0.118 C 
BRANCH  38  39
ATOM     39  N   UNL     1      -4.641  -4.435   0.673  1.00  0.00    -0.352 N 
ATOM     40  C   UNL     1      -5.631  -5.255   0.182  1.00  0.00     0.251 C 
ATOM     41  H   UNL     1      -4.805  -4.067   1.572  1.00  0.00     0.163 HD
ATOM     42  O   UNL     1      -6.713  -5.324   0.749  1.00  0.00    -0.269 OA
BRANCH  40  43
ATOM     43  C   UNL     1      -5.373  -6.026  -1.051  1.00  0.00     0.039 A 
ATOM     44  C   UNL     1      -6.322  -6.020  -2.074  1.00  0.00     0.014 A 
ATOM     45  C   UNL     1      -4.162  -6.704  -1.210  1.00  0.00     0.014 A 
ATOM     46  C   UNL     1      -6.013  -6.620  -3.296  1.00  0.00     0.010 A 
ATOM     47  C   UNL     1      -3.817  -7.206  -2.456  1.00  0.00     0.010 A 
ATOM     48  C   UNL     1      -4.739  -7.171  -3.512  1.00  0.00    -0.014 A 
BRANCH  48  49
ATOM     49  C   UNL     1      -4.337  -7.716  -4.832  1.00  0.00     0.031 A 
ATOM     50  C   UNL     1      -3.936  -9.161  -4.952  1.00  0.00     0.074 A 
ATOM     51  C   UNL     1      -4.240  -6.891  -5.894  1.00  0.00     0.049 A 
ATOM     52  N   UNL     1      -3.440  -9.798  -5.979  1.00  0.00    -0.248 NA
ATOM     53  C   UNL     1      -4.078  -9.991  -3.743  1.00  0.00     0.031 C 
ATOM     54  C   UNL     1      -4.541  -5.457  -5.886  1.00  0.00     0.029 A 
ATOM     55  N   UNL     1      -3.844  -7.136  -7.185  1.00  0.00    -0.354 N 
ATOM     56  C   UNL     1      -3.189 -11.091  -5.536  1.00  0.00     0.074 A 
ATOM     57  C   UNL     1      -3.534 -11.133  -4.133  1.00  0.00     0.031 C 
ATOM     58  C   UNL     1      -4.342  -4.957  -7.116  1.00  0.00     0.029 A 
ATOM     59  C   UNL     1      -3.858  -6.021  -7.989  1.00  0.00     0.049 A 
ATOM     60  H   UNL     1      -3.574  -8.027  -7.505  1.00  0.00     0.167 HD
ATOM     61  C   UNL     1      -2.739 -12.155  -6.242  1.00  0.00     0.037 A 
ATOM     62  C   UNL     1      -3.510  -5.871  -9.282  1.00  0.00     0.037 A 
ATOM     63  C   UNL     1      -2.436 -12.113  -7.648  1.00  0.00     0.049 A 
ATOM     64  C   UNL     1      -3.022  -7.069 -10.049  1.00  0.00     0.074 A 
ATOM     65  C   UNL     1      -2.046 -13.151  -8.476  1.00  0.00     0.029 A 
ATOM     66  N   UNL     1      -2.492 -10.972  -8.435  1.00  0.00    -0.354 N 
ATOM     67  N   UNL     1      -2.855  -8.302  -9.631  1.00  0.00    -0.248 NA
ATOM     68  C   UNL     1      -2.676  -6.860 -11.461  1.00  0.00     0.031 C 
ATOM     69  C   UNL     1      -1.827 -12.629  -9.755  1.00  0.00     0.029 A 
ATOM     70  C   UNL     1      -2.122 -11.275  -9.735  1.00  0.00     0.049 A 
ATOM     71  H   UNL     1      -2.755 -10.078  -8.117  1.00  0.00     0.167 HD
ATOM     72  C   UNL     1      -2.401  -9.018 -10.732  1.00  0.00     0.074 A 
ATOM     73  C   UNL     1      -2.337  -8.085 -11.839  1.00  0.00     0.031 C 
ATOM     74  C   UNL     1      -2.065 -10.329 -10.821  1.00  0.00     0.037 A 
BRANCH  61  75
ATOM     75  C   UNL     1      -2.559 -13.453  -5.506  1.00  0.00     0.058 A 
ATOM     76  C   UNL     1      -3.659 -14.197  -5.048  1.00  0.00     0.135 A 
ATOM     77  C   UNL     1      -1.276 -13.972  -5.275  1.00  0.00     0.135 A 
ATOM     78  F   UNL     1      -4.908 -13.738  -5.225  1.00  0.00    -0.206 F 
ATOM     79  C   UNL     1      -3.491 -15.394  -4.359  1.00  0.00     0.059 A 
ATOM     80  C   UNL     1      -1.085 -15.182  -4.613  1.00  0.00     0.059 A 
ATOM     81  F   UNL     1      -0.190 -13.301  -5.689  1.00  0.00    -0.206 F 
ATOM     82  C   UNL     1      -2.200 -15.878  -4.146  1.00  0.00     0.060 A 
BRANCH  82  83
ATOM     83  S   UNL     1      -2.000 -17.435  -3.255  1.00  0.00     0.124 S 
ATOM     84  O   UNL     1      -2.302 -17.026  -1.886  1.00  0.00    -0.237 OA
ATOM     85  O   UNL     1      -2.995 -18.291  -3.893  1.00  0.00    -0.237 OA
ATOM     86  O   UNL     1      -0.610 -17.797  -3.510  1.00  0.00    -0.744 OA
ENDBRANCH  82  83
ENDBRANCH  61  75
BRANCH  62  87
ATOM     87  C   UNL     1      -3.627  -4.540  -9.935  1.00  0.00     0.058 A 
ATOM     88  C   UNL     1      -4.620  -4.296 -10.896  1.00  0.00     0.135 A 
ATOM     89  C   UNL     1      -2.766  -3.483  -9.603  1.00  0.00     0.135 A 
ATOM     90  F   UNL     1      -5.464  -5.277 -11.251  1.00  0.00    -0.206 F 
ATOM     91  C   UNL     1      -4.747  -3.057 -11.515  1.00  0.00     0.059 A 
ATOM     92  C   UNL     1      -2.888  -2.228 -10.191  1.00  0.00     0.059 A 
ATOM     93  F   UNL     1      -1.810  -3.661  -8.677  1.00  0.00    -0.206 F 
ATOM     94  C   UNL     1      -3.876  -2.028 -11.154  1.00  0.00     0.060 A 
BRANCH  94  95
ATOM     95  S   UNL     1      -4.081  -0.409 -11.928  1.00  0.00     0.124 S 
ATOM     96  O   UNL     1      -3.554  -0.654 -13.265  1.00  0.00    -0.237 OA
ATOM     97  O   UNL     1      -5.524  -0.206 -11.838  1.00  0.00    -0.237 OA
ATOM     98  O   UNL     1      -3.278   0.470 -11.083  1.00  0.00    -0.744 OA
ENDBRANCH  94  95
ENDBRANCH  62  87
BRANCH  74  99
ATOM     99  C   UNL     1      -1.613 -10.835 -12.162  1.00  0.00     0.058 A 
ATOM    100  C   UNL     1      -0.347 -10.518 -12.676  1.00  0.00     0.135 A 
ATOM    101  C   UNL     1      -2.435 -11.688 -12.915  1.00  0.00     0.135 A 
ATOM    102  F   UNL     1       0.473  -9.700 -11.997  1.00  0.00    -0.206 F 
ATOM    103  C   UNL     1       0.083 -11.015 -13.902  1.00  0.00     0.059 A 
ATOM    104  C   UNL     1      -2.016 -12.217 -14.131  1.00  0.00     0.059 A 
ATOM    105  F   UNL     1      -3.652 -12.029 -12.462  1.00  0.00    -0.206 F 
ATOM    106  C   UNL     1      -0.759 -11.865 -14.621  1.00  0.00     0.060 A 
BRANCH 106 107
ATOM    107  S   UNL     1      -0.175 -12.533 -16.193  1.00  0.00     0.124 S 
ATOM    108  O   UNL     1      -0.295 -11.371 -17.068  1.00  0.00    -0.237 OA
ATOM    109  O   UNL     1       1.187 -12.947 -15.871  1.00  0.00    -0.237 OA
ATOM    110  O   UNL     1      -1.107 -13.623 -16.466  1.00  0.00    -0.744 OA
ENDBRANCH 106 107
ENDBRANCH  74  99
ENDBRANCH  48  49
ENDBRANCH  40  43
ENDBRANCH  38  39
ENDBRANCH  37  38
ENDBRANCH  36  37
ENDBRANCH   3  36
TORSDOF 24
