REMARK SMILES C[C@@H](C(=O)NCCCNC(=O)c1ccc(-c2c3nc(c(-c4c(F)cc(S(=O)(=O)[O-])cc4F)c4ccc([nH]4)c(-c4c(F)cc(S(=O)(=O)[O-])cc4F)c4nc(c(-c5c(F)cc(S(=O)(=O)[O-])cc5F)c5ccc2[nH]5)C=C4)C=C3)cc1)[C@@H](C)C(=O)c1cc(Cl)c2c(c1)OCCCO2
REMARK SMILES IDX 3 1 4 2 5 3 2 5 1 6 78 7 79 8 80 9 81 10 82 11 83 12 88 13
REMARK SMILES IDX 84 14 87 15 85 16 86 17 89 18 90 19 91 20 93 22 92 23 6 25
REMARK SMILES IDX 7 26 8 27 9 28 10 29 11 31 12 32 13 33 77 34 14 35 76 36
REMARK SMILES IDX 15 37 16 38 17 39 70 40 18 41 75 42 69 43 71 44 19 45 74 46
REMARK SMILES IDX 68 47 67 48 20 50 54 51 33 52 53 53 34 54 37 55 52 56 72 57
REMARK SMILES IDX 35 58 36 59 51 61 73 62 38 63 21 64 22 65 31 66 23 67 24 68
REMARK SMILES IDX 30 69 32 70 25 71 26 72 27 73 28 74 29 75 55 76 56 77 65 78
REMARK SMILES IDX 57 79 58 80 64 81 66 82 59 83 60 84 61 85 62 86 63 87 39 88
REMARK SMILES IDX 40 89 49 90 41 91 42 92 48 93 50 94 43 95 44 96 45 97 46 98
REMARK SMILES IDX 47 99
REMARK H PARENT 5 4 9 30 71 49 37 60
REMARK Flexibility Score: 80.00
ROOT
ATOM      1  C   UNL     1       0.986   1.783  -1.507  1.00  0.00     0.223 C 
ATOM      2  O   UNL     1       0.334   2.124  -2.491  1.00  0.00    -0.275 OA
ATOM      3  N   UNL     1       2.326   2.014  -1.534  1.00  0.00    -0.356 N 
ATOM      4  H   UNL     1       2.638   2.506  -2.328  1.00  0.00     0.163 HD
ENDROOT
BRANCH   1   5
ATOM      5  C   UNL     1       0.333   1.197  -0.261  1.00  0.00     0.086 C 
ATOM      6  C   UNL     1       0.649  -0.303  -0.183  1.00  0.00     0.019 C 
BRANCH   5   7
ATOM      7  C   UNL     1      -1.200   1.458  -0.273  1.00  0.00     0.070 C 
ATOM      8  C   UNL     1      -1.865   0.945   1.014  1.00  0.00     0.017 C 
BRANCH   7   9
ATOM      9  C   UNL     1      -1.676   2.916  -0.530  1.00  0.00     0.166 C 
ATOM     10  O   UNL     1      -2.636   3.171  -1.254  1.00  0.00    -0.294 OA
BRANCH   9  11
ATOM     11  C   UNL     1      -1.187   3.998   0.356  1.00  0.00     0.023 A 
ATOM     12  C   UNL     1      -2.090   4.467   1.322  1.00  0.00     0.036 A 
ATOM     13  C   UNL     1       0.157   4.372   0.388  1.00  0.00     0.062 A 
ATOM     14  C   UNL     1      -1.595   5.051   2.479  1.00  0.00     0.087 A 
ATOM     15  C   UNL     1       0.645   4.926   1.559  1.00  0.00     0.163 A 
ATOM     16  Cl  UNL     1      -2.674   5.464   3.753  1.00  0.00    -0.080 Cl
ATOM     17  C   UNL     1      -0.214   5.112   2.642  1.00  0.00     0.179 A 
BRANCH  15  18
ATOM     18  O   UNL     1       1.980   5.140   1.754  1.00  0.00    -0.489 OA
BRANCH  18  19
ATOM     19  C   UNL     1       2.639   3.951   2.184  1.00  0.00     0.233 C 
BRANCH  19  20
ATOM     20  C   UNL     1       2.210   3.364   3.534  1.00  0.00     0.083 CG0
ATOM     21  G   UNL     1       0.750   3.539   3.946  1.00  0.00     0.000 G0
ENDBRANCH  19  20
ENDBRANCH  18  19
ENDBRANCH  15  18
BRANCH  17  22
ATOM     22  O   UNL     1       0.329   4.924   3.901  1.00  0.00    -0.488 OA
BRANCH  22  23
ATOM     23  C   UNL     1       0.750   3.539   3.946  1.00  0.00     0.233 CG0
ATOM     24  G   UNL     1       2.210   3.364   3.534  1.00  0.00     0.000 G0
ENDBRANCH  22  23
ENDBRANCH  17  22
ENDBRANCH   9  11
ENDBRANCH   7   9
ENDBRANCH   5   7
ENDBRANCH   1   5
BRANCH   3  25
ATOM     25  C   UNL     1       3.376   1.661  -0.595  1.00  0.00     0.117 C 
BRANCH  25  26
ATOM     26  C   UNL     1       4.314   0.607  -1.165  1.00  0.00     0.042 C 
BRANCH  26  27
ATOM     27  C   UNL     1       5.061   1.063  -2.413  1.00  0.00     0.118 C 
BRANCH  27  28
ATOM     28  N   UNL     1       5.967   2.175  -2.152  1.00  0.00    -0.352 N 
ATOM     29  C   UNL     1       7.333   2.242  -2.276  1.00  0.00     0.251 C 
ATOM     30  H   UNL     1       5.535   3.002  -1.840  1.00  0.00     0.163 HD
ATOM     31  O   UNL     1       7.934   3.215  -1.821  1.00  0.00    -0.269 OA
BRANCH  29  32
ATOM     32  C   UNL     1       8.079   1.141  -2.920  1.00  0.00     0.039 A 
ATOM     33  C   UNL     1       9.254   0.681  -2.321  1.00  0.00     0.014 A 
ATOM     34  C   UNL     1       7.618   0.550  -4.101  1.00  0.00     0.014 A 
ATOM     35  C   UNL     1       9.911  -0.431  -2.851  1.00  0.00     0.010 A 
ATOM     36  C   UNL     1       8.227  -0.607  -4.580  1.00  0.00     0.010 A 
ATOM     37  C   UNL     1       9.370  -1.120  -3.950  1.00  0.00    -0.014 A 
BRANCH  37  38
ATOM     38  C   UNL     1       9.950  -2.409  -4.408  1.00  0.00     0.031 A 
ATOM     39  C   UNL     1      10.521  -2.545  -5.793  1.00  0.00     0.074 A 
ATOM     40  C   UNL     1       9.888  -3.482  -3.591  1.00  0.00     0.049 A 
ATOM     41  N   UNL     1      11.001  -3.610  -6.383  1.00  0.00    -0.248 NA
ATOM     42  C   UNL     1      10.539  -1.337  -6.633  1.00  0.00     0.031 C 
ATOM     43  C   UNL     1       9.307  -3.487  -2.245  1.00  0.00     0.029 A 
ATOM     44  N   UNL     1      10.301  -4.778  -3.774  1.00  0.00    -0.354 N 
ATOM     45  C   UNL     1      11.366  -3.206  -7.661  1.00  0.00     0.074 A 
ATOM     46  C   UNL     1      11.017  -1.807  -7.778  1.00  0.00     0.031 C 
ATOM     47  C   UNL     1       9.416  -4.718  -1.720  1.00  0.00     0.029 A 
ATOM     48  C   UNL     1      10.028  -5.602  -2.705  1.00  0.00     0.049 A 
ATOM     49  H   UNL     1      10.750  -5.090  -4.593  1.00  0.00     0.167 HD
ATOM     50  C   UNL     1      11.954  -3.933  -8.640  1.00  0.00     0.037 A 
ATOM     51  C   UNL     1      10.227  -6.925  -2.543  1.00  0.00     0.037 A 
ATOM     52  C   UNL     1      12.322  -5.320  -8.506  1.00  0.00     0.049 A 
ATOM     53  C   UNL     1      10.866  -7.710  -3.658  1.00  0.00     0.074 A 
ATOM     54  C   UNL     1      12.997  -6.119  -9.414  1.00  0.00     0.029 A 
ATOM     55  N   UNL     1      12.041  -6.116  -7.407  1.00  0.00    -0.354 N 
ATOM     56  N   UNL     1      11.291  -7.286  -4.825  1.00  0.00    -0.248 NA
ATOM     57  C   UNL     1      11.054  -9.150  -3.437  1.00  0.00     0.031 C 
ATOM     58  C   UNL     1      13.068  -7.412  -8.890  1.00  0.00     0.029 A 
ATOM     59  C   UNL     1      12.492  -7.407  -7.631  1.00  0.00     0.049 A 
ATOM     60  H   UNL     1      11.588  -5.810  -6.588  1.00  0.00     0.167 HD
ATOM     61  C   UNL     1      11.814  -8.404  -5.466  1.00  0.00     0.074 A 
ATOM     62  C   UNL     1      11.677  -9.515  -4.548  1.00  0.00     0.031 C 
ATOM     63  C   UNL     1      12.353  -8.504  -6.706  1.00  0.00     0.037 A 
BRANCH  50  64
ATOM     64  C   UNL     1      12.250  -3.259  -9.952  1.00  0.00     0.058 A 
ATOM     65  C   UNL     1      13.283  -2.318 -10.081  1.00  0.00     0.135 A 
ATOM     66  C   UNL     1      11.562  -3.640 -11.116  1.00  0.00     0.135 A 
ATOM     67  F   UNL     1      13.962  -1.906  -8.999  1.00  0.00    -0.206 F 
ATOM     68  C   UNL     1      13.623  -1.778 -11.317  1.00  0.00     0.059 A 
ATOM     69  C   UNL     1      11.903  -3.133 -12.367  1.00  0.00     0.059 A 
ATOM     70  F   UNL     1      10.562  -4.534 -11.048  1.00  0.00    -0.206 F 
ATOM     71  C   UNL     1      12.935  -2.201 -12.456  1.00  0.00     0.060 A 
BRANCH  71  72
ATOM     72  S   UNL     1      13.433  -1.535 -14.058  1.00  0.00     0.124 S 
ATOM     73  O   UNL     1      12.982  -0.150 -13.952  1.00  0.00    -0.237 OA
ATOM     74  O   UNL     1      14.879  -1.732 -14.040  1.00  0.00    -0.237 OA
ATOM     75  O   UNL     1      12.702  -2.360 -15.014  1.00  0.00    -0.744 OA
ENDBRANCH  71  72
ENDBRANCH  50  64
BRANCH  51  76
ATOM     76  C   UNL     1       9.802  -7.604  -1.288  1.00  0.00     0.058 A 
ATOM     77  C   UNL     1      10.743  -8.164  -0.410  1.00  0.00     0.135 A 
ATOM     78  C   UNL     1       8.444  -7.737  -0.957  1.00  0.00     0.135 A 
ATOM     79  F   UNL     1      12.053  -8.068  -0.683  1.00  0.00    -0.206 F 
ATOM     80  C   UNL     1      10.354  -8.863   0.728  1.00  0.00     0.059 A 
ATOM     81  C   UNL     1       8.031  -8.403   0.192  1.00  0.00     0.059 A 
ATOM     82  F   UNL     1       7.502  -7.203  -1.750  1.00  0.00    -0.206 F 
ATOM     83  C   UNL     1       8.993  -8.980   1.018  1.00  0.00     0.060 A 
BRANCH  83  84
ATOM     84  S   UNL     1       8.496  -9.882   2.501  1.00  0.00     0.124 S 
ATOM     85  O   UNL     1       8.758 -11.261   2.106  1.00  0.00    -0.237 OA
ATOM     86  O   UNL     1       9.389  -9.325   3.512  1.00  0.00    -0.237 OA
ATOM     87  O   UNL     1       7.089  -9.524   2.654  1.00  0.00    -0.744 OA
ENDBRANCH  83  84
ENDBRANCH  51  76
BRANCH  63  88
ATOM     88  C   UNL     1      12.854  -9.855  -7.137  1.00  0.00     0.058 A 
ATOM     89  C   UNL     1      11.972 -10.905  -7.436  1.00  0.00     0.135 A 
ATOM     90  C   UNL     1      14.229 -10.088  -7.301  1.00  0.00     0.135 A 
ATOM     91  F   UNL     1      10.648 -10.739  -7.288  1.00  0.00    -0.206 F 
ATOM     92  C   UNL     1      12.436 -12.146  -7.859  1.00  0.00     0.059 A 
ATOM     93  C   UNL     1      14.714 -11.310  -7.754  1.00  0.00     0.059 A 
ATOM     94  F   UNL     1      15.116  -9.115  -7.038  1.00  0.00    -0.206 F 
ATOM     95  C   UNL     1      13.810 -12.337  -8.019  1.00  0.00     0.060 A 
BRANCH  95  96
ATOM     96  S   UNL     1      14.395 -13.942  -8.604  1.00  0.00     0.124 S 
ATOM     97  O   UNL     1      14.165 -14.783  -7.434  1.00  0.00    -0.237 OA
ATOM     98  O   UNL     1      13.522 -14.193  -9.747  1.00  0.00    -0.237 OA
ATOM     99  O   UNL     1      15.795 -13.695  -8.934  1.00  0.00    -0.744 OA
ENDBRANCH  95  96
ENDBRANCH  63  88
ENDBRANCH  37  38
ENDBRANCH  29  32
ENDBRANCH  27  28
ENDBRANCH  26  27
ENDBRANCH  25  26
ENDBRANCH   3  25
TORSDOF 16
