REMARK SMILES COc1cc([C@H]2CC(c3ccc(S(C)(=O)=O)cc3)=NN2c2ccc(C(=O)NCCCNC(=O)c3ccc(-c4c5nc(c(-c6c(F)cc(S(=O)(=O)[O-])cc6F)c6ccc([nH]6)c(-c6c(F)cc(S(=O)(=O)[O-])cc6F)c6nc(c(-c7c(F)cc(S(=O)(=O)[O-])cc7F)c7ccc4[nH]7)C=C6)C=C5)cc3)cc2)cc(OC)c1OC
REMARK SMILES IDX 29 1 28 2 27 3 25 4 26 5 24 7 21 8 22 9 101 10 23 11 100 12
REMARK SMILES IDX 20 13 6 14 7 15 8 16 19 17 5 18 3 19 4 20 106 21 103 22
REMARK SMILES IDX 102 23 2 24 1 25 107 26 108 27 104 28 105 29 9 30 10 31
REMARK SMILES IDX 18 32 11 33 17 34 12 35 13 36 14 37 15 38 16 39 30 40 31 41
REMARK SMILES IDX 32 42 33 44 34 45 35 46 99 47 36 48 98 49 37 50 38 51 39 52
REMARK SMILES IDX 92 53 40 54 97 55 91 56 93 57 41 58 96 59 90 60 89 61 42 63
REMARK SMILES IDX 76 64 55 65 75 66 56 67 59 68 74 69 94 70 57 71 58 72 73 74
REMARK SMILES IDX 95 75 60 76 43 77 44 78 53 79 45 80 46 81 52 82 54 83 47 84
REMARK SMILES IDX 48 85 49 86 50 87 51 88 77 89 78 90 87 91 79 92 80 93 86 94
REMARK SMILES IDX 88 95 81 96 82 97 83 98 84 99 85 100 61 101 62 102 71 103
REMARK SMILES IDX 63 104 64 105 70 106 72 107 65 108 66 109 67 110 68 111
REMARK SMILES IDX 69 112
REMARK H PARENT 27 6 31 43 93 62 59 73
REMARK Flexibility Score: inf
ROOT
ATOM      1  C   UNL     1      -0.290   7.231  -4.298  1.00  0.00     0.042 C 
ENDROOT
BRANCH   1   2
ATOM      2  C   UNL     1       0.946   6.556  -3.704  1.00  0.00     0.118 C 
BRANCH   2   3
ATOM      3  N   UNL     1       1.944   7.539  -3.329  1.00  0.00    -0.352 N 
ATOM      4  C   UNL     1       2.300   8.078  -2.120  1.00  0.00     0.251 C 
ATOM      5  O   UNL     1       3.240   8.874  -2.108  1.00  0.00    -0.269 OA
ATOM      6  H   UNL     1       2.466   7.886  -4.089  1.00  0.00     0.163 HD
BRANCH   4   7
ATOM      7  C   UNL     1       1.655   7.694  -0.836  1.00  0.00     0.039 A 
ATOM      8  C   UNL     1       0.637   6.888   1.673  1.00  0.00     0.060 A 
ATOM      9  C   UNL     1       1.931   7.407   1.558  1.00  0.00     0.029 A 
ATOM     10  C   UNL     1      -0.165   6.848   0.532  1.00  0.00     0.029 A 
ATOM     11  C   UNL     1       2.444   7.786   0.318  1.00  0.00     0.016 A 
ATOM     12  C   UNL     1       0.327   7.283  -0.704  1.00  0.00     0.016 A 
BRANCH   8  13
ATOM     13  N   UNL     1       0.189   6.453   2.908  1.00  0.00    -0.257 N 
ATOM     14  C   UNL     1      -0.461   5.164   3.160  1.00  0.00     0.144 C 
ATOM     15  C   UNL     1      -0.794   5.276   4.662  1.00  0.00     0.091 C 
ATOM     16  C   UNL     1      -0.647   6.765   4.832  1.00  0.00     0.071 C 
ATOM     17  N   UNL     1      -0.064   7.387   3.857  1.00  0.00    -0.176 NA
BRANCH  14  18
ATOM     18  C   UNL     1       0.450   4.010   2.763  1.00  0.00    -0.015 A 
ATOM     19  C   UNL     1       1.030   2.190   1.228  1.00  0.00     0.164 A 
ATOM     20  C   UNL     1       0.122   3.163   1.694  1.00  0.00     0.056 A 
ATOM     21  C   UNL     1       2.306   2.047   1.805  1.00  0.00     0.203 A 
ATOM     22  C   UNL     1       2.636   2.896   2.882  1.00  0.00     0.164 A 
ATOM     23  C   UNL     1       1.710   3.846   3.352  1.00  0.00     0.056 A 
BRANCH  19  24
ATOM     24  O   UNL     1       0.667   1.492   0.102  1.00  0.00    -0.493 OA
ATOM     25  C   UNL     1      -0.229   0.422   0.400  1.00  0.00     0.278 C 
ENDBRANCH  19  24
BRANCH  21  26
ATOM     26  O   UNL     1       3.275   1.160   1.426  1.00  0.00    -0.490 OA
ATOM     27  C   UNL     1       3.048   0.210   0.401  1.00  0.00     0.278 C 
ENDBRANCH  21  26
BRANCH  22  28
ATOM     28  O   UNL     1       3.809   2.928   3.600  1.00  0.00    -0.493 OA
ATOM     29  C   UNL     1       4.989   2.439   2.976  1.00  0.00     0.278 C 
ENDBRANCH  22  28
ENDBRANCH  14  18
BRANCH  16  30
ATOM     30  C   UNL     1      -1.126   7.487   6.018  1.00  0.00    -0.002 A 
ATOM     31  C   UNL     1      -1.963   8.594   5.823  1.00  0.00     0.011 A 
ATOM     32  C   UNL     1      -0.673   7.150   7.294  1.00  0.00     0.011 A 
ATOM     33  C   UNL     1      -2.358   9.370   6.912  1.00  0.00     0.021 A 
ATOM     34  C   UNL     1      -1.046   7.944   8.384  1.00  0.00     0.021 A 
ATOM     35  C   UNL     1      -1.878   9.054   8.185  1.00  0.00     0.067 A 
BRANCH  35  36
ATOM     36  S   UNL     1      -2.328  10.085   9.565  1.00  0.00     0.175 S 
ATOM     37  C   UNL     1      -1.726  11.698   9.132  1.00  0.00     0.163 C 
ATOM     38  O   UNL     1      -3.780  10.130   9.597  1.00  0.00    -0.224 OA
ATOM     39  O   UNL     1      -1.572   9.634  10.714  1.00  0.00    -0.224 OA
ENDBRANCH  35  36
ENDBRANCH  16  30
ENDBRANCH   8  13
ENDBRANCH   4   7
ENDBRANCH   2   3
ENDBRANCH   1   2
BRANCH   1  40
ATOM     40  C   UNL     1      -0.060   7.769  -5.709  1.00  0.00     0.118 C 
BRANCH  40  41
ATOM     41  N   UNL     1       0.110   6.693  -6.676  1.00  0.00    -0.352 N 
ATOM     42  C   UNL     1      -0.615   6.397  -7.801  1.00  0.00     0.251 C 
ATOM     43  H   UNL     1       0.862   6.085  -6.493  1.00  0.00     0.163 HD
ATOM     44  O   UNL     1      -0.460   5.306  -8.345  1.00  0.00    -0.269 OA
BRANCH  42  45
ATOM     45  C   UNL     1      -1.583   7.369  -8.355  1.00  0.00     0.039 A 
ATOM     46  C   UNL     1      -2.809   6.897  -8.834  1.00  0.00     0.014 A 
ATOM     47  C   UNL     1      -1.274   8.729  -8.447  1.00  0.00     0.014 A 
ATOM     48  C   UNL     1      -3.747   7.795  -9.350  1.00  0.00     0.010 A 
ATOM     49  C   UNL     1      -2.233   9.632  -8.905  1.00  0.00     0.010 A 
ATOM     50  C   UNL     1      -3.480   9.174  -9.358  1.00  0.00    -0.014 A 
BRANCH  50  51
ATOM     51  C   UNL     1      -4.505  10.150  -9.807  1.00  0.00     0.031 A 
ATOM     52  C   UNL     1      -4.276  10.989 -11.035  1.00  0.00     0.074 A 
ATOM     53  C   UNL     1      -5.615  10.326  -9.064  1.00  0.00     0.049 A 
ATOM     54  N   UNL     1      -5.023  11.940 -11.534  1.00  0.00    -0.248 NA
ATOM     55  C   UNL     1      -3.035  10.743 -11.787  1.00  0.00     0.031 C 
ATOM     56  C   UNL     1      -5.926   9.605  -7.826  1.00  0.00     0.029 A 
ATOM     57  N   UNL     1      -6.682  11.174  -9.228  1.00  0.00    -0.354 N 
ATOM     58  C   UNL     1      -4.341  12.415 -12.649  1.00  0.00     0.074 A 
ATOM     59  C   UNL     1      -3.100  11.674 -12.729  1.00  0.00     0.031 C 
ATOM     60  C   UNL     1      -7.106  10.033  -7.351  1.00  0.00     0.029 A 
ATOM     61  C   UNL     1      -7.619  11.082  -8.226  1.00  0.00     0.049 A 
ATOM     62  H   UNL     1      -6.767  11.790  -9.991  1.00  0.00     0.167 HD
ATOM     63  C   UNL     1      -4.724  13.367 -13.532  1.00  0.00     0.037 A 
ATOM     64  C   UNL     1      -8.758  11.774  -8.026  1.00  0.00     0.037 A 
ATOM     65  C   UNL     1      -5.972  14.083 -13.457  1.00  0.00     0.049 A 
ATOM     66  C   UNL     1      -9.160  12.827  -9.021  1.00  0.00     0.074 A 
ATOM     67  C   UNL     1      -6.481  15.019 -14.342  1.00  0.00     0.029 A 
ATOM     68  N   UNL     1      -6.906  13.948 -12.440  1.00  0.00    -0.354 N 
ATOM     69  N   UNL     1      -8.535  13.214 -10.108  1.00  0.00    -0.248 NA
ATOM     70  C   UNL     1     -10.422  13.535  -8.768  1.00  0.00     0.031 C 
ATOM     71  C   UNL     1      -7.702  15.480 -13.837  1.00  0.00     0.029 A 
ATOM     72  C   UNL     1      -7.976  14.799 -12.662  1.00  0.00     0.049 A 
ATOM     73  H   UNL     1      -6.820  13.337 -11.673  1.00  0.00     0.167 HD
ATOM     74  C   UNL     1      -9.336  14.196 -10.677  1.00  0.00     0.074 A 
ATOM     75  C   UNL     1     -10.499  14.332  -9.824  1.00  0.00     0.031 C 
ATOM     76  C   UNL     1      -9.127  14.922 -11.803  1.00  0.00     0.037 A 
BRANCH  63  77
ATOM     77  C   UNL     1      -3.788  13.692 -14.664  1.00  0.00     0.058 A 
ATOM     78  C   UNL     1      -3.588  12.802 -15.731  1.00  0.00     0.135 A 
ATOM     79  C   UNL     1      -3.127  14.930 -14.712  1.00  0.00     0.135 A 
ATOM     80  F   UNL     1      -4.186  11.600 -15.730  1.00  0.00    -0.206 F 
ATOM     81  C   UNL     1      -2.750  13.118 -16.795  1.00  0.00     0.059 A 
ATOM     82  C   UNL     1      -2.303  15.278 -15.779  1.00  0.00     0.059 A 
ATOM     83  F   UNL     1      -3.283  15.819 -13.718  1.00  0.00    -0.206 F 
ATOM     84  C   UNL     1      -2.112  14.360 -16.811  1.00  0.00     0.060 A 
BRANCH  84  85
ATOM     85  S   UNL     1      -1.042  14.762 -18.209  1.00  0.00     0.124 S 
ATOM     86  O   UNL     1       0.119  13.920 -17.937  1.00  0.00    -0.237 OA
ATOM     87  O   UNL     1      -1.858  14.365 -19.352  1.00  0.00    -0.237 OA
ATOM     88  O   UNL     1      -0.823  16.198 -18.068  1.00  0.00    -0.744 OA
ENDBRANCH  84  85
ENDBRANCH  63  77
BRANCH  64  89
ATOM     89  C   UNL     1      -9.601  11.486  -6.836  1.00  0.00     0.058 A 
ATOM     90  C   UNL     1     -10.845  10.852  -6.969  1.00  0.00     0.135 A 
ATOM     91  C   UNL     1      -9.178  11.830  -5.543  1.00  0.00     0.135 A 
ATOM     92  F   UNL     1     -11.295  10.508  -8.186  1.00  0.00    -0.206 F 
ATOM     93  C   UNL     1     -11.648  10.583  -5.865  1.00  0.00     0.059 A 
ATOM     94  C   UNL     1      -9.951  11.549  -4.421  1.00  0.00     0.059 A 
ATOM     95  F   UNL     1      -7.987  12.423  -5.360  1.00  0.00    -0.206 F 
ATOM     96  C   UNL     1     -11.191  10.935  -4.594  1.00  0.00     0.060 A 
BRANCH  96  97
ATOM     97  S   UNL     1     -12.217  10.539  -3.162  1.00  0.00     0.124 S 
ATOM     98  O   UNL     1     -13.261  11.553  -3.261  1.00  0.00    -0.237 OA
ATOM     99  O   UNL     1     -12.629   9.168  -3.448  1.00  0.00    -0.237 OA
ATOM    100  O   UNL     1     -11.296  10.687  -2.039  1.00  0.00    -0.744 OA
ENDBRANCH  96  97
ENDBRANCH  64  89
BRANCH  76 101
ATOM    101  C   UNL     1     -10.188  15.914 -12.190  1.00  0.00     0.058 A 
ATOM    102  C   UNL     1     -10.357  17.119 -11.491  1.00  0.00     0.135 A 
ATOM    103  C   UNL     1     -11.013  15.678 -13.301  1.00  0.00     0.135 A 
ATOM    104  F   UNL     1      -9.599  17.389 -10.416  1.00  0.00    -0.206 F 
ATOM    105  C   UNL     1     -11.323  18.046 -11.866  1.00  0.00     0.059 A 
ATOM    106  C   UNL     1     -11.969  16.602 -13.710  1.00  0.00     0.059 A 
ATOM    107  F   UNL     1     -10.886  14.544 -14.009  1.00  0.00    -0.206 F 
ATOM    108  C   UNL     1     -12.124  17.779 -12.979  1.00  0.00     0.060 A 
BRANCH 108 109
ATOM    109  S   UNL     1     -13.352  19.005 -13.476  1.00  0.00     0.124 S 
ATOM    110  O   UNL     1     -14.384  18.816 -12.461  1.00  0.00    -0.237 OA
ATOM    111  O   UNL     1     -12.601  20.254 -13.391  1.00  0.00    -0.237 OA
ATOM    112  O   UNL     1     -13.717  18.592 -14.827  1.00  0.00    -0.744 OA
ENDBRANCH 108 109
ENDBRANCH  76 101
ENDBRANCH  50  51
ENDBRANCH  42  45
ENDBRANCH  40  41
ENDBRANCH   1  40
TORSDOF 20
