REMARK SMILES CC(C)(C(=O)NCCCNC(=O)c1ccc(-c2c3nc(c(-c4c(F)cc(S(=O)(=O)[O-])cc4F)c4ccc([nH]4)c(-c4c(F)cc(S(=O)(=O)[O-])cc4F)c4nc(c(-c5c(F)cc(S(=O)(=O)[O-])cc5F)c5ccc2[nH]5)C=C4)C=C3)cc1)c1ccc(C(=O)CCCCl)cc1
REMARK SMILES IDX 7 1 6 2 4 3 5 4 2 6 1 7 3 8 79 9 80 10 90 11 81 12 89 13
REMARK SMILES IDX 82 14 83 15 84 16 85 17 86 18 87 19 88 20 8 21 9 22 10 23
REMARK SMILES IDX 11 24 12 26 13 27 14 28 78 29 15 30 77 31 16 32 17 33 18 34
REMARK SMILES IDX 71 35 19 36 76 37 70 38 72 39 20 40 75 41 69 42 68 43 21 45
REMARK SMILES IDX 55 46 34 47 54 48 35 49 38 50 53 51 73 52 36 53 37 54 52 56
REMARK SMILES IDX 74 57 39 58 22 59 23 60 32 61 24 62 25 63 31 64 33 65 26 66
REMARK SMILES IDX 27 67 28 68 29 69 30 70 56 71 57 72 66 73 58 74 59 75 65 76
REMARK SMILES IDX 67 77 60 78 61 79 62 80 63 81 64 82 40 83 41 84 50 85 42 86
REMARK SMILES IDX 43 87 49 88 51 89 44 90 45 91 46 92 47 93 48 94
REMARK H PARENT 6 5 10 25 72 44 38 55
REMARK Flexibility Score: inf
ROOT
ATOM      1  C   UNL     1      -0.947  -2.189  -1.148  1.00  0.00     0.117 C 
ENDROOT
BRANCH   1   2
ATOM      2  N   UNL     1      -1.414  -0.840  -1.421  1.00  0.00    -0.355 N 
ATOM      3  C   UNL     1      -0.770   0.346  -1.615  1.00  0.00     0.230 C 
ATOM      4  O   UNL     1      -1.499   1.270  -1.993  1.00  0.00    -0.274 OA
ATOM      5  H   UNL     1      -2.394  -0.768  -1.478  1.00  0.00     0.163 HD
BRANCH   3   6
ATOM      6  C   UNL     1       0.774   0.507  -1.448  1.00  0.00     0.068 C 
ATOM      7  C   UNL     1       1.260  -0.005  -0.079  1.00  0.00     0.026 C 
ATOM      8  C   UNL     1       1.411  -0.284  -2.616  1.00  0.00     0.026 C 
BRANCH   6   9
ATOM      9  C   UNL     1       1.232   1.996  -1.496  1.00  0.00    -0.033 A 
ATOM     10  C   UNL     1       2.445   2.372  -2.102  1.00  0.00     0.005 A 
ATOM     11  C   UNL     1       0.479   3.012  -0.881  1.00  0.00     0.005 A 
ATOM     12  C   UNL     1       2.816   3.713  -2.212  1.00  0.00     0.012 A 
ATOM     13  C   UNL     1       0.848   4.358  -0.985  1.00  0.00     0.012 A 
ATOM     14  C   UNL     1       1.989   4.715  -1.704  1.00  0.00     0.018 A 
BRANCH  14  15
ATOM     15  C   UNL     1       2.335   6.128  -2.018  1.00  0.00     0.162 C 
ATOM     16  O   UNL     1       3.494   6.413  -2.319  1.00  0.00    -0.294 OA
BRANCH  15  17
ATOM     17  C   UNL     1       1.240   7.178  -2.068  1.00  0.00     0.082 C 
BRANCH  17  18
ATOM     18  C   UNL     1       0.457   7.150  -3.385  1.00  0.00     0.024 C 
BRANCH  18  19
ATOM     19  C   UNL     1      -0.706   6.162  -3.456  1.00  0.00     0.110 C 
ATOM     20  Cl  UNL     1      -1.953   6.522  -2.240  1.00  0.00    -0.127 Cl
ENDBRANCH  18  19
ENDBRANCH  17  18
ENDBRANCH  15  17
ENDBRANCH  14  15
ENDBRANCH   6   9
ENDBRANCH   3   6
ENDBRANCH   1   2
BRANCH   1  21
ATOM     21  C   UNL     1      -1.347  -2.675   0.237  1.00  0.00     0.042 C 
BRANCH  21  22
ATOM     22  C   UNL     1      -2.852  -2.815   0.432  1.00  0.00     0.118 C 
BRANCH  22  23
ATOM     23  N   UNL     1      -3.448  -3.773  -0.488  1.00  0.00    -0.352 N 
ATOM     24  C   UNL     1      -4.059  -4.979  -0.250  1.00  0.00     0.251 C 
ATOM     25  H   UNL     1      -3.407  -3.513  -1.437  1.00  0.00     0.163 HD
ATOM     26  O   UNL     1      -4.293  -5.726  -1.196  1.00  0.00    -0.269 OA
BRANCH  24  27
ATOM     27  C   UNL     1      -4.423  -5.386   1.125  1.00  0.00     0.039 A 
ATOM     28  C   UNL     1      -4.278  -6.728   1.491  1.00  0.00     0.014 A 
ATOM     29  C   UNL     1      -4.949  -4.469   2.038  1.00  0.00     0.014 A 
ATOM     30  C   UNL     1      -4.608  -7.133   2.787  1.00  0.00     0.010 A 
ATOM     31  C   UNL     1      -5.190  -4.855   3.353  1.00  0.00     0.010 A 
ATOM     32  C   UNL     1      -5.039  -6.194   3.738  1.00  0.00    -0.014 A 
BRANCH  32  33
ATOM     33  C   UNL     1      -5.359  -6.601   5.131  1.00  0.00     0.031 A 
ATOM     34  C   UNL     1      -6.758  -6.438   5.665  1.00  0.00     0.074 A 
ATOM     35  C   UNL     1      -4.379  -7.067   5.930  1.00  0.00     0.049 A 
ATOM     36  N   UNL     1      -7.220  -6.688   6.863  1.00  0.00    -0.248 NA
ATOM     37  C   UNL     1      -7.764  -5.892   4.739  1.00  0.00     0.031 C 
ATOM     38  C   UNL     1      -2.973  -7.216   5.548  1.00  0.00     0.029 A 
ATOM     39  N   UNL     1      -4.414  -7.496   7.233  1.00  0.00    -0.354 N 
ATOM     40  C   UNL     1      -8.559  -6.316   6.840  1.00  0.00     0.074 A 
ATOM     41  C   UNL     1      -8.822  -5.769   5.527  1.00  0.00     0.031 C 
ATOM     42  C   UNL     1      -2.287  -7.728   6.582  1.00  0.00     0.029 A 
ATOM     43  C   UNL     1      -3.194  -7.913   7.710  1.00  0.00     0.049 A 
ATOM     44  H   UNL     1      -5.235  -7.504   7.775  1.00  0.00     0.167 HD
ATOM     45  C   UNL     1      -9.493  -6.444   7.813  1.00  0.00     0.037 A 
ATOM     46  C   UNL     1      -2.846  -8.393   8.920  1.00  0.00     0.037 A 
ATOM     47  C   UNL     1      -9.232  -7.021   9.106  1.00  0.00     0.049 A 
ATOM     48  C   UNL     1      -3.906  -8.553   9.975  1.00  0.00     0.074 A 
ATOM     49  C   UNL     1     -10.120  -7.248  10.143  1.00  0.00     0.029 A 
ATOM     50  N   UNL     1      -7.992  -7.466   9.539  1.00  0.00    -0.354 N 
ATOM     51  N   UNL     1      -5.181  -8.251   9.915  1.00  0.00    -0.248 NA
ATOM     52  C   UNL     1      -3.483  -9.132  11.257  1.00  0.00     0.031 C 
ATOM     53  C   UNL     1      -9.409  -7.798  11.216  1.00  0.00     0.029 A 
ATOM     54  C   UNL     1      -8.088  -7.957  10.830  1.00  0.00     0.049 A 
ATOM     55  H   UNL     1      -7.164  -7.438   9.006  1.00  0.00     0.167 HD
ATOM     56  C   UNL     1      -5.719  -8.630  11.140  1.00  0.00     0.074 A 
ATOM     57  C   UNL     1      -4.633  -9.195  11.914  1.00  0.00     0.031 C 
ATOM     58  C   UNL     1      -6.996  -8.522  11.584  1.00  0.00     0.037 A 
BRANCH  45  59
ATOM     59  C   UNL     1     -10.886  -5.961   7.509  1.00  0.00     0.058 A 
ATOM     60  C   UNL     1     -11.713  -6.628   6.591  1.00  0.00     0.135 A 
ATOM     61  C   UNL     1     -11.410  -4.833   8.161  1.00  0.00     0.135 A 
ATOM     62  F   UNL     1     -11.258  -7.702   5.926  1.00  0.00    -0.206 F 
ATOM     63  C   UNL     1     -12.998  -6.177   6.306  1.00  0.00     0.059 A 
ATOM     64  C   UNL     1     -12.703  -4.381   7.913  1.00  0.00     0.059 A 
ATOM     65  F   UNL     1     -10.664  -4.157   9.048  1.00  0.00    -0.206 F 
ATOM     66  C   UNL     1     -13.483  -5.050   6.971  1.00  0.00     0.060 A 
BRANCH  66  67
ATOM     67  S   UNL     1     -15.153  -4.478   6.591  1.00  0.00     0.124 S 
ATOM     68  O   UNL     1     -14.962  -3.880   5.273  1.00  0.00    -0.237 OA
ATOM     69  O   UNL     1     -15.922  -5.718   6.618  1.00  0.00    -0.237 OA
ATOM     70  O   UNL     1     -15.444  -3.539   7.670  1.00  0.00    -0.744 OA
ENDBRANCH  66  67
ENDBRANCH  45  59
BRANCH  46  71
ATOM     71  C   UNL     1      -1.438  -8.791   9.184  1.00  0.00     0.058 A 
ATOM     72  C   UNL     1      -1.084 -10.143   9.316  1.00  0.00     0.135 A 
ATOM     73  C   UNL     1      -0.417  -7.835   9.293  1.00  0.00     0.135 A 
ATOM     74  F   UNL     1      -2.026 -11.094   9.223  1.00  0.00    -0.206 F 
ATOM     75  C   UNL     1       0.227 -10.532   9.567  1.00  0.00     0.059 A 
ATOM     76  C   UNL     1       0.907  -8.201   9.519  1.00  0.00     0.059 A 
ATOM     77  F   UNL     1      -0.699  -6.530   9.154  1.00  0.00    -0.206 F 
ATOM     78  C   UNL     1       1.217  -9.553   9.665  1.00  0.00     0.060 A 
BRANCH  78  79
ATOM     79  S   UNL     1       2.925 -10.071   9.942  1.00  0.00     0.124 S 
ATOM     80  O   UNL     1       2.891 -10.454  11.348  1.00  0.00    -0.237 OA
ATOM     81  O   UNL     1       3.072 -11.164   8.985  1.00  0.00    -0.237 OA
ATOM     82  O   UNL     1       3.693  -8.869   9.631  1.00  0.00    -0.744 OA
ENDBRANCH  78  79
ENDBRANCH  46  71
BRANCH  58  83
ATOM     83  C   UNL     1      -7.295  -9.063  12.954  1.00  0.00     0.058 A 
ATOM     84  C   UNL     1      -6.851  -8.417  14.118  1.00  0.00     0.135 A 
ATOM     85  C   UNL     1      -8.056 -10.234  13.103  1.00  0.00     0.135 A 
ATOM     86  F   UNL     1      -6.116  -7.297  14.031  1.00  0.00    -0.206 F 
ATOM     87  C   UNL     1      -7.121  -8.932  15.382  1.00  0.00     0.059 A 
ATOM     88  C   UNL     1      -8.362 -10.751  14.358  1.00  0.00     0.059 A 
ATOM     89  F   UNL     1      -8.517 -10.884  12.022  1.00  0.00    -0.206 F 
ATOM     90  C   UNL     1      -7.874 -10.102  15.491  1.00  0.00     0.060 A 
BRANCH  90  91
ATOM     91  S   UNL     1      -8.223 -10.759  17.136  1.00  0.00     0.124 S 
ATOM     92  O   UNL     1      -6.939 -11.354  17.492  1.00  0.00    -0.237 OA
ATOM     93  O   UNL     1      -8.595  -9.560  17.881  1.00  0.00    -0.237 OA
ATOM     94  O   UNL     1      -9.310 -11.705  16.899  1.00  0.00    -0.744 OA
ENDBRANCH  90  91
ENDBRANCH  58  83
ENDBRANCH  32  33
ENDBRANCH  24  27
ENDBRANCH  22  23
ENDBRANCH  21  22
ENDBRANCH   1  21
TORSDOF 18
