REMARK SMILES Cc1ccc(F)c(O[C@H]2CC[C@]([NH2+]C(C)C)(C(=O)NCCCNC(=O)c3ccc(-c4c5nc(c(-c6c(F)cc(S(=O)(=O)[O-])cc6F)c6ccc([nH]6)c(-c6c(F)cc(S(=O)(=O)[O-])cc6F)c6nc(c(-c7c(F)cc(S(=O)(=O)[O-])cc7F)c7ccc4[nH]7)C=C6)C=C5)cc3)C2)c1
REMARK SMILES IDX 21 1 20 2 19 3 17 4 18 5 12 7 9 8 10 9 92 10 11 11 8 12 7 13
REMARK SMILES IDX 1 14 2 15 3 16 93 17 4 18 5 19 6 20 13 21 14 24 15 25 16 26
REMARK SMILES IDX 22 27 23 28 24 29 25 31 26 32 27 33 91 34 28 35 90 36 29 37
REMARK SMILES IDX 30 38 31 39 84 40 32 41 89 42 83 43 85 44 33 45 88 46 82 47
REMARK SMILES IDX 81 48 34 50 68 51 47 52 67 53 48 54 51 55 66 56 86 57 49 58
REMARK SMILES IDX 50 59 65 61 87 62 52 63 35 64 36 65 45 66 37 67 38 68 44 69
REMARK SMILES IDX 46 70 39 71 40 72 41 73 42 74 43 75 69 76 70 77 79 78 71 79
REMARK SMILES IDX 72 80 78 81 80 82 73 83 74 84 75 85 76 86 77 87 53 88 54 89
REMARK SMILES IDX 63 90 55 91 56 92 62 93 64 94 57 95 58 96 59 97 60 98 61 99
REMARK H PARENT 19 6 13 22 13 23 23 30 85 49 51 60
REMARK Flexibility Score: inf
ROOT
ATOM      1  C   UNL     1       4.139  -2.722   1.204  1.00  0.00     0.042 C 
ENDROOT
BRANCH   1   2
ATOM      2  C   UNL     1       3.249  -2.683  -0.030  1.00  0.00     0.118 C 
BRANCH   2   3
ATOM      3  N   UNL     1       3.397  -3.855  -0.874  1.00  0.00    -0.351 N 
ATOM      4  C   UNL     1       2.562  -4.883  -1.204  1.00  0.00     0.281 C 
ATOM      5  O   UNL     1       3.082  -5.734  -1.934  1.00  0.00    -0.268 OA
ATOM      6  H   UNL     1       4.284  -3.921  -1.297  1.00  0.00     0.163 HD
BRANCH   4   7
ATOM      7  C   UNL     1       1.093  -4.984  -0.666  1.00  0.00     0.179 C 
ATOM      8  C   UNL     1      -0.648  -3.588   0.345  1.00  0.00     0.180 C 
ATOM      9  C   UNL     1       0.263  -4.037   1.481  1.00  0.00     0.052 C 
ATOM     10  C   UNL     1       0.233  -3.722  -0.899  1.00  0.00     0.124 C 
ATOM     11  C   UNL     1       1.149  -5.128   0.885  1.00  0.00     0.083 C 
BRANCH   8  12
ATOM     12  O   UNL     1      -1.749  -4.482   0.168  1.00  0.00    -0.487 OA
BRANCH  12  13
ATOM     13  C   UNL     1      -2.800  -4.416   1.037  1.00  0.00     0.155 A 
ATOM     14  C   UNL     1      -5.934  -6.556   1.387  1.00  0.00     0.044 C 
ATOM     15  C   UNL     1      -4.906  -5.492   1.629  1.00  0.00    -0.047 A 
ATOM     16  C   UNL     1      -5.056  -4.598   2.694  1.00  0.00     0.007 A 
ATOM     17  C   UNL     1      -3.774  -5.394   0.810  1.00  0.00     0.053 A 
ATOM     18  C   UNL     1      -4.096  -3.612   2.921  1.00  0.00     0.043 A 
ATOM     19  C   UNL     1      -2.981  -3.522   2.093  1.00  0.00     0.165 A 
ATOM     20  F   UNL     1      -2.091  -2.555   2.360  1.00  0.00    -0.203 F 
ENDBRANCH  12  13
ENDBRANCH   8  12
BRANCH   7  21
ATOM     21  N   UNL     1       0.373  -6.213  -1.113  1.00  0.00    -0.332 N 
ATOM     22  H   UNL     1      -0.598  -6.101  -0.821  1.00  0.00     0.347 HD
ATOM     23  H   UNL     1       0.925  -6.959  -0.690  1.00  0.00     0.347 HD
BRANCH  21  24
ATOM     24  C   UNL     1       0.338  -6.605  -2.524  1.00  0.00     0.176 C 
ATOM     25  C   UNL     1      -0.302  -8.000  -2.566  1.00  0.00     0.075 C 
ATOM     26  C   UNL     1      -0.452  -5.673  -3.440  1.00  0.00     0.075 C 
ENDBRANCH  21  24
ENDBRANCH   7  21
ENDBRANCH   4   7
ENDBRANCH   2   3
ENDBRANCH   1   2
BRANCH   1  27
ATOM     27  C   UNL     1       5.629  -2.669   0.898  1.00  0.00     0.118 C 
BRANCH  27  28
ATOM     28  N   UNL     1       6.011  -1.444   0.208  1.00  0.00    -0.352 N 
ATOM     29  C   UNL     1       6.818  -0.411   0.608  1.00  0.00     0.251 C 
ATOM     30  H   UNL     1       5.627  -1.342  -0.692  1.00  0.00     0.163 HD
ATOM     31  O   UNL     1       6.816   0.632  -0.050  1.00  0.00    -0.269 OA
BRANCH  29  32
ATOM     32  C   UNL     1       7.676  -0.526   1.807  1.00  0.00     0.039 A 
ATOM     33  C   UNL     1       7.873   0.604   2.606  1.00  0.00     0.014 A 
ATOM     34  C   UNL     1       8.333  -1.718   2.121  1.00  0.00     0.014 A 
ATOM     35  C   UNL     1       8.692   0.525   3.735  1.00  0.00     0.010 A 
ATOM     36  C   UNL     1       9.073  -1.821   3.296  1.00  0.00     0.010 A 
ATOM     37  C   UNL     1       9.282  -0.695   4.103  1.00  0.00    -0.014 A 
BRANCH  37  38
ATOM     38  C   UNL     1      10.148  -0.799   5.306  1.00  0.00     0.031 A 
ATOM     39  C   UNL     1      11.601  -1.173   5.159  1.00  0.00     0.074 A 
ATOM     40  C   UNL     1       9.617  -0.611   6.530  1.00  0.00     0.049 A 
ATOM     41  N   UNL     1      12.504  -1.359   6.088  1.00  0.00    -0.248 NA
ATOM     42  C   UNL     1      12.098  -1.403   3.792  1.00  0.00     0.031 C 
ATOM     43  C   UNL     1       8.208  -0.319   6.806  1.00  0.00     0.029 A 
ATOM     44  N   UNL     1      10.196  -0.650   7.773  1.00  0.00    -0.354 N 
ATOM     45  C   UNL     1      13.660  -1.753   5.423  1.00  0.00     0.074 A 
ATOM     46  C   UNL     1      13.334  -1.826   4.016  1.00  0.00     0.031 C 
ATOM     47  C   UNL     1       8.037  -0.187   8.132  1.00  0.00     0.029 A 
ATOM     48  C   UNL     1       9.314  -0.410   8.801  1.00  0.00     0.049 A 
ATOM     49  H   UNL     1      11.152  -0.833   7.916  1.00  0.00     0.167 HD
ATOM     50  C   UNL     1      14.887  -2.007   5.935  1.00  0.00     0.037 A 
ATOM     51  C   UNL     1       9.514  -0.373  10.133  1.00  0.00     0.037 A 
ATOM     52  C   UNL     1      15.220  -1.878   7.330  1.00  0.00     0.049 A 
ATOM     53  C   UNL     1      10.905  -0.585  10.668  1.00  0.00     0.074 A 
ATOM     54  C   UNL     1      16.454  -2.026   7.938  1.00  0.00     0.029 A 
ATOM     55  N   UNL     1      14.315  -1.562   8.332  1.00  0.00    -0.354 N 
ATOM     56  N   UNL     1      12.005  -0.876  10.014  1.00  0.00    -0.248 NA
ATOM     57  C   UNL     1      11.086  -0.443  12.119  1.00  0.00     0.031 C 
ATOM     58  C   UNL     1      16.290  -1.832   9.313  1.00  0.00     0.029 A 
ATOM     59  C   UNL     1      14.962  -1.520   9.556  1.00  0.00     0.049 A 
ATOM     60  H   UNL     1      13.355  -1.392   8.194  1.00  0.00     0.167 HD
ATOM     61  C   UNL     1      13.013  -0.925  10.971  1.00  0.00     0.074 A 
ATOM     62  C   UNL     1      12.395  -0.617  12.244  1.00  0.00     0.031 C 
ATOM     63  C   UNL     1      14.331  -1.202  10.811  1.00  0.00     0.037 A 
BRANCH  50  64
ATOM     64  C   UNL     1      15.972  -2.436   4.984  1.00  0.00     0.058 A 
ATOM     65  C   UNL     1      16.549  -1.541   4.070  1.00  0.00     0.135 A 
ATOM     66  C   UNL     1      16.480  -3.745   5.028  1.00  0.00     0.135 A 
ATOM     67  F   UNL     1      16.090  -0.283   3.973  1.00  0.00    -0.206 F 
ATOM     68  C   UNL     1      17.578  -1.932   3.219  1.00  0.00     0.059 A 
ATOM     69  C   UNL     1      17.526  -4.151   4.205  1.00  0.00     0.059 A 
ATOM     70  F   UNL     1      15.963  -4.643   5.881  1.00  0.00    -0.206 F 
ATOM     71  C   UNL     1      18.062  -3.239   3.296  1.00  0.00     0.060 A 
BRANCH  71  72
ATOM     72  S   UNL     1      19.420  -3.721   2.208  1.00  0.00     0.124 S 
ATOM     73  O   UNL     1      18.737  -3.833   0.923  1.00  0.00    -0.237 OA
ATOM     74  O   UNL     1      20.341  -2.596   2.340  1.00  0.00    -0.237 OA
ATOM     75  O   UNL     1      19.886  -4.979   2.783  1.00  0.00    -0.744 OA
ENDBRANCH  71  72
ENDBRANCH  50  64
BRANCH  51  76
ATOM     76  C   UNL     1       8.378  -0.098  11.051  1.00  0.00     0.058 A 
ATOM     77  C   UNL     1       8.283   1.119  11.742  1.00  0.00     0.135 A 
ATOM     78  C   UNL     1       7.367  -1.048  11.259  1.00  0.00     0.135 A 
ATOM     79  F   UNL     1       9.227   2.059  11.578  1.00  0.00    -0.206 F 
ATOM     80  C   UNL     1       7.243   1.375  12.630  1.00  0.00     0.059 A 
ATOM     81  C   UNL     1       6.302  -0.806  12.122  1.00  0.00     0.059 A 
ATOM     82  F   UNL     1       7.399  -2.219  10.604  1.00  0.00    -0.206 F 
ATOM     83  C   UNL     1       6.258   0.403  12.815  1.00  0.00     0.060 A 
BRANCH  83  84
ATOM     84  S   UNL     1       4.894   0.753  13.947  1.00  0.00     0.124 S 
ATOM     85  O   UNL     1       5.537   0.576  15.243  1.00  0.00    -0.237 OA
ATOM     86  O   UNL     1       4.541   2.124  13.590  1.00  0.00    -0.237 OA
ATOM     87  O   UNL     1       3.899  -0.254  13.591  1.00  0.00    -0.744 OA
ENDBRANCH  83  84
ENDBRANCH  51  76
BRANCH  63  88
ATOM     88  C   UNL     1      15.197  -1.140  12.038  1.00  0.00     0.058 A 
ATOM     89  C   UNL     1      15.128  -2.120  13.041  1.00  0.00     0.135 A 
ATOM     90  C   UNL     1      16.120  -0.095  12.202  1.00  0.00     0.135 A 
ATOM     91  F   UNL     1      14.260  -3.138  12.932  1.00  0.00    -0.206 F 
ATOM     92  C   UNL     1      15.915  -2.042  14.185  1.00  0.00     0.059 A 
ATOM     93  C   UNL     1      16.937  -0.013  13.325  1.00  0.00     0.059 A 
ATOM     94  F   UNL     1      16.236   0.859  11.265  1.00  0.00    -0.206 F 
ATOM     95  C   UNL     1      16.812  -0.981  14.321  1.00  0.00     0.060 A 
BRANCH  95  96
ATOM     96  S   UNL     1      17.826  -0.885  15.811  1.00  0.00     0.124 S 
ATOM     97  O   UNL     1      16.866  -0.379  16.786  1.00  0.00    -0.237 OA
ATOM     98  O   UNL     1      18.247  -2.271  15.995  1.00  0.00    -0.237 OA
ATOM     99  O   UNL     1      18.891   0.041  15.436  1.00  0.00    -0.744 OA
ENDBRANCH  95  96
ENDBRANCH  63  88
ENDBRANCH  37  38
ENDBRANCH  29  32
ENDBRANCH  27  28
ENDBRANCH   1  27
TORSDOF 17
