REMARK SMILES CCCCCCNC(=O)Oc1cccc(-c2ccc([C@@H](C)C(=O)NCCCNC(=O)c3ccc(-c4c5nc(c(-c6c(F)cc(S(=O)(=O)[O-])cc6F)c6ccc([nH]6)c(-c6c(F)cc(S(=O)(=O)[O-])cc6F)c6nc(c(-c7c(F)cc(S(=O)(=O)[O-])cc7F)c7ccc4[nH]7)C=C6)C=C5)cc3)cc2N)c1
REMARK SMILES IDX 20 1 21 2 19 3 16 4 17 5 98 6 18 7 97 8 15 9 11 10 12 11
REMARK SMILES IDX 100 12 13 13 14 14 10 15 8 16 7 17 9 19 6 20 5 21 4 22 3 23
REMARK SMILES IDX 2 24 1 25 99 26 22 29 23 30 24 31 25 33 26 34 27 35 28 36
REMARK SMILES IDX 29 37 30 39 31 40 32 41 96 42 33 43 95 44 34 45 35 46 36 47
REMARK SMILES IDX 89 48 37 49 94 50 88 51 90 52 38 53 93 54 87 55 86 56 39 58
REMARK SMILES IDX 73 59 52 60 72 61 53 62 56 63 71 64 91 65 54 66 55 67 70 69
REMARK SMILES IDX 92 70 57 71 40 72 41 73 50 74 42 75 43 76 49 77 51 78 44 79
REMARK SMILES IDX 45 80 46 81 47 82 48 83 74 84 75 85 84 86 76 87 77 88 83 89
REMARK SMILES IDX 85 90 78 91 79 92 80 93 81 94 82 95 58 96 59 97 68 98 60 99
REMARK SMILES IDX 61 100 67 101 69 102 62 103 63 104 64 105 65 106 66 107
REMARK H PARENT 7 18 99 27 99 28 24 32 28 38 90 57 56 68
REMARK Flexibility Score: inf
ROOT
ATOM      1  C   UNL     1      -4.666  11.082  -7.676  1.00  0.00     0.105 C 
ATOM      2  C   UNL     1      -5.815  11.908  -8.251  1.00  0.00     0.023 C 
ENDROOT
BRANCH   1   3
ATOM      3  C   UNL     1      -4.983  10.327  -6.395  1.00  0.00    -0.034 A 
ATOM      4  C   UNL     1      -5.298   8.884  -3.954  1.00  0.00     0.005 A 
ATOM      5  C   UNL     1      -5.653  10.240  -4.066  1.00  0.00     0.011 A 
ATOM      6  C   UNL     1      -4.901   8.214  -5.134  1.00  0.00     0.040 A 
ATOM      7  C   UNL     1      -5.549  10.932  -5.276  1.00  0.00     0.005 A 
ATOM      8  C   UNL     1      -4.673   8.960  -6.305  1.00  0.00     0.030 A 
BRANCH   4   9
ATOM      9  C   UNL     1      -5.348   8.233  -2.621  1.00  0.00    -0.013 A 
ATOM     10  C   UNL     1      -4.347   6.817  -0.912  1.00  0.00     0.133 A 
ATOM     11  C   UNL     1      -5.446   6.992  -0.078  1.00  0.00     0.047 A 
ATOM     12  C   UNL     1      -4.285   7.436  -2.162  1.00  0.00     0.056 A 
ATOM     13  C   UNL     1      -6.492   7.807  -0.497  1.00  0.00     0.004 A 
ATOM     14  C   UNL     1      -6.448   8.411  -1.759  1.00  0.00     0.009 A 
BRANCH  10  15
ATOM     15  O   UNL     1      -3.387   5.875  -0.507  1.00  0.00    -0.410 OA
BRANCH  15  16
ATOM     16  C   UNL     1      -2.040   6.196  -0.585  1.00  0.00     0.412 C 
ATOM     17  N   UNL     1      -1.224   5.134  -0.298  1.00  0.00    -0.321 N 
ATOM     18  H   UNL     1      -0.256   5.311  -0.294  1.00  0.00     0.167 HD
ATOM     19  O   UNL     1      -1.572   7.288  -0.876  1.00  0.00    -0.224 OA
BRANCH  17  20
ATOM     20  C   UNL     1      -1.637   3.778  -0.001  1.00  0.00     0.119 C 
BRANCH  20  21
ATOM     21  C   UNL     1      -1.049   2.775  -0.995  1.00  0.00     0.021 C 
BRANCH  21  22
ATOM     22  C   UNL     1       0.480   2.662  -0.967  1.00  0.00     0.002 C 
BRANCH  22  23
ATOM     23  C   UNL     1       1.085   2.256   0.381  1.00  0.00    -0.000 C 
BRANCH  23  24
ATOM     24  C   UNL     1       0.604   0.913   0.937  1.00  0.00    -0.003 C 
ATOM     25  C   UNL     1       0.973  -0.270   0.055  1.00  0.00     0.004 C 
ENDBRANCH  23  24
ENDBRANCH  22  23
ENDBRANCH  21  22
ENDBRANCH  20  21
ENDBRANCH  17  20
ENDBRANCH  15  16
ENDBRANCH  10  15
ENDBRANCH   4   9
BRANCH   6  26
ATOM     26  N   UNL     1      -4.608   6.849  -5.159  1.00  0.00    -0.398 N 
ATOM     27  H   UNL     1      -4.755   6.299  -4.356  1.00  0.00     0.156 HD
ATOM     28  H   UNL     1      -4.253   6.437  -5.980  1.00  0.00     0.156 HD
ENDBRANCH   6  26
ENDBRANCH   1   3
BRANCH   1  29
ATOM     29  C   UNL     1      -3.307  11.800  -7.659  1.00  0.00     0.227 C 
ATOM     30  O   UNL     1      -2.353  11.322  -8.288  1.00  0.00    -0.274 OA
ATOM     31  N   UNL     1      -3.067  12.971  -7.009  1.00  0.00    -0.356 N 
ATOM     32  H   UNL     1      -2.157  13.322  -7.138  1.00  0.00     0.163 HD
BRANCH  31  33
ATOM     33  C   UNL     1      -3.902  13.798  -6.160  1.00  0.00     0.117 C 
BRANCH  33  34
ATOM     34  C   UNL     1      -3.629  13.573  -4.675  1.00  0.00     0.042 C 
BRANCH  34  35
ATOM     35  C   UNL     1      -2.429  14.341  -4.139  1.00  0.00     0.118 C 
BRANCH  35  36
ATOM     36  N   UNL     1      -2.656  15.780  -4.137  1.00  0.00    -0.352 N 
ATOM     37  C   UNL     1      -2.700  16.680  -3.103  1.00  0.00     0.251 C 
ATOM     38  H   UNL     1      -2.803  16.172  -5.028  1.00  0.00     0.163 HD
ATOM     39  O   UNL     1      -3.139  17.807  -3.326  1.00  0.00    -0.269 OA
BRANCH  37  40
ATOM     40  C   UNL     1      -2.239  16.325  -1.740  1.00  0.00     0.039 A 
ATOM     41  C   UNL     1      -2.881  16.912  -0.644  1.00  0.00     0.014 A 
ATOM     42  C   UNL     1      -1.143  15.485  -1.524  1.00  0.00     0.014 A 
ATOM     43  C   UNL     1      -2.451  16.628   0.655  1.00  0.00     0.010 A 
ATOM     44  C   UNL     1      -0.773  15.131  -0.228  1.00  0.00     0.010 A 
ATOM     45  C   UNL     1      -1.408  15.715   0.877  1.00  0.00    -0.014 A 
BRANCH  45  46
ATOM     46  C   UNL     1      -0.958  15.385   2.255  1.00  0.00     0.031 A 
ATOM     47  C   UNL     1       0.443  15.721   2.698  1.00  0.00     0.074 A 
ATOM     48  C   UNL     1      -1.798  14.748   3.093  1.00  0.00     0.049 A 
ATOM     49  N   UNL     1       1.023  15.489   3.848  1.00  0.00    -0.248 NA
ATOM     50  C   UNL     1       1.315  16.381   1.713  1.00  0.00     0.031 C 
ATOM     51  C   UNL     1      -3.159  14.319   2.761  1.00  0.00     0.029 A 
ATOM     52  N   UNL     1      -1.634  14.344   4.394  1.00  0.00    -0.354 N 
ATOM     53  C   UNL     1       2.326  15.958   3.719  1.00  0.00     0.074 A 
ATOM     54  C   UNL     1       2.468  16.439   2.362  1.00  0.00     0.031 C 
ATOM     55  C   UNL     1      -3.713  13.738   3.837  1.00  0.00     0.029 A 
ATOM     56  C   UNL     1      -2.739  13.720   4.923  1.00  0.00     0.049 A 
ATOM     57  H   UNL     1      -0.802  14.487   4.901  1.00  0.00     0.167 HD
ATOM     58  C   UNL     1       3.307  16.008   4.652  1.00  0.00     0.037 A 
ATOM     59  C   UNL     1      -2.944  13.189   6.144  1.00  0.00     0.037 A 
ATOM     60  C   UNL     1       3.148  15.552   6.009  1.00  0.00     0.049 A 
ATOM     61  C   UNL     1      -1.846  13.270   7.169  1.00  0.00     0.074 A 
ATOM     62  C   UNL     1       4.058  15.613   7.050  1.00  0.00     0.029 A 
ATOM     63  N   UNL     1       2.005  14.948   6.514  1.00  0.00    -0.354 N 
ATOM     64  N   UNL     1      -0.643  13.781   7.050  1.00  0.00    -0.248 NA
ATOM     65  C   UNL     1      -2.134  12.713   8.497  1.00  0.00     0.031 C 
ATOM     66  C   UNL     1       3.482  15.007   8.172  1.00  0.00     0.029 A 
ATOM     67  C   UNL     1       2.193  14.615   7.845  1.00  0.00     0.049 A 
ATOM     68  H   UNL     1       1.182  14.780   6.001  1.00  0.00     0.167 HD
ATOM     69  C   UNL     1      -0.041  13.630   8.294  1.00  0.00     0.074 A 
ATOM     70  C   UNL     1      -1.018  12.994   9.155  1.00  0.00     0.031 C 
ATOM     71  C   UNL     1       1.208  13.985   8.689  1.00  0.00     0.037 A 
BRANCH  58  72
ATOM     72  C   UNL     1       4.637  16.581   4.241  1.00  0.00     0.058 A 
ATOM     73  C   UNL     1       4.798  17.949   3.964  1.00  0.00     0.135 A 
ATOM     74  C   UNL     1       5.775  15.761   4.158  1.00  0.00     0.135 A 
ATOM     75  F   UNL     1       3.743  18.777   4.013  1.00  0.00    -0.206 F 
ATOM     76  C   UNL     1       6.030  18.477   3.591  1.00  0.00     0.059 A 
ATOM     77  C   UNL     1       7.024  16.274   3.815  1.00  0.00     0.059 A 
ATOM     78  F   UNL     1       5.681  14.447   4.413  1.00  0.00    -0.206 F 
ATOM     79  C   UNL     1       7.138  17.631   3.519  1.00  0.00     0.060 A 
BRANCH  79  80
ATOM     80  S   UNL     1       8.730  18.335   3.042  1.00  0.00     0.124 S 
ATOM     81  O   UNL     1       8.527  18.577   1.617  1.00  0.00    -0.237 OA
ATOM     82  O   UNL     1       8.809  19.527   3.881  1.00  0.00    -0.237 OA
ATOM     83  O   UNL     1       9.682  17.279   3.369  1.00  0.00    -0.744 OA
ENDBRANCH  79  80
ENDBRANCH  58  72
BRANCH  59  84
ATOM     84  C   UNL     1      -4.252  12.560   6.470  1.00  0.00     0.058 A 
ATOM     85  C   UNL     1      -5.145  13.169   7.365  1.00  0.00     0.135 A 
ATOM     86  C   UNL     1      -4.645  11.348   5.880  1.00  0.00     0.135 A 
ATOM     87  F   UNL     1      -4.814  14.325   7.959  1.00  0.00    -0.206 F 
ATOM     88  C   UNL     1      -6.372  12.592   7.678  1.00  0.00     0.059 A 
ATOM     89  C   UNL     1      -5.878  10.766   6.156  1.00  0.00     0.059 A 
ATOM     90  F   UNL     1      -3.835  10.733   5.004  1.00  0.00    -0.206 F 
ATOM     91  C   UNL     1      -6.731  11.390   7.065  1.00  0.00     0.060 A 
BRANCH  91  92
ATOM     92  S   UNL     1      -8.346  10.674   7.440  1.00  0.00     0.124 S 
ATOM     93  O   UNL     1      -8.137  10.167   8.791  1.00  0.00    -0.237 OA
ATOM     94  O   UNL     1      -9.230  11.829   7.320  1.00  0.00    -0.237 OA
ATOM     95  O   UNL     1      -8.511   9.659   6.403  1.00  0.00    -0.744 OA
ENDBRANCH  91  92
ENDBRANCH  59  84
BRANCH  71  96
ATOM     96  C   UNL     1       1.577  13.723  10.123  1.00  0.00     0.058 A 
ATOM     97  C   UNL     1       1.808  12.425  10.602  1.00  0.00     0.135 A 
ATOM     98  C   UNL     1       1.738  14.792  11.020  1.00  0.00     0.135 A 
ATOM     99  F   UNL     1       1.662  11.368   9.788  1.00  0.00    -0.206 F 
ATOM    100  C   UNL     1       2.155  12.191  11.929  1.00  0.00     0.059 A 
ATOM    101  C   UNL     1       2.113  14.584  12.344  1.00  0.00     0.059 A 
ATOM    102  F   UNL     1       1.542  16.055  10.611  1.00  0.00    -0.206 F 
ATOM    103  C   UNL     1       2.304  13.278  12.793  1.00  0.00     0.060 A 
BRANCH 103 104
ATOM    104  S   UNL     1       2.772  12.964  14.507  1.00  0.00     0.124 S 
ATOM    105  O   UNL     1       1.527  12.443  15.061  1.00  0.00    -0.237 OA
ATOM    106  O   UNL     1       3.856  11.996  14.364  1.00  0.00    -0.237 OA
ATOM    107  O   UNL     1       3.176  14.279  14.996  1.00  0.00    -0.744 OA
ENDBRANCH 103 104
ENDBRANCH  71  96
ENDBRANCH  45  46
ENDBRANCH  37  40
ENDBRANCH  35  36
ENDBRANCH  34  35
ENDBRANCH  33  34
ENDBRANCH  31  33
ENDBRANCH   1  29
TORSDOF 23
