REMARK SMILES Cc1ccccc1CN1C(=O)[C@H](CC(=O)NCCCNC(=O)c2ccc(-c3c4nc(c(-c5c(F)cc(S(=O)(=O)[O-])cc5F)c5ccc([nH]5)c(-c5c(F)cc(S(=O)(=O)[O-])cc5F)c5nc(c(-c6c(F)cc(S(=O)(=O)[O-])cc6F)c6ccc3[nH]6)C=C5)C=C4)cc2)n2c(nc3ccccc32)[C@H]1C
REMARK SMILES IDX 18 1 17 2 16 3 14 4 15 5 13 7 12 8 9 9 10 10 98 11 11 12
REMARK SMILES IDX 90 13 99 14 89 15 91 16 97 17 92 18 96 19 93 20 95 21 94 22
REMARK SMILES IDX 8 23 7 24 1 25 2 26 3 27 4 28 6 29 5 30 19 31 20 32 21 33
REMARK SMILES IDX 22 35 23 36 24 37 88 38 25 39 87 40 26 41 27 42 28 43 81 44
REMARK SMILES IDX 29 45 86 46 80 47 82 48 30 49 85 50 79 51 78 52 31 54 65 55
REMARK SMILES IDX 44 56 64 57 45 58 48 59 63 60 83 61 46 62 47 63 62 65 84 66
REMARK SMILES IDX 49 67 32 68 33 69 42 70 34 71 35 72 41 73 43 74 36 75 37 76
REMARK SMILES IDX 38 77 39 78 40 79 66 80 67 81 76 82 68 83 69 84 75 85 77 86
REMARK SMILES IDX 70 87 71 88 72 89 73 90 74 91 50 92 51 93 60 94 52 95 53 96
REMARK SMILES IDX 59 97 61 98 54 99 55 100 56 101 57 102 58 103
REMARK H PARENT 16 6 20 34 82 53 48 64
REMARK Flexibility Score: inf
ROOT
ATOM      1  C   UNL     1       4.276   4.536  -1.157  1.00  0.00     0.042 C 
ENDROOT
BRANCH   1   2
ATOM      2  C   UNL     1       4.258   5.078  -2.596  1.00  0.00     0.117 C 
BRANCH   2   3
ATOM      3  N   UNL     1       4.163   4.008  -3.581  1.00  0.00    -0.356 N 
ATOM      4  C   UNL     1       3.181   3.616  -4.431  1.00  0.00     0.222 C 
ATOM      5  O   UNL     1       3.353   2.699  -5.237  1.00  0.00    -0.275 OA
ATOM      6  H   UNL     1       4.978   3.458  -3.642  1.00  0.00     0.163 HD
BRANCH   4   7
ATOM      7  C   UNL     1       1.805   4.202  -4.339  1.00  0.00     0.135 C 
BRANCH   7   8
ATOM      8  C   UNL     1       0.973   3.197  -3.537  1.00  0.00     0.187 C 
ATOM      9  N   UNL     1      -0.011   2.963  -1.319  1.00  0.00    -0.327 N 
ATOM     10  C   UNL     1       0.976   3.597  -2.061  1.00  0.00     0.247 C 
ATOM     11  C   UNL     1      -1.296   3.566  -1.685  1.00  0.00     0.149 C 
ATOM     12  O   UNL     1       1.605   4.522  -1.565  1.00  0.00    -0.272 OA
ATOM     13  C   UNL     1      -1.498   3.295  -3.158  1.00  0.00     0.133 A 
ATOM     14  C   UNL     1      -2.527   3.210  -0.876  1.00  0.00     0.040 C 
ATOM     15  N   UNL     1      -0.413   3.098  -3.991  1.00  0.00    -0.313 N 
ATOM     16  N   UNL     1      -2.626   3.237  -3.834  1.00  0.00    -0.231 NA
ATOM     17  C   UNL     1      -0.884   2.702  -5.216  1.00  0.00     0.069 A 
ATOM     18  C   UNL     1      -2.265   2.855  -5.104  1.00  0.00     0.089 A 
ATOM     19  C   UNL     1      -0.268   2.247  -6.388  1.00  0.00     0.028 A 
ATOM     20  C   UNL     1      -3.080   2.604  -6.217  1.00  0.00     0.030 A 
ATOM     21  C   UNL     1      -1.101   1.988  -7.484  1.00  0.00     0.002 A 
ATOM     22  C   UNL     1      -2.483   2.175  -7.407  1.00  0.00     0.002 A 
BRANCH   9  23
ATOM     23  C   UNL     1       0.342   2.527   0.038  1.00  0.00     0.156 C 
BRANCH  23  24
ATOM     24  C   UNL     1       0.037   1.051   0.239  1.00  0.00    -0.026 A 
ATOM     25  C   UNL     1       2.397   0.164  -0.354  1.00  0.00     0.044 C 
ATOM     26  C   UNL     1       0.923  -0.001  -0.081  1.00  0.00    -0.046 A 
ATOM     27  C   UNL     1       0.440  -1.327  -0.084  1.00  0.00     0.004 A 
ATOM     28  C   UNL     1      -0.881  -1.620   0.247  1.00  0.00     0.000 A 
ATOM     29  C   UNL     1      -1.252   0.711   0.687  1.00  0.00     0.006 A 
ATOM     30  C   UNL     1      -1.721  -0.601   0.662  1.00  0.00     0.000 A 
ENDBRANCH  23  24
ENDBRANCH   9  23
ENDBRANCH   7   8
ENDBRANCH   4   7
ENDBRANCH   2   3
ENDBRANCH   1   2
BRANCH   1  31
ATOM     31  C   UNL     1       5.641   4.606  -0.476  1.00  0.00     0.118 C 
BRANCH  31  32
ATOM     32  N   UNL     1       5.861   5.922   0.114  1.00  0.00    -0.352 N 
ATOM     33  C   UNL     1       6.901   6.474   0.814  1.00  0.00     0.251 C 
ATOM     34  H   UNL     1       5.106   6.540  -0.019  1.00  0.00     0.163 HD
ATOM     35  O   UNL     1       6.592   7.395   1.580  1.00  0.00    -0.269 OA
BRANCH  33  36
ATOM     36  C   UNL     1       8.346   6.096   0.693  1.00  0.00     0.039 A 
ATOM     37  C   UNL     1       9.243   6.771   1.543  1.00  0.00     0.014 A 
ATOM     38  C   UNL     1       8.895   5.196  -0.219  1.00  0.00     0.014 A 
ATOM     39  C   UNL     1      10.628   6.530   1.500  1.00  0.00     0.010 A 
ATOM     40  C   UNL     1      10.288   4.959  -0.266  1.00  0.00     0.010 A 
ATOM     41  C   UNL     1      11.174   5.596   0.606  1.00  0.00    -0.014 A 
BRANCH  41  42
ATOM     42  C   UNL     1      12.539   5.064   0.916  1.00  0.00     0.031 A 
ATOM     43  C   UNL     1      12.354   3.734   1.659  1.00  0.00     0.074 A 
ATOM     44  C   UNL     1      13.701   5.063   0.180  1.00  0.00     0.049 A 
ATOM     45  N   UNL     1      11.970   2.671   1.022  1.00  0.00    -0.248 NA
ATOM     46  C   UNL     1      12.337   3.515   3.111  1.00  0.00     0.031 C 
ATOM     47  C   UNL     1      15.008   5.056   0.854  1.00  0.00     0.029 A 
ATOM     48  N   UNL     1      14.068   5.104  -1.187  1.00  0.00    -0.354 N 
ATOM     49  C   UNL     1      12.035   1.584   1.890  1.00  0.00     0.074 A 
ATOM     50  C   UNL     1      12.086   2.188   3.204  1.00  0.00     0.031 C 
ATOM     51  C   UNL     1      16.009   4.948  -0.046  1.00  0.00     0.029 A 
ATOM     52  C   UNL     1      15.454   4.772  -1.387  1.00  0.00     0.049 A 
ATOM     53  H   UNL     1      13.447   5.334  -1.916  1.00  0.00     0.167 HD
ATOM     54  C   UNL     1      12.320   0.335   1.378  1.00  0.00     0.037 A 
ATOM     55  C   UNL     1      16.133   4.128  -2.411  1.00  0.00     0.037 A 
ATOM     56  C   UNL     1      12.869   0.547   0.070  1.00  0.00     0.049 A 
ATOM     57  C   UNL     1      15.245   3.633  -3.528  1.00  0.00     0.074 A 
ATOM     58  C   UNL     1      14.103   1.119  -0.069  1.00  0.00     0.029 A 
ATOM     59  N   UNL     1      12.230   0.510  -1.158  1.00  0.00    -0.354 N 
ATOM     60  N   UNL     1      14.891   2.384  -3.614  1.00  0.00    -0.248 NA
ATOM     61  C   UNL     1      14.508   4.471  -4.477  1.00  0.00     0.031 C 
ATOM     62  C   UNL     1      13.931   1.837  -1.215  1.00  0.00     0.029 A 
ATOM     63  C   UNL     1      12.929   1.351  -2.022  1.00  0.00     0.049 A 
ATOM     64  H   UNL     1      11.427  -0.014  -1.380  1.00  0.00     0.167 HD
ATOM     65  C   UNL     1      13.584   2.423  -4.048  1.00  0.00     0.074 A 
ATOM     66  C   UNL     1      13.524   3.632  -4.854  1.00  0.00     0.031 C 
ATOM     67  C   UNL     1      12.555   1.809  -3.361  1.00  0.00     0.037 A 
BRANCH  54  68
ATOM     68  C   UNL     1      12.685  -0.994   1.996  1.00  0.00     0.058 A 
ATOM     69  C   UNL     1      13.660  -1.820   1.349  1.00  0.00     0.135 A 
ATOM     70  C   UNL     1      12.030  -1.580   3.078  1.00  0.00     0.135 A 
ATOM     71  F   UNL     1      14.413  -1.393   0.326  1.00  0.00    -0.206 F 
ATOM     72  C   UNL     1      13.904  -3.136   1.685  1.00  0.00     0.059 A 
ATOM     73  C   UNL     1      12.271  -2.919   3.444  1.00  0.00     0.059 A 
ATOM     74  F   UNL     1      11.115  -0.886   3.773  1.00  0.00    -0.206 F 
ATOM     75  C   UNL     1      13.181  -3.694   2.716  1.00  0.00     0.060 A 
BRANCH  75  76
ATOM     76  S   UNL     1      13.443  -5.449   3.019  1.00  0.00     0.124 S 
ATOM     77  O   UNL     1      12.942  -6.046   1.784  1.00  0.00    -0.237 OA
ATOM     78  O   UNL     1      14.887  -5.521   3.217  1.00  0.00    -0.237 OA
ATOM     79  O   UNL     1      12.638  -5.706   4.209  1.00  0.00    -0.744 OA
ENDBRANCH  75  76
ENDBRANCH  54  68
BRANCH  55  80
ATOM     80  C   UNL     1      17.407   3.299  -2.167  1.00  0.00     0.058 A 
ATOM     81  C   UNL     1      18.701   3.800  -2.337  1.00  0.00     0.135 A 
ATOM     82  C   UNL     1      17.365   1.920  -1.832  1.00  0.00     0.135 A 
ATOM     83  F   UNL     1      18.877   5.082  -2.692  1.00  0.00    -0.206 F 
ATOM     84  C   UNL     1      19.851   2.991  -2.177  1.00  0.00     0.059 A 
ATOM     85  C   UNL     1      18.476   1.104  -1.645  1.00  0.00     0.059 A 
ATOM     86  F   UNL     1      16.226   1.256  -1.706  1.00  0.00    -0.206 F 
ATOM     87  C   UNL     1      19.727   1.642  -1.826  1.00  0.00     0.060 A 
BRANCH  87  88
ATOM     88  S   UNL     1      21.180   0.586  -1.634  1.00  0.00     0.124 S 
ATOM     89  O   UNL     1      21.787   0.662  -2.959  1.00  0.00    -0.237 OA
ATOM     90  O   UNL     1      21.904   1.268  -0.566  1.00  0.00    -0.237 OA
ATOM     91  O   UNL     1      20.628  -0.717  -1.277  1.00  0.00    -0.744 OA
ENDBRANCH  87  88
ENDBRANCH  55  80
BRANCH  67  92
ATOM     92  C   UNL     1      11.142   1.937  -3.820  1.00  0.00     0.058 A 
ATOM     93  C   UNL     1      10.796   1.861  -5.181  1.00  0.00     0.135 A 
ATOM     94  C   UNL     1      10.083   2.088  -2.910  1.00  0.00     0.135 A 
ATOM     95  F   UNL     1      11.735   1.663  -6.119  1.00  0.00    -0.206 F 
ATOM     96  C   UNL     1       9.482   1.985  -5.614  1.00  0.00     0.059 A 
ATOM     97  C   UNL     1       8.766   2.193  -3.312  1.00  0.00     0.059 A 
ATOM     98  F   UNL     1      10.285   2.124  -1.588  1.00  0.00    -0.206 F 
ATOM     99  C   UNL     1       8.478   2.149  -4.668  1.00  0.00     0.060 A 
BRANCH  99 100
ATOM    100  S   UNL     1       6.774   2.255  -5.197  1.00  0.00     0.124 S 
ATOM    101  O   UNL     1       6.762   3.559  -5.855  1.00  0.00    -0.237 OA
ATOM    102  O   UNL     1       6.657   1.083  -6.072  1.00  0.00    -0.237 OA
ATOM    103  O   UNL     1       6.059   2.193  -3.938  1.00  0.00    -0.744 OA
ENDBRANCH  99 100
ENDBRANCH  67  92
ENDBRANCH  41  42
ENDBRANCH  33  36
ENDBRANCH  31  32
ENDBRANCH   1  31
TORSDOF 16
