REMARK SMILES CCN1C(=O)/C(=C2/SC(=S)N([C@@H](C)C(=O)NCCCNC(=O)c3ccc(-c4c5nc(c(-c6c(F)cc(S(=O)(=O)[O-])cc6F)c6ccc([nH]6)c(-c6c(F)cc(S(=O)(=O)[O-])cc6F)c6nc(c(-c7c(F)cc(S(=O)(=O)[O-])cc7F)c7ccc4[nH]7)C=C6)C=C5)cc3)C2=O)c2cc(Br)ccc21
REMARK SMILES IDX 18 1 17 2 16 3 14 4 15 5 12 7 13 8 11 9 3 10 4 11 97 12 5 13
REMARK SMILES IDX 6 14 91 15 96 16 7 17 92 18 95 19 8 20 89 21 93 22 9 23
REMARK SMILES IDX 90 24 94 25 10 26 2 27 1 28 19 29 20 30 21 31 22 33 23 34
REMARK SMILES IDX 24 35 88 36 25 37 87 38 26 39 27 40 28 41 81 42 29 43 86 44
REMARK SMILES IDX 80 45 82 46 30 47 85 48 79 49 78 50 31 52 65 53 44 54 64 55
REMARK SMILES IDX 45 56 48 57 63 58 83 59 46 60 47 61 62 63 84 64 49 65 32 66
REMARK SMILES IDX 33 67 42 68 34 69 35 70 41 71 43 72 36 73 37 74 38 75 39 76
REMARK SMILES IDX 40 77 66 78 67 79 76 80 68 81 69 82 75 83 77 84 70 85 71 86
REMARK SMILES IDX 72 87 73 88 74 89 50 90 51 91 60 92 52 93 53 94 59 95 61 96
REMARK SMILES IDX 54 97 55 98 56 99 57 100 58 101
REMARK H PARENT 16 6 20 32 82 51 48 62
REMARK Flexibility Score: inf
ROOT
ATOM      1  C   UNL     1       4.590   9.881  -1.618  1.00  0.00     0.042 C 
ENDROOT
BRANCH   1   2
ATOM      2  C   UNL     1       5.636   9.327  -2.583  1.00  0.00     0.117 C 
BRANCH   2   3
ATOM      3  N   UNL     1       6.610   8.484  -1.909  1.00  0.00    -0.354 N 
ATOM      4  C   UNL     1       6.836   7.142  -1.873  1.00  0.00     0.242 C 
ATOM      5  O   UNL     1       7.819   6.797  -1.204  1.00  0.00    -0.273 OA
ATOM      6  H   UNL     1       7.245   8.996  -1.358  1.00  0.00     0.163 HD
BRANCH   4   7
ATOM      7  C   UNL     1       5.992   6.065  -2.609  1.00  0.00     0.178 C 
ATOM      8  C   UNL     1       6.097   6.179  -4.125  1.00  0.00     0.042 C 
BRANCH   7   9
ATOM      9  N   UNL     1       4.650   5.912  -2.011  1.00  0.00    -0.280 N 
ATOM     10  N   UNL     1       1.270   2.472   0.981  1.00  0.00    -0.308 N 
ATOM     11  C   UNL     1       2.534   2.933   0.554  1.00  0.00     0.260 C 
ATOM     12  C   UNL     1       0.402   3.547   1.260  1.00  0.00     0.052 A 
ATOM     13  O   UNL     1       3.495   2.272   0.239  1.00  0.00    -0.269 OA
ATOM     14  C   UNL     1       2.380   4.434   0.453  1.00  0.00     0.069 C 
ATOM     15  C   UNL     1       1.058   4.753   1.018  1.00  0.00     0.014 A 
ATOM     16  C   UNL     1      -0.912   3.529   1.710  1.00  0.00     0.028 A 
ATOM     17  C   UNL     1       3.154   5.259  -0.274  1.00  0.00     0.093 C 
ATOM     18  C   UNL     1       0.447   5.959   1.316  1.00  0.00     0.026 A 
ATOM     19  C   UNL     1      -1.571   4.751   1.899  1.00  0.00     0.018 A 
ATOM     20  S   UNL     1       2.566   6.777  -0.889  1.00  0.00    -0.053 SA
ATOM     21  C   UNL     1       4.500   5.057  -0.907  1.00  0.00     0.267 C 
ATOM     22  C   UNL     1      -0.886   5.952   1.698  1.00  0.00     0.018 A 
ATOM     23  C   UNL     1       3.514   6.604  -2.337  1.00  0.00     0.149 C 
ATOM     24  O   UNL     1       5.356   4.306  -0.469  1.00  0.00    -0.268 OA
ATOM     25  Br  UNL     1      -1.757   7.612   1.837  1.00  0.00    -0.051 Br
ATOM     26  S   UNL     1       2.939   7.130  -3.807  1.00  0.00    -0.052 S 
BRANCH  10  27
ATOM     27  C   UNL     1       0.922   1.079   1.195  1.00  0.00     0.122 C 
ATOM     28  C   UNL     1       1.173   0.188  -0.013  1.00  0.00     0.028 C 
ENDBRANCH  10  27
ENDBRANCH   7   9
ENDBRANCH   4   7
ENDBRANCH   2   3
ENDBRANCH   1   2
BRANCH   1  29
ATOM     29  C   UNL     1       5.023  11.155  -0.899  1.00  0.00     0.118 C 
BRANCH  29  30
ATOM     30  N   UNL     1       4.870  12.348  -1.723  1.00  0.00    -0.352 N 
ATOM     31  C   UNL     1       4.009  13.418  -1.619  1.00  0.00     0.251 C 
ATOM     32  H   UNL     1       5.489  12.396  -2.487  1.00  0.00     0.163 HD
ATOM     33  O   UNL     1       3.961  14.226  -2.545  1.00  0.00    -0.269 OA
BRANCH  31  34
ATOM     34  C   UNL     1       3.128  13.605  -0.438  1.00  0.00     0.039 A 
ATOM     35  C   UNL     1       3.564  13.325   0.856  1.00  0.00     0.014 A 
ATOM     36  C   UNL     1       1.840  14.124  -0.625  1.00  0.00     0.014 A 
ATOM     37  C   UNL     1       2.672  13.392   1.926  1.00  0.00     0.010 A 
ATOM     38  C   UNL     1       0.974  14.283   0.466  1.00  0.00     0.010 A 
ATOM     39  C   UNL     1       1.365  13.876   1.750  1.00  0.00    -0.014 A 
BRANCH  39  40
ATOM     40  C   UNL     1       0.442  13.955   2.919  1.00  0.00     0.031 A 
ATOM     41  C   UNL     1      -0.836  13.153   2.957  1.00  0.00     0.074 A 
ATOM     42  C   UNL     1       0.785  14.705   3.987  1.00  0.00     0.049 A 
ATOM     43  N   UNL     1      -1.751  13.105   3.894  1.00  0.00    -0.248 NA
ATOM     44  C   UNL     1      -1.130  12.296   1.796  1.00  0.00     0.031 C 
ATOM     45  C   UNL     1       1.994  15.526   4.088  1.00  0.00     0.029 A 
ATOM     46  N   UNL     1       0.173  14.872   5.205  1.00  0.00    -0.354 N 
ATOM     47  C   UNL     1      -2.732  12.235   3.431  1.00  0.00     0.074 A 
ATOM     48  C   UNL     1      -2.314  11.792   2.118  1.00  0.00     0.031 C 
ATOM     49  C   UNL     1       2.074  16.044   5.323  1.00  0.00     0.029 A 
ATOM     50  C   UNL     1       0.891  15.652   6.082  1.00  0.00     0.049 A 
ATOM     51  H   UNL     1      -0.698  14.471   5.430  1.00  0.00     0.167 HD
ATOM     52  C   UNL     1      -3.866  11.825   4.050  1.00  0.00     0.037 A 
ATOM     53  C   UNL     1       0.631  16.017   7.353  1.00  0.00     0.037 A 
ATOM     54  C   UNL     1      -4.259  12.209   5.377  1.00  0.00     0.049 A 
ATOM     55  C   UNL     1      -0.639  15.556   8.008  1.00  0.00     0.074 A 
ATOM     56  C   UNL     1      -5.386  11.825   6.082  1.00  0.00     0.029 A 
ATOM     57  N   UNL     1      -3.524  13.037   6.209  1.00  0.00    -0.354 N 
ATOM     58  N   UNL     1      -1.567  14.761   7.533  1.00  0.00    -0.248 NA
ATOM     59  C   UNL     1      -0.907  16.054   9.364  1.00  0.00     0.031 C 
ATOM     60  C   UNL     1      -5.340  12.433   7.341  1.00  0.00     0.029 A 
ATOM     61  C   UNL     1      -4.174  13.178   7.423  1.00  0.00     0.049 A 
ATOM     62  H   UNL     1      -2.668  13.461   5.973  1.00  0.00     0.167 HD
ATOM     63  C   UNL     1      -2.525  14.656   8.535  1.00  0.00     0.074 A 
ATOM     64  C   UNL     1      -2.056  15.454   9.649  1.00  0.00     0.031 C 
ATOM     65  C   UNL     1      -3.692  13.967   8.527  1.00  0.00     0.037 A 
BRANCH  52  66
ATOM     66  C   UNL     1      -4.752  10.868   3.310  1.00  0.00     0.058 A 
ATOM     67  C   UNL     1      -4.469   9.498   3.311  1.00  0.00     0.135 A 
ATOM     68  C   UNL     1      -5.902  11.301   2.634  1.00  0.00     0.135 A 
ATOM     69  F   UNL     1      -3.413   9.036   3.999  1.00  0.00    -0.206 F 
ATOM     70  C   UNL     1      -5.247   8.593   2.596  1.00  0.00     0.059 A 
ATOM     71  C   UNL     1      -6.715  10.409   1.938  1.00  0.00     0.059 A 
ATOM     72  F   UNL     1      -6.244  12.599   2.647  1.00  0.00    -0.206 F 
ATOM     73  C   UNL     1      -6.357   9.061   1.896  1.00  0.00     0.060 A 
BRANCH  73  74
ATOM     74  S   UNL     1      -7.344   7.888   0.941  1.00  0.00     0.124 S 
ATOM     75  O   UNL     1      -6.604   7.846  -0.317  1.00  0.00    -0.237 OA
ATOM     76  O   UNL     1      -7.278   6.675   1.750  1.00  0.00    -0.237 OA
ATOM     77  O   UNL     1      -8.655   8.526   0.880  1.00  0.00    -0.744 OA
ENDBRANCH  73  74
ENDBRANCH  52  66
BRANCH  53  78
ATOM     78  C   UNL     1       1.611  16.856   8.092  1.00  0.00     0.058 A 
ATOM     79  C   UNL     1       2.381  16.312   9.129  1.00  0.00     0.135 A 
ATOM     80  C   UNL     1       1.829  18.199   7.749  1.00  0.00     0.135 A 
ATOM     81  F   UNL     1       2.201  15.035   9.500  1.00  0.00    -0.206 F 
ATOM     82  C   UNL     1       3.339  17.067   9.797  1.00  0.00     0.059 A 
ATOM     83  C   UNL     1       2.797  18.968   8.386  1.00  0.00     0.059 A 
ATOM     84  F   UNL     1       1.123  18.762   6.756  1.00  0.00    -0.206 F 
ATOM     85  C   UNL     1       3.546  18.393   9.412  1.00  0.00     0.060 A 
BRANCH  85  86
ATOM     86  S   UNL     1       4.849  19.338  10.230  1.00  0.00     0.124 S 
ATOM     87  O   UNL     1       4.262  19.570  11.545  1.00  0.00    -0.237 OA
ATOM     88  O   UNL     1       5.973  18.409  10.187  1.00  0.00    -0.237 OA
ATOM     89  O   UNL     1       4.989  20.519   9.383  1.00  0.00    -0.744 OA
ENDBRANCH  85  86
ENDBRANCH  53  78
BRANCH  65  90
ATOM     90  C   UNL     1      -4.545  14.030   9.759  1.00  0.00     0.058 A 
ATOM     91  C   UNL     1      -5.320  15.163  10.049  1.00  0.00     0.135 A 
ATOM     92  C   UNL     1      -4.652  12.921  10.613  1.00  0.00     0.135 A 
ATOM     93  F   UNL     1      -5.248  16.249   9.264  1.00  0.00    -0.206 F 
ATOM     94  C   UNL     1      -6.166  15.198  11.152  1.00  0.00     0.059 A 
ATOM     95  C   UNL     1      -5.507  12.927  11.710  1.00  0.00     0.059 A 
ATOM     96  F   UNL     1      -3.938  11.810  10.370  1.00  0.00    -0.206 F 
ATOM     97  C   UNL     1      -6.256  14.073  11.974  1.00  0.00     0.060 A 
BRANCH  97  98
ATOM     98  S   UNL     1      -7.398  14.116  13.371  1.00  0.00     0.124 S 
ATOM     99  O   UNL     1      -6.702  15.009  14.292  1.00  0.00    -0.237 OA
ATOM    100  O   UNL     1      -8.613  14.652  12.765  1.00  0.00    -0.237 OA
ATOM    101  O   UNL     1      -7.477  12.720  13.790  1.00  0.00    -0.744 OA
ENDBRANCH  97  98
ENDBRANCH  65  90
ENDBRANCH  39  40
ENDBRANCH  31  34
ENDBRANCH  29  30
ENDBRANCH   1  29
TORSDOF 15
