REMARK SMILES C[NH2+]C[C@H](C)C(=O)N[C@H](Cc1ccccc1)C(=O)NCCCNC(=O)c1ccc(-c2c3nc(c(-c4c(F)cc(S(=O)(=O)[O-])cc4F)c4ccc([nH]4)c(-c4c(F)cc(S(=O)(=O)[O-])cc4F)c4nc(c(-c5c(F)cc(S(=O)(=O)[O-])cc5F)c5ccc2[nH]5)C=C4)C=C3)cc1
REMARK SMILES IDX 20 1 19 2 17 3 18 4 9 6 8 7 6 8 7 9 4 11 5 12 3 13 2 14 1 15
REMARK SMILES IDX 10 18 11 19 12 20 16 21 13 22 15 23 14 24 21 25 22 26 23 27
REMARK SMILES IDX 24 28 25 30 26 31 27 32 91 33 28 34 90 35 29 36 30 37 31 38
REMARK SMILES IDX 84 39 32 40 89 41 83 42 85 43 33 44 88 45 82 46 81 47 34 49
REMARK SMILES IDX 68 50 47 51 67 52 48 53 51 54 66 55 86 56 49 57 50 58 65 60
REMARK SMILES IDX 87 61 52 62 35 63 36 64 45 65 37 66 38 67 44 68 46 69 39 70
REMARK SMILES IDX 40 71 41 72 42 73 43 74 69 75 70 76 79 77 71 78 72 79 78 80
REMARK SMILES IDX 80 81 73 82 74 83 75 84 76 85 77 86 53 87 54 88 63 89 55 90
REMARK SMILES IDX 56 91 62 92 64 93 57 94 58 95 59 96 60 97 61 98
REMARK H PARENT 19 5 8 10 2 16 2 17 23 29 85 48 51 59
REMARK Flexibility Score: inf
ROOT
ATOM      1  C   UNL     1      -5.472  -4.282  -2.048  1.00  0.00     0.117 C 
ENDROOT
BRANCH   1   2
ATOM      2  N   UNL     1      -4.263  -4.213  -2.875  1.00  0.00    -0.354 N 
ATOM      3  C   UNL     1      -3.055  -3.584  -2.638  1.00  0.00     0.242 C 
ATOM      4  O   UNL     1      -2.162  -3.694  -3.479  1.00  0.00    -0.273 OA
ATOM      5  H   UNL     1      -4.321  -4.689  -3.734  1.00  0.00     0.163 HD
BRANCH   3   6
ATOM      6  C   UNL     1      -2.850  -2.751  -1.325  1.00  0.00     0.175 C 
BRANCH   6   7
ATOM      7  N   UNL     1      -3.089  -3.853  -0.343  1.00  0.00    -0.344 N 
ATOM      8  C   UNL     1      -3.337  -4.104   0.952  1.00  0.00     0.229 C 
ATOM      9  O   UNL     1      -3.420  -5.297   1.268  1.00  0.00    -0.275 OA
ATOM     10  H   UNL     1      -3.050  -4.711  -0.824  1.00  0.00     0.164 HD
BRANCH   8  11
ATOM     11  C   UNL     1      -3.563  -3.054   1.996  1.00  0.00     0.130 C 
ATOM     12  C   UNL     1      -2.246  -2.303   2.176  1.00  0.00     0.024 C 
BRANCH  11  13
ATOM     13  C   UNL     1      -4.841  -2.253   1.705  1.00  0.00     0.273 C 
BRANCH  13  14
ATOM     14  N   UNL     1      -6.037  -3.067   1.444  1.00  0.00    -0.348 N 
ATOM     15  C   UNL     1      -6.932  -3.153   2.581  1.00  0.00     0.330 C 
ATOM     16  H   UNL     1      -6.546  -2.652   0.662  1.00  0.00     0.346 HD
ATOM     17  H   UNL     1      -5.719  -4.013   1.236  1.00  0.00     0.346 HD
ENDBRANCH  13  14
ENDBRANCH  11  13
ENDBRANCH   8  11
ENDBRANCH   6   7
BRANCH   6  18
ATOM     18  C   UNL     1      -3.750  -1.494  -1.546  1.00  0.00     0.070 C 
BRANCH  18  19
ATOM     19  C   UNL     1      -3.458  -0.060  -1.091  1.00  0.00    -0.045 A 
ATOM     20  C   UNL     1      -3.221   0.325   0.230  1.00  0.00     0.004 A 
ATOM     21  C   UNL     1      -3.688   0.989  -2.004  1.00  0.00     0.004 A 
ATOM     22  C   UNL     1      -3.268   1.661   0.650  1.00  0.00     0.000 A 
ATOM     23  C   UNL     1      -3.726   2.331  -1.598  1.00  0.00     0.000 A 
ATOM     24  C   UNL     1      -3.535   2.667  -0.264  1.00  0.00     0.000 A 
ENDBRANCH  18  19
ENDBRANCH   6  18
ENDBRANCH   3   6
ENDBRANCH   1   2
BRANCH   1  25
ATOM     25  C   UNL     1      -6.648  -3.499  -2.617  1.00  0.00     0.042 C 
BRANCH  25  26
ATOM     26  C   UNL     1      -7.385  -4.219  -3.736  1.00  0.00     0.118 C 
BRANCH  26  27
ATOM     27  N   UNL     1      -8.140  -5.378  -3.269  1.00  0.00    -0.352 N 
ATOM     28  C   UNL     1      -9.489  -5.644  -3.317  1.00  0.00     0.251 C 
ATOM     29  H   UNL     1      -7.595  -6.083  -2.851  1.00  0.00     0.163 HD
ATOM     30  O   UNL     1      -9.926  -6.632  -2.725  1.00  0.00    -0.269 OA
BRANCH  28  31
ATOM     31  C   UNL     1     -10.420  -4.746  -4.037  1.00  0.00     0.039 A 
ATOM     32  C   UNL     1     -11.655  -4.446  -3.454  1.00  0.00     0.014 A 
ATOM     33  C   UNL     1     -10.089  -4.195  -5.277  1.00  0.00     0.014 A 
ATOM     34  C   UNL     1     -12.506  -3.518  -4.062  1.00  0.00     0.010 A 
ATOM     35  C   UNL     1     -10.895  -3.206  -5.836  1.00  0.00     0.010 A 
ATOM     36  C   UNL     1     -12.106  -2.844  -5.227  1.00  0.00    -0.014 A 
BRANCH  36  37
ATOM     37  C   UNL     1     -12.910  -1.726  -5.791  1.00  0.00     0.031 A 
ATOM     38  C   UNL     1     -13.477  -1.817  -7.183  1.00  0.00     0.074 A 
ATOM     39  C   UNL     1     -13.055  -0.592  -5.074  1.00  0.00     0.049 A 
ATOM     40  N   UNL     1     -14.125  -0.910  -7.868  1.00  0.00    -0.248 NA
ATOM     41  C   UNL     1     -13.269  -3.080  -7.911  1.00  0.00     0.031 C 
ATOM     42  C   UNL     1     -12.507  -0.361  -3.734  1.00  0.00     0.029 A 
ATOM     43  N   UNL     1     -13.692   0.587  -5.373  1.00  0.00    -0.354 N 
ATOM     44  C   UNL     1     -14.386  -1.483  -9.108  1.00  0.00     0.074 A 
ATOM     45  C   UNL     1     -13.793  -2.802  -9.097  1.00  0.00     0.031 C 
ATOM     46  C   UNL     1     -12.849   0.869  -3.321  1.00  0.00     0.029 A 
ATOM     47  C   UNL     1     -13.597   1.536  -4.380  1.00  0.00     0.049 A 
ATOM     48  H   UNL     1     -14.172   0.740  -6.219  1.00  0.00     0.167 HD
ATOM     49  C   UNL     1     -15.072  -0.960 -10.152  1.00  0.00     0.037 A 
ATOM     50  C   UNL     1     -14.043   2.807  -4.334  1.00  0.00     0.037 A 
ATOM     51  C   UNL     1     -15.690   0.341 -10.143  1.00  0.00     0.049 A 
ATOM     52  C   UNL     1     -14.789   3.364  -5.518  1.00  0.00     0.074 A 
ATOM     53  C   UNL     1     -16.483   0.920 -11.118  1.00  0.00     0.029 A 
ATOM     54  N   UNL     1     -15.579   1.267  -9.117  1.00  0.00    -0.354 N 
ATOM     55  N   UNL     1     -15.106   2.772  -6.645  1.00  0.00    -0.248 NA
ATOM     56  C   UNL     1     -15.236   4.761  -5.427  1.00  0.00     0.031 C 
ATOM     57  C   UNL     1     -16.801   2.219 -10.710  1.00  0.00     0.029 A 
ATOM     58  C   UNL     1     -16.255   2.429  -9.454  1.00  0.00     0.049 A 
ATOM     59  H   UNL     1     -15.092   1.121  -8.274  1.00  0.00     0.167 HD
ATOM     60  C   UNL     1     -15.809   3.716  -7.385  1.00  0.00     0.074 A 
ATOM     61  C   UNL     1     -15.890   4.910  -6.570  1.00  0.00     0.031 C 
ATOM     62  C   UNL     1     -16.333   3.608  -8.630  1.00  0.00     0.037 A 
BRANCH  49  63
ATOM     63  C   UNL     1     -15.207  -1.786 -11.403  1.00  0.00     0.058 A 
ATOM     64  C   UNL     1     -16.045  -2.910 -11.458  1.00  0.00     0.135 A 
ATOM     65  C   UNL     1     -14.566  -1.387 -12.588  1.00  0.00     0.135 A 
ATOM     66  F   UNL     1     -16.669  -3.344 -10.352  1.00  0.00    -0.206 F 
ATOM     67  C   UNL     1     -16.241  -3.612 -12.643  1.00  0.00     0.059 A 
ATOM     68  C   UNL     1     -14.768  -2.058 -13.790  1.00  0.00     0.059 A 
ATOM     69  F   UNL     1     -13.751  -0.321 -12.590  1.00  0.00    -0.206 F 
ATOM     70  C   UNL     1     -15.606  -3.172 -13.807  1.00  0.00     0.060 A 
BRANCH  70  71
ATOM     71  S   UNL     1     -15.917  -4.064 -15.345  1.00  0.00     0.124 S 
ATOM     72  O   UNL     1     -15.207  -5.317 -15.105  1.00  0.00    -0.237 OA
ATOM     73  O   UNL     1     -17.373  -4.154 -15.363  1.00  0.00    -0.237 OA
ATOM     74  O   UNL     1     -15.332  -3.199 -16.365  1.00  0.00    -0.744 OA
ENDBRANCH  70  71
ENDBRANCH  49  63
BRANCH  50  75
ATOM     75  C   UNL     1     -13.793   3.654  -3.135  1.00  0.00     0.058 A 
ATOM     76  C   UNL     1     -14.853   4.084  -2.321  1.00  0.00     0.135 A 
ATOM     77  C   UNL     1     -12.499   4.080  -2.797  1.00  0.00     0.135 A 
ATOM     78  F   UNL     1     -16.110   3.710  -2.604  1.00  0.00    -0.206 F 
ATOM     79  C   UNL     1     -14.645   4.934  -1.239  1.00  0.00     0.059 A 
ATOM     80  C   UNL     1     -12.262   4.904  -1.701  1.00  0.00     0.059 A 
ATOM     81  F   UNL     1     -11.447   3.686  -3.531  1.00  0.00    -0.206 F 
ATOM     82  C   UNL     1     -13.344   5.342  -0.940  1.00  0.00     0.060 A 
BRANCH  82  83
ATOM     83  S   UNL     1     -13.083   6.443   0.468  1.00  0.00     0.124 S 
ATOM     84  O   UNL     1     -13.598   7.706  -0.050  1.00  0.00    -0.237 OA
ATOM     85  O   UNL     1     -13.882   5.806   1.509  1.00  0.00    -0.237 OA
ATOM     86  O   UNL     1     -11.639   6.387   0.673  1.00  0.00    -0.744 OA
ENDBRANCH  82  83
ENDBRANCH  50  75
BRANCH  62  87
ATOM     87  C   UNL     1     -17.062   4.803  -9.182  1.00  0.00     0.058 A 
ATOM     88  C   UNL     1     -16.377   5.960  -9.584  1.00  0.00     0.135 A 
ATOM     89  C   UNL     1     -18.454   4.769  -9.362  1.00  0.00     0.135 A 
ATOM     90  F   UNL     1     -15.046   6.047  -9.425  1.00  0.00    -0.206 F 
ATOM     91  C   UNL     1     -17.049   7.051 -10.124  1.00  0.00     0.059 A 
ATOM     92  C   UNL     1     -19.143   5.837  -9.929  1.00  0.00     0.059 A 
ATOM     93  F   UNL     1     -19.157   3.683  -9.003  1.00  0.00    -0.206 F 
ATOM     94  C   UNL     1     -18.432   6.978 -10.297  1.00  0.00     0.060 A 
BRANCH  94  95
ATOM     95  S   UNL     1     -19.285   8.387 -11.037  1.00  0.00     0.124 S 
ATOM     96  O   UNL     1     -19.235   9.363  -9.954  1.00  0.00    -0.237 OA
ATOM     97  O   UNL     1     -18.449   8.682 -12.197  1.00  0.00    -0.237 OA
ATOM     98  O   UNL     1     -20.610   7.859 -11.345  1.00  0.00    -0.744 OA
ENDBRANCH  94  95
ENDBRANCH  62  87
ENDBRANCH  36  37
ENDBRANCH  28  31
ENDBRANCH  26  27
ENDBRANCH  25  26
ENDBRANCH   1  25
TORSDOF 19
