REMARK SMILES C[C@H](Nc1cccc(C(=O)NCCCNC(=O)c2ccc(-c3c4nc(c(-c5c(F)cc(S(=O)(=O)[O-])cc5F)c5ccc([nH]5)c(-c5c(F)cc(S(=O)(=O)[O-])cc5F)c5nc(c(-c6c(F)cc(S(=O)(=O)[O-])cc6F)c6ccc3[nH]6)C=C5)C=C4)cc2)c1)C1CC[NH+](C)CC1
REMARK SMILES IDX 13 1 12 2 11 3 9 4 10 5 8 7 4 8 5 9 84 10 6 11 7 12 3 13
REMARK SMILES IDX 2 15 1 16 85 17 86 18 91 19 87 20 90 21 88 22 89 23 14 25
REMARK SMILES IDX 15 26 16 27 17 29 18 30 19 31 83 32 20 33 82 34 21 35 22 36
REMARK SMILES IDX 23 37 76 38 24 39 81 40 75 41 77 42 25 43 80 44 74 45 73 46
REMARK SMILES IDX 26 48 60 49 39 50 59 51 40 52 43 53 58 54 78 55 41 56 42 57
REMARK SMILES IDX 57 59 79 60 44 61 27 62 28 63 37 64 29 65 30 66 36 67 38 68
REMARK SMILES IDX 31 69 32 70 33 71 34 72 35 73 61 74 62 75 71 76 63 77 64 78
REMARK SMILES IDX 70 79 72 80 65 81 66 82 67 83 68 84 69 85 45 86 46 87 55 88
REMARK SMILES IDX 47 89 48 90 54 91 56 92 49 93 50 94 51 95 52 96 53 97
REMARK H PARENT 11 6 3 14 88 24 15 28 77 47 43 58
REMARK Flexibility Score: inf
ROOT
ATOM      1  C   UNL     1       1.387   4.441   2.381  1.00  0.00     0.042 C 
ENDROOT
BRANCH   1   2
ATOM      2  C   UNL     1       2.250   4.091   1.178  1.00  0.00     0.118 C 
BRANCH   2   3
ATOM      3  N   UNL     1       3.662   3.907   1.489  1.00  0.00    -0.352 N 
ATOM      4  C   UNL     1       4.513   2.826   1.429  1.00  0.00     0.251 C 
ATOM      5  O   UNL     1       5.678   2.996   1.793  1.00  0.00    -0.269 OA
ATOM      6  H   UNL     1       4.100   4.729   1.809  1.00  0.00     0.163 HD
BRANCH   4   7
ATOM      7  C   UNL     1       4.087   1.462   1.008  1.00  0.00     0.041 A 
ATOM      8  C   UNL     1       2.507  -0.039  -0.100  1.00  0.00     0.035 A 
ATOM      9  C   UNL     1       3.183  -1.121   0.476  1.00  0.00     0.026 A 
ATOM     10  C   UNL     1       3.056   1.231   0.095  1.00  0.00     0.039 A 
ATOM     11  C   UNL     1       4.328  -0.930   1.255  1.00  0.00     0.003 A 
ATOM     12  C   UNL     1       4.758   0.362   1.550  1.00  0.00     0.014 A 
BRANCH   8  13
ATOM     13  N   UNL     1       1.307  -0.256  -0.756  1.00  0.00    -0.382 N 
ATOM     14  H   UNL     1       0.979  -1.183  -0.800  1.00  0.00     0.160 HD
BRANCH  13  15
ATOM     15  C   UNL     1       0.485   0.772  -1.389  1.00  0.00     0.079 C 
ATOM     16  C   UNL     1       0.743   0.687  -2.897  1.00  0.00     0.031 C 
BRANCH  15  17
ATOM     17  C   UNL     1      -1.043   0.666  -1.080  1.00  0.00     0.022 C 
ATOM     18  C   UNL     1      -1.557   1.957  -0.405  1.00  0.00     0.067 C 
ATOM     19  C   UNL     1      -1.518  -0.529  -0.238  1.00  0.00     0.067 C 
ATOM     20  C   UNL     1      -1.192   2.022   1.078  1.00  0.00     0.262 C 
ATOM     21  C   UNL     1      -1.211  -0.393   1.257  1.00  0.00     0.262 C 
ATOM     22  N   UNL     1      -1.724   0.869   1.804  1.00  0.00    -0.337 N 
ATOM     23  C   UNL     1      -1.405   0.973   3.230  1.00  0.00     0.332 C 
ATOM     24  H   UNL     1      -2.738   0.869   1.690  1.00  0.00     0.347 HD
ENDBRANCH  15  17
ENDBRANCH  13  15
ENDBRANCH   8  13
ENDBRANCH   4   7
ENDBRANCH   2   3
ENDBRANCH   1   2
BRANCH   1  25
ATOM     25  C   UNL     1       1.584   5.854   2.902  1.00  0.00     0.118 C 
BRANCH  25  26
ATOM     26  N   UNL     1       1.172   6.866   1.934  1.00  0.00    -0.352 N 
ATOM     27  C   UNL     1       0.042   7.646   1.855  1.00  0.00     0.251 C 
ATOM     28  H   UNL     1       1.819   7.017   1.208  1.00  0.00     0.163 HD
ATOM     29  O   UNL     1      -0.186   8.248   0.808  1.00  0.00    -0.269 OA
BRANCH  27  30
ATOM     30  C   UNL     1      -0.900   7.763   2.993  1.00  0.00     0.039 A 
ATOM     31  C   UNL     1      -2.268   7.918   2.734  1.00  0.00     0.014 A 
ATOM     32  C   UNL     1      -0.448   7.786   4.311  1.00  0.00     0.014 A 
ATOM     33  C   UNL     1      -3.175   8.026   3.795  1.00  0.00     0.010 A 
ATOM     34  C   UNL     1      -1.357   7.784   5.364  1.00  0.00     0.010 A 
ATOM     35  C   UNL     1      -2.730   7.922   5.122  1.00  0.00    -0.014 A 
BRANCH  35  36
ATOM     36  C   UNL     1      -3.662   7.991   6.279  1.00  0.00     0.031 A 
ATOM     37  C   UNL     1      -3.489   9.074   7.314  1.00  0.00     0.074 A 
ATOM     38  C   UNL     1      -4.597   7.036   6.449  1.00  0.00     0.049 A 
ATOM     39  N   UNL     1      -4.090   9.222   8.467  1.00  0.00    -0.248 NA
ATOM     40  C   UNL     1      -2.477  10.106   7.032  1.00  0.00     0.031 C 
ATOM     41  C   UNL     1      -4.835   5.910   5.542  1.00  0.00     0.029 A 
ATOM     42  N   UNL     1      -5.511   6.847   7.455  1.00  0.00    -0.354 N 
ATOM     43  C   UNL     1      -3.509  10.339   9.057  1.00  0.00     0.074 A 
ATOM     44  C   UNL     1      -2.471  10.798   8.162  1.00  0.00     0.031 C 
ATOM     45  C   UNL     1      -5.842   5.162   6.023  1.00  0.00     0.029 A 
ATOM     46  C   UNL     1      -6.291   5.726   7.292  1.00  0.00     0.049 A 
ATOM     47  H   UNL     1      -5.600   7.457   8.223  1.00  0.00     0.167 HD
ATOM     48  C   UNL     1      -3.827  10.944  10.227  1.00  0.00     0.037 A 
ATOM     49  C   UNL     1      -7.250   5.204   8.081  1.00  0.00     0.037 A 
ATOM     50  C   UNL     1      -4.892  10.508  11.091  1.00  0.00     0.049 A 
ATOM     51  C   UNL     1      -7.598   5.902   9.368  1.00  0.00     0.074 A 
ATOM     52  C   UNL     1      -5.337  11.083  12.268  1.00  0.00     0.029 A 
ATOM     53  N   UNL     1      -5.687   9.393  10.866  1.00  0.00    -0.354 N 
ATOM     54  N   UNL     1      -7.069   6.983   9.889  1.00  0.00    -0.248 NA
ATOM     55  C   UNL     1      -8.677   5.313  10.173  1.00  0.00     0.031 C 
ATOM     56  C   UNL     1      -6.377  10.296  12.774  1.00  0.00     0.029 A 
ATOM     57  C   UNL     1      -6.612   9.257  11.887  1.00  0.00     0.049 A 
ATOM     58  H   UNL     1      -5.605   8.787  10.094  1.00  0.00     0.167 HD
ATOM     59  C   UNL     1      -7.772   7.223  11.065  1.00  0.00     0.074 A 
ATOM     60  C   UNL     1      -8.768   6.177  11.175  1.00  0.00     0.031 C 
ATOM     61  C   UNL     1      -7.609   8.219  11.970  1.00  0.00     0.037 A 
BRANCH  48  62
ATOM     62  C   UNL     1      -3.022  12.149  10.633  1.00  0.00     0.058 A 
ATOM     63  C   UNL     1      -3.122  13.369   9.944  1.00  0.00     0.135 A 
ATOM     64  C   UNL     1      -2.161  12.095  11.741  1.00  0.00     0.135 A 
ATOM     65  F   UNL     1      -3.918  13.474   8.867  1.00  0.00    -0.206 F 
ATOM     66  C   UNL     1      -2.372  14.480  10.316  1.00  0.00     0.059 A 
ATOM     67  C   UNL     1      -1.424  13.203  12.150  1.00  0.00     0.059 A 
ATOM     68  F   UNL     1      -2.026  10.955  12.438  1.00  0.00    -0.206 F 
ATOM     69  C   UNL     1      -1.524  14.387  11.420  1.00  0.00     0.060 A 
BRANCH  69  70
ATOM     70  S   UNL     1      -0.560  15.839  11.890  1.00  0.00     0.124 S 
ATOM     71  O   UNL     1       0.454  15.866  10.841  1.00  0.00    -0.237 OA
ATOM     72  O   UNL     1      -1.555  16.905  11.838  1.00  0.00    -0.237 OA
ATOM     73  O   UNL     1      -0.072  15.505  13.226  1.00  0.00    -0.744 OA
ENDBRANCH  69  70
ENDBRANCH  48  62
BRANCH  49  74
ATOM     74  C   UNL     1      -7.969   3.970   7.662  1.00  0.00     0.058 A 
ATOM     75  C   UNL     1      -9.311   4.024   7.258  1.00  0.00     0.135 A 
ATOM     76  C   UNL     1      -7.332   2.720   7.646  1.00  0.00     0.135 A 
ATOM     77  F   UNL     1      -9.966   5.196   7.262  1.00  0.00    -0.206 F 
ATOM     78  C   UNL     1     -10.004   2.881   6.872  1.00  0.00     0.059 A 
ATOM     79  C   UNL     1      -7.996   1.566   7.238  1.00  0.00     0.059 A 
ATOM     80  F   UNL     1      -6.043   2.617   8.006  1.00  0.00    -0.206 F 
ATOM     81  C   UNL     1      -9.336   1.656   6.864  1.00  0.00     0.060 A 
BRANCH  81  82
ATOM     82  S   UNL     1     -10.234   0.185   6.323  1.00  0.00     0.124 S 
ATOM     83  O   UNL     1     -11.113  -0.058   7.462  1.00  0.00    -0.237 OA
ATOM     84  O   UNL     1     -10.884   0.653   5.103  1.00  0.00    -0.237 OA
ATOM     85  O   UNL     1      -9.175  -0.799   6.122  1.00  0.00    -0.744 OA
ENDBRANCH  81  82
ENDBRANCH  49  74
BRANCH  61  86
ATOM     86  C   UNL     1      -8.557   8.259  13.135  1.00  0.00     0.058 A 
ATOM     87  C   UNL     1      -8.462   7.348  14.197  1.00  0.00     0.135 A 
ATOM     88  C   UNL     1      -9.533   9.266  13.217  1.00  0.00     0.135 A 
ATOM     89  F   UNL     1      -7.550   6.364  14.164  1.00  0.00    -0.206 F 
ATOM     90  C   UNL     1      -9.315   7.421  15.293  1.00  0.00     0.059 A 
ATOM     91  C   UNL     1     -10.379   9.373  14.316  1.00  0.00     0.059 A 
ATOM     92  F   UNL     1      -9.658  10.169  12.232  1.00  0.00    -0.206 F 
ATOM     93  C   UNL     1     -10.269   8.440  15.345  1.00  0.00     0.060 A 
BRANCH  93  94
ATOM     94  S   UNL     1     -11.342   8.549  16.793  1.00  0.00     0.124 S 
ATOM     95  O   UNL     1     -12.261   7.440  16.562  1.00  0.00    -0.237 OA
ATOM     96  O   UNL     1     -10.400   8.374  17.894  1.00  0.00    -0.237 OA
ATOM     97  O   UNL     1     -11.926   9.883  16.682  1.00  0.00    -0.744 OA
ENDBRANCH  93  94
ENDBRANCH  61  86
ENDBRANCH  35  36
ENDBRANCH  27  30
ENDBRANCH  25  26
ENDBRANCH   1  25
TORSDOF 16
