REMARK SMILES O=C(CSc1ccnc(C(=O)NCCCNC(=O)c2ccc(-c3c4nc(c(-c5c(F)cc(S(=O)(=O)[O-])cc5F)c5ccc([nH]5)c(-c5c(F)cc(S(=O)(=O)[O-])cc5F)c5nc(c(-c6c(F)cc(S(=O)(=O)[O-])cc6F)c6ccc3[nH]6)C=C5)C=C4)cc2)c1)NNc1ccccn1
REMARK SMILES IDX 13 1 12 2 10 3 11 4 9 6 5 7 6 8 85 9 7 10 8 11 4 12 3 13
REMARK SMILES IDX 2 14 1 15 86 16 87 18 88 20 89 21 93 22 90 23 92 24 91 25
REMARK SMILES IDX 14 26 15 27 16 28 17 29 18 31 19 32 20 33 84 34 21 35 83 36
REMARK SMILES IDX 22 37 23 38 24 39 77 40 25 41 82 42 76 43 78 44 26 45 81 46
REMARK SMILES IDX 75 47 74 48 27 50 61 51 40 52 60 53 41 54 44 55 59 56 79 57
REMARK SMILES IDX 42 58 43 59 58 61 80 62 45 63 28 64 29 65 38 66 30 67 31 68
REMARK SMILES IDX 37 69 39 70 32 71 33 72 34 73 35 74 36 75 62 76 63 77 72 78
REMARK SMILES IDX 64 79 65 80 71 81 73 82 66 83 67 84 68 85 69 86 70 87 46 88
REMARK SMILES IDX 47 89 56 90 48 91 49 92 55 93 57 94 50 95 51 96 52 97 53 98
REMARK SMILES IDX 54 99
REMARK H PARENT 12 5 86 17 87 19 16 30 78 49 44 60
REMARK Flexibility Score: inf
ROOT
ATOM      1  C   UNL     1       0.160   0.354  -4.754  1.00  0.00     0.118 C 
ENDROOT
BRANCH   1   2
ATOM      2  N   UNL     1      -0.387   1.697  -4.721  1.00  0.00    -0.351 N 
ATOM      3  C   UNL     1       0.065   2.895  -4.214  1.00  0.00     0.269 C 
ATOM      4  O   UNL     1      -0.659   3.872  -4.426  1.00  0.00    -0.268 OA
ATOM      5  H   UNL     1      -1.270   1.766  -5.152  1.00  0.00     0.163 HD
BRANCH   3   6
ATOM      6  C   UNL     1       1.372   3.078  -3.483  1.00  0.00     0.129 A 
ATOM      7  C   UNL     1       3.316   2.331  -2.281  1.00  0.00     0.012 A 
ATOM      8  C   UNL     1       3.777   3.646  -2.276  1.00  0.00     0.035 A 
ATOM      9  C   UNL     1       2.076   2.056  -2.861  1.00  0.00     0.049 A 
ATOM     10  C   UNL     1       2.994   4.619  -2.864  1.00  0.00     0.113 A 
ATOM     11  N   UNL     1       1.827   4.361  -3.481  1.00  0.00    -0.251 NA
BRANCH   7  12
ATOM     12  S   UNL     1       4.413   1.079  -1.616  1.00  0.00    -0.116 SA
BRANCH  12  13
ATOM     13  C   UNL     1       3.274  -0.230  -1.038  1.00  0.00     0.176 C 
BRANCH  13  14
ATOM     14  C   UNL     1       2.340   0.309   0.026  1.00  0.00     0.248 C 
ATOM     15  O   UNL     1       1.127   0.387  -0.157  1.00  0.00    -0.272 OA
ATOM     16  N   UNL     1       2.997   0.680   1.184  1.00  0.00    -0.268 N 
ATOM     17  H   UNL     1       3.968   0.547   1.270  1.00  0.00     0.191 HD
BRANCH  16  18
ATOM     18  N   UNL     1       2.271   1.243   2.221  1.00  0.00    -0.282 N 
ATOM     19  H   UNL     1       1.288   1.187   2.241  1.00  0.00     0.190 HD
BRANCH  18  20
ATOM     20  C   UNL     1       2.975   1.890   3.238  1.00  0.00     0.144 A 
ATOM     21  C   UNL     1       4.118   2.647   2.982  1.00  0.00     0.048 A 
ATOM     22  N   UNL     1       2.497   1.737   4.488  1.00  0.00    -0.238 NA
ATOM     23  C   UNL     1       4.803   3.236   4.043  1.00  0.00     0.005 A 
ATOM     24  C   UNL     1       3.179   2.309   5.504  1.00  0.00     0.113 A 
ATOM     25  C   UNL     1       4.330   3.058   5.334  1.00  0.00     0.020 A 
ENDBRANCH  18  20
ENDBRANCH  16  18
ENDBRANCH  13  14
ENDBRANCH  12  13
ENDBRANCH   7  12
ENDBRANCH   3   6
ENDBRANCH   1   2
BRANCH   1  26
ATOM     26  C   UNL     1      -0.416  -0.514  -3.634  1.00  0.00     0.042 C 
BRANCH  26  27
ATOM     27  C   UNL     1      -1.837  -1.005  -3.915  1.00  0.00     0.118 C 
BRANCH  27  28
ATOM     28  N   UNL     1      -1.869  -1.958  -5.016  1.00  0.00    -0.352 N 
ATOM     29  C   UNL     1      -2.322  -3.252  -5.063  1.00  0.00     0.251 C 
ATOM     30  H   UNL     1      -1.507  -1.618  -5.866  1.00  0.00     0.163 HD
ATOM     31  O   UNL     1      -2.021  -3.948  -6.029  1.00  0.00    -0.269 OA
BRANCH  29  32
ATOM     32  C   UNL     1      -3.161  -3.817  -3.981  1.00  0.00     0.039 A 
ATOM     33  C   UNL     1      -3.000  -5.166  -3.646  1.00  0.00     0.014 A 
ATOM     34  C   UNL     1      -4.157  -3.062  -3.355  1.00  0.00     0.014 A 
ATOM     35  C   UNL     1      -3.813  -5.746  -2.668  1.00  0.00     0.010 A 
ATOM     36  C   UNL     1      -4.923  -3.623  -2.334  1.00  0.00     0.010 A 
ATOM     37  C   UNL     1      -4.771  -4.975  -1.991  1.00  0.00    -0.014 A 
BRANCH  37  38
ATOM     38  C   UNL     1      -5.640  -5.576  -0.946  1.00  0.00     0.031 A 
ATOM     39  C   UNL     1      -7.127  -5.675  -1.164  1.00  0.00     0.074 A 
ATOM     40  C   UNL     1      -5.097  -5.987   0.217  1.00  0.00     0.049 A 
ATOM     41  N   UNL     1      -8.055  -6.109  -0.350  1.00  0.00    -0.248 NA
ATOM     42  C   UNL     1      -7.641  -5.200  -2.459  1.00  0.00     0.031 C 
ATOM     43  C   UNL     1      -3.677  -5.900   0.564  1.00  0.00     0.029 A 
ATOM     44  N   UNL     1      -5.675  -6.550   1.326  1.00  0.00    -0.354 N 
ATOM     45  C   UNL     1      -9.261  -5.940  -1.023  1.00  0.00     0.074 A 
ATOM     46  C   UNL     1      -8.950  -5.323  -2.294  1.00  0.00     0.031 C 
ATOM     47  C   UNL     1      -3.492  -6.410   1.792  1.00  0.00     0.029 A 
ATOM     48  C   UNL     1      -4.781  -6.830   2.333  1.00  0.00     0.049 A 
ATOM     49  H   UNL     1      -6.639  -6.736   1.395  1.00  0.00     0.167 HD
ATOM     50  C   UNL     1     -10.509  -6.287  -0.627  1.00  0.00     0.037 A 
ATOM     51  C   UNL     1      -4.979  -7.363   3.554  1.00  0.00     0.037 A 
ATOM     52  C   UNL     1     -10.806  -6.932   0.626  1.00  0.00     0.049 A 
ATOM     53  C   UNL     1      -6.370  -7.769   3.959  1.00  0.00     0.074 A 
ATOM     54  C   UNL     1     -12.030  -7.369   1.103  1.00  0.00     0.029 A 
ATOM     55  N   UNL     1      -9.867  -7.238   1.601  1.00  0.00    -0.354 N 
ATOM     56  N   UNL     1      -7.492  -7.646   3.289  1.00  0.00    -0.248 NA
ATOM     57  C   UNL     1      -6.521  -8.398   5.278  1.00  0.00     0.031 C 
ATOM     58  C   UNL     1     -11.835  -7.913   2.377  1.00  0.00     0.029 A 
ATOM     59  C   UNL     1     -10.484  -7.854   2.677  1.00  0.00     0.049 A 
ATOM     60  H   UNL     1      -8.904  -7.046   1.536  1.00  0.00     0.167 HD
ATOM     61  C   UNL     1      -8.477  -8.210   4.093  1.00  0.00     0.074 A 
ATOM     62  C   UNL     1      -7.816  -8.682   5.293  1.00  0.00     0.031 C 
ATOM     63  C   UNL     1      -9.807  -8.329   3.858  1.00  0.00     0.037 A 
BRANCH  50  64
ATOM     64  C   UNL     1     -11.647  -5.984  -1.564  1.00  0.00     0.058 A 
ATOM     65  C   UNL     1     -11.821  -6.691  -2.764  1.00  0.00     0.135 A 
ATOM     66  C   UNL     1     -12.592  -4.994  -1.247  1.00  0.00     0.135 A 
ATOM     67  F   UNL     1     -10.940  -7.638  -3.124  1.00  0.00    -0.206 F 
ATOM     68  C   UNL     1     -12.870  -6.407  -3.632  1.00  0.00     0.059 A 
ATOM     69  C   UNL     1     -13.665  -4.711  -2.088  1.00  0.00     0.059 A 
ATOM     70  F   UNL     1     -12.476  -4.287  -0.112  1.00  0.00    -0.206 F 
ATOM     71  C   UNL     1     -13.787  -5.413  -3.286  1.00  0.00     0.060 A 
BRANCH  71  72
ATOM     72  S   UNL     1     -15.144  -5.057  -4.422  1.00  0.00     0.124 S 
ATOM     73  O   UNL     1     -14.455  -4.322  -5.478  1.00  0.00    -0.237 OA
ATOM     74  O   UNL     1     -15.611  -6.392  -4.782  1.00  0.00    -0.237 OA
ATOM     75  O   UNL     1     -16.069  -4.271  -3.611  1.00  0.00    -0.744 OA
ENDBRANCH  71  72
ENDBRANCH  50  64
BRANCH  51  76
ATOM     76  C   UNL     1      -3.825  -7.577   4.466  1.00  0.00     0.058 A 
ATOM     77  C   UNL     1      -3.345  -8.868   4.729  1.00  0.00     0.135 A 
ATOM     78  C   UNL     1      -3.168  -6.498   5.078  1.00  0.00     0.135 A 
ATOM     79  F   UNL     1      -3.942  -9.932   4.169  1.00  0.00    -0.206 F 
ATOM     80  C   UNL     1      -2.266  -9.087   5.580  1.00  0.00     0.059 A 
ATOM     81  C   UNL     1      -2.072  -6.689   5.915  1.00  0.00     0.059 A 
ATOM     82  F   UNL     1      -3.576  -5.242   4.844  1.00  0.00    -0.206 F 
ATOM     83  C   UNL     1      -1.635  -7.989   6.167  1.00  0.00     0.060 A 
BRANCH  83  84
ATOM     84  S   UNL     1      -0.203  -8.280   7.230  1.00  0.00     0.124 S 
ATOM     85  O   UNL     1      -0.835  -8.786   8.442  1.00  0.00    -0.237 OA
ATOM     86  O   UNL     1       0.564  -9.251   6.455  1.00  0.00    -0.237 OA
ATOM     87  O   UNL     1       0.406  -6.957   7.338  1.00  0.00    -0.744 OA
ENDBRANCH  83  84
ENDBRANCH  51  76
BRANCH  63  88
ATOM     88  C   UNL     1     -10.628  -9.037   4.898  1.00  0.00     0.058 A 
ATOM     89  C   UNL     1     -10.941  -8.438   6.128  1.00  0.00     0.135 A 
ATOM     90  C   UNL     1     -11.138 -10.321   4.644  1.00  0.00     0.135 A 
ATOM     91  F   UNL     1     -10.474  -7.214   6.421  1.00  0.00    -0.206 F 
ATOM     92  C   UNL     1     -11.707  -9.099   7.083  1.00  0.00     0.059 A 
ATOM     93  C   UNL     1     -11.926 -10.990   5.574  1.00  0.00     0.059 A 
ATOM     94  F   UNL     1     -10.877 -10.934   3.478  1.00  0.00    -0.206 F 
ATOM     95  C   UNL     1     -12.192 -10.377   6.798  1.00  0.00     0.060 A 
BRANCH  95  96
ATOM     96  S   UNL     1     -13.199 -11.220   8.036  1.00  0.00     0.124 S 
ATOM     97  O   UNL     1     -12.185 -11.656   8.990  1.00  0.00    -0.237 OA
ATOM     98  O   UNL     1     -14.087 -10.157   8.497  1.00  0.00    -0.237 OA
ATOM     99  O   UNL     1     -13.849 -12.285   7.277  1.00  0.00    -0.744 OA
ENDBRANCH  95  96
ENDBRANCH  63  88
ENDBRANCH  37  38
ENDBRANCH  29  32
ENDBRANCH  27  28
ENDBRANCH  26  27
ENDBRANCH   1  26
TORSDOF 18
