REMARK SMILES O=C(NCCCNC(=O)[C@H]1Cc2c([nH]c3ccccc23)[C@@H](c2ccc(OC(F)(F)F)cc2)[NH2+]1)c1ccc(-c2c3nc(c(-c4c(F)cc(S(=O)(=O)[O-])cc4F)c4ccc([nH]4)c(-c4c(F)cc(S(=O)(=O)[O-])cc4F)c4nc(c(-c5c(F)cc(S(=O)(=O)[O-])cc5F)c5ccc2[nH]5)C=C4)C=C3)cc1
REMARK SMILES IDX 5 1 4 2 3 3 1 4 2 5 34 7 35 8 99 9 36 10 98 11 37 12 38 13
REMARK SMILES IDX 39 14 92 15 40 16 97 17 91 18 93 19 41 20 96 21 90 22 89 23
REMARK SMILES IDX 42 25 76 26 55 27 75 28 56 29 59 30 74 31 94 32 57 33 58 34
REMARK SMILES IDX 73 36 95 37 60 38 43 39 44 40 53 41 45 42 46 43 52 44 54 45
REMARK SMILES IDX 47 46 48 47 49 48 50 49 51 50 77 51 78 52 87 53 79 54 80 55
REMARK SMILES IDX 86 56 88 57 81 58 82 59 83 60 84 61 85 62 61 63 62 64 71 65
REMARK SMILES IDX 63 66 64 67 70 68 72 69 65 70 66 71 67 72 68 73 69 74 6 75
REMARK SMILES IDX 7 76 8 77 9 79 10 80 11 81 33 82 12 83 21 84 13 87 20 88
REMARK SMILES IDX 14 89 15 90 19 91 16 93 18 94 17 95 22 96 23 97 32 98 24 99
REMARK SMILES IDX 31 100 25 101 26 102 27 103 28 104 29 105 30 106
REMARK H PARENT 3 6 93 24 59 35 7 78 33 85 33 86 14 92
REMARK Flexibility Score: inf
ROOT
ATOM      1  C   UNL     1       4.712   2.434  -0.190  1.00  0.00     0.042 C 
ENDROOT
BRANCH   1   2
ATOM      2  C   UNL     1       4.450   1.190   0.637  1.00  0.00     0.118 C 
BRANCH   2   3
ATOM      3  N   UNL     1       3.024   0.870   0.673  1.00  0.00    -0.352 N 
ATOM      4  O   UNL     1       1.118  -0.090  -0.043  1.00  0.00    -0.269 OA
ATOM      5  C   UNL     1       2.336  -0.151   0.066  1.00  0.00     0.251 C 
ATOM      6  H   UNL     1       2.473   1.480   1.216  1.00  0.00     0.163 HD
BRANCH   5   7
ATOM      7  C   UNL     1       3.083  -1.318  -0.441  1.00  0.00     0.039 A 
ATOM      8  C   UNL     1       4.174  -1.801   0.283  1.00  0.00     0.014 A 
ATOM      9  C   UNL     1       2.679  -1.952  -1.618  1.00  0.00     0.014 A 
ATOM     10  C   UNL     1       4.964  -2.801  -0.249  1.00  0.00     0.010 A 
ATOM     11  C   UNL     1       3.397  -3.056  -2.082  1.00  0.00     0.010 A 
ATOM     12  C   UNL     1       4.551  -3.479  -1.405  1.00  0.00    -0.014 A 
BRANCH  12  13
ATOM     13  C   UNL     1       5.281  -4.710  -1.783  1.00  0.00     0.031 A 
ATOM     14  C   UNL     1       6.012  -4.816  -3.087  1.00  0.00     0.074 A 
ATOM     15  C   UNL     1       5.295  -5.721  -0.890  1.00  0.00     0.049 A 
ATOM     16  N   UNL     1       6.704  -5.823  -3.552  1.00  0.00    -0.248 NA
ATOM     17  C   UNL     1       5.960  -3.655  -3.990  1.00  0.00     0.031 C 
ATOM     18  C   UNL     1       4.598  -5.712   0.404  1.00  0.00     0.029 A 
ATOM     19  N   UNL     1       5.927  -6.935  -0.910  1.00  0.00    -0.354 N 
ATOM     20  C   UNL     1       7.149  -5.432  -4.808  1.00  0.00     0.074 A 
ATOM     21  C   UNL     1       6.638  -4.099  -5.041  1.00  0.00     0.031 C 
ATOM     22  C   UNL     1       4.886  -6.836   1.071  1.00  0.00     0.029 A 
ATOM     23  C   UNL     1       5.709  -7.684   0.222  1.00  0.00     0.049 A 
ATOM     24  H   UNL     1       6.484  -7.241  -1.661  1.00  0.00     0.167 HD
ATOM     25  C   UNL     1       7.914  -6.133  -5.678  1.00  0.00     0.037 A 
ATOM     26  C   UNL     1       6.095  -8.935   0.530  1.00  0.00     0.037 A 
ATOM     27  C   UNL     1       8.426  -7.454  -5.411  1.00  0.00     0.049 A 
ATOM     28  C   UNL     1       6.920  -9.690  -0.470  1.00  0.00     0.074 A 
ATOM     29  C   UNL     1       9.249  -8.232  -6.207  1.00  0.00     0.029 A 
ATOM     30  N   UNL     1       8.160  -8.196  -4.268  1.00  0.00    -0.354 N 
ATOM     31  N   UNL     1       7.367  -9.288  -1.636  1.00  0.00    -0.248 NA
ATOM     32  C   UNL     1       7.288 -11.066  -0.120  1.00  0.00     0.031 C 
ATOM     33  C   UNL     1       9.434  -9.464  -5.572  1.00  0.00     0.029 A 
ATOM     34  C   UNL     1       8.777  -9.434  -4.353  1.00  0.00     0.049 A 
ATOM     35  H   UNL     1       7.614  -7.888  -3.509  1.00  0.00     0.167 HD
ATOM     36  C   UNL     1       8.081 -10.360  -2.155  1.00  0.00     0.074 A 
ATOM     37  C   UNL     1       8.030 -11.414  -1.161  1.00  0.00     0.031 C 
ATOM     38  C   UNL     1       8.714 -10.466  -3.348  1.00  0.00     0.037 A 
BRANCH  25  39
ATOM     39  C   UNL     1       8.236  -5.511  -7.008  1.00  0.00     0.058 A 
ATOM     40  C   UNL     1       9.159  -4.462  -7.134  1.00  0.00     0.135 A 
ATOM     41  C   UNL     1       7.687  -6.044  -8.187  1.00  0.00     0.135 A 
ATOM     42  F   UNL     1       9.700  -3.902  -6.040  1.00  0.00    -0.206 F 
ATOM     43  C   UNL     1       9.527  -3.963  -8.380  1.00  0.00     0.059 A 
ATOM     44  C   UNL     1       8.058  -5.577  -9.445  1.00  0.00     0.059 A 
ATOM     45  F   UNL     1       6.794  -7.045  -8.124  1.00  0.00    -0.206 F 
ATOM     46  C   UNL     1       8.978  -4.534  -9.531  1.00  0.00     0.060 A 
BRANCH  46  47
ATOM     47  S   UNL     1       9.509  -3.911 -11.140  1.00  0.00     0.124 S 
ATOM     48  O   UNL     1       8.886  -2.591 -11.162  1.00  0.00    -0.237 OA
ATOM     49  O   UNL     1      10.963  -3.922 -11.013  1.00  0.00    -0.237 OA
ATOM     50  O   UNL     1       8.957  -4.880 -12.081  1.00  0.00    -0.744 OA
ENDBRANCH  46  47
ENDBRANCH  25  39
BRANCH  26  51
ATOM     51  C   UNL     1       5.664  -9.557   1.809  1.00  0.00     0.058 A 
ATOM     52  C   UNL     1       6.591  -9.892   2.805  1.00  0.00     0.135 A 
ATOM     53  C   UNL     1       4.309  -9.834   2.058  1.00  0.00     0.135 A 
ATOM     54  F   UNL     1       7.897  -9.645   2.617  1.00  0.00    -0.206 F 
ATOM     55  C   UNL     1       6.197 -10.511   3.987  1.00  0.00     0.059 A 
ATOM     56  C   UNL     1       3.887 -10.419   3.245  1.00  0.00     0.059 A 
ATOM     57  F   UNL     1       3.377  -9.511   1.148  1.00  0.00    -0.206 F 
ATOM     58  C   UNL     1       4.842 -10.774   4.195  1.00  0.00     0.060 A 
BRANCH  58  59
ATOM     59  S   UNL     1       4.339 -11.577   5.731  1.00  0.00     0.124 S 
ATOM     60  O   UNL     1       4.786 -12.946   5.503  1.00  0.00    -0.237 OA
ATOM     61  O   UNL     1       5.083 -10.819   6.732  1.00  0.00    -0.237 OA
ATOM     62  O   UNL     1       2.892 -11.380   5.754  1.00  0.00    -0.744 OA
ENDBRANCH  58  59
ENDBRANCH  26  51
BRANCH  38  63
ATOM     63  C   UNL     1       9.427 -11.759  -3.626  1.00  0.00     0.058 A 
ATOM     64  C   UNL     1       8.724 -12.944  -3.893  1.00  0.00     0.135 A 
ATOM     65  C   UNL     1      10.830 -11.804  -3.655  1.00  0.00     0.135 A 
ATOM     66  F   UNL     1       7.382 -12.956  -3.864  1.00  0.00    -0.206 F 
ATOM     67  C   UNL     1       9.388 -14.137  -4.152  1.00  0.00     0.059 A 
ATOM     68  C   UNL     1      11.514 -12.979  -3.945  1.00  0.00     0.059 A 
ATOM     69  F   UNL     1      11.548 -10.696  -3.414  1.00  0.00    -0.206 F 
ATOM     70  C   UNL     1      10.784 -14.144  -4.178  1.00  0.00     0.060 A 
BRANCH  70  71
ATOM     71  S   UNL     1      11.633 -15.693  -4.544  1.00  0.00     0.124 S 
ATOM     72  O   UNL     1      11.430 -16.439  -3.307  1.00  0.00    -0.237 OA
ATOM     73  O   UNL     1      10.900 -16.182  -5.708  1.00  0.00    -0.237 OA
ATOM     74  O   UNL     1      13.007 -15.274  -4.807  1.00  0.00    -0.744 OA
ENDBRANCH  70  71
ENDBRANCH  38  63
ENDBRANCH  12  13
ENDBRANCH   5   7
ENDBRANCH   2   3
ENDBRANCH   1   2
BRANCH   1  75
ATOM     75  C   UNL     1       4.105   3.656   0.476  1.00  0.00     0.118 C 
BRANCH  75  76
ATOM     76  N   UNL     1       4.995   4.215   1.483  1.00  0.00    -0.351 N 
ATOM     77  C   UNL     1       5.864   5.256   1.530  1.00  0.00     0.278 C 
ATOM     78  H   UNL     1       4.958   3.719   2.333  1.00  0.00     0.163 HD
ATOM     79  O   UNL     1       6.494   5.375   2.594  1.00  0.00    -0.268 OA
BRANCH  77  80
ATOM     80  C   UNL     1       6.090   6.304   0.414  1.00  0.00     0.277 C 
ATOM     81  C   UNL     1       5.288   6.081  -0.859  1.00  0.00     0.114 C 
ATOM     82  N   UNL     1       5.779   7.635   1.005  1.00  0.00    -0.325 N 
ATOM     83  C   UNL     1       5.399   7.222  -1.778  1.00  0.00    -0.006 A 
ATOM     84  C   UNL     1       6.018   8.809   0.137  1.00  0.00     0.262 C 
ATOM     85  H   UNL     1       6.352   7.745   1.841  1.00  0.00     0.347 HD
ATOM     86  H   UNL     1       4.774   7.626   1.181  1.00  0.00     0.347 HD
ATOM     87  C   UNL     1       5.728   8.471  -1.306  1.00  0.00     0.083 A 
ATOM     88  C   UNL     1       4.987   7.323  -3.120  1.00  0.00     0.003 A 
ATOM     89  N   UNL     1       5.678   9.323  -2.383  1.00  0.00    -0.353 N 
ATOM     90  C   UNL     1       5.130   8.664  -3.474  1.00  0.00     0.046 A 
ATOM     91  C   UNL     1       4.430   6.410  -4.034  1.00  0.00     0.010 A 
ATOM     92  H   UNL     1       5.984  10.259  -2.381  1.00  0.00     0.166 HD
ATOM     93  C   UNL     1       4.720   9.138  -4.726  1.00  0.00     0.026 A 
ATOM     94  C   UNL     1       4.007   6.871  -5.279  1.00  0.00     0.001 A 
ATOM     95  C   UNL     1       4.146   8.216  -5.615  1.00  0.00     0.002 A 
BRANCH  84  96
ATOM     96  C   UNL     1       5.168   9.949   0.707  1.00  0.00     0.016 A 
ATOM     97  C   UNL     1       3.963  10.368   0.123  1.00  0.00     0.014 A 
ATOM     98  C   UNL     1       5.532  10.535   1.933  1.00  0.00     0.014 A 
ATOM     99  C   UNL     1       3.190  11.374   0.707  1.00  0.00     0.047 A 
ATOM    100  C   UNL     1       4.736  11.517   2.539  1.00  0.00     0.047 A 
ATOM    101  C   UNL     1       3.566  11.952   1.920  1.00  0.00     0.129 A 
BRANCH 101 102
ATOM    102  O   UNL     1       2.707  12.909   2.374  1.00  0.00    -0.406 OA
BRANCH 102 103
ATOM    103  C   UNL     1       2.929  13.436   3.668  1.00  0.00     0.573 C 
ATOM    104  F   UNL     1       2.850  12.473   4.610  1.00  0.00    -0.132 F 
ATOM    105  F   UNL     1       4.127  14.053   3.750  1.00  0.00    -0.132 F 
ATOM    106  F   UNL     1       1.971  14.356   3.928  1.00  0.00    -0.132 F 
ENDBRANCH 102 103
ENDBRANCH 101 102
ENDBRANCH  84  96
ENDBRANCH  77  80
ENDBRANCH  75  76
ENDBRANCH   1  75
TORSDOF 16
