REMARK SMILES Cc1ccc(S(=O)(=O)n2cc(C(=O)C(=O)N[C@@H](Cc3c[nH]c4ccccc34)C(=O)NCCCNC(=O)c3ccc(-c4c5nc(c(-c6c(F)cc(S(=O)(=O)[O-])cc6F)c6ccc([nH]6)c(-c6c(F)cc(S(=O)(=O)[O-])cc6F)c6nc(c(-c7c(F)cc(S(=O)(=O)[O-])cc7F)c7ccc4[nH]7)C=C6)C=C5)cc3)c3ccccc32)cc1
REMARK SMILES IDX 31 1 30 2 28 3 29 4 17 6 16 7 14 8 15 9 12 11 13 12 11 13
REMARK SMILES IDX 9 14 10 15 108 16 103 17 107 18 104 19 106 20 105 21 6 22
REMARK SMILES IDX 7 23 8 24 5 25 1 26 2 27 3 28 110 29 4 30 109 31 18 32 19 33
REMARK SMILES IDX 20 34 27 35 21 36 22 37 26 38 23 40 25 41 24 42 32 43 33 44
REMARK SMILES IDX 34 45 35 46 36 48 37 49 38 50 102 51 39 52 101 53 40 54
REMARK SMILES IDX 41 55 42 56 95 57 43 58 100 59 94 60 96 61 44 62 99 63 93 64
REMARK SMILES IDX 92 65 45 67 79 68 58 69 78 70 59 71 62 72 77 73 97 74 60 75
REMARK SMILES IDX 61 76 76 78 98 79 63 80 46 81 47 82 56 83 48 84 49 85 55 86
REMARK SMILES IDX 57 87 50 88 51 89 52 90 53 91 54 92 80 93 81 94 90 95 82 96
REMARK SMILES IDX 83 97 89 98 91 99 84 100 85 101 86 102 87 103 88 104 64 105
REMARK SMILES IDX 65 106 74 107 66 108 67 109 73 110 75 111 68 112 69 113
REMARK SMILES IDX 70 114 71 115 72 116
REMARK H PARENT 30 5 16 10 21 39 34 47 96 66 62 77
REMARK Flexibility Score: inf
ROOT
ATOM      1  C   UNL     1     -12.759   3.652  -0.484  1.00  0.00     0.117 C 
ENDROOT
BRANCH   1   2
ATOM      2  N   UNL     1     -12.177   2.661  -1.397  1.00  0.00    -0.354 N 
ATOM      3  C   UNL     1     -11.542   1.516  -0.938  1.00  0.00     0.242 C 
ATOM      4  O   UNL     1     -11.726   0.443  -1.522  1.00  0.00    -0.273 OA
ATOM      5  H   UNL     1     -12.238   2.813  -2.368  1.00  0.00     0.163 HD
BRANCH   3   6
ATOM      6  C   UNL     1     -10.662   1.573   0.365  1.00  0.00     0.176 C 
BRANCH   6   7
ATOM      7  N   UNL     1      -9.579   2.580   0.240  1.00  0.00    -0.337 N 
ATOM      8  C   UNL     1      -8.270   2.463  -0.220  1.00  0.00     0.293 C 
ATOM      9  O   UNL     1      -7.491   3.411  -0.148  1.00  0.00    -0.265 OA
ATOM     10  H   UNL     1      -9.829   3.486   0.534  1.00  0.00     0.164 HD
BRANCH   8  11
ATOM     11  C   UNL     1      -7.762   1.154  -0.832  1.00  0.00     0.252 C 
ATOM     12  O   UNL     1      -8.480   0.644  -1.689  1.00  0.00    -0.283 OA
BRANCH  11  13
ATOM     13  C   UNL     1      -6.559   0.454  -0.334  1.00  0.00     0.054 A 
ATOM     14  N   UNL     1      -4.588  -0.191   0.575  1.00  0.00    -0.240 N 
ATOM     15  C   UNL     1      -5.284   0.901   0.055  1.00  0.00     0.117 A 
ATOM     16  C   UNL     1      -5.505  -1.256   0.677  1.00  0.00     0.065 A 
ATOM     17  C   UNL     1      -6.494  -0.969  -0.255  1.00  0.00     0.012 A 
ATOM     18  C   UNL     1      -5.353  -2.550   1.217  1.00  0.00     0.028 A 
ATOM     19  C   UNL     1      -7.210  -2.040  -0.828  1.00  0.00     0.011 A 
ATOM     20  C   UNL     1      -6.005  -3.599   0.572  1.00  0.00     0.002 A 
ATOM     21  C   UNL     1      -6.887  -3.352  -0.470  1.00  0.00     0.001 A 
BRANCH  14  22
ATOM     22  S   UNL     1      -3.020  -0.808   0.144  1.00  0.00     0.268 S 
ATOM     23  O   UNL     1      -3.265  -1.409  -1.159  1.00  0.00    -0.201 OA
ATOM     24  O   UNL     1      -2.727  -1.641   1.308  1.00  0.00    -0.201 OA
BRANCH  22  25
ATOM     25  C   UNL     1      -1.461  -0.033  -0.050  1.00  0.00     0.088 A 
ATOM     26  C   UNL     1       2.800   0.704  -0.053  1.00  0.00     0.044 C 
ATOM     27  C   UNL     1       1.313   0.504  -0.118  1.00  0.00    -0.051 A 
ATOM     28  C   UNL     1       0.869  -0.792  -0.321  1.00  0.00     0.005 A 
ATOM     29  C   UNL     1       0.359   1.532   0.072  1.00  0.00     0.005 A 
ATOM     30  C   UNL     1      -0.488  -1.041  -0.303  1.00  0.00     0.022 A 
ATOM     31  C   UNL     1      -1.040   1.273   0.115  1.00  0.00     0.022 A 
ENDBRANCH  22  25
ENDBRANCH  14  22
ENDBRANCH  11  13
ENDBRANCH   8  11
ENDBRANCH   6   7
BRANCH   6  32
ATOM     32  C   UNL     1     -11.472   1.595   1.738  1.00  0.00     0.072 C 
BRANCH  32  33
ATOM     33  C   UNL     1     -12.221   2.842   2.265  1.00  0.00    -0.020 A 
ATOM     34  C   UNL     1     -13.607   2.946   2.381  1.00  0.00     0.087 A 
ATOM     35  C   UNL     1     -11.717   4.193   2.481  1.00  0.00     0.003 A 
ATOM     36  N   UNL     1     -13.949   4.271   2.531  1.00  0.00    -0.361 N 
ATOM     37  C   UNL     1     -12.821   5.059   2.499  1.00  0.00     0.046 A 
ATOM     38  C   UNL     1     -10.434   4.780   2.411  1.00  0.00     0.010 A 
ATOM     39  H   UNL     1     -14.867   4.606   2.645  1.00  0.00     0.166 HD
ATOM     40  C   UNL     1     -12.705   6.455   2.352  1.00  0.00     0.026 A 
ATOM     41  C   UNL     1     -10.304   6.163   2.212  1.00  0.00     0.001 A 
ATOM     42  C   UNL     1     -11.426   6.985   2.158  1.00  0.00     0.002 A 
ENDBRANCH  32  33
ENDBRANCH   6  32
ENDBRANCH   3   6
ENDBRANCH   1   2
BRANCH   1  43
ATOM     43  C   UNL     1     -12.668   5.189  -0.685  1.00  0.00     0.042 C 
BRANCH  43  44
ATOM     44  C   UNL     1     -14.100   6.072  -0.680  1.00  0.00     0.118 C 
BRANCH  44  45
ATOM     45  N   UNL     1     -14.822   7.611  -1.055  1.00  0.00    -0.352 N 
ATOM     46  C   UNL     1     -15.534   8.652  -1.993  1.00  0.00     0.251 C 
ATOM     47  H   UNL     1     -14.739   8.104  -0.207  1.00  0.00     0.163 HD
ATOM     48  O   UNL     1     -16.391   9.280  -1.326  1.00  0.00    -0.269 OA
BRANCH  46  49
ATOM     49  C   UNL     1     -15.633   9.102  -3.670  1.00  0.00     0.039 A 
ATOM     50  C   UNL     1     -16.780   8.953  -4.480  1.00  0.00     0.014 A 
ATOM     51  C   UNL     1     -14.595   9.493  -4.502  1.00  0.00     0.014 A 
ATOM     52  C   UNL     1     -16.655   8.258  -5.741  1.00  0.00     0.010 A 
ATOM     53  C   UNL     1     -14.403   8.717  -5.688  1.00  0.00     0.010 A 
ATOM     54  C   UNL     1     -15.394   7.862  -6.171  1.00  0.00    -0.014 A 
BRANCH  54  55
ATOM     55  C   UNL     1     -15.073   6.642  -7.017  1.00  0.00     0.031 A 
ATOM     56  C   UNL     1     -14.564   6.868  -8.354  1.00  0.00     0.074 A 
ATOM     57  C   UNL     1     -15.059   5.299  -6.737  1.00  0.00     0.049 A 
ATOM     58  N   UNL     1     -15.195   6.547  -9.432  1.00  0.00    -0.248 NA
ATOM     59  C   UNL     1     -13.245   7.449  -8.547  1.00  0.00     0.031 C 
ATOM     60  C   UNL     1     -14.740   4.102  -7.545  1.00  0.00     0.029 A 
ATOM     61  N   UNL     1     -15.354   4.667  -5.545  1.00  0.00    -0.354 N 
ATOM     62  C   UNL     1     -14.239   6.612 -10.419  1.00  0.00     0.074 A 
ATOM     63  C   UNL     1     -13.159   7.414  -9.877  1.00  0.00     0.031 C 
ATOM     64  C   UNL     1     -15.309   3.013  -6.971  1.00  0.00     0.029 A 
ATOM     65  C   UNL     1     -16.008   3.465  -5.789  1.00  0.00     0.049 A 
ATOM     66  H   UNL     1     -15.133   5.018  -4.652  1.00  0.00     0.167 HD
ATOM     67  C   UNL     1     -14.207   5.711 -11.443  1.00  0.00     0.037 A 
ATOM     68  C   UNL     1     -17.336   3.408  -5.458  1.00  0.00     0.037 A 
ATOM     69  C   UNL     1     -15.057   4.543 -11.169  1.00  0.00     0.049 A 
ATOM     70  C   UNL     1     -18.206   3.385  -6.685  1.00  0.00     0.074 A 
ATOM     71  C   UNL     1     -14.794   3.209 -10.886  1.00  0.00     0.029 A 
ATOM     72  N   UNL     1     -16.392   4.718 -10.856  1.00  0.00    -0.354 N 
ATOM     73  N   UNL     1     -17.727   3.255  -7.886  1.00  0.00    -0.248 NA
ATOM     74  C   UNL     1     -19.653   3.586  -6.688  1.00  0.00     0.031 C 
ATOM     75  C   UNL     1     -16.000   2.586 -10.454  1.00  0.00     0.029 A 
ATOM     76  C   UNL     1     -17.000   3.537 -10.478  1.00  0.00     0.049 A 
ATOM     77  H   UNL     1     -16.855   5.585 -10.898  1.00  0.00     0.167 HD
ATOM     78  C   UNL     1     -18.705   3.488  -8.806  1.00  0.00     0.074 A 
ATOM     79  C   UNL     1     -19.909   3.652  -8.009  1.00  0.00     0.031 C 
ATOM     80  C   UNL     1     -18.416   3.570 -10.137  1.00  0.00     0.037 A 
BRANCH  67  81
ATOM     81  C   UNL     1     -13.149   5.752 -12.525  1.00  0.00     0.058 A 
ATOM     82  C   UNL     1     -12.853   4.622 -13.310  1.00  0.00     0.135 A 
ATOM     83  C   UNL     1     -12.437   6.920 -12.885  1.00  0.00     0.135 A 
ATOM     84  F   UNL     1     -13.547   3.483 -13.197  1.00  0.00    -0.206 F 
ATOM     85  C   UNL     1     -11.857   4.617 -14.286  1.00  0.00     0.059 A 
ATOM     86  C   UNL     1     -11.391   6.926 -13.809  1.00  0.00     0.059 A 
ATOM     87  F   UNL     1     -12.774   8.125 -12.396  1.00  0.00    -0.206 F 
ATOM     88  C   UNL     1     -11.111   5.765 -14.512  1.00  0.00     0.060 A 
BRANCH  88  89
ATOM     89  S   UNL     1      -9.847   5.736 -15.792  1.00  0.00     0.124 S 
ATOM     90  O   UNL     1      -9.009   4.616 -15.375  1.00  0.00    -0.237 OA
ATOM     91  O   UNL     1     -10.643   5.520 -16.996  1.00  0.00    -0.237 OA
ATOM     92  O   UNL     1      -9.221   7.051 -15.685  1.00  0.00    -0.744 OA
ENDBRANCH  88  89
ENDBRANCH  67  81
BRANCH  68  93
ATOM     93  C   UNL     1     -17.657   4.137  -4.157  1.00  0.00     0.058 A 
ATOM     94  C   UNL     1     -16.886   3.693  -3.080  1.00  0.00     0.135 A 
ATOM     95  C   UNL     1     -17.699   5.513  -4.205  1.00  0.00     0.135 A 
ATOM     96  F   UNL     1     -17.166   2.515  -2.509  1.00  0.00    -0.206 F 
ATOM     97  C   UNL     1     -15.700   4.364  -2.711  1.00  0.00     0.059 A 
ATOM     98  C   UNL     1     -16.647   6.250  -3.629  1.00  0.00     0.059 A 
ATOM     99  F   UNL     1     -18.708   6.152  -4.818  1.00  0.00    -0.206 F 
ATOM    100  C   UNL     1     -15.466   5.667  -3.185  1.00  0.00     0.060 A 
BRANCH 100 101
ATOM    101  S   UNL     1     -13.544   6.487  -3.631  1.00  0.00     0.124 S 
ATOM    102  O   UNL     1     -12.501   5.924  -2.864  1.00  0.00    -0.237 OA
ATOM    103  O   UNL     1     -13.290   6.079  -5.008  1.00  0.00    -0.237 OA
ATOM    104  O   UNL     1     -13.531   7.872  -3.287  1.00  0.00    -0.744 OA
ENDBRANCH 100 101
ENDBRANCH  68  93
BRANCH  80 105
ATOM    105  C   UNL     1     -19.432   3.731 -11.235  1.00  0.00     0.058 A 
ATOM    106  C   UNL     1     -20.702   3.135 -11.187  1.00  0.00     0.135 A 
ATOM    107  C   UNL     1     -19.115   4.388 -12.449  1.00  0.00     0.135 A 
ATOM    108  F   UNL     1     -21.069   2.368 -10.150  1.00  0.00    -0.206 F 
ATOM    109  C   UNL     1     -21.626   3.272 -12.223  1.00  0.00     0.059 A 
ATOM    110  C   UNL     1     -20.000   4.493 -13.512  1.00  0.00     0.059 A 
ATOM    111  F   UNL     1     -17.930   4.973 -12.663  1.00  0.00    -0.206 F 
ATOM    112  C   UNL     1     -21.268   3.964 -13.377  1.00  0.00     0.060 A 
BRANCH 112 113
ATOM    113  S   UNL     1     -22.460   4.146 -14.709  1.00  0.00     0.124 S 
ATOM    114  O   UNL     1     -23.024   2.804 -14.808  1.00  0.00    -0.237 OA
ATOM    115  O   UNL     1     -23.348   5.168 -14.163  1.00  0.00    -0.237 OA
ATOM    116  O   UNL     1     -21.645   4.564 -15.846  1.00  0.00    -0.744 OA
ENDBRANCH 112 113
ENDBRANCH  80 105
ENDBRANCH  54  55
ENDBRANCH  46  49
ENDBRANCH  44  45
ENDBRANCH  43  44
ENDBRANCH   1  43
TORSDOF 20
