REMARK SMILES CC(C)C[C@@H](CNc1ccc(C(N)=O)cc1)C(=O)NCCCNC(=O)c1ccc(-c2c3nc(c(-c4c(F)cc(S(=O)(=O)[O-])cc4F)c4ccc([nH]4)c(-c4c(F)cc(S(=O)(=O)[O-])cc4F)c4nc(c(-c5c(F)cc(S(=O)(=O)[O-])cc5F)c5ccc2[nH]5)C=C4)C=C3)cc1
REMARK SMILES IDX 20 1 19 2 17 3 18 4 5 6 4 7 2 8 1 9 3 10 6 11 7 12 8 14 9 15
REMARK SMILES IDX 16 16 10 17 15 18 11 19 12 20 13 21 14 22 21 25 22 26 23 27
REMARK SMILES IDX 24 28 25 30 26 31 27 32 91 33 28 34 90 35 29 36 30 37 31 38
REMARK SMILES IDX 84 39 32 40 89 41 83 42 85 43 33 44 88 45 82 46 81 47 34 49
REMARK SMILES IDX 68 50 47 51 67 52 48 53 51 54 66 55 86 56 49 57 50 58 65 60
REMARK SMILES IDX 87 61 52 62 35 63 36 64 45 65 37 66 38 67 44 68 46 69 39 70
REMARK SMILES IDX 40 71 41 72 42 73 43 74 69 75 70 76 79 77 71 78 72 79 78 80
REMARK SMILES IDX 80 81 73 82 74 83 75 84 76 85 77 86 53 87 54 88 63 89 55 90
REMARK SMILES IDX 56 91 62 92 64 93 57 94 58 95 59 96 60 97 61 98
REMARK H PARENT 19 5 7 13 13 23 13 24 23 29 85 48 51 59
REMARK Flexibility Score: inf
ROOT
ATOM      1  C   UNL     1      -3.305  -0.049   3.242  1.00  0.00     0.117 C 
ENDROOT
BRANCH   1   2
ATOM      2  N   UNL     1      -3.622  -0.309   1.859  1.00  0.00    -0.356 N 
ATOM      3  C   UNL     1      -2.854  -0.966   0.945  1.00  0.00     0.224 C 
ATOM      4  O   UNL     1      -3.414  -1.416  -0.059  1.00  0.00    -0.275 OA
ATOM      5  H   UNL     1      -4.491   0.026   1.539  1.00  0.00     0.163 HD
BRANCH   3   6
ATOM      6  C   UNL     1      -1.339  -1.101   1.112  1.00  0.00     0.098 C 
BRANCH   6   7
ATOM      7  C   UNL     1      -0.683   0.283   1.305  1.00  0.00     0.018 C 
BRANCH   7   8
ATOM      8  C   UNL     1       0.851   0.333   1.289  1.00  0.00    -0.017 C 
ATOM      9  C   UNL     1       1.422   0.003  -0.089  1.00  0.00     0.007 C 
ATOM     10  C   UNL     1       1.305   1.737   1.711  1.00  0.00     0.007 C 
ENDBRANCH   7   8
ENDBRANCH   6   7
BRANCH   6  11
ATOM     11  C   UNL     1      -0.923  -2.297   1.996  1.00  0.00     0.126 C 
BRANCH  11  12
ATOM     12  N   UNL     1      -1.128  -2.144   3.434  1.00  0.00    -0.384 N 
ATOM     13  H   UNL     1      -0.778  -1.331   3.866  1.00  0.00     0.160 HD
BRANCH  12  14
ATOM     14  C   UNL     1      -1.784  -3.071   4.229  1.00  0.00     0.034 A 
ATOM     15  C   UNL     1      -2.538  -2.629   5.330  1.00  0.00     0.026 A 
ATOM     16  C   UNL     1      -1.821  -4.437   3.943  1.00  0.00     0.026 A 
ATOM     17  C   UNL     1      -3.362  -3.495   6.066  1.00  0.00     0.016 A 
ATOM     18  C   UNL     1      -2.596  -5.323   4.707  1.00  0.00     0.016 A 
ATOM     19  C   UNL     1      -3.399  -4.854   5.752  1.00  0.00     0.039 A 
BRANCH  19  20
ATOM     20  C   UNL     1      -4.240  -5.840   6.491  1.00  0.00     0.248 C 
ATOM     21  N   UNL     1      -5.279  -5.367   7.245  1.00  0.00    -0.366 N 
ATOM     22  O   UNL     1      -4.032  -7.043   6.412  1.00  0.00    -0.270 OA
ATOM     23  H   UNL     1      -5.442  -4.398   7.305  1.00  0.00     0.159 HD
ATOM     24  H   UNL     1      -5.863  -5.995   7.727  1.00  0.00     0.159 HD
ENDBRANCH  19  20
ENDBRANCH  12  14
ENDBRANCH  11  12
ENDBRANCH   6  11
ENDBRANCH   3   6
ENDBRANCH   1   2
BRANCH   1  25
ATOM     25  C   UNL     1      -3.747   1.300   3.758  1.00  0.00     0.042 C 
BRANCH  25  26
ATOM     26  C   UNL     1      -5.228   1.333   4.077  1.00  0.00     0.118 C 
BRANCH  26  27
ATOM     27  N   UNL     1      -5.602   0.369   5.113  1.00  0.00    -0.352 N 
ATOM     28  C   UNL     1      -6.064   0.564   6.393  1.00  0.00     0.251 C 
ATOM     29  H   UNL     1      -5.507  -0.575   4.850  1.00  0.00     0.163 HD
ATOM     30  O   UNL     1      -6.102  -0.384   7.173  1.00  0.00    -0.269 OA
BRANCH  28  31
ATOM     31  C   UNL     1      -6.485   1.915   6.818  1.00  0.00     0.039 A 
ATOM     32  C   UNL     1      -6.178   2.366   8.103  1.00  0.00     0.014 A 
ATOM     33  C   UNL     1      -7.152   2.755   5.925  1.00  0.00     0.014 A 
ATOM     34  C   UNL     1      -6.455   3.691   8.449  1.00  0.00     0.010 A 
ATOM     35  C   UNL     1      -7.293   4.102   6.219  1.00  0.00     0.010 A 
ATOM     36  C   UNL     1      -6.960   4.586   7.490  1.00  0.00    -0.014 A 
BRANCH  36  37
ATOM     37  C   UNL     1      -7.152   6.029   7.787  1.00  0.00     0.031 A 
ATOM     38  C   UNL     1      -8.512   6.658   7.629  1.00  0.00     0.074 A 
ATOM     39  C   UNL     1      -6.086   6.786   8.118  1.00  0.00     0.049 A 
ATOM     40  N   UNL     1      -8.863   7.910   7.772  1.00  0.00    -0.248 NA
ATOM     41  C   UNL     1      -9.616   5.774   7.215  1.00  0.00     0.031 C 
ATOM     42  C   UNL     1      -4.705   6.309   8.226  1.00  0.00     0.029 A 
ATOM     43  N   UNL     1      -5.995   8.122   8.420  1.00  0.00    -0.354 N 
ATOM     44  C   UNL     1     -10.215   7.963   7.452  1.00  0.00     0.074 A 
ATOM     45  C   UNL     1     -10.604   6.636   7.033  1.00  0.00     0.031 C 
ATOM     46  C   UNL     1      -3.914   7.323   8.609  1.00  0.00     0.029 A 
ATOM     47  C   UNL     1      -4.720   8.533   8.729  1.00  0.00     0.049 A 
ATOM     48  H   UNL     1      -6.770   8.729   8.415  1.00  0.00     0.167 HD
ATOM     49  C   UNL     1     -11.066   9.013   7.532  1.00  0.00     0.037 A 
ATOM     50  C   UNL     1      -4.251   9.750   9.069  1.00  0.00     0.037 A 
ATOM     51  C   UNL     1     -10.676  10.324   7.981  1.00  0.00     0.049 A 
ATOM     52  C   UNL     1      -5.217  10.899   9.167  1.00  0.00     0.074 A 
ATOM     53  C   UNL     1     -11.470  11.441   8.165  1.00  0.00     0.029 A 
ATOM     54  N   UNL     1      -9.381  10.694   8.316  1.00  0.00    -0.354 N 
ATOM     55  N   UNL     1      -6.509  10.912   8.936  1.00  0.00    -0.248 NA
ATOM     56  C   UNL     1      -4.666  12.195   9.583  1.00  0.00     0.031 C 
ATOM     57  C   UNL     1     -10.647  12.501   8.559  1.00  0.00     0.029 A 
ATOM     58  C   UNL     1      -9.350  12.028   8.683  1.00  0.00     0.049 A 
ATOM     59  H   UNL     1      -8.600  10.095   8.295  1.00  0.00     0.167 HD
ATOM     60  C   UNL     1      -6.930  12.209   9.206  1.00  0.00     0.074 A 
ATOM     61  C   UNL     1      -5.758  12.945   9.634  1.00  0.00     0.031 C 
ATOM     62  C   UNL     1      -8.173  12.744   9.109  1.00  0.00     0.037 A 
BRANCH  49  63
ATOM     63  C   UNL     1     -12.501   8.784   7.140  1.00  0.00     0.058 A 
ATOM     64  C   UNL     1     -13.354   7.966   7.900  1.00  0.00     0.135 A 
ATOM     65  C   UNL     1     -13.042   9.414   6.007  1.00  0.00     0.135 A 
ATOM     66  F   UNL     1     -12.888   7.323   8.982  1.00  0.00    -0.206 F 
ATOM     67  C   UNL     1     -14.680   7.758   7.536  1.00  0.00     0.059 A 
ATOM     68  C   UNL     1     -14.375   9.247   5.643  1.00  0.00     0.059 A 
ATOM     69  F   UNL     1     -12.273  10.204   5.241  1.00  0.00    -0.206 F 
ATOM     70  C   UNL     1     -15.183   8.405   6.406  1.00  0.00     0.060 A 
BRANCH  70  71
ATOM     71  S   UNL     1     -16.909   8.133   5.957  1.00  0.00     0.124 S 
ATOM     72  O   UNL     1     -16.871   6.754   5.477  1.00  0.00    -0.237 OA
ATOM     73  O   UNL     1     -17.597   8.343   7.226  1.00  0.00    -0.237 OA
ATOM     74  O   UNL     1     -17.159   9.145   4.936  1.00  0.00    -0.744 OA
ENDBRANCH  70  71
ENDBRANCH  49  63
BRANCH  50  75
ATOM     75  C   UNL     1      -2.805   9.934   9.372  1.00  0.00     0.058 A 
ATOM     76  C   UNL     1      -2.369  10.205  10.678  1.00  0.00     0.135 A 
ATOM     77  C   UNL     1      -1.830   9.829   8.368  1.00  0.00     0.135 A 
ATOM     78  F   UNL     1      -3.263  10.318  11.673  1.00  0.00    -0.206 F 
ATOM     79  C   UNL     1      -1.022  10.385  10.976  1.00  0.00     0.059 A 
ATOM     80  C   UNL     1      -0.474   9.976   8.646  1.00  0.00     0.059 A 
ATOM     81  F   UNL     1      -2.191   9.550   7.106  1.00  0.00    -0.206 F 
ATOM     82  C   UNL     1      -0.081  10.265   9.952  1.00  0.00     0.060 A 
BRANCH  82  83
ATOM     83  S   UNL     1       1.668  10.454  10.358  1.00  0.00     0.124 S 
ATOM     84  O   UNL     1       1.759  11.888  10.609  1.00  0.00    -0.237 OA
ATOM     85  O   UNL     1       1.805   9.590  11.527  1.00  0.00    -0.237 OA
ATOM     86  O   UNL     1       2.345   9.979   9.155  1.00  0.00    -0.744 OA
ENDBRANCH  82  83
ENDBRANCH  50  75
BRANCH  62  87
ATOM     87  C   UNL     1      -8.337  14.185   9.510  1.00  0.00     0.058 A 
ATOM     88  C   UNL     1      -7.815  15.234   8.737  1.00  0.00     0.135 A 
ATOM     89  C   UNL     1      -9.059  14.520  10.667  1.00  0.00     0.135 A 
ATOM     90  F   UNL     1      -7.113  14.969   7.623  1.00  0.00    -0.206 F 
ATOM     91  C   UNL     1      -7.971  16.562   9.117  1.00  0.00     0.059 A 
ATOM     92  C   UNL     1      -9.257  15.843  11.048  1.00  0.00     0.059 A 
ATOM     93  F   UNL     1      -9.592  13.556  11.435  1.00  0.00    -0.206 F 
ATOM     94  C   UNL     1      -8.693  16.857  10.275  1.00  0.00     0.060 A 
BRANCH  94  95
ATOM     95  S   UNL     1      -8.900  18.586  10.749  1.00  0.00     0.124 S 
ATOM     96  O   UNL     1      -7.561  18.922  11.222  1.00  0.00    -0.237 OA
ATOM     97  O   UNL     1      -9.303  19.207   9.491  1.00  0.00    -0.237 OA
ATOM     98  O   UNL     1      -9.935  18.535  11.777  1.00  0.00    -0.744 OA
ENDBRANCH  94  95
ENDBRANCH  62  87
ENDBRANCH  36  37
ENDBRANCH  28  31
ENDBRANCH  26  27
ENDBRANCH  25  26
ENDBRANCH   1  25
TORSDOF 19
