REMARK SMILES Cc1nsc(N(C)C(=O)c2ccc(=O)n(C)n2)c1C(=O)NCCCNC(=O)c1ccc(-c2c3nc(c(-c4c(F)cc(S(=O)(=O)[O-])cc4F)c4ccc([nH]4)c(-c4c(F)cc(S(=O)(=O)[O-])cc4F)c4nc(c(-c5c(F)cc(S(=O)(=O)[O-])cc5F)c5ccc2[nH]5)C=C4)C=C3)cc1
REMARK SMILES IDX 23 1 22 2 21 3 19 4 20 5 18 7 1 8 2 9 3 10 4 11 5 12 6 13
REMARK SMILES IDX 7 14 8 15 9 16 10 17 11 18 17 19 12 20 15 21 13 22 16 23
REMARK SMILES IDX 14 24 24 25 25 26 26 27 27 29 28 30 29 31 93 32 30 33 92 34
REMARK SMILES IDX 31 35 32 36 33 37 86 38 34 39 91 40 85 41 87 42 35 43 90 44
REMARK SMILES IDX 84 45 83 46 36 48 70 49 49 50 69 51 50 52 53 53 68 54 88 55
REMARK SMILES IDX 51 56 52 57 67 59 89 60 54 61 37 62 38 63 47 64 39 65 40 66
REMARK SMILES IDX 46 67 48 68 41 69 42 70 43 71 44 72 45 73 71 74 72 75 81 76
REMARK SMILES IDX 73 77 74 78 80 79 82 80 75 81 76 82 77 83 78 84 79 85 55 86
REMARK SMILES IDX 56 87 65 88 57 89 58 90 64 91 66 92 59 93 60 94 61 95 62 96
REMARK SMILES IDX 63 97
REMARK H PARENT 21 6 25 28 87 47 53 58
REMARK Flexibility Score: inf
ROOT
ATOM      1  C   UNL     1       0.775   0.855  -1.996  1.00  0.00     0.042 C 
ENDROOT
BRANCH   1   2
ATOM      2  C   UNL     1       1.870   1.348  -1.046  1.00  0.00     0.118 C 
BRANCH   2   3
ATOM      3  N   UNL     1       1.401   2.399  -0.164  1.00  0.00    -0.352 N 
ATOM      4  C   UNL     1       1.581   2.382   1.201  1.00  0.00     0.256 C 
ATOM      5  O   UNL     1       2.465   3.084   1.690  1.00  0.00    -0.269 OA
ATOM      6  H   UNL     1       0.928   3.166  -0.563  1.00  0.00     0.163 HD
BRANCH   4   7
ATOM      7  C   UNL     1       0.619   1.663   2.040  1.00  0.00     0.097 A 
ATOM      8  C   UNL     1       0.485  -0.766   0.938  1.00  0.00     0.069 C 
ATOM      9  C   UNL     1       0.183   0.271   1.958  1.00  0.00     0.066 A 
ATOM     10  N   UNL     1      -0.568  -0.172   2.966  1.00  0.00    -0.195 NA
ATOM     11  S   UNL     1      -0.781   1.025   4.048  1.00  0.00    -0.017 S 
ATOM     12  C   UNL     1       0.045   2.249   3.181  1.00  0.00     0.131 A 
BRANCH  12  13
ATOM     13  N   UNL     1       0.008   3.558   3.724  1.00  0.00    -0.299 N 
ATOM     14  C   UNL     1      -0.232   3.826   5.147  1.00  0.00     0.154 C 
BRANCH  13  15
ATOM     15  C   UNL     1       0.152   4.648   2.833  1.00  0.00     0.279 C 
ATOM     16  O   UNL     1       0.009   4.594   1.613  1.00  0.00    -0.267 OA
BRANCH  15  17
ATOM     17  C   UNL     1       0.386   6.045   3.432  1.00  0.00     0.149 A 
ATOM     18  C   UNL     1      -0.263   7.173   2.726  1.00  0.00     0.042 A 
ATOM     19  N   UNL     1       1.111   6.176   4.503  1.00  0.00    -0.165 NA
ATOM     20  C   UNL     1      -0.146   8.383   3.277  1.00  0.00     0.076 A 
ATOM     21  N   UNL     1       1.216   7.436   5.052  1.00  0.00    -0.232 N 
ATOM     22  C   UNL     1       0.594   8.570   4.543  1.00  0.00     0.266 A 
ATOM     23  C   UNL     1       1.985   7.556   6.274  1.00  0.00     0.178 C 
ATOM     24  O   UNL     1       0.620   9.676   5.074  1.00  0.00    -0.268 OA
ENDBRANCH  15  17
ENDBRANCH  13  15
ENDBRANCH  12  13
ENDBRANCH   4   7
ENDBRANCH   2   3
ENDBRANCH   1   2
BRANCH   1  25
ATOM     25  C   UNL     1       0.951   1.394  -3.402  1.00  0.00     0.118 C 
BRANCH  25  26
ATOM     26  N   UNL     1       2.162   0.854  -4.018  1.00  0.00    -0.352 N 
ATOM     27  C   UNL     1       2.774   1.209  -5.202  1.00  0.00     0.251 C 
ATOM     28  H   UNL     1       2.605   0.132  -3.516  1.00  0.00     0.163 HD
ATOM     29  O   UNL     1       3.578   0.457  -5.725  1.00  0.00    -0.269 OA
BRANCH  27  30
ATOM     30  C   UNL     1       2.425   2.498  -5.820  1.00  0.00     0.039 A 
ATOM     31  C   UNL     1       2.265   2.594  -7.203  1.00  0.00     0.014 A 
ATOM     32  C   UNL     1       2.237   3.607  -4.996  1.00  0.00     0.014 A 
ATOM     33  C   UNL     1       1.837   3.802  -7.741  1.00  0.00     0.010 A 
ATOM     34  C   UNL     1       1.674   4.748  -5.506  1.00  0.00     0.010 A 
ATOM     35  C   UNL     1       1.523   4.866  -6.881  1.00  0.00    -0.014 A 
BRANCH  35  36
ATOM     36  C   UNL     1       0.954   6.094  -7.412  1.00  0.00     0.031 A 
ATOM     37  C   UNL     1      -0.321   5.909  -8.142  1.00  0.00     0.074 A 
ATOM     38  C   UNL     1       1.438   7.319  -7.123  1.00  0.00     0.049 A 
ATOM     39  N   UNL     1      -0.488   5.852  -9.421  1.00  0.00    -0.248 NA
ATOM     40  C   UNL     1      -1.531   5.580  -7.371  1.00  0.00     0.031 C 
ATOM     41  C   UNL     1       2.473   7.671  -6.142  1.00  0.00     0.029 A 
ATOM     42  N   UNL     1       1.044   8.533  -7.598  1.00  0.00    -0.354 N 
ATOM     43  C   UNL     1      -1.864   5.779  -9.610  1.00  0.00     0.074 A 
ATOM     44  C   UNL     1      -2.419   5.369  -8.347  1.00  0.00     0.031 C 
ATOM     45  C   UNL     1       2.474   9.007  -5.943  1.00  0.00     0.029 A 
ATOM     46  C   UNL     1       1.589   9.614  -6.918  1.00  0.00     0.049 A 
ATOM     47  H   UNL     1       0.426   8.635  -8.358  1.00  0.00     0.167 HD
ATOM     48  C   UNL     1      -2.444   6.378 -10.688  1.00  0.00     0.037 A 
ATOM     49  C   UNL     1       1.355  10.925  -7.160  1.00  0.00     0.037 A 
ATOM     50  C   UNL     1      -1.438   6.822 -11.623  1.00  0.00     0.049 A 
ATOM     51  C   UNL     1       0.940  11.035  -8.579  1.00  0.00     0.074 A 
ATOM     52  C   UNL     1      -0.631   6.251 -12.581  1.00  0.00     0.029 A 
ATOM     53  N   UNL     1      -0.904   8.047 -11.314  1.00  0.00    -0.354 N 
ATOM     54  N   UNL     1       1.721  10.729  -9.581  1.00  0.00    -0.248 NA
ATOM     55  C   UNL     1      -0.476  11.162  -8.908  1.00  0.00     0.031 C 
ATOM     56  C   UNL     1       0.498   7.114 -12.721  1.00  0.00     0.029 A 
ATOM     57  C   UNL     1       0.337   8.206 -11.873  1.00  0.00     0.049 A 
ATOM     58  H   UNL     1      -1.355   8.725 -10.761  1.00  0.00     0.167 HD
ATOM     59  C   UNL     1       0.866  10.219 -10.536  1.00  0.00     0.074 A 
ATOM     60  C   UNL     1      -0.464  10.670 -10.149  1.00  0.00     0.031 C 
ATOM     61  C   UNL     1       1.252   9.208 -11.364  1.00  0.00     0.037 A 
BRANCH  48  62
ATOM     62  C   UNL     1      -3.829   6.990 -10.714  1.00  0.00     0.058 A 
ATOM     63  C   UNL     1      -4.370   7.413 -11.947  1.00  0.00     0.135 A 
ATOM     64  C   UNL     1      -4.520   7.437  -9.566  1.00  0.00     0.135 A 
ATOM     65  F   UNL     1      -3.788   7.062 -13.105  1.00  0.00    -0.206 F 
ATOM     66  C   UNL     1      -5.482   8.255 -12.030  1.00  0.00     0.059 A 
ATOM     67  C   UNL     1      -5.661   8.230  -9.627  1.00  0.00     0.059 A 
ATOM     68  F   UNL     1      -4.068   7.211  -8.327  1.00  0.00    -0.206 F 
ATOM     69  C   UNL     1      -6.116   8.664 -10.861  1.00  0.00     0.060 A 
BRANCH  69  70
ATOM     70  S   UNL     1      -7.506   9.806 -10.958  1.00  0.00     0.124 S 
ATOM     71  O   UNL     1      -6.853  11.025 -11.421  1.00  0.00    -0.237 OA
ATOM     72  O   UNL     1      -8.377   9.140 -11.921  1.00  0.00    -0.237 OA
ATOM     73  O   UNL     1      -8.008   9.840  -9.588  1.00  0.00    -0.744 OA
ENDBRANCH  69  70
ENDBRANCH  48  62
BRANCH  49  74
ATOM     74  C   UNL     1       1.157  12.019  -6.178  1.00  0.00     0.058 A 
ATOM     75  C   UNL     1       1.084  13.354  -6.612  1.00  0.00     0.135 A 
ATOM     76  C   UNL     1       0.706  11.758  -4.869  1.00  0.00     0.135 A 
ATOM     77  F   UNL     1       1.502  13.688  -7.842  1.00  0.00    -0.206 F 
ATOM     78  C   UNL     1       0.497  14.355  -5.836  1.00  0.00     0.059 A 
ATOM     79  C   UNL     1       0.126  12.743  -4.072  1.00  0.00     0.059 A 
ATOM     80  F   UNL     1       0.723  10.514  -4.366  1.00  0.00    -0.206 F 
ATOM     81  C   UNL     1      -0.015  14.030  -4.581  1.00  0.00     0.060 A 
BRANCH  81  82
ATOM     82  S   UNL     1      -0.989  15.262  -3.685  1.00  0.00     0.124 S 
ATOM     83  O   UNL     1       0.024  16.250  -3.335  1.00  0.00    -0.237 OA
ATOM     84  O   UNL     1      -1.960  15.672  -4.694  1.00  0.00    -0.237 OA
ATOM     85  O   UNL     1      -1.540  14.506  -2.564  1.00  0.00    -0.744 OA
ENDBRANCH  81  82
ENDBRANCH  49  74
BRANCH  61  86
ATOM     86  C   UNL     1       2.716   9.055 -11.650  1.00  0.00     0.058 A 
ATOM     87  C   UNL     1       3.682   8.618 -10.729  1.00  0.00     0.135 A 
ATOM     88  C   UNL     1       3.143   9.295 -12.965  1.00  0.00     0.135 A 
ATOM     89  F   UNL     1       3.342   8.306  -9.471  1.00  0.00    -0.206 F 
ATOM     90  C   UNL     1       5.019   8.449 -11.098  1.00  0.00     0.059 A 
ATOM     91  C   UNL     1       4.462   9.107 -13.362  1.00  0.00     0.059 A 
ATOM     92  F   UNL     1       2.257   9.681 -13.899  1.00  0.00    -0.206 F 
ATOM     93  C   UNL     1       5.398   8.692 -12.419  1.00  0.00     0.060 A 
BRANCH  93  94
ATOM     94  S   UNL     1       7.111   8.406 -12.915  1.00  0.00     0.124 S 
ATOM     95  O   UNL     1       7.820   9.464 -12.203  1.00  0.00    -0.237 OA
ATOM     96  O   UNL     1       7.354   7.047 -12.439  1.00  0.00    -0.237 OA
ATOM     97  O   UNL     1       7.075   8.550 -14.369  1.00  0.00    -0.744 OA
ENDBRANCH  93  94
ENDBRANCH  61  86
ENDBRANCH  35  36
ENDBRANCH  27  30
ENDBRANCH  25  26
ENDBRANCH   1  25
TORSDOF 16
