REMARK SMILES Cc1nn(C)c(C)c1C[C@@H](C)C(=O)N[C@@H](C(=O)NCCCNC(=O)c1ccc(-c2c3nc(c(-c4c(F)cc(S(=O)(=O)[O-])cc4F)c4ccc([nH]4)c(-c4c(F)cc(S(=O)(=O)[O-])cc4F)c4nc(c(-c5c(F)cc(S(=O)(=O)[O-])cc5F)c5ccc2[nH]5)C=C4)C=C3)cc1)c1ccccc1Cl
REMARK SMILES IDX 19 1 18 2 16 3 17 4 15 6 14 7 12 8 13 9 10 11 11 12 9 13
REMARK SMILES IDX 8 14 1 15 2 16 3 17 4 18 6 19 5 20 7 21 91 22 92 23 96 24
REMARK SMILES IDX 93 25 95 26 97 27 94 28 20 29 21 30 22 31 23 32 24 34 25 35
REMARK SMILES IDX 26 36 90 37 27 38 89 39 28 40 29 41 30 42 83 43 31 44 88 45
REMARK SMILES IDX 82 46 84 47 32 48 87 49 81 50 80 51 33 53 67 54 46 55 66 56
REMARK SMILES IDX 47 57 50 58 65 59 85 60 48 61 49 62 64 64 86 65 51 66 34 67
REMARK SMILES IDX 35 68 44 69 36 70 37 71 43 72 45 73 38 74 39 75 40 76 41 77
REMARK SMILES IDX 42 78 68 79 69 80 78 81 70 82 71 83 77 84 79 85 72 86 73 87
REMARK SMILES IDX 74 88 75 89 76 90 52 91 53 92 62 93 54 94 55 95 61 96 63 97
REMARK SMILES IDX 56 98 57 99 58 100 59 101 60 102
REMARK H PARENT 18 5 14 10 22 33 84 52 50 63
REMARK Flexibility Score: inf
ROOT
ATOM      1  C   UNL     1      -2.183   4.446  -1.530  1.00  0.00     0.117 C 
ENDROOT
BRANCH   1   2
ATOM      2  N   UNL     1      -1.381   5.342  -2.325  1.00  0.00    -0.354 N 
ATOM      3  C   UNL     1      -0.062   5.676  -2.164  1.00  0.00     0.247 C 
ATOM      4  O   UNL     1       0.506   6.109  -3.173  1.00  0.00    -0.272 OA
ATOM      5  H   UNL     1      -1.842   5.771  -3.082  1.00  0.00     0.163 HD
BRANCH   3   6
ATOM      6  C   UNL     1       0.732   5.343  -0.842  1.00  0.00     0.203 C 
BRANCH   6   7
ATOM      7  N   UNL     1      -0.017   5.528   0.408  1.00  0.00    -0.340 N 
ATOM      8  C   UNL     1      -0.380   4.705   1.427  1.00  0.00     0.224 C 
ATOM      9  O   UNL     1      -1.105   5.199   2.297  1.00  0.00    -0.275 OA
ATOM     10  H   UNL     1      -0.324   6.455   0.536  1.00  0.00     0.164 HD
BRANCH   8  11
ATOM     11  C   UNL     1       0.059   3.238   1.555  1.00  0.00     0.080 C 
ATOM     12  C   UNL     1       1.544   3.188   1.873  1.00  0.00     0.018 C 
BRANCH  11  13
ATOM     13  C   UNL     1      -0.454   2.372   0.397  1.00  0.00     0.052 C 
BRANCH  13  14
ATOM     14  C   UNL     1      -0.154   0.911   0.364  1.00  0.00    -0.003 A 
ATOM     15  C   UNL     1      -2.588  -0.117   0.343  1.00  0.00     0.069 C 
ATOM     16  C   UNL     1      -1.100  -0.161   0.352  1.00  0.00     0.063 A 
ATOM     17  N   UNL     1      -0.494  -1.347   0.246  1.00  0.00    -0.178 NA
ATOM     18  N   UNL     1       0.806  -1.050   0.123  1.00  0.00    -0.272 N 
ATOM     19  C   UNL     1       1.056   0.295   0.075  1.00  0.00     0.038 A 
ATOM     20  C   UNL     1       1.742  -2.139  -0.026  1.00  0.00     0.174 C 
ATOM     21  C   UNL     1       2.380   0.859  -0.287  1.00  0.00     0.066 C 
ENDBRANCH  13  14
ENDBRANCH  11  13
ENDBRANCH   8  11
ENDBRANCH   6   7
BRANCH   6  22
ATOM     22  C   UNL     1       2.047   6.113  -0.787  1.00  0.00     0.002 A 
ATOM     23  C   UNL     1       3.258   5.393  -0.844  1.00  0.00     0.008 A 
ATOM     24  C   UNL     1       2.114   7.516  -0.726  1.00  0.00     0.046 A 
ATOM     25  C   UNL     1       4.490   6.048  -0.830  1.00  0.00     0.000 A 
ATOM     26  C   UNL     1       3.352   8.169  -0.725  1.00  0.00     0.021 A 
ATOM     27  Cl  UNL     1       0.697   8.503  -0.649  1.00  0.00    -0.084 Cl
ATOM     28  C   UNL     1       4.537   7.436  -0.774  1.00  0.00     0.002 A 
ENDBRANCH   6  22
ENDBRANCH   3   6
ENDBRANCH   1   2
BRANCH   1  29
ATOM     29  C   UNL     1      -3.505   5.005  -1.059  1.00  0.00     0.042 C 
BRANCH  29  30
ATOM     30  C   UNL     1      -4.561   5.045  -2.144  1.00  0.00     0.118 C 
BRANCH  30  31
ATOM     31  N   UNL     1      -4.929   3.719  -2.631  1.00  0.00    -0.352 N 
ATOM     32  C   UNL     1      -6.138   3.065  -2.615  1.00  0.00     0.251 C 
ATOM     33  H   UNL     1      -4.191   3.209  -3.037  1.00  0.00     0.163 HD
ATOM     34  O   UNL     1      -6.184   1.880  -2.936  1.00  0.00    -0.269 OA
BRANCH  32  35
ATOM     35  C   UNL     1      -7.367   3.769  -2.186  1.00  0.00     0.039 A 
ATOM     36  C   UNL     1      -8.308   3.086  -1.411  1.00  0.00     0.014 A 
ATOM     37  C   UNL     1      -7.589   5.102  -2.533  1.00  0.00     0.014 A 
ATOM     38  C   UNL     1      -9.421   3.769  -0.914  1.00  0.00     0.010 A 
ATOM     39  C   UNL     1      -8.628   5.808  -1.941  1.00  0.00     0.010 A 
ATOM     40  C   UNL     1      -9.562   5.149  -1.131  1.00  0.00    -0.014 A 
BRANCH  40  41
ATOM     41  C   UNL     1     -10.678   5.923  -0.531  1.00  0.00     0.031 A 
ATOM     42  C   UNL     1     -11.646   6.662  -1.419  1.00  0.00     0.074 A 
ATOM     43  C   UNL     1     -10.776   6.022   0.811  1.00  0.00     0.049 A 
ATOM     44  N   UNL     1     -12.629   7.458  -1.087  1.00  0.00    -0.248 NA
ATOM     45  C   UNL     1     -11.463   6.516  -2.874  1.00  0.00     0.031 C 
ATOM     46  C   UNL     1      -9.858   5.410   1.776  1.00  0.00     0.029 A 
ATOM     47  N   UNL     1     -11.686   6.682   1.597  1.00  0.00    -0.354 N 
ATOM     48  C   UNL     1     -13.166   7.917  -2.284  1.00  0.00     0.074 A 
ATOM     49  C   UNL     1     -12.362   7.364  -3.350  1.00  0.00     0.031 C 
ATOM     50  C   UNL     1     -10.271   5.696   3.021  1.00  0.00     0.029 A 
ATOM     51  C   UNL     1     -11.456   6.543   2.946  1.00  0.00     0.049 A 
ATOM     52  H   UNL     1     -12.434   7.206   1.230  1.00  0.00     0.167 HD
ATOM     53  C   UNL     1     -14.252   8.702  -2.479  1.00  0.00     0.037 A 
ATOM     54  C   UNL     1     -12.122   7.047   4.003  1.00  0.00     0.037 A 
ATOM     55  C   UNL     1     -15.073   9.216  -1.415  1.00  0.00     0.049 A 
ATOM     56  C   UNL     1     -13.338   7.900   3.758  1.00  0.00     0.074 A 
ATOM     57  C   UNL     1     -16.231   9.968  -1.508  1.00  0.00     0.029 A 
ATOM     58  N   UNL     1     -14.829   9.022  -0.063  1.00  0.00    -0.354 N 
ATOM     59  N   UNL     1     -13.869   8.270   2.616  1.00  0.00    -0.248 NA
ATOM     60  C   UNL     1     -14.049   8.399   4.942  1.00  0.00     0.031 C 
ATOM     61  C   UNL     1     -16.667  10.259  -0.211  1.00  0.00     0.029 A 
ATOM     62  C   UNL     1     -15.806   9.652   0.688  1.00  0.00     0.049 A 
ATOM     63  H   UNL     1     -14.072   8.512   0.307  1.00  0.00     0.167 HD
ATOM     64  C   UNL     1     -14.990   9.023   2.946  1.00  0.00     0.074 A 
ATOM     65  C   UNL     1     -15.071   9.040   4.392  1.00  0.00     0.031 C 
ATOM     66  C   UNL     1     -15.873   9.647   2.128  1.00  0.00     0.037 A 
BRANCH  53  67
ATOM     67  C   UNL     1     -14.631   9.033  -3.897  1.00  0.00     0.058 A 
ATOM     68  C   UNL     1     -15.162   8.061  -4.760  1.00  0.00     0.135 A 
ATOM     69  C   UNL     1     -14.509  10.344  -4.385  1.00  0.00     0.135 A 
ATOM     70  F   UNL     1     -15.283   6.787  -4.351  1.00  0.00    -0.206 F 
ATOM     71  C   UNL     1     -15.540   8.371  -6.061  1.00  0.00     0.059 A 
ATOM     72  C   UNL     1     -14.906  10.683  -5.675  1.00  0.00     0.059 A 
ATOM     73  F   UNL     1     -14.003  11.312  -3.604  1.00  0.00    -0.206 F 
ATOM     74  C   UNL     1     -15.411   9.687  -6.509  1.00  0.00     0.060 A 
BRANCH  74  75
ATOM     75  S   UNL     1     -15.932  10.076  -8.193  1.00  0.00     0.124 S 
ATOM     76  O   UNL     1     -14.866   9.460  -8.977  1.00  0.00    -0.237 OA
ATOM     77  O   UNL     1     -17.235   9.425  -8.275  1.00  0.00    -0.237 OA
ATOM     78  O   UNL     1     -15.961  11.535  -8.212  1.00  0.00    -0.744 OA
ENDBRANCH  74  75
ENDBRANCH  53  67
BRANCH  54  79
ATOM     79  C   UNL     1     -11.674   6.742   5.388  1.00  0.00     0.058 A 
ATOM     80  C   UNL     1     -12.437   5.915   6.227  1.00  0.00     0.135 A 
ATOM     81  C   UNL     1     -10.485   7.278   5.907  1.00  0.00     0.135 A 
ATOM     82  F   UNL     1     -13.583   5.381   5.779  1.00  0.00    -0.206 F 
ATOM     83  C   UNL     1     -12.055   5.655   7.539  1.00  0.00     0.059 A 
ATOM     84  C   UNL     1     -10.068   7.011   7.207  1.00  0.00     0.059 A 
ATOM     85  F   UNL     1      -9.709   8.059   5.140  1.00  0.00    -0.206 F 
ATOM     86  C   UNL     1     -10.870   6.211   8.022  1.00  0.00     0.060 A 
BRANCH  86  87
ATOM     87  S   UNL     1     -10.373   5.853   9.721  1.00  0.00     0.124 S 
ATOM     88  O   UNL     1     -11.297   6.690  10.478  1.00  0.00    -0.237 OA
ATOM     89  O   UNL     1     -10.595   4.413   9.810  1.00  0.00    -0.237 OA
ATOM     90  O   UNL     1      -8.973   6.267   9.755  1.00  0.00    -0.744 OA
ENDBRANCH  86  87
ENDBRANCH  54  79
BRANCH  66  91
ATOM     91  C   UNL     1     -17.019  10.371   2.777  1.00  0.00     0.058 A 
ATOM     92  C   UNL     1     -16.833  11.583   3.459  1.00  0.00     0.135 A 
ATOM     93  C   UNL     1     -18.325   9.865   2.679  1.00  0.00     0.135 A 
ATOM     94  F   UNL     1     -15.603  12.106   3.584  1.00  0.00    -0.206 F 
ATOM     95  C   UNL     1     -17.899  12.254   4.048  1.00  0.00     0.059 A 
ATOM     96  C   UNL     1     -19.410  10.534   3.236  1.00  0.00     0.059 A 
ATOM     97  F   UNL     1     -18.559   8.715   2.026  1.00  0.00    -0.206 F 
ATOM     98  C   UNL     1     -19.184  11.721   3.932  1.00  0.00     0.060 A 
BRANCH  98  99
ATOM     99  S   UNL     1     -20.563  12.613   4.681  1.00  0.00     0.124 S 
ATOM    100  O   UNL     1     -20.370  12.315   6.096  1.00  0.00    -0.237 OA
ATOM    101  O   UNL     1     -20.298  13.992   4.282  1.00  0.00    -0.237 OA
ATOM    102  O   UNL     1     -21.737  12.003   4.064  1.00  0.00    -0.744 OA
ENDBRANCH  98  99
ENDBRANCH  66  91
ENDBRANCH  40  41
ENDBRANCH  32  35
ENDBRANCH  30  31
ENDBRANCH  29  30
ENDBRANCH   1  29
TORSDOF 18
