REMARK SMILES CC(C)c1ccc2c(c1)c(SC(C)(C)C)c(CC(C)(C)C(=O)NCCCNC(=O)c1ccc(-c3c4nc(c(-c5c(F)cc(S(=O)(=O)[O-])cc5F)c5ccc([nH]5)c(-c5c(F)cc(S(=O)(=O)[O-])cc5F)c5nc(c(-c6c(F)cc(S(=O)(=O)[O-])cc6F)c6ccc3[nH]6)C=C5)C=C4)cc1)n2Cc1ccc(Cl)cc1
REMARK SMILES IDX 24 1 23 2 21 3 22 4 18 6 19 7 20 8 17 9 16 10 4 11 5 12 9 13
REMARK SMILES IDX 6 14 8 15 7 16 10 17 96 18 2 19 1 20 3 21 11 22 12 23 13 24
REMARK SMILES IDX 14 25 15 26 97 27 98 28 99 29 104 30 100 31 103 32 101 33
REMARK SMILES IDX 102 34 25 35 26 36 27 37 28 38 29 40 30 41 31 42 95 43 32 44
REMARK SMILES IDX 94 45 33 46 34 47 35 48 88 49 36 50 93 51 87 52 89 53 37 54
REMARK SMILES IDX 92 55 86 56 85 57 38 59 72 60 51 61 71 62 52 63 55 64 70 65
REMARK SMILES IDX 90 66 53 67 54 68 69 70 91 71 56 72 39 73 40 74 49 75 41 76
REMARK SMILES IDX 42 77 48 78 50 79 43 80 44 81 45 82 46 83 47 84 73 85 74 86
REMARK SMILES IDX 83 87 75 88 76 89 82 90 84 91 77 92 78 93 79 94 80 95 81 96
REMARK SMILES IDX 57 97 58 98 67 99 59 100 60 101 66 102 68 103 61 104 62 105
REMARK SMILES IDX 63 106 64 107 65 108
REMARK H PARENT 23 5 27 39 89 58 55 69
REMARK Flexibility Score: inf
ROOT
ATOM      1  C   UNL     1      -6.857   2.908   4.019  1.00  0.00     0.117 C 
ENDROOT
BRANCH   1   2
ATOM      2  N   UNL     1      -6.691   1.522   3.599  1.00  0.00    -0.356 N 
ATOM      3  C   UNL     1      -6.468   1.000   2.354  1.00  0.00     0.226 C 
ATOM      4  O   UNL     1      -6.045  -0.156   2.316  1.00  0.00    -0.275 OA
ATOM      5  H   UNL     1      -6.749   0.858   4.324  1.00  0.00     0.163 HD
BRANCH   3   6
ATOM      6  C   UNL     1      -6.528   1.926   1.141  1.00  0.00     0.049 C 
ATOM      7  C   UNL     1      -5.192   2.670   1.397  1.00  0.00     0.022 C 
ATOM      8  C   UNL     1      -7.883   2.689   1.192  1.00  0.00     0.022 C 
BRANCH   6   9
ATOM      9  C   UNL     1      -6.569   1.283  -0.281  1.00  0.00     0.071 C 
BRANCH   9  10
ATOM     10  C   UNL     1      -5.347   0.613  -0.746  1.00  0.00     0.034 A 
ATOM     11  C   UNL     1      -1.044  -1.110  -0.855  1.00  0.00    -0.045 A 
ATOM     12  C   UNL     1      -1.781  -2.284  -0.670  1.00  0.00     0.006 A 
ATOM     13  C   UNL     1      -1.765   0.076  -1.129  1.00  0.00     0.015 A 
ATOM     14  C   UNL     1      -3.182  -2.291  -0.646  1.00  0.00     0.027 A 
ATOM     15  C   UNL     1      -3.188   0.120  -1.079  1.00  0.00     0.014 A 
ATOM     16  C   UNL     1      -3.865  -1.074  -0.797  1.00  0.00     0.050 A 
ATOM     17  C   UNL     1      -4.169   1.178  -1.211  1.00  0.00     0.037 A 
ATOM     18  N   UNL     1      -5.216  -0.773  -0.712  1.00  0.00    -0.339 N 
BRANCH  11  19
ATOM     19  C   UNL     1       0.486  -1.090  -0.784  1.00  0.00     0.013 C 
ATOM     20  C   UNL     1       1.022   0.083   0.055  1.00  0.00     0.012 C 
ATOM     21  C   UNL     1       1.125  -2.376  -0.228  1.00  0.00     0.012 C 
ENDBRANCH  11  19
BRANCH  17  22
ATOM     22  S   UNL     1      -3.687   2.854  -1.586  1.00  0.00    -0.118 SA
BRANCH  22  23
ATOM     23  C   UNL     1      -4.993   4.169  -1.918  1.00  0.00     0.012 C 
ATOM     24  C   UNL     1      -5.739   3.849  -3.217  1.00  0.00     0.023 C 
ATOM     25  C   UNL     1      -6.034   4.659  -0.881  1.00  0.00     0.023 C 
ATOM     26  C   UNL     1      -4.131   5.448  -2.108  1.00  0.00     0.023 C 
ENDBRANCH  22  23
ENDBRANCH  17  22
BRANCH  18  27
ATOM     27  C   UNL     1      -6.305  -1.786  -0.786  1.00  0.00     0.158 C 
BRANCH  27  28
ATOM     28  C   UNL     1      -7.188  -1.996   0.436  1.00  0.00    -0.028 A 
ATOM     29  C   UNL     1      -8.437  -1.353   0.549  1.00  0.00     0.007 A 
ATOM     30  C   UNL     1      -6.780  -2.810   1.506  1.00  0.00     0.007 A 
ATOM     31  C   UNL     1      -9.145  -1.341   1.755  1.00  0.00     0.021 A 
ATOM     32  C   UNL     1      -7.522  -2.853   2.698  1.00  0.00     0.021 A 
ATOM     33  C   UNL     1      -8.668  -2.072   2.836  1.00  0.00     0.041 A 
ATOM     34  Cl  UNL     1      -9.480  -1.981   4.351  1.00  0.00    -0.084 Cl
ENDBRANCH  27  28
ENDBRANCH  18  27
ENDBRANCH   9  10
ENDBRANCH   6   9
ENDBRANCH   3   6
ENDBRANCH   1   2
BRANCH   1  35
ATOM     35  C   UNL     1      -8.185   3.141   4.700  1.00  0.00     0.042 C 
BRANCH  35  36
ATOM     36  C   UNL     1      -8.316   2.303   5.964  1.00  0.00     0.118 C 
BRANCH  36  37
ATOM     37  N   UNL     1      -7.180   2.429   6.856  1.00  0.00    -0.352 N 
ATOM     38  C   UNL     1      -6.763   3.382   7.741  1.00  0.00     0.251 C 
ATOM     39  H   UNL     1      -6.574   1.654   6.815  1.00  0.00     0.163 HD
ATOM     40  O   UNL     1      -5.719   3.139   8.350  1.00  0.00    -0.269 OA
BRANCH  38  41
ATOM     41  C   UNL     1      -7.431   4.694   7.941  1.00  0.00     0.039 A 
ATOM     42  C   UNL     1      -8.604   5.105   7.310  1.00  0.00     0.014 A 
ATOM     43  C   UNL     1      -6.757   5.606   8.771  1.00  0.00     0.014 A 
ATOM     44  C   UNL     1      -8.989   6.433   7.338  1.00  0.00     0.010 A 
ATOM     45  C   UNL     1      -7.178   6.923   8.863  1.00  0.00     0.010 A 
ATOM     46  C   UNL     1      -8.245   7.347   8.078  1.00  0.00    -0.014 A 
BRANCH  46  47
ATOM     47  C   UNL     1      -8.681   8.736   8.050  1.00  0.00     0.031 A 
ATOM     48  C   UNL     1     -10.063   8.963   8.575  1.00  0.00     0.074 A 
ATOM     49  C   UNL     1      -7.847   9.724   7.672  1.00  0.00     0.049 A 
ATOM     50  N   UNL     1     -11.084   9.503   7.990  1.00  0.00    -0.248 NA
ATOM     51  C   UNL     1     -10.372   8.379   9.894  1.00  0.00     0.031 C 
ATOM     52  C   UNL     1      -6.409   9.643   7.394  1.00  0.00     0.029 A 
ATOM     53  N   UNL     1      -8.099  11.053   7.556  1.00  0.00    -0.354 N 
ATOM     54  C   UNL     1     -12.109   9.501   8.938  1.00  0.00     0.074 A 
ATOM     55  C   UNL     1     -11.664   8.670  10.026  1.00  0.00     0.031 C 
ATOM     56  C   UNL     1      -5.884  10.889   7.390  1.00  0.00     0.029 A 
ATOM     57  C   UNL     1      -6.963  11.851   7.518  1.00  0.00     0.049 A 
ATOM     58  H   UNL     1      -9.011  11.421   7.503  1.00  0.00     0.167 HD
ATOM     59  C   UNL     1     -13.183  10.336   8.870  1.00  0.00     0.037 A 
ATOM     60  C   UNL     1      -6.930  13.199   7.672  1.00  0.00     0.037 A 
ATOM     61  C   UNL     1     -13.384  10.850   7.545  1.00  0.00     0.049 A 
ATOM     62  C   UNL     1      -8.309  13.694   7.425  1.00  0.00     0.074 A 
ATOM     63  C   UNL     1     -13.729  10.288   6.332  1.00  0.00     0.029 A 
ATOM     64  N   UNL     1     -12.875  12.089   7.250  1.00  0.00    -0.354 N 
ATOM     65  N   UNL     1      -8.913  13.637   6.270  1.00  0.00    -0.248 NA
ATOM     66  C   UNL     1      -9.183  13.858   8.577  1.00  0.00     0.031 C 
ATOM     67  C   UNL     1     -12.975  11.008   5.360  1.00  0.00     0.029 A 
ATOM     68  C   UNL     1     -12.252  11.997   6.029  1.00  0.00     0.049 A 
ATOM     69  H   UNL     1     -12.943  12.896   7.809  1.00  0.00     0.167 HD
ATOM     70  C   UNL     1     -10.239  13.361   6.569  1.00  0.00     0.074 A 
ATOM     71  C   UNL     1     -10.359  13.589   8.006  1.00  0.00     0.031 C 
ATOM     72  C   UNL     1     -11.046  12.716   5.676  1.00  0.00     0.037 A 
BRANCH  59  73
ATOM     73  C   UNL     1     -13.861  10.901  10.093  1.00  0.00     0.058 A 
ATOM     74  C   UNL     1     -15.130  11.502  10.004  1.00  0.00     0.135 A 
ATOM     75  C   UNL     1     -13.185  11.082  11.322  1.00  0.00     0.135 A 
ATOM     76  F   UNL     1     -15.843  11.427   8.868  1.00  0.00    -0.206 F 
ATOM     77  C   UNL     1     -15.680  12.242  11.055  1.00  0.00     0.059 A 
ATOM     78  C   UNL     1     -13.735  11.765  12.400  1.00  0.00     0.059 A 
ATOM     79  F   UNL     1     -11.920  10.678  11.499  1.00  0.00    -0.206 F 
ATOM     80  C   UNL     1     -14.971  12.370  12.248  1.00  0.00     0.060 A 
BRANCH  80  81
ATOM     81  S   UNL     1     -15.641  13.382  13.580  1.00  0.00     0.124 S 
ATOM     82  O   UNL     1     -15.561  14.718  13.001  1.00  0.00    -0.237 OA
ATOM     83  O   UNL     1     -16.983  12.831  13.734  1.00  0.00    -0.237 OA
ATOM     84  O   UNL     1     -14.732  13.121  14.693  1.00  0.00    -0.744 OA
ENDBRANCH  80  81
ENDBRANCH  59  73
BRANCH  60  85
ATOM     85  C   UNL     1      -5.927  14.010   8.414  1.00  0.00     0.058 A 
ATOM     86  C   UNL     1      -5.931  15.413   8.313  1.00  0.00     0.135 A 
ATOM     87  C   UNL     1      -5.166  13.464   9.467  1.00  0.00     0.135 A 
ATOM     88  F   UNL     1      -6.639  16.017   7.346  1.00  0.00    -0.206 F 
ATOM     89  C   UNL     1      -5.284  16.229   9.246  1.00  0.00     0.059 A 
ATOM     90  C   UNL     1      -4.504  14.257  10.403  1.00  0.00     0.059 A 
ATOM     91  F   UNL     1      -5.127  12.140   9.681  1.00  0.00    -0.206 F 
ATOM     92  C   UNL     1      -4.598  15.640  10.307  1.00  0.00     0.060 A 
BRANCH  92  93
ATOM     93  S   UNL     1      -3.949  16.689  11.629  1.00  0.00     0.124 S 
ATOM     94  O   UNL     1      -2.888  17.419  10.943  1.00  0.00    -0.237 OA
ATOM     95  O   UNL     1      -5.123  17.471  12.001  1.00  0.00    -0.237 OA
ATOM     96  O   UNL     1      -3.498  15.730  12.634  1.00  0.00    -0.744 OA
ENDBRANCH  92  93
ENDBRANCH  60  85
BRANCH  72  97
ATOM     97  C   UNL     1     -10.530  12.535   4.268  1.00  0.00     0.058 A 
ATOM     98  C   UNL     1      -9.433  11.721   3.930  1.00  0.00     0.135 A 
ATOM     99  C   UNL     1     -11.264  13.086   3.208  1.00  0.00     0.135 A 
ATOM    100  F   UNL     1      -8.740  11.073   4.875  1.00  0.00    -0.206 F 
ATOM    101  C   UNL     1      -9.061  11.495   2.603  1.00  0.00     0.059 A 
ATOM    102  C   UNL     1     -10.931  12.849   1.876  1.00  0.00     0.059 A 
ATOM    103  F   UNL     1     -12.358  13.822   3.462  1.00  0.00    -0.206 F 
ATOM    104  C   UNL     1      -9.822  12.059   1.580  1.00  0.00     0.060 A 
BRANCH 104 105
ATOM    105  S   UNL     1      -9.397  11.685  -0.137  1.00  0.00     0.124 S 
ATOM    106  O   UNL     1      -8.146  12.413  -0.312  1.00  0.00    -0.237 OA
ATOM    107  O   UNL     1      -9.287  10.229  -0.126  1.00  0.00    -0.237 OA
ATOM    108  O   UNL     1     -10.535  12.208  -0.891  1.00  0.00    -0.744 OA
ENDBRANCH 104 105
ENDBRANCH  72  97
ENDBRANCH  46  47
ENDBRANCH  38  41
ENDBRANCH  36  37
ENDBRANCH  35  36
ENDBRANCH   1  35
TORSDOF 20
