REMARK SMILES Cc1c(CCC(=O)N2CCC[C@H]2C(=O)NCCCNC(=O)c2ccc(-c3c4nc(c(-c5c(F)cc(S(=O)(=O)[O-])cc5F)c5ccc([nH]5)c(-c5c(F)cc(S(=O)(=O)[O-])cc5F)c5nc(c(-c6c(F)cc(S(=O)(=O)[O-])cc6F)c6ccc3[nH]6)C=C5)C=C4)cc2)c(=O)oc2cc3oc4c(c3cc12)CCCC4
REMARK SMILES IDX 16 1 15 2 13 3 14 4 12 6 8 7 9 8 10 9 11 10 6 11 7 12 5 13
REMARK SMILES IDX 4 14 3 15 1 16 2 17 99 18 88 19 91 20 98 21 89 22 90 23
REMARK SMILES IDX 92 24 97 25 93 26 96 27 94 28 95 29 100 30 103 31 101 32
REMARK SMILES IDX 102 33 17 34 18 35 19 36 20 37 21 39 22 40 23 41 87 42 24 43
REMARK SMILES IDX 86 44 25 45 26 46 27 47 80 48 28 49 85 50 79 51 81 52 29 53
REMARK SMILES IDX 84 54 78 55 77 56 30 58 64 59 43 60 63 61 44 62 47 63 62 64
REMARK SMILES IDX 82 65 45 66 46 67 61 69 83 70 48 71 31 72 32 73 41 74 33 75
REMARK SMILES IDX 34 76 40 77 42 78 35 79 36 80 37 81 38 82 39 83 65 84 66 85
REMARK SMILES IDX 75 86 67 87 68 88 74 89 76 90 69 91 70 92 71 93 72 94 73 95
REMARK SMILES IDX 49 96 50 97 59 98 51 99 52 100 58 101 60 102 53 103 54 104
REMARK SMILES IDX 55 105 56 106 57 107
REMARK H PARENT 15 5 19 38 81 57 47 68
REMARK Flexibility Score: inf
ROOT
ATOM      1  C   UNL     1       3.515  -3.545   3.195  1.00  0.00     0.117 C 
ENDROOT
BRANCH   1   2
ATOM      2  N   UNL     1       2.853  -3.199   1.946  1.00  0.00    -0.354 N 
ATOM      3  C   UNL     1       2.603  -1.989   1.356  1.00  0.00     0.242 C 
ATOM      4  O   UNL     1       1.786  -2.014   0.434  1.00  0.00    -0.273 OA
ATOM      5  H   UNL     1       2.526  -3.973   1.433  1.00  0.00     0.163 HD
BRANCH   3   6
ATOM      6  C   UNL     1       3.342  -0.705   1.821  1.00  0.00     0.174 C 
ATOM      7  N   UNL     1       3.045   0.554   1.085  1.00  0.00    -0.331 N 
ATOM      8  C   UNL     1       2.788   1.646   2.011  1.00  0.00     0.120 C 
ATOM      9  C   UNL     1       3.176   1.134   3.378  1.00  0.00     0.024 C 
ATOM     10  C   UNL     1       2.958  -0.361   3.269  1.00  0.00     0.037 C 
BRANCH   7  11
ATOM     11  C   UNL     1       3.265   0.695  -0.276  1.00  0.00     0.223 C 
ATOM     12  O   UNL     1       3.692  -0.236  -0.963  1.00  0.00    -0.275 OA
BRANCH  11  13
ATOM     13  C   UNL     1       2.999   2.059  -0.943  1.00  0.00     0.105 C 
BRANCH  13  14
ATOM     14  C   UNL     1       1.589   2.296  -1.517  1.00  0.00     0.053 C 
BRANCH  14  15
ATOM     15  C   UNL     1       0.529   2.257  -0.452  1.00  0.00     0.042 A 
ATOM     16  C   UNL     1      -0.255  -0.046  -1.108  1.00  0.00     0.046 C 
ATOM     17  C   UNL     1      -0.154   1.134  -0.183  1.00  0.00    -0.030 A 
ATOM     18  C   UNL     1      -0.656   1.018   1.181  1.00  0.00     0.022 A 
ATOM     19  C   UNL     1       0.319   3.490   0.363  1.00  0.00     0.339 A 
ATOM     20  C   UNL     1      -0.962   2.164   1.915  1.00  0.00     0.142 A 
ATOM     21  C   UNL     1      -0.695  -0.225   1.808  1.00  0.00     0.024 A 
ATOM     22  O   UNL     1       0.913   4.532   0.103  1.00  0.00    -0.246 OA
ATOM     23  O   UNL     1      -0.626   3.425   1.385  1.00  0.00    -0.422 OA
ATOM     24  C   UNL     1      -1.530   2.122   3.194  1.00  0.00     0.095 A 
ATOM     25  C   UNL     1      -1.224  -0.310   3.093  1.00  0.00     0.025 A 
ATOM     26  C   UNL     1      -1.721   0.839   3.700  1.00  0.00     0.138 A 
ATOM     27  C   UNL     1      -1.586  -1.397   3.910  1.00  0.00     0.001 A 
ATOM     28  O   UNL     1      -2.522   0.488   4.751  1.00  0.00    -0.461 OA
ATOM     29  C   UNL     1      -2.556  -0.870   4.734  1.00  0.00     0.108 A 
ATOM     30  C   UNL     1      -1.582  -2.845   3.600  1.00  0.00     0.040 C 
ATOM     31  C   UNL     1      -3.833  -1.600   4.974  1.00  0.00     0.076 C 
ATOM     32  C   UNL     1      -2.982  -3.227   3.085  1.00  0.00     0.005 C 
ATOM     33  C   UNL     1      -4.140  -2.328   3.625  1.00  0.00     0.008 C 
ENDBRANCH  14  15
ENDBRANCH  13  14
ENDBRANCH  11  13
ENDBRANCH   7  11
ENDBRANCH   3   6
ENDBRANCH   1   2
BRANCH   1  34
ATOM     34  C   UNL     1       2.484  -3.767   4.305  1.00  0.00     0.042 C 
BRANCH  34  35
ATOM     35  C   UNL     1       1.687  -5.057   4.096  1.00  0.00     0.118 C 
BRANCH  35  36
ATOM     36  N   UNL     1       2.314  -6.207   4.727  1.00  0.00    -0.352 N 
ATOM     37  C   UNL     1       2.115  -6.707   5.998  1.00  0.00     0.251 C 
ATOM     38  H   UNL     1       2.967  -6.695   4.174  1.00  0.00     0.163 HD
ATOM     39  O   UNL     1       2.815  -7.599   6.433  1.00  0.00    -0.269 OA
BRANCH  37  40
ATOM     40  C   UNL     1       1.039  -6.119   6.821  1.00  0.00     0.039 A 
ATOM     41  C   UNL     1      -0.282  -6.155   6.364  1.00  0.00     0.014 A 
ATOM     42  C   UNL     1       1.365  -5.517   8.037  1.00  0.00     0.014 A 
ATOM     43  C   UNL     1      -1.272  -5.501   7.083  1.00  0.00     0.010 A 
ATOM     44  C   UNL     1       0.363  -4.888   8.774  1.00  0.00     0.010 A 
ATOM     45  C   UNL     1      -0.952  -4.868   8.290  1.00  0.00    -0.014 A 
BRANCH  45  46
ATOM     46  C   UNL     1      -2.069  -4.300   9.054  1.00  0.00     0.031 A 
ATOM     47  C   UNL     1      -2.272  -4.914  10.397  1.00  0.00     0.074 A 
ATOM     48  C   UNL     1      -2.482  -3.030   8.877  1.00  0.00     0.049 A 
ATOM     49  N   UNL     1      -1.532  -4.601  11.418  1.00  0.00    -0.248 NA
ATOM     50  C   UNL     1      -3.118  -6.087  10.611  1.00  0.00     0.031 C 
ATOM     51  C   UNL     1      -1.603  -1.925   8.475  1.00  0.00     0.029 A 
ATOM     52  N   UNL     1      -3.654  -2.421   9.249  1.00  0.00    -0.354 N 
ATOM     53  C   UNL     1      -1.757  -5.553  12.391  1.00  0.00     0.074 A 
ATOM     54  C   UNL     1      -2.759  -6.448  11.853  1.00  0.00     0.031 C 
ATOM     55  C   UNL     1      -2.197  -0.762   8.815  1.00  0.00     0.029 A 
ATOM     56  C   UNL     1      -3.547  -1.034   9.294  1.00  0.00     0.049 A 
ATOM     57  H   UNL     1      -4.480  -2.911   9.462  1.00  0.00     0.167 HD
ATOM     58  C   UNL     1      -1.095  -5.560  13.577  1.00  0.00     0.037 A 
ATOM     59  C   UNL     1      -4.279  -0.232  10.115  1.00  0.00     0.037 A 
ATOM     60  C   UNL     1      -0.177  -4.479  13.778  1.00  0.00     0.049 A 
ATOM     61  C   UNL     1      -3.619  -0.533  11.442  1.00  0.00     0.074 A 
ATOM     62  C   UNL     1       1.163  -4.244  13.560  1.00  0.00     0.029 A 
ATOM     63  N   UNL     1      -0.683  -3.274  14.208  1.00  0.00    -0.354 N 
ATOM     64  N   UNL     1      -2.481  -0.040  11.862  1.00  0.00    -0.248 NA
ATOM     65  C   UNL     1      -4.071  -1.715  12.181  1.00  0.00     0.031 C 
ATOM     66  C   UNL     1       1.288  -2.824  13.439  1.00  0.00     0.029 A 
ATOM     67  C   UNL     1       0.004  -2.290  13.539  1.00  0.00     0.049 A 
ATOM     68  H   UNL     1      -1.401  -3.142  14.869  1.00  0.00     0.167 HD
ATOM     69  C   UNL     1      -1.944  -1.013  12.710  1.00  0.00     0.074 A 
ATOM     70  C   UNL     1      -2.991  -1.994  12.899  1.00  0.00     0.031 C 
ATOM     71  C   UNL     1      -0.625  -1.080  13.052  1.00  0.00     0.037 A 
BRANCH  58  72
ATOM     72  C   UNL     1      -1.375  -6.501  14.675  1.00  0.00     0.058 A 
ATOM     73  C   UNL     1      -2.178  -6.066  15.737  1.00  0.00     0.135 A 
ATOM     74  C   UNL     1      -0.722  -7.733  14.792  1.00  0.00     0.135 A 
ATOM     75  F   UNL     1      -2.813  -4.884  15.657  1.00  0.00    -0.206 F 
ATOM     76  C   UNL     1      -2.294  -6.803  16.906  1.00  0.00     0.059 A 
ATOM     77  C   UNL     1      -0.826  -8.493  15.955  1.00  0.00     0.059 A 
ATOM     78  F   UNL     1       0.060  -8.184  13.799  1.00  0.00    -0.206 F 
ATOM     79  C   UNL     1      -1.596  -8.006  17.014  1.00  0.00     0.060 A 
BRANCH  79  80
ATOM     80  S   UNL     1      -1.676  -8.888  18.587  1.00  0.00     0.124 S 
ATOM     81  O   UNL     1      -1.063  -7.929  19.500  1.00  0.00    -0.237 OA
ATOM     82  O   UNL     1      -3.113  -9.088  18.745  1.00  0.00    -0.237 OA
ATOM     83  O   UNL     1      -0.901 -10.100  18.337  1.00  0.00    -0.744 OA
ENDBRANCH  79  80
ENDBRANCH  58  72
BRANCH  59  84
ATOM     84  C   UNL     1      -5.757  -0.326   9.857  1.00  0.00     0.058 A 
ATOM     85  C   UNL     1      -6.200  -0.180   8.522  1.00  0.00     0.135 A 
ATOM     86  C   UNL     1      -6.749  -0.613  10.804  1.00  0.00     0.135 A 
ATOM     87  F   UNL     1      -5.351   0.234   7.567  1.00  0.00    -0.206 F 
ATOM     88  C   UNL     1      -7.493  -0.500   8.125  1.00  0.00     0.059 A 
ATOM     89  C   UNL     1      -8.049  -0.962  10.430  1.00  0.00     0.059 A 
ATOM     90  F   UNL     1      -6.478  -0.602  12.116  1.00  0.00    -0.206 F 
ATOM     91  C   UNL     1      -8.395  -0.950   9.081  1.00  0.00     0.060 A 
BRANCH  91  92
ATOM     92  S   UNL     1      -9.979  -1.603   8.517  1.00  0.00     0.124 S 
ATOM     93  O   UNL     1     -10.598  -0.426   7.918  1.00  0.00    -0.237 OA
ATOM     94  O   UNL     1      -9.552  -2.642   7.584  1.00  0.00    -0.237 OA
ATOM     95  O   UNL     1     -10.601  -2.088   9.745  1.00  0.00    -0.744 OA
ENDBRANCH  91  92
ENDBRANCH  59  84
BRANCH  71  96
ATOM     96  C   UNL     1       0.219   0.083  12.655  1.00  0.00     0.058 A 
ATOM     97  C   UNL     1       0.132   1.289  13.363  1.00  0.00     0.135 A 
ATOM     98  C   UNL     1       1.175  -0.010  11.630  1.00  0.00     0.135 A 
ATOM     99  F   UNL     1      -0.762   1.428  14.356  1.00  0.00    -0.206 F 
ATOM    100  C   UNL     1       0.992   2.350  13.097  1.00  0.00     0.059 A 
ATOM    101  C   UNL     1       2.061   1.030  11.363  1.00  0.00     0.059 A 
ATOM    102  F   UNL     1       1.294  -1.133  10.902  1.00  0.00    -0.206 F 
ATOM    103  C   UNL     1       1.968   2.204  12.109  1.00  0.00     0.060 A 
BRANCH 103 104
ATOM    104  S   UNL     1       3.166   3.533  11.875  1.00  0.00     0.124 S 
ATOM    105  O   UNL     1       2.347   4.581  11.274  1.00  0.00    -0.237 OA
ATOM    106  O   UNL     1       3.619   3.788  13.239  1.00  0.00    -0.237 OA
ATOM    107  O   UNL     1       4.168   2.940  10.993  1.00  0.00    -0.744 OA
ENDBRANCH 103 104
ENDBRANCH  71  96
ENDBRANCH  45  46
ENDBRANCH  37  40
ENDBRANCH  35  36
ENDBRANCH  34  35
ENDBRANCH   1  34
TORSDOF 17
