REMARK SMILES CC(C)(C)OC(=O)[C@]1(C(=O)NCCCNC(=O)c2ccc(-c3c4nc(c(-c5c(F)cc(S(=O)(=O)[O-])cc5F)c5ccc([nH]5)c(-c5c(F)cc(S(=O)(=O)[O-])cc5F)c5nc(c(-c6c(F)cc(S(=O)(=O)[O-])cc6F)c6ccc3[nH]6)C=C5)C=C4)cc2)CC=CC[C@@H]1[NH3+]
REMARK SMILES IDX 13 1 12 2 11 3 9 4 10 5 8 7 84 8 88 9 85 10 87 11 86 12 6 13
REMARK SMILES IDX 7 14 5 15 2 16 1 17 3 18 4 19 89 20 14 24 15 25 16 26 17 28
REMARK SMILES IDX 18 29 19 30 83 31 20 32 82 33 21 34 22 35 23 36 76 37 24 38
REMARK SMILES IDX 81 39 75 40 77 41 25 42 80 43 74 44 73 45 26 47 60 48 39 49
REMARK SMILES IDX 59 50 40 51 43 52 58 53 78 54 41 55 42 56 57 58 79 59 44 60
REMARK SMILES IDX 27 61 28 62 37 63 29 64 30 65 36 66 38 67 31 68 32 69 33 70
REMARK SMILES IDX 34 71 35 72 61 73 62 74 71 75 63 76 64 77 70 78 72 79 65 80
REMARK SMILES IDX 66 81 67 82 68 83 69 84 45 85 46 86 55 87 47 88 48 89 54 90
REMARK SMILES IDX 56 91 49 92 50 93 51 94 52 95 53 96
REMARK H PARENT 11 6 89 21 89 22 89 23 15 27 77 46 43 57
REMARK Flexibility Score: inf
ROOT
ATOM      1  C   UNL     1      -2.192  -2.426  -4.955  1.00  0.00     0.042 C 
ENDROOT
BRANCH   1   2
ATOM      2  C   UNL     1      -1.861  -1.050  -4.383  1.00  0.00     0.117 C 
BRANCH   2   3
ATOM      3  N   UNL     1      -0.639  -1.069  -3.605  1.00  0.00    -0.355 N 
ATOM      4  C   UNL     1       0.660  -0.802  -3.859  1.00  0.00     0.244 C 
ATOM      5  O   UNL     1       1.410  -1.083  -2.908  1.00  0.00    -0.274 OA
ATOM      6  H   UNL     1      -0.792  -1.341  -2.671  1.00  0.00     0.163 HD
BRANCH   4   7
ATOM      7  C   UNL     1       1.267  -0.109  -5.103  1.00  0.00     0.201 C 
ATOM      8  C   UNL     1       0.477  -0.160  -6.436  1.00  0.00     0.062 C 
ATOM      9  C   UNL     1       1.584   1.371  -4.634  1.00  0.00     0.212 C 
ATOM     10  C   UNL     1      -0.479   0.946  -6.731  1.00  0.00    -0.029 C 
ATOM     11  C   UNL     1       0.581   2.473  -5.085  1.00  0.00     0.093 C 
ATOM     12  C   UNL     1      -0.445   2.120  -6.103  1.00  0.00    -0.025 C 
BRANCH   7  13
ATOM     13  C   UNL     1       2.493  -0.998  -5.450  1.00  0.00     0.328 C 
ATOM     14  O   UNL     1       2.397  -1.993  -6.165  1.00  0.00    -0.251 OA
BRANCH  13  15
ATOM     15  O   UNL     1       3.668  -0.583  -4.908  1.00  0.00    -0.459 OA
BRANCH  15  16
ATOM     16  C   UNL     1       4.929  -1.028  -5.479  1.00  0.00     0.104 C 
ATOM     17  C   UNL     1       6.011  -0.380  -4.600  1.00  0.00     0.056 C 
ATOM     18  C   UNL     1       5.063  -0.481  -6.907  1.00  0.00     0.056 C 
ATOM     19  C   UNL     1       5.120  -2.548  -5.434  1.00  0.00     0.056 C 
ENDBRANCH  15  16
ENDBRANCH  13  15
ENDBRANCH   7  13
BRANCH   9  20
ATOM     20  N   UNL     1       2.933   1.913  -4.916  1.00  0.00    -0.353 N 
ATOM     21  H   UNL     1       3.024   2.094  -5.916  1.00  0.00     0.344 HD
ATOM     22  H   UNL     1       3.639   1.235  -4.628  1.00  0.00     0.344 HD
ATOM     23  H   UNL     1       3.065   2.782  -4.399  1.00  0.00     0.344 HD
ENDBRANCH   9  20
ENDBRANCH   4   7
ENDBRANCH   2   3
ENDBRANCH   1   2
BRANCH   1  24
ATOM     24  C   UNL     1      -2.671  -3.426  -3.904  1.00  0.00     0.118 C 
BRANCH  24  25
ATOM     25  N   UNL     1      -3.956  -3.049  -3.329  1.00  0.00    -0.352 N 
ATOM     26  C   UNL     1      -5.159  -3.711  -3.329  1.00  0.00     0.251 C 
ATOM     27  H   UNL     1      -3.963  -2.180  -2.866  1.00  0.00     0.163 HD
ATOM     28  O   UNL     1      -6.171  -3.109  -2.981  1.00  0.00    -0.269 OA
BRANCH  26  29
ATOM     29  C   UNL     1      -5.248  -5.128  -3.746  1.00  0.00     0.039 A 
ATOM     30  C   UNL     1      -6.349  -5.540  -4.504  1.00  0.00     0.014 A 
ATOM     31  C   UNL     1      -4.287  -6.063  -3.351  1.00  0.00     0.014 A 
ATOM     32  C   UNL     1      -6.458  -6.873  -4.909  1.00  0.00     0.010 A 
ATOM     33  C   UNL     1      -4.361  -7.376  -3.813  1.00  0.00     0.010 A 
ATOM     34  C   UNL     1      -5.450  -7.797  -4.591  1.00  0.00    -0.014 A 
BRANCH  34  35
ATOM     35  C   UNL     1      -5.520  -9.207  -5.056  1.00  0.00     0.031 A 
ATOM     36  C   UNL     1      -5.634 -10.328  -4.057  1.00  0.00     0.074 A 
ATOM     37  C   UNL     1      -5.419  -9.481  -6.371  1.00  0.00     0.049 A 
ATOM     38  N   UNL     1      -5.624 -11.620  -4.260  1.00  0.00    -0.248 NA
ATOM     39  C   UNL     1      -5.751  -9.945  -2.640  1.00  0.00     0.031 C 
ATOM     40  C   UNL     1      -5.266  -8.484  -7.434  1.00  0.00     0.029 A 
ATOM     41  N   UNL     1      -5.418 -10.679  -7.040  1.00  0.00    -0.354 N 
ATOM     42  C   UNL     1      -5.719 -12.204  -3.002  1.00  0.00     0.074 A 
ATOM     43  C   UNL     1      -5.735 -11.125  -2.038  1.00  0.00     0.031 C 
ATOM     44  C   UNL     1      -5.205  -9.111  -8.620  1.00  0.00     0.029 A 
ATOM     45  C   UNL     1      -5.274 -10.552  -8.402  1.00  0.00     0.049 A 
ATOM     46  H   UNL     1      -5.511 -11.549  -6.588  1.00  0.00     0.167 HD
ATOM     47  C   UNL     1      -5.807 -13.517  -2.680  1.00  0.00     0.037 A 
ATOM     48  C   UNL     1      -5.197 -11.491  -9.365  1.00  0.00     0.037 A 
ATOM     49  C   UNL     1      -5.814 -14.585  -3.647  1.00  0.00     0.049 A 
ATOM     50  C   UNL     1      -5.290 -12.944  -8.983  1.00  0.00     0.074 A 
ATOM     51  C   UNL     1      -5.944 -15.945  -3.426  1.00  0.00     0.029 A 
ATOM     52  N   UNL     1      -5.687 -14.414  -5.018  1.00  0.00    -0.354 N 
ATOM     53  N   UNL     1      -5.428 -13.475  -7.791  1.00  0.00    -0.248 NA
ATOM     54  C   UNL     1      -5.221 -13.924 -10.075  1.00  0.00     0.031 C 
ATOM     55  C   UNL     1      -5.859 -16.599  -4.660  1.00  0.00     0.029 A 
ATOM     56  C   UNL     1      -5.722 -15.643  -5.654  1.00  0.00     0.049 A 
ATOM     57  H   UNL     1      -5.587 -13.546  -5.471  1.00  0.00     0.167 HD
ATOM     58  C   UNL     1      -5.494 -14.849  -7.993  1.00  0.00     0.074 A 
ATOM     59  C   UNL     1      -5.389 -15.066  -9.422  1.00  0.00     0.031 C 
ATOM     60  C   UNL     1      -5.629 -15.841  -7.079  1.00  0.00     0.037 A 
BRANCH  47  61
ATOM     61  C   UNL     1      -5.912 -13.872  -1.222  1.00  0.00     0.058 A 
ATOM     62  C   UNL     1      -7.072 -13.598  -0.480  1.00  0.00     0.135 A 
ATOM     63  C   UNL     1      -4.856 -14.526  -0.565  1.00  0.00     0.135 A 
ATOM     64  F   UNL     1      -8.106 -12.962  -1.052  1.00  0.00    -0.206 F 
ATOM     65  C   UNL     1      -7.171 -13.931   0.868  1.00  0.00     0.059 A 
ATOM     66  C   UNL     1      -4.944 -14.893   0.775  1.00  0.00     0.059 A 
ATOM     67  F   UNL     1      -3.724 -14.814  -1.226  1.00  0.00    -0.206 F 
ATOM     68  C   UNL     1      -6.100 -14.577   1.487  1.00  0.00     0.060 A 
BRANCH  68  69
ATOM     69  S   UNL     1      -6.246 -15.004   3.235  1.00  0.00     0.124 S 
ATOM     70  O   UNL     1      -6.109 -13.695   3.866  1.00  0.00    -0.237 OA
ATOM     71  O   UNL     1      -7.576 -15.602   3.301  1.00  0.00    -0.237 OA
ATOM     72  O   UNL     1      -5.136 -15.926   3.454  1.00  0.00    -0.744 OA
ENDBRANCH  68  69
ENDBRANCH  47  61
BRANCH  48  73
ATOM     73  C   UNL     1      -5.046 -11.087 -10.789  1.00  0.00     0.058 A 
ATOM     74  C   UNL     1      -6.100 -11.253 -11.699  1.00  0.00     0.135 A 
ATOM     75  C   UNL     1      -3.853 -10.522 -11.266  1.00  0.00     0.135 A 
ATOM     76  F   UNL     1      -7.259 -11.793 -11.292  1.00  0.00    -0.206 F 
ATOM     77  C   UNL     1      -5.972 -10.893 -13.037  1.00  0.00     0.059 A 
ATOM     78  C   UNL     1      -3.710 -10.131 -12.594  1.00  0.00     0.059 A 
ATOM     79  F   UNL     1      -2.821 -10.326 -10.431  1.00  0.00    -0.206 F 
ATOM     80  C   UNL     1      -4.772 -10.332 -13.475  1.00  0.00     0.060 A 
BRANCH  80  81
ATOM     81  S   UNL     1      -4.630  -9.831 -15.204  1.00  0.00     0.124 S 
ATOM     82  O   UNL     1      -4.504 -11.120 -15.873  1.00  0.00    -0.237 OA
ATOM     83  O   UNL     1      -5.885  -9.117 -15.421  1.00  0.00    -0.237 OA
ATOM     84  O   UNL     1      -3.433  -8.994 -15.213  1.00  0.00    -0.744 OA
ENDBRANCH  80  81
ENDBRANCH  48  73
BRANCH  60  85
ATOM     85  C   UNL     1      -5.714 -17.251  -7.595  1.00  0.00     0.058 A 
ATOM     86  C   UNL     1      -4.590 -17.923  -8.099  1.00  0.00     0.135 A 
ATOM     87  C   UNL     1      -6.928 -17.955  -7.537  1.00  0.00     0.135 A 
ATOM     88  F   UNL     1      -3.408 -17.293  -8.182  1.00  0.00    -0.206 F 
ATOM     89  C   UNL     1      -4.670 -19.237  -8.547  1.00  0.00     0.059 A 
ATOM     90  C   UNL     1      -7.026 -19.278  -7.955  1.00  0.00     0.059 A 
ATOM     91  F   UNL     1      -8.032 -17.361  -7.055  1.00  0.00    -0.206 F 
ATOM     92  C   UNL     1      -5.893 -19.907  -8.470  1.00  0.00     0.060 A 
BRANCH  92  93
ATOM     93  S   UNL     1      -5.976 -21.624  -9.022  1.00  0.00     0.124 S 
ATOM     94  O   UNL     1      -5.940 -21.469 -10.472  1.00  0.00    -0.237 OA
ATOM     95  O   UNL     1      -4.783 -22.206  -8.416  1.00  0.00    -0.237 OA
ATOM     96  O   UNL     1      -7.244 -22.096  -8.472  1.00  0.00    -0.744 OA
ENDBRANCH  92  93
ENDBRANCH  60  85
ENDBRANCH  34  35
ENDBRANCH  26  29
ENDBRANCH  24  25
ENDBRANCH   1  24
TORSDOF 17
