REMARK SMILES CS(=O)(=O)c1ccc(/C=C(/C(=O)NCCCNC(=O)c2ccc(-c3c4nc(c(-c5c(F)cc(S(=O)(=O)[O-])cc5F)c5ccc([nH]5)c(-c5c(F)cc(S(=O)(=O)[O-])cc5F)c5nc(c(-c6c(F)cc(S(=O)(=O)[O-])cc6F)c6ccc3[nH]6)C=C5)C=C4)cc2)c2cccc(Br)c2)cc1
REMARK SMILES IDX 15 1 14 2 13 3 11 4 12 5 10 7 9 8 8 9 5 10 6 11 94 12 7 13
REMARK SMILES IDX 93 14 2 15 1 16 3 17 4 18 86 19 87 20 92 21 88 22 90 23
REMARK SMILES IDX 89 24 91 25 16 26 17 27 18 28 19 30 20 31 21 32 85 33 22 34
REMARK SMILES IDX 84 35 23 36 24 37 25 38 78 39 26 40 83 41 77 42 79 43 27 44
REMARK SMILES IDX 82 45 76 46 75 47 28 49 62 50 41 51 61 52 42 53 45 54 60 55
REMARK SMILES IDX 80 56 43 57 44 58 59 60 81 61 46 62 29 63 30 64 39 65 31 66
REMARK SMILES IDX 32 67 38 68 40 69 33 70 34 71 35 72 36 73 37 74 63 75 64 76
REMARK SMILES IDX 73 77 65 78 66 79 72 80 74 81 67 82 68 83 69 84 70 85 71 86
REMARK SMILES IDX 47 87 48 88 57 89 49 90 50 91 56 92 58 93 51 94 52 95 53 96
REMARK SMILES IDX 54 97 55 98
REMARK H PARENT 13 6 17 29 79 48 45 59
REMARK Flexibility Score: inf
ROOT
ATOM      1  C   UNL     1       1.624   6.753   7.391  1.00  0.00     0.042 C 
ENDROOT
BRANCH   1   2
ATOM      2  C   UNL     1       2.840   5.838   7.235  1.00  0.00     0.118 C 
BRANCH   2   3
ATOM      3  N   UNL     1       2.776   4.718   8.158  1.00  0.00    -0.352 N 
ATOM      4  C   UNL     1       2.473   3.399   8.029  1.00  0.00     0.251 C 
ATOM      5  O   UNL     1       2.546   2.725   9.060  1.00  0.00    -0.269 OA
ATOM      6  H   UNL     1       3.004   4.970   9.082  1.00  0.00     0.163 HD
BRANCH   4   7
ATOM      7  C   UNL     1       2.146   2.737   6.710  1.00  0.00     0.047 C 
ATOM      8  C   UNL     1       1.446   3.378   5.746  1.00  0.00     0.022 C 
BRANCH   8   9
ATOM      9  C   UNL     1       1.103   2.923   4.381  1.00  0.00    -0.025 A 
ATOM     10  C   UNL     1       0.591   2.165   1.726  1.00  0.00     0.067 A 
ATOM     11  C   UNL     1       0.314   1.278   2.767  1.00  0.00     0.021 A 
ATOM     12  C   UNL     1       1.075   3.445   1.999  1.00  0.00     0.021 A 
ATOM     13  C   UNL     1       0.555   1.667   4.090  1.00  0.00     0.009 A 
ATOM     14  C   UNL     1       1.327   3.818   3.322  1.00  0.00     0.009 A 
BRANCH  10  15
ATOM     15  S   UNL     1       0.334   1.669   0.040  1.00  0.00     0.175 S 
ATOM     16  C   UNL     1       1.147   0.101  -0.110  1.00  0.00     0.163 C 
ATOM     17  O   UNL     1       1.058   2.597  -0.806  1.00  0.00    -0.224 OA
ATOM     18  O   UNL     1      -1.093   1.454  -0.126  1.00  0.00    -0.224 OA
ENDBRANCH  10  15
ENDBRANCH   8   9
BRANCH   7  19
ATOM     19  C   UNL     1       2.465   1.291   6.583  1.00  0.00    -0.012 A 
ATOM     20  C   UNL     1       1.781   0.372   7.399  1.00  0.00     0.009 A 
ATOM     21  C   UNL     1       3.363   0.807   5.623  1.00  0.00     0.024 A 
ATOM     22  C   UNL     1       1.969  -1.001   7.249  1.00  0.00     0.002 A 
ATOM     23  C   UNL     1       3.531  -0.571   5.465  1.00  0.00     0.018 A 
ATOM     24  C   UNL     1       2.839  -1.476   6.271  1.00  0.00     0.016 A 
ATOM     25  Br  UNL     1       4.676  -1.224   4.109  1.00  0.00    -0.051 Br
ENDBRANCH   7  19
ENDBRANCH   4   7
ENDBRANCH   2   3
ENDBRANCH   1   2
BRANCH   1  26
ATOM     26  C   UNL     1       1.573   7.502   8.725  1.00  0.00     0.118 C 
BRANCH  26  27
ATOM     27  N   UNL     1       2.630   8.494   8.842  1.00  0.00    -0.352 N 
ATOM     28  C   UNL     1       2.554   9.846   9.072  1.00  0.00     0.251 C 
ATOM     29  H   UNL     1       3.544   8.141   8.741  1.00  0.00     0.163 HD
ATOM     30  O   UNL     1       3.562  10.533   8.925  1.00  0.00    -0.269 OA
BRANCH  28  31
ATOM     31  C   UNL     1       1.281  10.483   9.481  1.00  0.00     0.039 A 
ATOM     32  C   UNL     1       0.943  11.721   8.925  1.00  0.00     0.014 A 
ATOM     33  C   UNL     1       0.451   9.904  10.445  1.00  0.00     0.014 A 
ATOM     34  C   UNL     1      -0.248  12.352   9.296  1.00  0.00     0.010 A 
ATOM     35  C   UNL     1      -0.764  10.507  10.773  1.00  0.00     0.010 A 
ATOM     36  C   UNL     1      -1.125  11.738  10.204  1.00  0.00    -0.014 A 
BRANCH  36  37
ATOM     37  C   UNL     1      -2.424  12.367  10.562  1.00  0.00     0.031 A 
ATOM     38  C   UNL     1      -2.679  12.849  11.964  1.00  0.00     0.074 A 
ATOM     39  C   UNL     1      -3.398  12.447   9.634  1.00  0.00     0.049 A 
ATOM     40  N   UNL     1      -3.769  13.359  12.476  1.00  0.00    -0.248 NA
ATOM     41  C   UNL     1      -1.570  12.718  12.922  1.00  0.00     0.031 C 
ATOM     42  C   UNL     1      -3.291  11.975   8.252  1.00  0.00     0.029 A 
ATOM     43  N   UNL     1      -4.675  12.944   9.716  1.00  0.00    -0.354 N 
ATOM     44  C   UNL     1      -3.487  13.594  13.817  1.00  0.00     0.074 A 
ATOM     45  C   UNL     1      -2.134  13.132  14.047  1.00  0.00     0.031 C 
ATOM     46  C   UNL     1      -4.447  12.217   7.613  1.00  0.00     0.029 A 
ATOM     47  C   UNL     1      -5.387  12.832   8.545  1.00  0.00     0.049 A 
ATOM     48  H   UNL     1      -5.046  13.343  10.536  1.00  0.00     0.167 HD
ATOM     49  C   UNL     1      -4.275  14.157  14.765  1.00  0.00     0.037 A 
ATOM     50  C   UNL     1      -6.656  13.179   8.255  1.00  0.00     0.037 A 
ATOM     51  C   UNL     1      -5.611  14.640  14.524  1.00  0.00     0.049 A 
ATOM     52  C   UNL     1      -7.506  13.819   9.317  1.00  0.00     0.074 A 
ATOM     53  C   UNL     1      -6.466  15.283  15.403  1.00  0.00     0.029 A 
ATOM     54  N   UNL     1      -6.286  14.535  13.317  1.00  0.00    -0.354 N 
ATOM     55  N   UNL     1      -7.201  14.085  10.564  1.00  0.00    -0.248 NA
ATOM     56  C   UNL     1      -8.868  14.211   8.931  1.00  0.00     0.031 C 
ATOM     57  C   UNL     1      -7.670  15.536  14.737  1.00  0.00     0.029 A 
ATOM     58  C   UNL     1      -7.552  15.086  13.432  1.00  0.00     0.049 A 
ATOM     59  H   UNL     1      -5.919  14.128  12.499  1.00  0.00     0.167 HD
ATOM     60  C   UNL     1      -8.327  14.694  11.108  1.00  0.00     0.074 A 
ATOM     61  C   UNL     1      -9.314  14.768  10.050  1.00  0.00     0.031 C 
ATOM     62  C   UNL     1      -8.524  15.152  12.369  1.00  0.00     0.037 A 
BRANCH  49  63
ATOM     63  C   UNL     1      -3.709  14.282  16.153  1.00  0.00     0.058 A 
ATOM     64  C   UNL     1      -2.695  15.205  16.454  1.00  0.00     0.135 A 
ATOM     65  C   UNL     1      -4.199  13.484  17.200  1.00  0.00     0.135 A 
ATOM     66  F   UNL     1      -2.182  15.983  15.488  1.00  0.00    -0.206 F 
ATOM     67  C   UNL     1      -2.162  15.309  17.734  1.00  0.00     0.059 A 
ATOM     68  C   UNL     1      -3.698  13.589  18.494  1.00  0.00     0.059 A 
ATOM     69  F   UNL     1      -5.170  12.587  16.968  1.00  0.00    -0.206 F 
ATOM     70  C   UNL     1      -2.666  14.492  18.747  1.00  0.00     0.060 A 
BRANCH  70  71
ATOM     71  S   UNL     1      -1.956  14.627  20.402  1.00  0.00     0.124 S 
ATOM     72  O   UNL     1      -0.690  13.920  20.232  1.00  0.00    -0.237 OA
ATOM     73  O   UNL     1      -1.854  16.071  20.584  1.00  0.00    -0.237 OA
ATOM     74  O   UNL     1      -2.939  13.960  21.248  1.00  0.00    -0.744 OA
ENDBRANCH  70  71
ENDBRANCH  49  63
BRANCH  50  75
ATOM     75  C   UNL     1      -7.186  12.951   6.886  1.00  0.00     0.058 A 
ATOM     76  C   UNL     1      -7.382  14.023   6.003  1.00  0.00     0.135 A 
ATOM     77  C   UNL     1      -7.476  11.658   6.423  1.00  0.00     0.135 A 
ATOM     78  F   UNL     1      -7.124  15.277   6.404  1.00  0.00    -0.206 F 
ATOM     79  C   UNL     1      -7.854  13.824   4.711  1.00  0.00     0.059 A 
ATOM     80  C   UNL     1      -7.929  11.432   5.127  1.00  0.00     0.059 A 
ATOM     81  F   UNL     1      -7.288  10.599   7.225  1.00  0.00    -0.206 F 
ATOM     82  C   UNL     1      -8.121  12.523   4.280  1.00  0.00     0.060 A 
BRANCH  82  83
ATOM     83  S   UNL     1      -8.670  12.268   2.578  1.00  0.00     0.124 S 
ATOM     84  O   UNL     1     -10.061  12.700   2.651  1.00  0.00    -0.237 OA
ATOM     85  O   UNL     1      -7.769  13.140   1.831  1.00  0.00    -0.237 OA
ATOM     86  O   UNL     1      -8.460  10.838   2.371  1.00  0.00    -0.744 OA
ENDBRANCH  82  83
ENDBRANCH  50  75
BRANCH  62  87
ATOM     87  C   UNL     1      -9.849  15.793  12.669  1.00  0.00     0.058 A 
ATOM     88  C   UNL     1     -11.015  15.030  12.828  1.00  0.00     0.135 A 
ATOM     89  C   UNL     1      -9.944  17.183  12.841  1.00  0.00     0.135 A 
ATOM     90  F   UNL     1     -10.978  13.698  12.665  1.00  0.00    -0.206 F 
ATOM     91  C   UNL     1     -12.237  15.625  13.127  1.00  0.00     0.059 A 
ATOM     92  C   UNL     1     -11.150  17.797  13.163  1.00  0.00     0.059 A 
ATOM     93  F   UNL     1      -8.855  17.957  12.708  1.00  0.00    -0.206 F 
ATOM     94  C   UNL     1     -12.294  17.010  13.293  1.00  0.00     0.060 A 
BRANCH  94  95
ATOM     95  S   UNL     1     -13.878  17.770  13.712  1.00  0.00     0.124 S 
ATOM     96  O   UNL     1     -14.561  17.754  12.424  1.00  0.00    -0.237 OA
ATOM     97  O   UNL     1     -14.407  16.857  14.722  1.00  0.00    -0.237 OA
ATOM     98  O   UNL     1     -13.499  19.090  14.208  1.00  0.00    -0.744 OA
ENDBRANCH  94  95
ENDBRANCH  62  87
ENDBRANCH  36  37
ENDBRANCH  28  31
ENDBRANCH  26  27
ENDBRANCH   1  26
TORSDOF 16
