REMARK SMILES O=C(NCCCNC(=O)[C@]1(NC(=O)C2CCN(C(=O)C3CC3)CC2)CCCc2ccccc21)c1ccc(-c2c3nc(c(-c4c(F)cc(S(=O)(=O)[O-])cc4F)c4ccc([nH]4)c(-c4c(F)cc(S(=O)(=O)[O-])cc4F)c4nc(c(-c5c(F)cc(S(=O)(=O)[O-])cc5F)c5ccc2[nH]5)C=C4)C=C3)cc1
REMARK SMILES IDX 5 1 4 2 3 3 1 4 2 5 34 7 35 8 99 9 36 10 98 11 37 12 38 13
REMARK SMILES IDX 39 14 92 15 40 16 97 17 91 18 93 19 41 20 96 21 90 22 89 23
REMARK SMILES IDX 42 25 76 26 55 27 75 28 56 29 59 30 74 31 94 32 57 33 58 34
REMARK SMILES IDX 73 36 95 37 60 38 43 39 44 40 53 41 45 42 46 43 52 44 54 45
REMARK SMILES IDX 47 46 48 47 49 48 50 49 51 50 77 51 78 52 87 53 79 54 80 55
REMARK SMILES IDX 86 56 88 57 81 58 82 59 83 60 84 61 85 62 61 63 62 64 71 65
REMARK SMILES IDX 63 66 64 67 70 68 72 69 65 70 66 71 67 72 68 73 69 74 6 75
REMARK SMILES IDX 7 76 8 77 9 79 10 80 25 81 33 82 26 83 28 84 32 85 27 86
REMARK SMILES IDX 29 87 31 88 30 89 11 90 12 91 13 93 14 94 15 95 24 96 16 97
REMARK SMILES IDX 23 98 17 99 18 100 19 101 20 102 21 103 22 104
REMARK H PARENT 3 6 93 24 59 35 7 78 11 92
REMARK Flexibility Score: inf
ROOT
ATOM      1  C   UNL     1       3.260  -2.623   0.482  1.00  0.00     0.042 C 
ENDROOT
BRANCH   1   2
ATOM      2  C   UNL     1       3.271  -1.417  -0.465  1.00  0.00     0.118 C 
BRANCH   2   3
ATOM      3  N   UNL     1       1.940  -0.842  -0.607  1.00  0.00    -0.352 N 
ATOM      4  O   UNL     1       0.202   0.459  -0.051  1.00  0.00    -0.269 OA
ATOM      5  C   UNL     1       1.424   0.339  -0.118  1.00  0.00     0.251 C 
ATOM      6  H   UNL     1       1.309  -1.382  -1.135  1.00  0.00     0.163 HD
BRANCH   5   7
ATOM      7  C   UNL     1       2.287   1.474   0.312  1.00  0.00     0.039 A 
ATOM      8  C   UNL     1       3.375   1.892  -0.449  1.00  0.00     0.014 A 
ATOM      9  C   UNL     1       1.917   2.234   1.433  1.00  0.00     0.014 A 
ATOM     10  C   UNL     1       4.127   3.006  -0.041  1.00  0.00     0.010 A 
ATOM     11  C   UNL     1       2.657   3.371   1.818  1.00  0.00     0.010 A 
ATOM     12  C   UNL     1       3.801   3.764   1.110  1.00  0.00    -0.014 A 
BRANCH  12  13
ATOM     13  C   UNL     1       4.693   4.897   1.568  1.00  0.00     0.031 A 
ATOM     14  C   UNL     1       5.322   4.943   2.958  1.00  0.00     0.074 A 
ATOM     15  C   UNL     1       5.029   5.879   0.704  1.00  0.00     0.049 A 
ATOM     16  N   UNL     1       6.164   5.822   3.459  1.00  0.00    -0.248 NA
ATOM     17  C   UNL     1       4.996   3.857   3.896  1.00  0.00     0.031 C 
ATOM     18  C   UNL     1       4.554   5.985  -0.676  1.00  0.00     0.029 A 
ATOM     19  N   UNL     1       5.862   6.967   0.847  1.00  0.00    -0.354 N 
ATOM     20  C   UNL     1       6.470   5.393   4.750  1.00  0.00     0.074 A 
ATOM     21  C   UNL     1       5.712   4.179   4.965  1.00  0.00     0.031 C 
ATOM     22  C   UNL     1       5.143   7.033  -1.267  1.00  0.00     0.029 A 
ATOM     23  C   UNL     1       5.957   7.744  -0.285  1.00  0.00     0.049 A 
ATOM     24  H   UNL     1       6.345   7.170   1.681  1.00  0.00     0.167 HD
ATOM     25  C   UNL     1       7.298   5.945   5.676  1.00  0.00     0.037 A 
ATOM     26  C   UNL     1       6.579   8.918  -0.520  1.00  0.00     0.037 A 
ATOM     27  C   UNL     1       8.036   7.175   5.504  1.00  0.00     0.049 A 
ATOM     28  C   UNL     1       7.362   9.591   0.569  1.00  0.00     0.074 A 
ATOM     29  C   UNL     1       8.890   7.798   6.402  1.00  0.00     0.029 A 
ATOM     30  N   UNL     1       7.991   7.987   4.381  1.00  0.00    -0.354 N 
ATOM     31  N   UNL     1       7.624   9.165   1.779  1.00  0.00    -0.248 NA
ATOM     32  C   UNL     1       7.920  10.916   0.263  1.00  0.00     0.031 C 
ATOM     33  C   UNL     1       9.296   9.021   5.855  1.00  0.00     0.029 A 
ATOM     34  C   UNL     1       8.758   9.127   4.585  1.00  0.00     0.049 A 
ATOM     35  H   UNL     1       7.488   7.785   3.559  1.00  0.00     0.167 HD
ATOM     36  C   UNL     1       8.396  10.159   2.373  1.00  0.00     0.074 A 
ATOM     37  C   UNL     1       8.564  11.205   1.386  1.00  0.00     0.031 C 
ATOM     38  C   UNL     1       8.921  10.189   3.623  1.00  0.00     0.037 A 
BRANCH  25  39
ATOM     39  C   UNL     1       7.419   5.254   7.015  1.00  0.00     0.058 A 
ATOM     40  C   UNL     1       8.130   4.054   7.177  1.00  0.00     0.135 A 
ATOM     41  C   UNL     1       6.864   5.841   8.166  1.00  0.00     0.135 A 
ATOM     42  F   UNL     1       8.678   3.444   6.115  1.00  0.00    -0.206 F 
ATOM     43  C   UNL     1       8.258   3.445   8.425  1.00  0.00     0.059 A 
ATOM     44  C   UNL     1       7.000   5.264   9.426  1.00  0.00     0.059 A 
ATOM     45  F   UNL     1       6.184   6.995   8.074  1.00  0.00    -0.206 F 
ATOM     46  C   UNL     1       7.683   4.055   9.543  1.00  0.00     0.060 A 
BRANCH  46  47
ATOM     47  S   UNL     1       7.825   3.237  11.147  1.00  0.00     0.124 S 
ATOM     48  O   UNL     1       6.940   2.090  10.966  1.00  0.00    -0.237 OA
ATOM     49  O   UNL     1       9.250   2.932  11.219  1.00  0.00    -0.237 OA
ATOM     50  O   UNL     1       7.354   4.247  12.089  1.00  0.00    -0.744 OA
ENDBRANCH  46  47
ENDBRANCH  25  39
BRANCH  26  51
ATOM     51  C   UNL     1       6.428   9.558  -1.855  1.00  0.00     0.058 A 
ATOM     52  C   UNL     1       7.505   9.657  -2.745  1.00  0.00     0.135 A 
ATOM     53  C   UNL     1       5.176  10.033  -2.284  1.00  0.00     0.135 A 
ATOM     54  F   UNL     1       8.726   9.243  -2.372  1.00  0.00    -0.206 F 
ATOM     55  C   UNL     1       7.345  10.185  -4.023  1.00  0.00     0.059 A 
ATOM     56  C   UNL     1       4.984  10.531  -3.566  1.00  0.00     0.059 A 
ATOM     57  F   UNL     1       4.113   9.959  -1.468  1.00  0.00    -0.206 F 
ATOM     58  C   UNL     1       6.075  10.603  -4.429  1.00  0.00     0.060 A 
BRANCH  58  59
ATOM     59  S   UNL     1       5.851  11.181  -6.125  1.00  0.00     0.124 S 
ATOM     60  O   UNL     1       6.486  12.493  -6.075  1.00  0.00    -0.237 OA
ATOM     61  O   UNL     1       6.553  10.159  -6.893  1.00  0.00    -0.237 OA
ATOM     62  O   UNL     1       4.400  11.188  -6.287  1.00  0.00    -0.744 OA
ENDBRANCH  58  59
ENDBRANCH  26  51
BRANCH  38  63
ATOM     63  C   UNL     1       9.761  11.382   3.998  1.00  0.00     0.058 A 
ATOM     64  C   UNL     1       9.200  12.654   4.201  1.00  0.00     0.135 A 
ATOM     65  C   UNL     1      11.149  11.250   4.173  1.00  0.00     0.135 A 
ATOM     66  F   UNL     1       7.880  12.843   4.041  1.00  0.00    -0.206 F 
ATOM     67  C   UNL     1       9.986  13.755   4.529  1.00  0.00     0.059 A 
ATOM     68  C   UNL     1      11.951  12.332   4.529  1.00  0.00     0.059 A 
ATOM     69  F   UNL     1      11.742  10.058   4.002  1.00  0.00    -0.206 F 
ATOM     70  C   UNL     1      11.362  13.585   4.689  1.00  0.00     0.060 A 
BRANCH  70  71
ATOM     71  S   UNL     1      12.371  15.020   5.121  1.00  0.00     0.124 S 
ATOM     72  O   UNL     1      12.380  15.763   3.865  1.00  0.00    -0.237 OA
ATOM     73  O   UNL     1      11.606  15.624   6.208  1.00  0.00    -0.237 OA
ATOM     74  O   UNL     1      13.649  14.433   5.512  1.00  0.00    -0.744 OA
ENDBRANCH  70  71
ENDBRANCH  38  63
ENDBRANCH  12  13
ENDBRANCH   5   7
ENDBRANCH   2   3
ENDBRANCH   1   2
BRANCH   1  75
ATOM     75  C   UNL     1       3.194  -4.014  -0.156  1.00  0.00     0.117 C 
BRANCH  75  76
ATOM     76  N   UNL     1       4.215  -4.324  -1.140  1.00  0.00    -0.354 N 
ATOM     77  C   UNL     1       5.264  -5.195  -1.214  1.00  0.00     0.250 C 
ATOM     78  H   UNL     1       4.131  -3.771  -1.951  1.00  0.00     0.163 HD
ATOM     79  O   UNL     1       5.754  -5.266  -2.352  1.00  0.00    -0.272 OA
BRANCH  77  80
ATOM     80  C   UNL     1       5.882  -6.050  -0.016  1.00  0.00     0.145 C 
ATOM     81  C   UNL     1       7.185  -6.759  -0.521  1.00  0.00     0.044 C 
ATOM     82  C   UNL     1       4.885  -7.146   0.441  1.00  0.00    -0.010 A 
ATOM     83  C   UNL     1       6.946  -7.892  -1.514  1.00  0.00     0.008 C 
ATOM     84  C   UNL     1       4.873  -8.428  -0.150  1.00  0.00    -0.042 A 
ATOM     85  C   UNL     1       3.934  -6.895   1.448  1.00  0.00     0.007 A 
ATOM     86  C   UNL     1       6.042  -8.962  -0.936  1.00  0.00     0.036 C 
ATOM     87  C   UNL     1       3.820  -9.320   0.126  1.00  0.00     0.004 A 
ATOM     88  C   UNL     1       2.890  -7.783   1.713  1.00  0.00     0.000 A 
ATOM     89  C   UNL     1       2.810  -8.981   1.020  1.00  0.00     0.000 A 
BRANCH  80  90
ATOM     90  N   UNL     1       6.298  -5.225   1.150  1.00  0.00    -0.338 N 
ATOM     91  C   UNL     1       7.318  -4.304   1.127  1.00  0.00     0.224 C 
ATOM     92  H   UNL     1       5.810  -5.347   1.996  1.00  0.00     0.164 HD
ATOM     93  O   UNL     1       8.241  -4.429   1.928  1.00  0.00    -0.275 OA
BRANCH  91  94
ATOM     94  C   UNL     1       7.147  -3.058   0.276  1.00  0.00     0.082 C 
ATOM     95  C   UNL     1       8.377  -2.695  -0.583  1.00  0.00     0.035 C 
ATOM     96  C   UNL     1       6.684  -1.952   1.242  1.00  0.00     0.035 C 
ATOM     97  C   UNL     1       9.344  -1.675   0.035  1.00  0.00     0.120 C 
ATOM     98  C   UNL     1       7.871  -1.246   1.873  1.00  0.00     0.120 C 
ATOM     99  N   UNL     1       8.605  -0.664   0.774  1.00  0.00    -0.342 N 
ATOM    100  C   UNL     1       8.348   0.567   0.166  1.00  0.00     0.225 C 
ATOM    101  O   UNL     1       8.798   0.828  -0.947  1.00  0.00    -0.275 OA
BRANCH 100 102
ATOM    102  C   UNL     1       7.489   1.623   0.793  1.00  0.00     0.079 C 
ATOM    103  C   UNL     1       6.382   1.459   1.794  1.00  0.00     0.014 C 
ATOM    104  C   UNL     1       7.690   2.052   2.226  1.00  0.00     0.014 C 
ENDBRANCH 100 102
ENDBRANCH  91  94
ENDBRANCH  80  90
ENDBRANCH  77  80
ENDBRANCH  75  76
ENDBRANCH   1  75
TORSDOF 16
