REMARK SMILES O=C(NCCCNC(=O)C1(CCc2ccccn2)CCCCC1)c1ccc(-c2c3nc(c(-c4c(F)cc(S(=O)(=O)[O-])cc4F)c4ccc([nH]4)c(-c4c(F)cc(S(=O)(=O)[O-])cc4F)c4nc(c(-c5c(F)cc(S(=O)(=O)[O-])cc5F)c5ccc2[nH]5)C=C4)C=C3)cc1
REMARK SMILES IDX 5 1 4 2 3 3 1 4 2 5 24 7 25 8 89 9 26 10 88 11 27 12 28 13
REMARK SMILES IDX 29 14 82 15 30 16 87 17 81 18 83 19 31 20 86 21 80 22 79 23
REMARK SMILES IDX 32 25 66 26 45 27 65 28 46 29 49 30 64 31 84 32 47 33 48 34
REMARK SMILES IDX 63 36 85 37 50 38 33 39 34 40 43 41 35 42 36 43 42 44 44 45
REMARK SMILES IDX 37 46 38 47 39 48 40 49 41 50 67 51 68 52 77 53 69 54 70 55
REMARK SMILES IDX 76 56 78 57 71 58 72 59 73 60 74 61 75 62 51 63 52 64 61 65
REMARK SMILES IDX 53 66 54 67 60 68 62 69 55 70 56 71 57 72 58 73 59 74 6 75
REMARK SMILES IDX 7 76 8 77 9 79 10 80 19 81 23 82 20 83 22 84 21 85 11 86
REMARK SMILES IDX 12 87 13 88 14 89 18 90 15 91 17 92 16 93
REMARK H PARENT 3 6 83 24 49 35 7 78
REMARK Flexibility Score: inf
ROOT
ATOM      1  C   UNL     1       4.751   0.301  -2.174  1.00  0.00     0.042 C 
ENDROOT
BRANCH   1   2
ATOM      2  C   UNL     1       4.462   0.936  -0.822  1.00  0.00     0.118 C 
BRANCH   2   3
ATOM      3  N   UNL     1       3.032   0.934  -0.512  1.00  0.00    -0.352 N 
ATOM      4  O   UNL     1       1.090   0.087   0.260  1.00  0.00    -0.269 OA
ATOM      5  C   UNL     1       2.312   0.105   0.320  1.00  0.00     0.251 C 
ATOM      6  H   UNL     1       2.505   1.630  -0.967  1.00  0.00     0.163 HD
BRANCH   5   7
ATOM      7  C   UNL     1       3.035  -0.765   1.271  1.00  0.00     0.039 A 
ATOM      8  C   UNL     1       4.149  -0.266   1.940  1.00  0.00     0.014 A 
ATOM      9  C   UNL     1       2.619  -2.081   1.488  1.00  0.00     0.014 A 
ATOM     10  C   UNL     1       4.971  -1.130   2.639  1.00  0.00     0.010 A 
ATOM     11  C   UNL     1       3.370  -2.915   2.328  1.00  0.00     0.010 A 
ATOM     12  C   UNL     1       4.573  -2.455   2.881  1.00  0.00    -0.014 A 
BRANCH  12  13
ATOM     13  C   UNL     1       5.422  -3.270   3.789  1.00  0.00     0.031 A 
ATOM     14  C   UNL     1       6.098  -4.530   3.326  1.00  0.00     0.074 A 
ATOM     15  C   UNL     1       5.659  -2.780   5.024  1.00  0.00     0.049 A 
ATOM     16  N   UNL     1       6.942  -5.289   3.977  1.00  0.00    -0.248 NA
ATOM     17  C   UNL     1       5.784  -5.011   1.972  1.00  0.00     0.031 C 
ATOM     18  C   UNL     1       5.031  -1.576   5.583  1.00  0.00     0.029 A 
ATOM     19  N   UNL     1       6.526  -3.181   6.005  1.00  0.00    -0.354 N 
ATOM     20  C   UNL     1       7.244  -6.346   3.127  1.00  0.00     0.074 A 
ATOM     21  C   UNL     1       6.475  -6.143   1.917  1.00  0.00     0.031 C 
ATOM     22  C   UNL     1       5.604  -1.281   6.756  1.00  0.00     0.029 A 
ATOM     23  C   UNL     1       6.572  -2.321   7.078  1.00  0.00     0.049 A 
ATOM     24  H   UNL     1       7.063  -4.004   5.949  1.00  0.00     0.167 HD
ATOM     25  C   UNL     1       8.088  -7.385   3.340  1.00  0.00     0.037 A 
ATOM     26  C   UNL     1       7.301  -2.365   8.208  1.00  0.00     0.037 A 
ATOM     27  C   UNL     1       8.861  -7.561   4.545  1.00  0.00     0.049 A 
ATOM     28  C   UNL     1       8.251  -3.508   8.399  1.00  0.00     0.074 A 
ATOM     29  C   UNL     1       9.737  -8.584   4.866  1.00  0.00     0.029 A 
ATOM     30  N   UNL     1       8.860  -6.686   5.623  1.00  0.00    -0.354 N 
ATOM     31  N   UNL     1       8.505  -4.507   7.588  1.00  0.00    -0.248 NA
ATOM     32  C   UNL     1       9.002  -3.540   9.658  1.00  0.00     0.031 C 
ATOM     33  C   UNL     1      10.245  -8.342   6.148  1.00  0.00     0.029 A 
ATOM     34  C   UNL     1       9.716  -7.148   6.610  1.00  0.00     0.049 A 
ATOM     35  H   UNL     1       8.330  -5.859   5.677  1.00  0.00     0.167 HD
ATOM     36  C   UNL     1       9.436  -5.298   8.246  1.00  0.00     0.074 A 
ATOM     37  C   UNL     1       9.733  -4.634   9.501  1.00  0.00     0.031 C 
ATOM     38  C   UNL     1       9.982  -6.476   7.857  1.00  0.00     0.037 A 
BRANCH  25  39
ATOM     39  C   UNL     1       8.216  -8.421   2.256  1.00  0.00     0.058 A 
ATOM     40  C   UNL     1       8.916  -8.161   1.067  1.00  0.00     0.135 A 
ATOM     41  C   UNL     1       7.679  -9.707   2.429  1.00  0.00     0.135 A 
ATOM     42  F   UNL     1       9.434  -6.944   0.840  1.00  0.00    -0.206 F 
ATOM     43  C   UNL     1       9.068  -9.135   0.084  1.00  0.00     0.059 A 
ATOM     44  C   UNL     1       7.837 -10.703   1.469  1.00  0.00     0.059 A 
ATOM     45  F   UNL     1       6.997 -10.009   3.546  1.00  0.00    -0.206 F 
ATOM     46  C   UNL     1       8.525 -10.404   0.294  1.00  0.00     0.060 A 
BRANCH  46  47
ATOM     47  S   UNL     1       8.744 -11.661  -0.984  1.00  0.00     0.124 S 
ATOM     48  O   UNL     1       7.814 -11.198  -2.010  1.00  0.00    -0.237 OA
ATOM     49  O   UNL     1      10.161 -11.533  -1.310  1.00  0.00    -0.237 OA
ATOM     50  O   UNL     1       8.369 -12.900  -0.310  1.00  0.00    -0.744 OA
ENDBRANCH  46  47
ENDBRANCH  25  39
BRANCH  26  51
ATOM     51  C   UNL     1       7.125  -1.313   9.242  1.00  0.00     0.058 A 
ATOM     52  C   UNL     1       8.135  -0.383   9.521  1.00  0.00     0.135 A 
ATOM     53  C   UNL     1       5.916  -1.199   9.949  1.00  0.00     0.135 A 
ATOM     54  F   UNL     1       9.308  -0.451   8.872  1.00  0.00    -0.206 F 
ATOM     55  C   UNL     1       7.961   0.616  10.473  1.00  0.00     0.059 A 
ATOM     56  C   UNL     1       5.707  -0.191  10.882  1.00  0.00     0.059 A 
ATOM     57  F   UNL     1       4.909  -2.051   9.703  1.00  0.00    -0.206 F 
ATOM     58  C   UNL     1       6.741   0.705  11.148  1.00  0.00     0.060 A 
BRANCH  58  59
ATOM     59  S   UNL     1       6.494   2.034  12.345  1.00  0.00     0.124 S 
ATOM     60  O   UNL     1       7.197   1.510  13.510  1.00  0.00    -0.237 OA
ATOM     61  O   UNL     1       7.120   3.173  11.679  1.00  0.00    -0.237 OA
ATOM     62  O   UNL     1       5.041   2.109  12.462  1.00  0.00    -0.744 OA
ENDBRANCH  58  59
ENDBRANCH  26  51
BRANCH  38  63
ATOM     63  C   UNL     1      10.950  -7.110   8.813  1.00  0.00     0.058 A 
ATOM     64  C   UNL     1      10.511  -7.723   9.996  1.00  0.00     0.135 A 
ATOM     65  C   UNL     1      12.328  -7.099   8.546  1.00  0.00     0.135 A 
ATOM     66  F   UNL     1       9.203  -7.750  10.298  1.00  0.00    -0.206 F 
ATOM     67  C   UNL     1      11.409  -8.270  10.905  1.00  0.00     0.059 A 
ATOM     68  C   UNL     1      13.242  -7.662   9.430  1.00  0.00     0.059 A 
ATOM     69  F   UNL     1      12.795  -6.532   7.423  1.00  0.00    -0.206 F 
ATOM     70  C   UNL     1      12.774  -8.228  10.616  1.00  0.00     0.060 A 
BRANCH  70  71
ATOM     71  S   UNL     1      13.934  -8.934  11.805  1.00  0.00     0.124 S 
ATOM     72  O   UNL     1      13.982  -7.888  12.821  1.00  0.00    -0.237 OA
ATOM     73  O   UNL     1      13.268 -10.171  12.199  1.00  0.00    -0.237 OA
ATOM     74  O   UNL     1      15.154  -9.108  11.022  1.00  0.00    -0.744 OA
ENDBRANCH  70  71
ENDBRANCH  38  63
ENDBRANCH  12  13
ENDBRANCH   5   7
ENDBRANCH   2   3
ENDBRANCH   1   2
BRANCH   1  75
ATOM     75  C   UNL     1       4.289   1.197  -3.308  1.00  0.00     0.117 C 
BRANCH  75  76
ATOM     76  N   UNL     1       5.153   2.358  -3.427  1.00  0.00    -0.356 N 
ATOM     77  C   UNL     1       6.034   2.825  -4.338  1.00  0.00     0.226 C 
ATOM     78  H   UNL     1       5.079   2.954  -2.647  1.00  0.00     0.163 HD
ATOM     79  O   UNL     1       6.701   3.794  -3.950  1.00  0.00    -0.274 OA
BRANCH  77  80
ATOM     80  C   UNL     1       6.181   2.306  -5.789  1.00  0.00     0.050 C 
ATOM     81  C   UNL     1       7.711   2.483  -6.093  1.00  0.00     0.017 C 
ATOM     82  C   UNL     1       5.815   0.821  -6.004  1.00  0.00     0.017 C 
ATOM     83  C   UNL     1       8.215   1.817  -7.369  1.00  0.00     0.001 C 
ATOM     84  C   UNL     1       6.357   0.172  -7.276  1.00  0.00     0.001 C 
ATOM     85  C   UNL     1       7.859   0.342  -7.394  1.00  0.00     0.000 C 
BRANCH  80  86
ATOM     86  C   UNL     1       5.368   3.252  -6.736  1.00  0.00     0.023 C 
BRANCH  86  87
ATOM     87  C   UNL     1       3.837   3.357  -6.536  1.00  0.00     0.057 C 
BRANCH  87  88
ATOM     88  C   UNL     1       3.388   4.176  -5.348  1.00  0.00     0.040 A 
ATOM     89  C   UNL     1       2.393   3.704  -4.494  1.00  0.00     0.024 A 
ATOM     90  N   UNL     1       3.998   5.366  -5.144  1.00  0.00    -0.261 NA
ATOM     91  C   UNL     1       2.106   4.413  -3.329  1.00  0.00     0.003 A 
ATOM     92  C   UNL     1       3.699   6.038  -4.010  1.00  0.00     0.111 A 
ATOM     93  C   UNL     1       2.783   5.597  -3.071  1.00  0.00     0.020 A 
ENDBRANCH  87  88
ENDBRANCH  86  87
ENDBRANCH  80  86
ENDBRANCH  77  80
ENDBRANCH  75  76
ENDBRANCH   1  75
TORSDOF 16
