REMARK SMILES O=C(NCCCNC(=O)c1ccc(N2C(=O)/C(=C/C3=c4ccccc4=NC3)SC2=S)cc1O)c1ccc(-c2c3nc(c(-c4c(F)cc(S(=O)(=O)[O-])cc4F)c4ccc([nH]4)c(-c4c(F)cc(S(=O)(=O)[O-])cc4F)c4nc(c(-c5c(F)cc(S(=O)(=O)[O-])cc5F)c5ccc2[nH]5)C=C4)C=C3)cc1
REMARK SMILES IDX 4 1 3 2 1 3 2 4 34 6 35 7 99 8 36 9 98 10 37 11 38 12 39 13
REMARK SMILES IDX 92 14 40 15 97 16 91 17 93 18 41 19 96 20 90 21 89 22 42 24
REMARK SMILES IDX 76 25 55 26 75 27 56 28 59 29 74 30 94 31 57 32 58 33 73 35
REMARK SMILES IDX 95 36 60 37 43 38 44 39 53 40 45 41 46 42 52 43 54 44 47 45
REMARK SMILES IDX 48 46 49 47 50 48 51 49 77 50 78 51 87 52 79 53 80 54 86 55
REMARK SMILES IDX 88 56 81 57 82 58 83 59 84 60 85 61 61 62 62 63 71 64 63 65
REMARK SMILES IDX 64 66 70 67 72 68 65 69 66 70 67 71 68 72 69 73 5 74 6 75
REMARK SMILES IDX 7 76 8 77 9 79 10 80 11 81 32 82 12 83 31 84 13 85 33 86
REMARK SMILES IDX 14 88 15 89 29 90 16 91 17 92 28 93 30 94 18 95 19 96 20 97
REMARK SMILES IDX 27 98 21 99 25 100 26 101 22 102 24 103 23 104
REMARK H PARENT 3 5 93 23 59 34 7 78 33 87
REMARK Flexibility Score: inf
ROOT
ATOM      1  C   UNL     1       4.533  -1.008   0.732  1.00  0.00     0.118 C 
ENDROOT
BRANCH   1   2
ATOM      2  N   UNL     1       3.085  -0.942   0.611  1.00  0.00    -0.352 N 
ATOM      3  O   UNL     1       1.074   0.003   0.295  1.00  0.00    -0.269 OA
ATOM      4  C   UNL     1       2.283   0.033   0.075  1.00  0.00     0.251 C 
ATOM      5  H   UNL     1       2.603  -1.722   0.970  1.00  0.00     0.163 HD
BRANCH   4   6
ATOM      6  C   UNL     1       2.855   1.112  -0.762  1.00  0.00     0.039 A 
ATOM      7  C   UNL     1       2.287   2.389  -0.704  1.00  0.00     0.014 A 
ATOM      8  C   UNL     1       3.891   0.854  -1.663  1.00  0.00     0.014 A 
ATOM      9  C   UNL     1       2.765   3.404  -1.538  1.00  0.00     0.010 A 
ATOM     10  C   UNL     1       4.433   1.886  -2.420  1.00  0.00     0.010 A 
ATOM     11  C   UNL     1       3.844   3.158  -2.400  1.00  0.00    -0.014 A 
BRANCH  11  12
ATOM     12  C   UNL     1       4.298   4.159  -3.396  1.00  0.00     0.031 A 
ATOM     13  C   UNL     1       4.141   3.849  -4.862  1.00  0.00     0.074 A 
ATOM     14  C   UNL     1       4.881   5.305  -3.005  1.00  0.00     0.049 A 
ATOM     15  N   UNL     1       4.596   4.497  -5.903  1.00  0.00    -0.248 NA
ATOM     16  C   UNL     1       3.393   2.625  -5.195  1.00  0.00     0.031 C 
ATOM     17  C   UNL     1       5.073   5.729  -1.619  1.00  0.00     0.029 A 
ATOM     18  N   UNL     1       5.426   6.322  -3.747  1.00  0.00    -0.354 N 
ATOM     19  C   UNL     1       4.203   3.752  -7.010  1.00  0.00     0.074 A 
ATOM     20  C   UNL     1       3.541   2.567  -6.509  1.00  0.00     0.031 C 
ATOM     21  C   UNL     1       5.666   6.934  -1.610  1.00  0.00     0.029 A 
ATOM     22  C   UNL     1       5.944   7.341  -2.986  1.00  0.00     0.049 A 
ATOM     23  H   UNL     1       5.443   6.322  -4.731  1.00  0.00     0.167 HD
ATOM     24  C   UNL     1       4.352   4.039  -8.325  1.00  0.00     0.037 A 
ATOM     25  C   UNL     1       6.578   8.469  -3.358  1.00  0.00     0.037 A 
ATOM     26  C   UNL     1       5.005   5.224  -8.816  1.00  0.00     0.049 A 
ATOM     27  C   UNL     1       6.801   8.738  -4.821  1.00  0.00     0.074 A 
ATOM     28  C   UNL     1       5.212   5.617 -10.126  1.00  0.00     0.029 A 
ATOM     29  N   UNL     1       5.557   6.213  -8.012  1.00  0.00    -0.354 N 
ATOM     30  N   UNL     1       6.442   8.019  -5.858  1.00  0.00    -0.248 NA
ATOM     31  C   UNL     1       7.520   9.972  -5.161  1.00  0.00     0.031 C 
ATOM     32  C   UNL     1       5.927   6.820 -10.114  1.00  0.00     0.029 A 
ATOM     33  C   UNL     1       6.121   7.206  -8.797  1.00  0.00     0.049 A 
ATOM     34  H   UNL     1       5.548   6.209  -7.028  1.00  0.00     0.167 HD
ATOM     35  C   UNL     1       6.878   8.720  -6.978  1.00  0.00     0.074 A 
ATOM     36  C   UNL     1       7.508   9.931  -6.487  1.00  0.00     0.031 C 
ATOM     37  C   UNL     1       6.769   8.393  -8.291  1.00  0.00     0.037 A 
BRANCH  24  38
ATOM     38  C   UNL     1       3.800   3.041  -9.309  1.00  0.00     0.058 A 
ATOM     39  C   UNL     1       2.418   2.812  -9.431  1.00  0.00     0.135 A 
ATOM     40  C   UNL     1       4.659   2.277 -10.116  1.00  0.00     0.135 A 
ATOM     41  F   UNL     1       1.550   3.498  -8.671  1.00  0.00    -0.206 F 
ATOM     42  C   UNL     1       1.913   1.825 -10.271  1.00  0.00     0.059 A 
ATOM     43  C   UNL     1       4.174   1.310 -10.991  1.00  0.00     0.059 A 
ATOM     44  F   UNL     1       5.988   2.452 -10.044  1.00  0.00    -0.206 F 
ATOM     45  C   UNL     1       2.800   1.074 -11.043  1.00  0.00     0.060 A 
BRANCH  45  46
ATOM     46  S   UNL     1       2.131  -0.231 -12.095  1.00  0.00     0.124 S 
ATOM     47  O   UNL     1       1.715  -1.219 -11.103  1.00  0.00    -0.237 OA
ATOM     48  O   UNL     1       1.051   0.457 -12.795  1.00  0.00    -0.237 OA
ATOM     49  O   UNL     1       3.268  -0.617 -12.925  1.00  0.00    -0.744 OA
ENDBRANCH  45  46
ENDBRANCH  24  38
BRANCH  25  50
ATOM     50  C   UNL     1       7.002   9.443  -2.318  1.00  0.00     0.058 A 
ATOM     51  C   UNL     1       6.315  10.655  -2.161  1.00  0.00     0.135 A 
ATOM     52  C   UNL     1       8.042   9.157  -1.420  1.00  0.00     0.135 A 
ATOM     53  F   UNL     1       5.323  10.978  -3.005  1.00  0.00    -0.206 F 
ATOM     54  C   UNL     1       6.630  11.543  -1.138  1.00  0.00     0.059 A 
ATOM     55  C   UNL     1       8.361  10.019  -0.375  1.00  0.00     0.059 A 
ATOM     56  F   UNL     1       8.725   8.006  -1.524  1.00  0.00    -0.206 F 
ATOM     57  C   UNL     1       7.643  11.207  -0.238  1.00  0.00     0.060 A 
BRANCH  57  58
ATOM     58  S   UNL     1       7.958  12.316   1.152  1.00  0.00     0.124 S 
ATOM     59  O   UNL     1       8.497  13.491   0.478  1.00  0.00    -0.237 OA
ATOM     60  O   UNL     1       6.625  12.464   1.727  1.00  0.00    -0.237 OA
ATOM     61  O   UNL     1       8.906  11.568   1.972  1.00  0.00    -0.744 OA
ENDBRANCH  57  58
ENDBRANCH  25  50
BRANCH  37  62
ATOM     62  C   UNL     1       7.346   9.363  -9.288  1.00  0.00     0.058 A 
ATOM     63  C   UNL     1       8.732   9.547  -9.418  1.00  0.00     0.135 A 
ATOM     64  C   UNL     1       6.506  10.107 -10.134  1.00  0.00     0.135 A 
ATOM     65  F   UNL     1       9.581   8.864  -8.634  1.00  0.00    -0.206 F 
ATOM     66  C   UNL     1       9.263  10.466 -10.318  1.00  0.00     0.059 A 
ATOM     67  C   UNL     1       7.016  11.007 -11.064  1.00  0.00     0.059 A 
ATOM     68  F   UNL     1       5.173   9.959 -10.065  1.00  0.00    -0.206 F 
ATOM     69  C   UNL     1       8.396  11.196 -11.133  1.00  0.00     0.060 A 
BRANCH  69  70
ATOM     70  S   UNL     1       9.100  12.395 -12.284  1.00  0.00     0.124 S 
ATOM     71  O   UNL     1       9.555  13.442 -11.374  1.00  0.00    -0.237 OA
ATOM     72  O   UNL     1      10.151  11.621 -12.936  1.00  0.00    -0.237 OA
ATOM     73  O   UNL     1       7.970  12.753 -13.137  1.00  0.00    -0.744 OA
ENDBRANCH  69  70
ENDBRANCH  37  62
ENDBRANCH  11  12
ENDBRANCH   4   6
ENDBRANCH   1   2
BRANCH   1  74
ATOM     74  C   UNL     1       4.996  -0.904   2.176  1.00  0.00     0.042 C 
BRANCH  74  75
ATOM     75  C   UNL     1       4.504  -2.037   3.061  1.00  0.00     0.118 C 
BRANCH  75  76
ATOM     76  N   UNL     1       5.006  -3.334   2.637  1.00  0.00    -0.352 N 
ATOM     77  C   UNL     1       5.699  -4.263   3.368  1.00  0.00     0.255 C 
ATOM     78  H   UNL     1       4.824  -3.576   1.700  1.00  0.00     0.163 HD
ATOM     79  O   UNL     1       6.136  -5.279   2.833  1.00  0.00    -0.269 OA
BRANCH  77  80
ATOM     80  C   UNL     1       5.984  -4.016   4.794  1.00  0.00     0.081 A 
ATOM     81  C   UNL     1       7.323  -4.039   5.199  1.00  0.00     0.020 A 
ATOM     82  C   UNL     1       4.979  -3.770   5.732  1.00  0.00     0.130 A 
ATOM     83  C   UNL     1       7.655  -3.786   6.533  1.00  0.00     0.028 A 
ATOM     84  C   UNL     1       5.311  -3.516   7.060  1.00  0.00     0.073 A 
ATOM     85  C   UNL     1       6.651  -3.543   7.481  1.00  0.00     0.054 A 
BRANCH  82  86
ATOM     86  O   UNL     1       3.663  -3.761   5.358  1.00  0.00    -0.507 OA
ATOM     87  H   UNL     1       3.428  -3.931   4.467  1.00  0.00     0.293 HD
ENDBRANCH  82  86
BRANCH  85  88
ATOM     88  N   UNL     1       6.977  -3.313   8.851  1.00  0.00    -0.261 N 
ATOM     89  C   UNL     1       8.006  -2.433   9.184  1.00  0.00     0.270 C 
ATOM     90  C   UNL     1       6.317  -3.920   9.914  1.00  0.00     0.152 C 
ATOM     91  O   UNL     1       8.738  -1.813   8.427  1.00  0.00    -0.268 OA
ATOM     92  C   UNL     1       8.090  -2.287  10.665  1.00  0.00     0.081 C 
ATOM     93  S   UNL     1       6.904  -3.260  11.432  1.00  0.00    -0.054 SA
ATOM     94  S   UNL     1       5.200  -5.168   9.922  1.00  0.00    -0.051 S 
ATOM     95  C   UNL     1       8.956  -1.455  11.259  1.00  0.00     0.027 C 
BRANCH  95  96
ATOM     96  C   UNL     1       9.087  -1.254  12.682  1.00  0.00    -0.016 C 
ATOM     97  C   UNL     1       8.829  -0.135  13.354  1.00  0.00     0.005 A 
ATOM     98  C   UNL     1       9.543  -2.339  13.617  1.00  0.00     0.179 C 
ATOM     99  C   UNL     1       8.383   1.179  13.016  1.00  0.00     0.011 A 
ATOM    100  C   UNL     1       9.097  -0.527  14.749  1.00  0.00     0.065 A 
ATOM    101  N   UNL     1       9.508  -1.738  14.975  1.00  0.00    -0.280 NA
ATOM    102  C   UNL     1       8.200   2.071  14.005  1.00  0.00     0.001 A 
ATOM    103  C   UNL     1       8.863   0.506  15.780  1.00  0.00     0.028 A 
ATOM    104  C   UNL     1       8.438   1.722  15.396  1.00  0.00     0.002 A 
ENDBRANCH  95  96
ENDBRANCH  85  88
ENDBRANCH  77  80
ENDBRANCH  75  76
ENDBRANCH  74  75
ENDBRANCH   1  74
TORSDOF 16
