REMARK SMILES CC(C)(C)c1ccc(C(=O)C[C@H](C(=O)NCCCNC(=O)c2ccc(-c3c4nc(c(-c5c(F)cc(S(=O)(=O)[O-])cc5F)c5ccc([nH]5)c(-c5c(F)cc(S(=O)(=O)[O-])cc5F)c5nc(c(-c6c(F)cc(S(=O)(=O)[O-])cc6F)c6ccc3[nH]6)C=C5)C=C4)cc2)[NH+]2CCCC2)cc1
REMARK SMILES IDX 16 1 15 2 13 3 14 4 12 6 11 7 9 8 10 9 8 10 5 11 6 12 94 13
REMARK SMILES IDX 7 14 93 15 2 16 1 17 3 18 4 19 88 20 89 21 92 22 90 24 91 25
REMARK SMILES IDX 17 26 18 27 19 28 20 29 21 31 22 32 23 33 87 34 24 35 86 36
REMARK SMILES IDX 25 37 26 38 27 39 80 40 28 41 85 42 79 43 81 44 29 45 84 46
REMARK SMILES IDX 78 47 77 48 30 50 64 51 43 52 63 53 44 54 47 55 62 56 82 57
REMARK SMILES IDX 45 58 46 59 61 61 83 62 48 63 31 64 32 65 41 66 33 67 34 68
REMARK SMILES IDX 40 69 42 70 35 71 36 72 37 73 38 74 39 75 65 76 66 77 75 78
REMARK SMILES IDX 67 79 68 80 74 81 76 82 69 83 70 84 71 85 72 86 73 87 49 88
REMARK SMILES IDX 50 89 59 90 51 91 52 92 58 93 60 94 53 95 54 96 55 97 56 98
REMARK SMILES IDX 57 99
REMARK H PARENT 15 5 88 23 19 30 81 49 47 60
REMARK Flexibility Score: inf
ROOT
ATOM      1  C   UNL     1       1.791   6.749  -7.194  1.00  0.00     0.118 C 
ENDROOT
BRANCH   1   2
ATOM      2  N   UNL     1       2.111   5.696  -6.250  1.00  0.00    -0.351 N 
ATOM      3  C   UNL     1       1.318   4.970  -5.415  1.00  0.00     0.278 C 
ATOM      4  O   UNL     1       1.909   4.091  -4.771  1.00  0.00    -0.268 OA
ATOM      5  H   UNL     1       3.068   5.467  -6.205  1.00  0.00     0.163 HD
BRANCH   3   6
ATOM      6  C   UNL     1      -0.234   5.093  -5.359  1.00  0.00     0.281 C 
BRANCH   6   7
ATOM      7  C   UNL     1      -0.823   4.281  -4.178  1.00  0.00     0.156 C 
BRANCH   7   8
ATOM      8  C   UNL     1      -1.064   4.808  -2.765  1.00  0.00     0.169 C 
ATOM      9  O   UNL     1      -1.982   4.332  -2.088  1.00  0.00    -0.294 OA
BRANCH   8  10
ATOM     10  C   UNL     1      -0.260   5.893  -2.149  1.00  0.00     0.018 A 
ATOM     11  C   UNL     1       1.027   8.291  -1.381  1.00  0.00    -0.043 A 
ATOM     12  C   UNL     1      -0.315   8.053  -1.045  1.00  0.00     0.005 A 
ATOM     13  C   UNL     1       1.736   7.237  -1.991  1.00  0.00     0.005 A 
ATOM     14  C   UNL     1      -0.951   6.865  -1.418  1.00  0.00     0.012 A 
ATOM     15  C   UNL     1       1.105   6.040  -2.349  1.00  0.00     0.012 A 
BRANCH  11  16
ATOM     16  C   UNL     1       1.694   9.664  -1.183  1.00  0.00    -0.013 C 
ATOM     17  C   UNL     1       3.046   9.519  -0.455  1.00  0.00     0.016 C 
ATOM     18  C   UNL     1       0.839  10.659  -0.367  1.00  0.00     0.016 C 
ATOM     19  C   UNL     1       1.931  10.294  -2.575  1.00  0.00     0.016 C 
ENDBRANCH  11  16
ENDBRANCH   8  10
ENDBRANCH   7   8
ENDBRANCH   6   7
BRANCH   6  20
ATOM     20  N   UNL     1      -0.738   6.424  -5.728  1.00  0.00    -0.324 N 
ATOM     21  C   UNL     1      -1.789   6.451  -6.742  1.00  0.00     0.263 C 
ATOM     22  C   UNL     1      -1.151   7.388  -4.726  1.00  0.00     0.263 C 
ATOM     23  H   UNL     1       0.174   6.730  -6.068  1.00  0.00     0.348 HD
ATOM     24  C   UNL     1      -1.972   7.949  -6.929  1.00  0.00     0.067 C 
ATOM     25  C   UNL     1      -1.736   8.536  -5.545  1.00  0.00     0.067 C 
ENDBRANCH   6  20
ENDBRANCH   3   6
ENDBRANCH   1   2
BRANCH   1  26
ATOM     26  C   UNL     1       1.936   8.134  -6.572  1.00  0.00     0.042 C 
BRANCH  26  27
ATOM     27  C   UNL     1       3.389   8.569  -6.411  1.00  0.00     0.118 C 
BRANCH  27  28
ATOM     28  N   UNL     1       4.032   8.798  -7.698  1.00  0.00    -0.352 N 
ATOM     29  C   UNL     1       4.444   9.963  -8.292  1.00  0.00     0.251 C 
ATOM     30  H   UNL     1       4.198   7.984  -8.227  1.00  0.00     0.163 HD
ATOM     31  O   UNL     1       4.702   9.958  -9.496  1.00  0.00    -0.269 OA
BRANCH  29  32
ATOM     32  C   UNL     1       4.586  11.213  -7.513  1.00  0.00     0.039 A 
ATOM     33  C   UNL     1       4.273  12.431  -8.125  1.00  0.00     0.014 A 
ATOM     34  C   UNL     1       5.093  11.202  -6.210  1.00  0.00     0.014 A 
ATOM     35  C   UNL     1       4.427  13.627  -7.420  1.00  0.00     0.010 A 
ATOM     36  C   UNL     1       5.167  12.385  -5.480  1.00  0.00     0.010 A 
ATOM     37  C   UNL     1       4.852  13.612  -6.082  1.00  0.00    -0.014 A 
BRANCH  37  38
ATOM     38  C   UNL     1       4.996  14.867  -5.299  1.00  0.00     0.031 A 
ATOM     39  C   UNL     1       6.345  15.278  -4.772  1.00  0.00     0.074 A 
ATOM     40  C   UNL     1       3.901  15.591  -4.995  1.00  0.00     0.049 A 
ATOM     41  N   UNL     1       6.657  16.279  -3.989  1.00  0.00    -0.248 NA
ATOM     42  C   UNL     1       7.488  14.431  -5.146  1.00  0.00     0.031 C 
ATOM     43  C   UNL     1       2.533  15.265  -5.401  1.00  0.00     0.029 A 
ATOM     44  N   UNL     1       3.765  16.742  -4.261  1.00  0.00    -0.354 N 
ATOM     45  C   UNL     1       8.022  16.163  -3.752  1.00  0.00     0.074 A 
ATOM     46  C   UNL     1       8.469  14.970  -4.436  1.00  0.00     0.031 C 
ATOM     47  C   UNL     1       1.698  16.202  -4.924  1.00  0.00     0.029 A 
ATOM     48  C   UNL     1       2.465  17.174  -4.151  1.00  0.00     0.049 A 
ATOM     49  H   UNL     1       4.527  17.214  -3.853  1.00  0.00     0.167 HD
ATOM     50  C   UNL     1       8.833  16.987  -3.045  1.00  0.00     0.037 A 
ATOM     51  C   UNL     1       1.946  18.229  -3.493  1.00  0.00     0.037 A 
ATOM     52  C   UNL     1       8.387  18.196  -2.402  1.00  0.00     0.049 A 
ATOM     53  C   UNL     1       2.868  19.154  -2.748  1.00  0.00     0.074 A 
ATOM     54  C   UNL     1       9.140  19.143  -1.730  1.00  0.00     0.029 A 
ATOM     55  N   UNL     1       7.068  18.625  -2.351  1.00  0.00    -0.354 N 
ATOM     56  N   UNL     1       4.167  19.067  -2.589  1.00  0.00    -0.248 NA
ATOM     57  C   UNL     1       2.257  20.322  -2.101  1.00  0.00     0.031 C 
ATOM     58  C   UNL     1       8.271  20.125  -1.240  1.00  0.00     0.029 A 
ATOM     59  C   UNL     1       6.982  19.812  -1.643  1.00  0.00     0.049 A 
ATOM     60  H   UNL     1       6.305  18.153  -2.758  1.00  0.00     0.167 HD
ATOM     61  C   UNL     1       4.533  20.179  -1.839  1.00  0.00     0.074 A 
ATOM     62  C   UNL     1       3.319  20.929  -1.587  1.00  0.00     0.031 C 
ATOM     63  C   UNL     1       5.763  20.545  -1.400  1.00  0.00     0.037 A 
BRANCH  50  64
ATOM     64  C   UNL     1      10.283  16.601  -2.929  1.00  0.00     0.058 A 
ATOM     65  C   UNL     1      11.151  16.645  -4.033  1.00  0.00     0.135 A 
ATOM     66  C   UNL     1      10.813  16.180  -1.699  1.00  0.00     0.135 A 
ATOM     67  F   UNL     1      10.695  17.027  -5.237  1.00  0.00    -0.206 F 
ATOM     68  C   UNL     1      12.478  16.240  -3.932  1.00  0.00     0.059 A 
ATOM     69  C   UNL     1      12.146  15.799  -1.568  1.00  0.00     0.059 A 
ATOM     70  F   UNL     1      10.031  16.123  -0.610  1.00  0.00    -0.206 F 
ATOM     71  C   UNL     1      12.964  15.810  -2.697  1.00  0.00     0.060 A 
BRANCH  71  72
ATOM     72  S   UNL     1      14.680  15.258  -2.586  1.00  0.00     0.124 S 
ATOM     73  O   UNL     1      14.600  13.941  -3.211  1.00  0.00    -0.237 OA
ATOM     74  O   UNL     1      15.389  16.279  -3.352  1.00  0.00    -0.237 OA
ATOM     75  O   UNL     1      14.945  15.258  -1.152  1.00  0.00    -0.744 OA
ENDBRANCH  71  72
ENDBRANCH  50  64
BRANCH  51  76
ATOM     76  C   UNL     1       0.482  18.473  -3.545  1.00  0.00     0.058 A 
ATOM     77  C   UNL     1      -0.047  19.510  -4.327  1.00  0.00     0.135 A 
ATOM     78  C   UNL     1      -0.420  17.639  -2.867  1.00  0.00     0.135 A 
ATOM     79  F   UNL     1       0.777  20.337  -4.990  1.00  0.00    -0.206 F 
ATOM     80  C   UNL     1      -1.418  19.712  -4.438  1.00  0.00     0.059 A 
ATOM     81  C   UNL     1      -1.796  17.808  -2.978  1.00  0.00     0.059 A 
ATOM     82  F   UNL     1       0.037  16.621  -2.120  1.00  0.00    -0.206 F 
ATOM     83  C   UNL     1      -2.286  18.849  -3.766  1.00  0.00     0.060 A 
BRANCH  83  84
ATOM     84  S   UNL     1      -4.066  19.064  -3.988  1.00  0.00     0.124 S 
ATOM     85  O   UNL     1      -4.322  20.252  -3.183  1.00  0.00    -0.237 OA
ATOM     86  O   UNL     1      -4.175  19.235  -5.434  1.00  0.00    -0.237 OA
ATOM     87  O   UNL     1      -4.620  17.817  -3.470  1.00  0.00    -0.744 OA
ENDBRANCH  83  84
ENDBRANCH  51  76
BRANCH  63  88
ATOM     88  C   UNL     1       5.863  21.825  -0.619  1.00  0.00     0.058 A 
ATOM     89  C   UNL     1       5.418  21.912   0.709  1.00  0.00     0.135 A 
ATOM     90  C   UNL     1       6.460  22.961  -1.189  1.00  0.00     0.135 A 
ATOM     91  F   UNL     1       4.835  20.856   1.297  1.00  0.00    -0.206 F 
ATOM     92  C   UNL     1       5.544  23.089   1.440  1.00  0.00     0.059 A 
ATOM     93  C   UNL     1       6.617  24.140  -0.468  1.00  0.00     0.059 A 
ATOM     94  F   UNL     1       6.911  22.926  -2.453  1.00  0.00    -0.206 F 
ATOM     95  C   UNL     1       6.146  24.198   0.843  1.00  0.00     0.060 A 
BRANCH  95  96
ATOM     96  S   UNL     1       6.335  25.709   1.812  1.00  0.00     0.124 S 
ATOM     97  O   UNL     1       4.973  26.233   1.806  1.00  0.00    -0.237 OA
ATOM     98  O   UNL     1       6.814  25.202   3.094  1.00  0.00    -0.237 OA
ATOM     99  O   UNL     1       7.309  26.482   1.048  1.00  0.00    -0.744 OA
ENDBRANCH  95  96
ENDBRANCH  63  88
ENDBRANCH  37  38
ENDBRANCH  29  32
ENDBRANCH  27  28
ENDBRANCH  26  27
ENDBRANCH   1  26
TORSDOF 18
