REMARK SMILES CC[C@H]1SC[C@H](C(=O)NCCCNC(=O)c2ccc(-c3c4nc(c(-c5c(F)cc(S(=O)(=O)[O-])cc5F)c5ccc([nH]5)c(-c5c(F)cc(S(=O)(=O)[O-])cc5F)c5nc(c(-c6c(F)cc(S(=O)(=O)[O-])cc6F)c6ccc3[nH]6)C=C5)C=C4)cc2)N1C(=O)Cc1ccc(F)c(F)c1
REMARK SMILES IDX 11 1 10 2 9 3 7 4 8 5 6 7 3 8 4 9 82 10 5 11 2 12 1 13 83 14
REMARK SMILES IDX 84 15 85 16 86 17 87 18 93 19 88 20 91 21 89 22 92 23 90 24
REMARK SMILES IDX 12 25 13 26 14 27 15 29 16 30 17 31 81 32 18 33 80 34 19 35
REMARK SMILES IDX 20 36 21 37 74 38 22 39 79 40 73 41 75 42 23 43 78 44 72 45
REMARK SMILES IDX 71 46 24 48 58 49 37 50 57 51 38 52 41 53 56 54 76 55 39 56
REMARK SMILES IDX 40 57 55 59 77 60 42 61 25 62 26 63 35 64 27 65 28 66 34 67
REMARK SMILES IDX 36 68 29 69 30 70 31 71 32 72 33 73 59 74 60 75 69 76 61 77
REMARK SMILES IDX 62 78 68 79 70 80 63 81 64 82 65 83 66 84 67 85 43 86 44 87
REMARK SMILES IDX 53 88 45 89 46 90 52 91 54 92 47 93 48 94 49 95 50 96 51 97
REMARK H PARENT 9 6 13 28 75 47 41 58
REMARK Flexibility Score: inf
ROOT
ATOM      1  C   UNL     1       2.194   2.393   5.758  1.00  0.00     0.042 C 
ENDROOT
BRANCH   1   2
ATOM      2  C   UNL     1       0.818   1.993   5.281  1.00  0.00     0.117 C 
BRANCH   2   3
ATOM      3  N   UNL     1       0.065   3.092   4.713  1.00  0.00    -0.354 N 
ATOM      4  C   UNL     1      -0.585   3.219   3.523  1.00  0.00     0.243 C 
ATOM      5  O   UNL     1      -1.139   4.305   3.311  1.00  0.00    -0.273 OA
ATOM      6  H   UNL     1       0.013   3.889   5.289  1.00  0.00     0.163 HD
BRANCH   4   7
ATOM      7  C   UNL     1      -0.478   2.183   2.380  1.00  0.00     0.185 C 
ATOM      8  C   UNL     1       0.878   0.118   2.159  1.00  0.00     0.143 C 
ATOM      9  S   UNL     1       2.018   1.478   1.771  1.00  0.00    -0.134 SA
ATOM     10  N   UNL     1      -0.284   0.778   2.766  1.00  0.00    -0.318 N 
ATOM     11  C   UNL     1       0.668   2.644   1.475  1.00  0.00     0.107 C 
BRANCH   8  12
ATOM     12  C   UNL     1       0.465  -0.755   0.950  1.00  0.00     0.033 C 
ATOM     13  C   UNL     1       0.920  -0.351  -0.447  1.00  0.00     0.007 C 
ENDBRANCH   8  12
BRANCH  10  14
ATOM     14  C   UNL     1      -1.221   0.195   3.604  1.00  0.00     0.228 C 
ATOM     15  O   UNL     1      -2.315   0.726   3.808  1.00  0.00    -0.274 OA
BRANCH  14  16
ATOM     16  C   UNL     1      -0.822  -1.048   4.394  1.00  0.00     0.135 C 
BRANCH  16  17
ATOM     17  C   UNL     1      -0.945  -2.350   3.652  1.00  0.00    -0.036 A 
ATOM     18  C   UNL     1      -1.946  -2.549   2.689  1.00  0.00     0.007 A 
ATOM     19  C   UNL     1      -0.064  -3.402   3.952  1.00  0.00     0.046 A 
ATOM     20  C   UNL     1      -2.005  -3.742   1.969  1.00  0.00     0.043 A 
ATOM     21  C   UNL     1      -0.146  -4.597   3.244  1.00  0.00     0.159 A 
ATOM     22  C   UNL     1      -1.099  -4.758   2.247  1.00  0.00     0.158 A 
ATOM     23  F   UNL     1       0.710  -5.588   3.527  1.00  0.00    -0.204 F 
ATOM     24  F   UNL     1      -1.154  -5.895   1.542  1.00  0.00    -0.204 F 
ENDBRANCH  16  17
ENDBRANCH  14  16
ENDBRANCH  10  14
ENDBRANCH   4   7
ENDBRANCH   2   3
ENDBRANCH   1   2
BRANCH   1  25
ATOM     25  C   UNL     1       2.156   3.341   6.934  1.00  0.00     0.118 C 
BRANCH  25  26
ATOM     26  N   UNL     1       1.518   2.748   8.106  1.00  0.00    -0.352 N 
ATOM     27  C   UNL     1       2.062   2.373   9.311  1.00  0.00     0.251 C 
ATOM     28  H   UNL     1       0.550   2.594   8.021  1.00  0.00     0.163 HD
ATOM     29  O   UNL     1       1.406   1.682  10.086  1.00  0.00    -0.269 OA
BRANCH  27  30
ATOM     30  C   UNL     1       3.438   2.785   9.653  1.00  0.00     0.039 A 
ATOM     31  C   UNL     1       4.278   1.902  10.334  1.00  0.00     0.014 A 
ATOM     32  C   UNL     1       3.903   4.048   9.285  1.00  0.00     0.014 A 
ATOM     33  C   UNL     1       5.602   2.269  10.584  1.00  0.00     0.010 A 
ATOM     34  C   UNL     1       5.250   4.348   9.397  1.00  0.00     0.010 A 
ATOM     35  C   UNL     1       6.108   3.481  10.085  1.00  0.00    -0.014 A 
BRANCH  35  36
ATOM     36  C   UNL     1       7.505   3.915  10.330  1.00  0.00     0.031 A 
ATOM     37  C   UNL     1       7.756   5.215  11.053  1.00  0.00     0.074 A 
ATOM     38  C   UNL     1       8.533   3.191   9.846  1.00  0.00     0.049 A 
ATOM     39  N   UNL     1       8.886   5.834  11.275  1.00  0.00    -0.248 NA
ATOM     40  C   UNL     1       6.573   5.941  11.552  1.00  0.00     0.031 C 
ATOM     41  C   UNL     1       8.411   1.948   9.079  1.00  0.00     0.029 A 
ATOM     42  N   UNL     1       9.886   3.401   9.921  1.00  0.00    -0.354 N 
ATOM     43  C   UNL     1       8.545   7.024  11.909  1.00  0.00     0.074 A 
ATOM     44  C   UNL     1       7.103   7.081  11.964  1.00  0.00     0.031 C 
ATOM     45  C   UNL     1       9.639   1.490   8.786  1.00  0.00     0.029 A 
ATOM     46  C   UNL     1      10.632   2.424   9.305  1.00  0.00     0.049 A 
ATOM     47  H   UNL     1      10.285   4.178  10.374  1.00  0.00     0.167 HD
ATOM     48  C   UNL     1       9.360   7.967  12.435  1.00  0.00     0.037 A 
ATOM     49  C   UNL     1      11.967   2.301   9.174  1.00  0.00     0.037 A 
ATOM     50  C   UNL     1      10.794   7.874  12.421  1.00  0.00     0.049 A 
ATOM     51  C   UNL     1      12.855   3.352   9.786  1.00  0.00     0.074 A 
ATOM     52  C   UNL     1      11.718   8.738  12.980  1.00  0.00     0.029 A 
ATOM     53  N   UNL     1      11.512   6.848  11.825  1.00  0.00    -0.354 N 
ATOM     54  N   UNL     1      12.518   4.441  10.436  1.00  0.00    -0.248 NA
ATOM     55  C   UNL     1      14.305   3.152   9.658  1.00  0.00     0.031 C 
ATOM     56  C   UNL     1      12.997   8.256  12.684  1.00  0.00     0.029 A 
ATOM     57  C   UNL     1      12.869   7.063  11.990  1.00  0.00     0.049 A 
ATOM     58  H   UNL     1      11.115   6.080  11.353  1.00  0.00     0.167 HD
ATOM     59  C   UNL     1      13.713   5.037  10.825  1.00  0.00     0.074 A 
ATOM     60  C   UNL     1      14.779   4.183  10.345  1.00  0.00     0.031 C 
ATOM     61  C   UNL     1      13.911   6.186  11.518  1.00  0.00     0.037 A 
BRANCH  48  62
ATOM     62  C   UNL     1       8.717   9.163  13.085  1.00  0.00     0.058 A 
ATOM     63  C   UNL     1       7.988   9.052  14.280  1.00  0.00     0.135 A 
ATOM     64  C   UNL     1       8.851  10.441  12.519  1.00  0.00     0.135 A 
ATOM     65  F   UNL     1       7.810   7.851  14.856  1.00  0.00    -0.206 F 
ATOM     66  C   UNL     1       7.387  10.157  14.873  1.00  0.00     0.059 A 
ATOM     67  C   UNL     1       8.286  11.566  13.113  1.00  0.00     0.059 A 
ATOM     68  F   UNL     1       9.533  10.606  11.375  1.00  0.00    -0.206 F 
ATOM     69  C   UNL     1       7.543  11.411  14.282  1.00  0.00     0.060 A 
BRANCH  69  70
ATOM     70  S   UNL     1       6.768  12.836  15.073  1.00  0.00     0.124 S 
ATOM     71  O   UNL     1       5.357  12.600  14.778  1.00  0.00    -0.237 OA
ATOM     72  O   UNL     1       7.160  12.669  16.468  1.00  0.00    -0.237 OA
ATOM     73  O   UNL     1       7.369  13.975  14.387  1.00  0.00    -0.744 OA
ENDBRANCH  69  70
ENDBRANCH  48  62
BRANCH  49  74
ATOM     74  C   UNL     1      12.544   1.125   8.468  1.00  0.00     0.058 A 
ATOM     75  C   UNL     1      13.250   0.137   9.171  1.00  0.00     0.135 A 
ATOM     76  C   UNL     1      12.398   0.960   7.082  1.00  0.00     0.135 A 
ATOM     77  F   UNL     1      13.419   0.250  10.498  1.00  0.00    -0.206 F 
ATOM     78  C   UNL     1      13.812  -0.959   8.525  1.00  0.00     0.059 A 
ATOM     79  C   UNL     1      12.927  -0.142   6.417  1.00  0.00     0.059 A 
ATOM     80  F   UNL     1      11.714   1.865   6.365  1.00  0.00    -0.206 F 
ATOM     81  C   UNL     1      13.644  -1.090   7.145  1.00  0.00     0.060 A 
BRANCH  81  82
ATOM     82  S   UNL     1      14.348  -2.535   6.322  1.00  0.00     0.124 S 
ATOM     83  O   UNL     1      15.773  -2.230   6.360  1.00  0.00    -0.237 OA
ATOM     84  O   UNL     1      13.903  -3.625   7.185  1.00  0.00    -0.237 OA
ATOM     85  O   UNL     1      13.730  -2.501   4.999  1.00  0.00    -0.744 OA
ENDBRANCH  81  82
ENDBRANCH  49  74
BRANCH  61  86
ATOM     86  C   UNL     1      15.329   6.561  11.847  1.00  0.00     0.058 A 
ATOM     87  C   UNL     1      16.220   7.025  10.868  1.00  0.00     0.135 A 
ATOM     88  C   UNL     1      15.782   6.508  13.176  1.00  0.00     0.135 A 
ATOM     89  F   UNL     1      15.838   7.090   9.582  1.00  0.00    -0.206 F 
ATOM     90  C   UNL     1      17.520   7.400  11.190  1.00  0.00     0.059 A 
ATOM     91  C   UNL     1      17.067   6.908  13.525  1.00  0.00     0.059 A 
ATOM     92  F   UNL     1      14.964   6.084  14.153  1.00  0.00    -0.206 F 
ATOM     93  C   UNL     1      17.933   7.340  12.523  1.00  0.00     0.060 A 
BRANCH  93  94
ATOM     94  S   UNL     1      19.611   7.862  12.931  1.00  0.00     0.124 S 
ATOM     95  O   UNL     1      20.399   6.750  12.410  1.00  0.00    -0.237 OA
ATOM     96  O   UNL     1      19.733   9.121  12.204  1.00  0.00    -0.237 OA
ATOM     97  O   UNL     1      19.585   7.985  14.386  1.00  0.00    -0.744 OA
ENDBRANCH  93  94
ENDBRANCH  61  86
ENDBRANCH  35  36
ENDBRANCH  27  30
ENDBRANCH  25  26
ENDBRANCH   1  25
TORSDOF 17
