REMARK SMILES Cc1ccc([C@H]2C[C@]2([NH3+])C(=O)NCCCNC(=O)c2ccc(-c3c4nc(c(-c5c(F)cc(S(=O)(=O)[O-])cc5F)c5ccc([nH]5)c(-c5c(F)cc(S(=O)(=O)[O-])cc5F)c5nc(c(-c6c(F)cc(S(=O)(=O)[O-])cc6F)c6ccc3[nH]6)C=C5)C=C4)cc2)cc1C
REMARK SMILES IDX 15 1 14 2 13 3 12 4 10 5 11 6 8 8 6 9 7 10 5 11 1 12 2 13
REMARK SMILES IDX 3 14 86 15 4 16 85 17 87 18 9 19 16 23 17 24 18 26 19 27
REMARK SMILES IDX 20 28 84 29 21 30 83 31 22 32 23 33 24 34 77 35 25 36 82 37
REMARK SMILES IDX 76 38 78 39 26 40 81 41 75 42 74 43 27 45 61 46 40 47 60 48
REMARK SMILES IDX 41 49 44 50 59 51 79 52 42 53 43 54 58 56 80 57 45 58 28 59
REMARK SMILES IDX 29 60 38 61 30 62 31 63 37 64 39 65 32 66 33 67 34 68 35 69
REMARK SMILES IDX 36 70 62 71 63 72 72 73 64 74 65 75 71 76 73 77 66 78 67 79
REMARK SMILES IDX 68 80 69 81 70 82 46 83 47 84 56 85 48 86 49 87 55 88 57 89
REMARK SMILES IDX 50 90 51 91 52 92 53 93 54 94
REMARK H PARENT 12 7 9 20 9 21 9 22 16 25 78 44 44 55
REMARK Flexibility Score: inf
ROOT
ATOM      1  C   UNL     1      -3.615   2.474   3.957  1.00  0.00     0.118 C 
ENDROOT
BRANCH   1   2
ATOM      2  C   UNL     1      -3.626   0.979   3.654  1.00  0.00     0.042 C 
BRANCH   2   3
ATOM      3  C   UNL     1      -4.794   0.495   2.804  1.00  0.00     0.118 C 
BRANCH   3   4
ATOM      4  N   UNL     1      -4.855   1.118   1.496  1.00  0.00    -0.351 N 
ATOM      5  C   UNL     1      -4.768   0.563   0.244  1.00  0.00     0.281 C 
ATOM      6  O   UNL     1      -4.910   1.289  -0.739  1.00  0.00    -0.268 OA
ATOM      7  H   UNL     1      -4.979   2.094   1.508  1.00  0.00     0.163 HD
BRANCH   5   8
ATOM      8  C   UNL     1      -4.474  -0.918   0.078  1.00  0.00     0.181 C 
ATOM      9  C   UNL     1      -3.011  -1.295  -0.120  1.00  0.00     0.097 C 
ATOM     10  C   UNL     1      -3.969  -1.396  -1.273  1.00  0.00     0.095 C 
BRANCH   9  11
ATOM     11  C   UNL     1      -2.346  -2.541   0.415  1.00  0.00    -0.038 A 
ATOM     12  C   UNL     1       0.058  -5.853   1.900  1.00  0.00     0.044 C 
ATOM     13  C   UNL     1      -0.817  -4.729   1.418  1.00  0.00    -0.048 A 
ATOM     14  C   UNL     1      -0.884  -4.465   0.044  1.00  0.00     0.004 A 
ATOM     15  C   UNL     1      -1.545  -3.912   2.301  1.00  0.00    -0.048 A 
ATOM     16  C   UNL     1      -1.634  -3.392  -0.443  1.00  0.00     0.004 A 
ATOM     17  C   UNL     1      -2.290  -2.830   1.786  1.00  0.00     0.008 A 
ATOM     18  C   UNL     1      -1.544  -4.114   3.793  1.00  0.00     0.044 C 
ENDBRANCH   9  11
BRANCH   8  19
ATOM     19  N   UNL     1      -5.490  -1.830   0.668  1.00  0.00    -0.344 N 
ATOM     20  H   UNL     1      -5.211  -2.798   0.509  1.00  0.00     0.345 HD
ATOM     21  H   UNL     1      -6.395  -1.660   0.229  1.00  0.00     0.345 HD
ATOM     22  H   UNL     1      -5.561  -1.656   1.671  1.00  0.00     0.345 HD
ENDBRANCH   8  19
ENDBRANCH   5   8
ENDBRANCH   3   4
ENDBRANCH   2   3
ENDBRANCH   1   2
BRANCH   1  23
ATOM     23  N   UNL     1      -4.784   2.925   4.700  1.00  0.00    -0.352 N 
ATOM     24  C   UNL     1      -4.889   3.526   5.932  1.00  0.00     0.251 C 
ATOM     25  H   UNL     1      -5.643   2.773   4.244  1.00  0.00     0.163 HD
ATOM     26  O   UNL     1      -6.005   3.696   6.417  1.00  0.00    -0.269 OA
BRANCH  24  27
ATOM     27  C   UNL     1      -3.686   3.942   6.691  1.00  0.00     0.039 A 
ATOM     28  C   UNL     1      -3.660   3.733   8.075  1.00  0.00     0.014 A 
ATOM     29  C   UNL     1      -2.599   4.557   6.067  1.00  0.00     0.014 A 
ATOM     30  C   UNL     1      -2.519   4.065   8.812  1.00  0.00     0.010 A 
ATOM     31  C   UNL     1      -1.432   4.812   6.787  1.00  0.00     0.010 A 
ATOM     32  C   UNL     1      -1.377   4.567   8.167  1.00  0.00    -0.014 A 
BRANCH  32  33
ATOM     33  C   UNL     1      -0.118   4.835   8.914  1.00  0.00     0.031 A 
ATOM     34  C   UNL     1       0.440   6.231   8.989  1.00  0.00     0.074 A 
ATOM     35  C   UNL     1       0.562   3.809   9.466  1.00  0.00     0.049 A 
ATOM     36  N   UNL     1       1.568   6.644   9.507  1.00  0.00    -0.248 NA
ATOM     37  C   UNL     1      -0.364   7.300   8.374  1.00  0.00     0.031 C 
ATOM     38  C   UNL     1       0.157   2.402   9.422  1.00  0.00     0.029 A 
ATOM     39  N   UNL     1       1.747   3.788  10.159  1.00  0.00    -0.354 N 
ATOM     40  C   UNL     1       1.617   8.014   9.271  1.00  0.00     0.074 A 
ATOM     41  C   UNL     1       0.430   8.352   8.515  1.00  0.00     0.031 C 
ATOM     42  C   UNL     1       1.068   1.660  10.070  1.00  0.00     0.029 A 
ATOM     43  C   UNL     1       2.141   2.528  10.544  1.00  0.00     0.049 A 
ATOM     44  H   UNL     1       2.267   4.600  10.362  1.00  0.00     0.167 HD
ATOM     45  C   UNL     1       2.550   8.912   9.668  1.00  0.00     0.037 A 
ATOM     46  C   UNL     1       3.247   2.114  11.194  1.00  0.00     0.037 A 
ATOM     47  C   UNL     1       3.718   8.576  10.442  1.00  0.00     0.049 A 
ATOM     48  C   UNL     1       4.266   3.131  11.632  1.00  0.00     0.074 A 
ATOM     49  C   UNL     1       4.700   9.421  10.929  1.00  0.00     0.029 A 
ATOM     50  N   UNL     1       4.060   7.294  10.845  1.00  0.00    -0.354 N 
ATOM     51  N   UNL     1       4.269   4.428  11.443  1.00  0.00    -0.248 NA
ATOM     52  C   UNL     1       5.428   2.629  12.379  1.00  0.00     0.031 C 
ATOM     53  C   UNL     1       5.652   8.646  11.600  1.00  0.00     0.029 A 
ATOM     54  C   UNL     1       5.242   7.323  11.566  1.00  0.00     0.049 A 
ATOM     55  H   UNL     1       3.539   6.482  10.647  1.00  0.00     0.167 HD
ATOM     56  C   UNL     1       5.417   4.901  12.069  1.00  0.00     0.074 A 
ATOM     57  C   UNL     1       6.078   3.752  12.653  1.00  0.00     0.031 C 
ATOM     58  C   UNL     1       5.882   6.172  12.152  1.00  0.00     0.037 A 
BRANCH  45  59
ATOM     59  C   UNL     1       2.339  10.350   9.282  1.00  0.00     0.058 A 
ATOM     60  C   UNL     1       1.324  11.125   9.868  1.00  0.00     0.135 A 
ATOM     61  C   UNL     1       3.175  10.972   8.341  1.00  0.00     0.135 A 
ATOM     62  F   UNL     1       0.487  10.576  10.762  1.00  0.00    -0.206 F 
ATOM     63  C   UNL     1       1.125  12.454   9.511  1.00  0.00     0.059 A 
ATOM     64  C   UNL     1       3.011  12.309   7.989  1.00  0.00     0.059 A 
ATOM     65  F   UNL     1       4.162  10.280   7.751  1.00  0.00    -0.206 F 
ATOM     66  C   UNL     1       1.973  13.037   8.568  1.00  0.00     0.060 A 
BRANCH  66  67
ATOM     67  S   UNL     1       1.700  14.763   8.115  1.00  0.00     0.124 S 
ATOM     68  O   UNL     1       0.506  14.659   7.281  1.00  0.00    -0.237 OA
ATOM     69  O   UNL     1       1.510  15.402   9.413  1.00  0.00    -0.237 OA
ATOM     70  O   UNL     1       2.926  15.128   7.413  1.00  0.00    -0.744 OA
ENDBRANCH  66  67
ENDBRANCH  45  59
BRANCH  46  71
ATOM     71  C   UNL     1       3.440   0.668  11.485  1.00  0.00     0.058 A 
ATOM     72  C   UNL     1       3.336   0.174  12.793  1.00  0.00     0.135 A 
ATOM     73  C   UNL     1       3.726  -0.248  10.460  1.00  0.00     0.135 A 
ATOM     74  F   UNL     1       3.070   1.012  13.807  1.00  0.00    -0.206 F 
ATOM     75  C   UNL     1       3.525  -1.173  13.081  1.00  0.00     0.059 A 
ATOM     76  C   UNL     1       3.895  -1.604  10.720  1.00  0.00     0.059 A 
ATOM     77  F   UNL     1       3.818   0.172   9.189  1.00  0.00    -0.206 F 
ATOM     78  C   UNL     1       3.804  -2.056  12.036  1.00  0.00     0.060 A 
BRANCH  78  79
ATOM     79  S   UNL     1       4.003  -3.811  12.411  1.00  0.00     0.124 S 
ATOM     80  O   UNL     1       5.330  -3.834  13.013  1.00  0.00    -0.237 OA
ATOM     81  O   UNL     1       2.885  -4.061  13.316  1.00  0.00    -0.237 OA
ATOM     82  O   UNL     1       3.891  -4.447  11.101  1.00  0.00    -0.744 OA
ENDBRANCH  78  79
ENDBRANCH  46  71
BRANCH  58  83
ATOM     83  C   UNL     1       7.147   6.396  12.932  1.00  0.00     0.058 A 
ATOM     84  C   UNL     1       8.402   6.017  12.429  1.00  0.00     0.135 A 
ATOM     85  C   UNL     1       7.107   7.040  14.179  1.00  0.00     0.135 A 
ATOM     86  F   UNL     1       8.494   5.391  11.245  1.00  0.00    -0.206 F 
ATOM     87  C   UNL     1       9.571   6.250  13.146  1.00  0.00     0.059 A 
ATOM     88  C   UNL     1       8.266   7.306  14.901  1.00  0.00     0.059 A 
ATOM     89  F   UNL     1       5.934   7.431  14.701  1.00  0.00    -0.206 F 
ATOM     90  C   UNL     1       9.493   6.895  14.381  1.00  0.00     0.060 A 
BRANCH  90  91
ATOM     91  S   UNL     1      11.021   7.221  15.287  1.00  0.00     0.124 S 
ATOM     92  O   UNL     1      11.343   5.895  15.806  1.00  0.00    -0.237 OA
ATOM     93  O   UNL     1      11.905   7.724  14.241  1.00  0.00    -0.237 OA
ATOM     94  O   UNL     1      10.619   8.206  16.287  1.00  0.00    -0.744 OA
ENDBRANCH  90  91
ENDBRANCH  58  83
ENDBRANCH  32  33
ENDBRANCH  24  27
ENDBRANCH   1  23
TORSDOF 15
