REMARK SMILES C[C@]12CCC(=O)N1[C@@H](C(=O)N1C[C@H](O)C[C@@H]1C(=O)NCCCNC(=O)c1ccc(-c3c4nc(c(-c5c(F)cc(S(=O)(=O)[O-])cc5F)c5ccc([nH]5)c(-c5c(F)cc(S(=O)(=O)[O-])cc5F)c5nc(c(-c6c(F)cc(S(=O)(=O)[O-])cc6F)c6ccc3[nH]6)C=C5)C=C4)cc1)CS2
REMARK SMILES IDX 21 1 20 2 19 3 17 4 18 5 16 7 11 8 12 9 13 10 15 11 9 12
REMARK SMILES IDX 10 13 8 14 1 15 2 16 3 17 7 18 93 19 4 20 5 21 92 22 6 23
REMARK SMILES IDX 14 24 22 26 23 27 24 28 25 30 26 31 27 32 91 33 28 34 90 35
REMARK SMILES IDX 29 36 30 37 31 38 84 39 32 40 89 41 83 42 85 43 33 44 88 45
REMARK SMILES IDX 82 46 81 47 34 49 68 50 47 51 67 52 48 53 51 54 66 55 86 56
REMARK SMILES IDX 49 57 50 58 65 60 87 61 52 62 35 63 36 64 45 65 37 66 38 67
REMARK SMILES IDX 44 68 46 69 39 70 40 71 41 72 42 73 43 74 69 75 70 76 79 77
REMARK SMILES IDX 71 78 72 79 78 80 80 81 73 82 74 83 75 84 76 85 77 86 53 87
REMARK SMILES IDX 54 88 63 89 55 90 56 91 62 92 64 93 57 94 58 95 59 96 60 97
REMARK SMILES IDX 61 98
REMARK H PARENT 19 6 14 25 23 29 85 48 51 59
REMARK Flexibility Score: inf
ROOT
ATOM      1  C   UNL     1      -4.678  -0.970  -1.069  1.00  0.00     0.042 C 
ENDROOT
BRANCH   1   2
ATOM      2  C   UNL     1      -4.581  -1.529   0.334  1.00  0.00     0.117 C 
BRANCH   2   3
ATOM      3  N   UNL     1      -5.270  -2.768   0.536  1.00  0.00    -0.354 N 
ATOM      4  C   UNL     1      -4.723  -3.921   1.023  1.00  0.00     0.242 C 
ATOM      5  O   UNL     1      -5.447  -4.564   1.793  1.00  0.00    -0.273 OA
ATOM      6  H   UNL     1      -6.226  -2.791   0.302  1.00  0.00     0.163 HD
BRANCH   4   7
ATOM      7  C   UNL     1      -3.209  -4.283   0.809  1.00  0.00     0.177 C 
ATOM      8  N   UNL     1      -2.633  -3.990  -0.520  1.00  0.00    -0.326 N 
ATOM      9  C   UNL     1      -2.807  -5.161  -1.386  1.00  0.00     0.152 C 
ATOM     10  C   UNL     1      -3.403  -6.266  -0.513  1.00  0.00     0.136 C 
ATOM     11  C   UNL     1      -3.080  -5.813   0.907  1.00  0.00     0.069 C 
BRANCH   8  12
ATOM     12  C   UNL     1      -1.786  -3.016  -1.010  1.00  0.00     0.247 C 
ATOM     13  O   UNL     1      -1.608  -2.965  -2.240  1.00  0.00    -0.272 OA
BRANCH  12  14
ATOM     14  C   UNL     1      -0.872  -2.095  -0.145  1.00  0.00     0.186 C 
ATOM     15  C   UNL     1       1.938  -0.593  -0.158  1.00  0.00     0.047 C 
ATOM     16  C   UNL     1       1.338  -1.643   0.776  1.00  0.00     0.087 C 
ATOM     17  C   UNL     1       2.412  -2.478   1.458  1.00  0.00     0.049 C 
ATOM     18  N   UNL     1       0.479  -2.599   0.121  1.00  0.00    -0.315 N 
ATOM     19  S   UNL     1       0.217  -0.810   1.963  1.00  0.00    -0.131 SA
ATOM     20  C   UNL     1       1.778  -3.845   1.643  1.00  0.00     0.103 C 
ATOM     21  C   UNL     1       0.685  -3.882   0.612  1.00  0.00     0.224 C 
ATOM     22  C   UNL     1      -1.310  -1.391   1.133  1.00  0.00     0.107 C 
ATOM     23  O   UNL     1       0.019  -4.876   0.368  1.00  0.00    -0.275 OA
ENDBRANCH  12  14
ENDBRANCH   8  12
BRANCH  10  24
ATOM     24  O   UNL     1      -4.815  -6.349  -0.684  1.00  0.00    -0.391 OA
ATOM     25  H   UNL     1      -5.217  -5.492  -0.475  1.00  0.00     0.211 HD
ENDBRANCH  10  24
ENDBRANCH   4   7
ENDBRANCH   2   3
ENDBRANCH   1   2
BRANCH   1  26
ATOM     26  C   UNL     1      -5.383   0.376  -1.096  1.00  0.00     0.118 C 
BRANCH  26  27
ATOM     27  N   UNL     1      -4.680   1.428  -0.360  1.00  0.00    -0.352 N 
ATOM     28  C   UNL     1      -4.433   2.736  -0.720  1.00  0.00     0.251 C 
ATOM     29  H   UNL     1      -4.332   1.163   0.522  1.00  0.00     0.163 HD
ATOM     30  O   UNL     1      -3.758   3.452   0.014  1.00  0.00    -0.269 OA
BRANCH  28  31
ATOM     31  C   UNL     1      -4.940   3.251  -2.010  1.00  0.00     0.039 A 
ATOM     32  C   UNL     1      -4.104   4.029  -2.816  1.00  0.00     0.014 A 
ATOM     33  C   UNL     1      -6.213   2.904  -2.458  1.00  0.00     0.014 A 
ATOM     34  C   UNL     1      -4.504   4.356  -4.115  1.00  0.00     0.010 A 
ATOM     35  C   UNL     1      -6.552   3.116  -3.786  1.00  0.00     0.010 A 
ATOM     36  C   UNL     1      -5.704   3.844  -4.633  1.00  0.00    -0.014 A 
BRANCH  36  37
ATOM     37  C   UNL     1      -6.123   4.045  -6.046  1.00  0.00     0.031 A 
ATOM     38  C   UNL     1      -7.473   4.650  -6.333  1.00  0.00     0.074 A 
ATOM     39  C   UNL     1      -5.369   3.567  -7.056  1.00  0.00     0.049 A 
ATOM     40  N   UNL     1      -8.143   4.689  -7.455  1.00  0.00    -0.248 NA
ATOM     41  C   UNL     1      -8.192   5.231  -5.186  1.00  0.00     0.031 C 
ATOM     42  C   UNL     1      -4.071   2.902  -6.912  1.00  0.00     0.029 A 
ATOM     43  N   UNL     1      -5.600   3.544  -8.409  1.00  0.00    -0.354 N 
ATOM     44  C   UNL     1      -9.381   5.235  -7.135  1.00  0.00     0.074 A 
ATOM     45  C   UNL     1      -9.385   5.469  -5.708  1.00  0.00     0.031 C 
ATOM     46  C   UNL     1      -3.610   2.563  -8.128  1.00  0.00     0.029 A 
ATOM     47  C   UNL     1      -4.599   2.939  -9.133  1.00  0.00     0.049 A 
ATOM     48  H   UNL     1      -6.407   3.926  -8.823  1.00  0.00     0.167 HD
ATOM     49  C   UNL     1     -10.412   5.537  -7.958  1.00  0.00     0.037 A 
ATOM     50  C   UNL     1      -4.496   2.701 -10.455  1.00  0.00     0.037 A 
ATOM     51  C   UNL     1     -10.363   5.387  -9.387  1.00  0.00     0.049 A 
ATOM     52  C   UNL     1      -5.616   3.127 -11.364  1.00  0.00     0.074 A 
ATOM     53  C   UNL     1     -11.315   5.745 -10.324  1.00  0.00     0.029 A 
ATOM     54  N   UNL     1      -9.290   4.855 -10.087  1.00  0.00    -0.354 N 
ATOM     55  N   UNL     1      -6.765   3.675 -11.050  1.00  0.00    -0.248 NA
ATOM     56  C   UNL     1      -5.427   2.905 -12.804  1.00  0.00     0.031 C 
ATOM     57  C   UNL     1     -10.823   5.418 -11.592  1.00  0.00     0.029 A 
ATOM     58  C   UNL     1      -9.553   4.881 -11.445  1.00  0.00     0.049 A 
ATOM     59  H   UNL     1      -8.464   4.509  -9.678  1.00  0.00     0.167 HD
ATOM     60  C   UNL     1      -7.425   3.888 -12.254  1.00  0.00     0.074 A 
ATOM     61  C   UNL     1      -6.546   3.414 -13.303  1.00  0.00     0.031 C 
ATOM     62  C   UNL     1      -8.649   4.428 -12.472  1.00  0.00     0.037 A 
BRANCH  49  63
ATOM     63  C   UNL     1     -11.665   6.079  -7.330  1.00  0.00     0.058 A 
ATOM     64  C   UNL     1     -11.711   7.362  -6.762  1.00  0.00     0.135 A 
ATOM     65  C   UNL     1     -12.837   5.306  -7.294  1.00  0.00     0.135 A 
ATOM     66  F   UNL     1     -10.614   8.137  -6.754  1.00  0.00    -0.206 F 
ATOM     67  C   UNL     1     -12.857   7.843  -6.140  1.00  0.00     0.059 A 
ATOM     68  C   UNL     1     -14.005   5.778  -6.703  1.00  0.00     0.059 A 
ATOM     69  F   UNL     1     -12.851   4.073  -7.824  1.00  0.00    -0.206 F 
ATOM     70  C   UNL     1     -13.998   7.040  -6.109  1.00  0.00     0.060 A 
BRANCH  70  71
ATOM     71  S   UNL     1     -15.475   7.667  -5.282  1.00  0.00     0.124 S 
ATOM     72  O   UNL     1     -15.130   7.458  -3.879  1.00  0.00    -0.237 OA
ATOM     73  O   UNL     1     -15.517   9.058  -5.722  1.00  0.00    -0.237 OA
ATOM     74  O   UNL     1     -16.541   6.816  -5.801  1.00  0.00    -0.744 OA
ENDBRANCH  70  71
ENDBRANCH  49  63
BRANCH  50  75
ATOM     75  C   UNL     1      -3.268   2.064 -11.000  1.00  0.00     0.058 A 
ATOM     76  C   UNL     1      -2.325   2.824 -11.707  1.00  0.00     0.135 A 
ATOM     77  C   UNL     1      -2.996   0.702 -10.803  1.00  0.00     0.135 A 
ATOM     78  F   UNL     1      -2.545   4.130 -11.924  1.00  0.00    -0.206 F 
ATOM     79  C   UNL     1      -1.159   2.257 -12.210  1.00  0.00     0.059 A 
ATOM     80  C   UNL     1      -1.826   0.115 -11.280  1.00  0.00     0.059 A 
ATOM     81  F   UNL     1      -3.858  -0.064 -10.118  1.00  0.00    -0.206 F 
ATOM     82  C   UNL     1      -0.917   0.900 -11.989  1.00  0.00     0.060 A 
BRANCH  82  83
ATOM     83  S   UNL     1       0.627   0.187 -12.597  1.00  0.00     0.124 S 
ATOM     84  O   UNL     1       0.357   0.078 -14.026  1.00  0.00    -0.237 OA
ATOM     85  O   UNL     1       1.607   1.196 -12.207  1.00  0.00    -0.237 OA
ATOM     86  O   UNL     1       0.719  -1.077 -11.873  1.00  0.00    -0.744 OA
ENDBRANCH  82  83
ENDBRANCH  50  75
BRANCH  62  87
ATOM     87  C   UNL     1      -9.097   4.583 -13.896  1.00  0.00     0.058 A 
ATOM     88  C   UNL     1      -9.576   3.494 -14.637  1.00  0.00     0.135 A 
ATOM     89  C   UNL     1      -9.129   5.854 -14.491  1.00  0.00     0.135 A 
ATOM     90  F   UNL     1      -9.559   2.259 -14.112  1.00  0.00    -0.206 F 
ATOM     91  C   UNL     1     -10.071   3.659 -15.926  1.00  0.00     0.059 A 
ATOM     92  C   UNL     1      -9.637   6.045 -15.770  1.00  0.00     0.059 A 
ATOM     93  F   UNL     1      -8.688   6.928 -13.816  1.00  0.00    -0.206 F 
ATOM     94  C   UNL     1     -10.103   4.940 -16.482  1.00  0.00     0.060 A 
BRANCH  94  95
ATOM     95  S   UNL     1     -10.810   5.154 -18.130  1.00  0.00     0.124 S 
ATOM     96  O   UNL     1      -9.731   4.660 -18.978  1.00  0.00    -0.237 OA
ATOM     97  O   UNL     1     -12.004   4.316 -18.070  1.00  0.00    -0.237 OA
ATOM     98  O   UNL     1     -11.063   6.589 -18.206  1.00  0.00    -0.744 OA
ENDBRANCH  94  95
ENDBRANCH  62  87
ENDBRANCH  36  37
ENDBRANCH  28  31
ENDBRANCH  26  27
ENDBRANCH   1  26
TORSDOF 16
