REMARK SMILES CCOC(=O)c1ccc(NC(=O)[C@H]2CC(C)=C(C)C[C@@H]2C(=O)NCCCNC(=O)c2ccc(-c3c4nc(c(-c5c(F)cc(S(=O)(=O)[O-])cc5F)c5ccc([nH]5)c(-c5c(F)cc(S(=O)(=O)[O-])cc5F)c5nc(c(-c6c(F)cc(S(=O)(=O)[O-])cc6F)c6ccc3[nH]6)C=C5)C=C4)cc2)cc1
REMARK SMILES IDX 24 1 23 2 21 3 22 4 20 6 13 7 14 8 15 9 19 10 16 11 17 12
REMARK SMILES IDX 18 13 11 14 10 15 12 17 9 18 6 19 7 20 97 21 8 22 96 23 4 24
REMARK SMILES IDX 5 25 3 26 2 27 1 28 25 29 26 30 27 31 28 32 29 34 30 35
REMARK SMILES IDX 31 36 95 37 32 38 94 39 33 40 34 41 35 42 88 43 36 44 93 45
REMARK SMILES IDX 87 46 89 47 37 48 92 49 86 50 85 51 38 53 72 54 51 55 71 56
REMARK SMILES IDX 52 57 55 58 70 59 90 60 53 61 54 62 69 64 91 65 56 66 39 67
REMARK SMILES IDX 40 68 49 69 41 70 42 71 48 72 50 73 43 74 44 75 45 76 46 77
REMARK SMILES IDX 47 78 73 79 74 80 83 81 75 82 76 83 82 84 84 85 77 86 78 87
REMARK SMILES IDX 79 88 80 89 81 90 57 91 58 92 67 93 59 94 60 95 66 96 68 97
REMARK SMILES IDX 61 98 62 99 63 100 64 101 65 102
REMARK H PARENT 23 5 10 16 27 33 89 52 55 63
REMARK Flexibility Score: inf
ROOT
ATOM      1  C   UNL     1       8.196   1.715   5.041  1.00  0.00     0.117 C 
ENDROOT
BRANCH   1   2
ATOM      2  N   UNL     1       8.580   1.949   6.417  1.00  0.00    -0.356 N 
ATOM      3  C   UNL     1       7.831   2.030   7.548  1.00  0.00     0.224 C 
ATOM      4  O   UNL     1       8.444   2.183   8.610  1.00  0.00    -0.275 OA
ATOM      5  H   UNL     1       9.547   2.069   6.556  1.00  0.00     0.163 HD
BRANCH   3   6
ATOM      6  C   UNL     1       6.299   2.010   7.533  1.00  0.00     0.095 C 
ATOM      7  C   UNL     1       5.711   0.733   6.869  1.00  0.00     0.095 C 
ATOM      8  C   UNL     1       4.771   1.040   5.692  1.00  0.00     0.045 C 
ATOM      9  C   UNL     1       4.639   2.405   5.103  1.00  0.00    -0.074 C 
ATOM     10  C   UNL     1       5.791   3.395   7.066  1.00  0.00     0.045 C 
ATOM     11  C   UNL     1       3.947   2.397   3.760  1.00  0.00     0.039 C 
ATOM     12  C   UNL     1       5.079   3.494   5.746  1.00  0.00    -0.074 C 
ATOM     13  C   UNL     1       4.842   4.881   5.212  1.00  0.00     0.039 C 
BRANCH   7  14
ATOM     14  C   UNL     1       5.068  -0.242   7.893  1.00  0.00     0.228 C 
ATOM     15  N   UNL     1       4.294  -1.322   7.528  1.00  0.00    -0.326 N 
ATOM     16  H   UNL     1       3.988  -1.879   8.280  1.00  0.00     0.169 HD
ATOM     17  O   UNL     1       5.239  -0.098   9.108  1.00  0.00    -0.274 OA
BRANCH  15  18
ATOM     18  C   UNL     1       3.869  -1.760   6.264  1.00  0.00     0.041 A 
ATOM     19  C   UNL     1       2.824  -1.944   3.669  1.00  0.00     0.060 A 
ATOM     20  C   UNL     1       4.209  -1.965   3.879  1.00  0.00     0.018 A 
ATOM     21  C   UNL     1       1.967  -1.985   4.776  1.00  0.00     0.018 A 
ATOM     22  C   UNL     1       4.732  -1.893   5.177  1.00  0.00     0.027 A 
ATOM     23  C   UNL     1       2.493  -1.923   6.073  1.00  0.00     0.027 A 
BRANCH  19  24
ATOM     24  C   UNL     1       2.325  -1.850   2.271  1.00  0.00     0.338 C 
ATOM     25  O   UNL     1       3.017  -2.118   1.299  1.00  0.00    -0.246 OA
BRANCH  24  26
ATOM     26  O   UNL     1       1.048  -1.391   2.239  1.00  0.00    -0.462 OA
BRANCH  26  27
ATOM     27  C   UNL     1       0.448  -1.315   0.933  1.00  0.00     0.230 C 
ATOM     28  C   UNL     1       0.832  -0.038   0.204  1.00  0.00     0.049 C 
ENDBRANCH  26  27
ENDBRANCH  24  26
ENDBRANCH  19  24
ENDBRANCH  15  18
ENDBRANCH   7  14
ENDBRANCH   3   6
ENDBRANCH   1   2
BRANCH   1  29
ATOM     29  C   UNL     1       8.504   2.880   4.120  1.00  0.00     0.042 C 
BRANCH  29  30
ATOM     30  C   UNL     1       9.987   3.041   3.827  1.00  0.00     0.118 C 
BRANCH  30  31
ATOM     31  N   UNL     1      10.556   1.877   3.155  1.00  0.00    -0.352 N 
ATOM     32  C   UNL     1      11.109   1.752   1.904  1.00  0.00     0.251 C 
ATOM     33  H   UNL     1      10.542   1.047   3.684  1.00  0.00     0.163 HD
ATOM     34  O   UNL     1      11.342   0.632   1.457  1.00  0.00    -0.269 OA
BRANCH  32  35
ATOM     35  C   UNL     1      11.404   2.953   1.095  1.00  0.00     0.039 A 
ATOM     36  C   UNL     1      11.161   2.925  -0.281  1.00  0.00     0.014 A 
ATOM     37  C   UNL     1      11.926   4.104   1.688  1.00  0.00     0.014 A 
ATOM     38  C   UNL     1      11.370   4.077  -1.043  1.00  0.00     0.010 A 
ATOM     39  C   UNL     1      12.030   5.277   0.951  1.00  0.00     0.010 A 
ATOM     40  C   UNL     1      11.762   5.275  -0.425  1.00  0.00    -0.014 A 
BRANCH  40  41
ATOM     41  C   UNL     1      11.906   6.536  -1.196  1.00  0.00     0.031 A 
ATOM     42  C   UNL     1      13.238   7.236  -1.257  1.00  0.00     0.074 A 
ATOM     43  C   UNL     1      10.823   7.085  -1.782  1.00  0.00     0.049 A 
ATOM     44  N   UNL     1      13.546   8.378  -1.814  1.00  0.00    -0.248 NA
ATOM     45  C   UNL     1      14.366   6.581  -0.573  1.00  0.00     0.031 C 
ATOM     46  C   UNL     1       9.468   6.530  -1.746  1.00  0.00     0.029 A 
ATOM     47  N   UNL     1      10.687   8.239  -2.513  1.00  0.00    -0.354 N 
ATOM     48  C   UNL     1      14.893   8.584  -1.538  1.00  0.00     0.074 A 
ATOM     49  C   UNL     1      15.328   7.482  -0.709  1.00  0.00     0.031 C 
ATOM     50  C   UNL     1       8.646   7.325  -2.449  1.00  0.00     0.029 A 
ATOM     51  C   UNL     1       9.402   8.471  -2.945  1.00  0.00     0.049 A 
ATOM     52  H   UNL     1      11.438   8.843  -2.710  1.00  0.00     0.167 HD
ATOM     53  C   UNL     1      15.700   9.586  -1.960  1.00  0.00     0.037 A 
ATOM     54  C   UNL     1       8.887   9.496  -3.652  1.00  0.00     0.037 A 
ATOM     55  C   UNL     1      15.262  10.667  -2.804  1.00  0.00     0.049 A 
ATOM     56  C   UNL     1       9.802  10.603  -4.101  1.00  0.00     0.074 A 
ATOM     57  C   UNL     1      16.014  11.699  -3.338  1.00  0.00     0.029 A 
ATOM     58  N   UNL     1      13.957  10.859  -3.233  1.00  0.00    -0.354 N 
ATOM     59  N   UNL     1      11.090  10.745  -3.891  1.00  0.00    -0.248 NA
ATOM     60  C   UNL     1       9.198  11.687  -4.886  1.00  0.00     0.031 C 
ATOM     61  C   UNL     1      15.152  12.546  -4.042  1.00  0.00     0.029 A 
ATOM     62  C   UNL     1      13.875  12.009  -4.001  1.00  0.00     0.049 A 
ATOM     63  H   UNL     1      13.200  10.266  -3.022  1.00  0.00     0.167 HD
ATOM     64  C   UNL     1      11.455  11.918  -4.542  1.00  0.00     0.074 A 
ATOM     65  C   UNL     1      10.254  12.438  -5.165  1.00  0.00     0.031 C 
ATOM     66  C   UNL     1      12.672  12.512  -4.617  1.00  0.00     0.037 A 
BRANCH  53  67
ATOM     67  C   UNL     1      17.139   9.558  -1.518  1.00  0.00     0.058 A 
ATOM     68  C   UNL     1      18.036   8.579  -1.978  1.00  0.00     0.135 A 
ATOM     69  C   UNL     1      17.638  10.541  -0.648  1.00  0.00     0.135 A 
ATOM     70  F   UNL     1      17.612   7.605  -2.799  1.00  0.00    -0.206 F 
ATOM     71  C   UNL     1      19.365   8.558  -1.567  1.00  0.00     0.059 A 
ATOM     72  C   UNL     1      18.972  10.558  -0.250  1.00  0.00     0.059 A 
ATOM     73  F   UNL     1      16.827  11.500  -0.174  1.00  0.00    -0.206 F 
ATOM     74  C   UNL     1      19.824   9.553  -0.704  1.00  0.00     0.060 A 
BRANCH  74  75
ATOM     75  S   UNL     1      21.553   9.513  -0.188  1.00  0.00     0.124 S 
ATOM     76  O   UNL     1      21.564   8.357   0.704  1.00  0.00    -0.237 OA
ATOM     77  O   UNL     1      22.253   9.339  -1.457  1.00  0.00    -0.237 OA
ATOM     78  O   UNL     1      21.746  10.806   0.460  1.00  0.00    -0.744 OA
ENDBRANCH  74  75
ENDBRANCH  53  67
BRANCH  54  79
ATOM     79  C   UNL     1       7.439   9.511  -3.994  1.00  0.00     0.058 A 
ATOM     80  C   UNL     1       7.007   9.344  -5.319  1.00  0.00     0.135 A 
ATOM     81  C   UNL     1       6.457   9.679  -3.005  1.00  0.00     0.135 A 
ATOM     82  F   UNL     1       7.906   9.186  -6.302  1.00  0.00    -0.206 F 
ATOM     83  C   UNL     1       5.657   9.359  -5.654  1.00  0.00     0.059 A 
ATOM     84  C   UNL     1       5.100   9.669  -3.311  1.00  0.00     0.059 A 
ATOM     85  F   UNL     1       6.815   9.826  -1.720  1.00  0.00    -0.206 F 
ATOM     86  C   UNL     1       4.710   9.518  -4.641  1.00  0.00     0.060 A 
BRANCH  86  87
ATOM     87  S   UNL     1       2.958   9.487  -5.080  1.00  0.00     0.124 S 
ATOM     88  O   UNL     1       2.806  10.761  -5.773  1.00  0.00    -0.237 OA
ATOM     89  O   UNL     1       2.874   8.291  -5.913  1.00  0.00    -0.237 OA
ATOM     90  O   UNL     1       2.289   9.388  -3.787  1.00  0.00    -0.744 OA
ENDBRANCH  86  87
ENDBRANCH  54  79
BRANCH  66  91
ATOM     91  C   UNL     1      12.779  13.775  -5.428  1.00  0.00     0.058 A 
ATOM     92  C   UNL     1      12.219  14.986  -4.990  1.00  0.00     0.135 A 
ATOM     93  C   UNL     1      13.498  13.785  -6.635  1.00  0.00     0.135 A 
ATOM     94  F   UNL     1      11.516  15.031  -3.847  1.00  0.00    -0.206 F 
ATOM     95  C   UNL     1      12.347  16.155  -5.731  1.00  0.00     0.059 A 
ATOM     96  C   UNL     1      13.666  14.950  -7.376  1.00  0.00     0.059 A 
ATOM     97  F   UNL     1      14.063  12.658  -7.095  1.00  0.00    -0.206 F 
ATOM     98  C   UNL     1      13.076  16.128  -6.922  1.00  0.00     0.060 A 
BRANCH  98  99
ATOM     99  S   UNL     1      13.262  17.662  -7.856  1.00  0.00     0.124 S 
ATOM    100  O   UNL     1      11.919  17.842  -8.396  1.00  0.00    -0.237 OA
ATOM    101  O   UNL     1      13.662  18.610  -6.821  1.00  0.00    -0.237 OA
ATOM    102  O   UNL     1      14.295  17.340  -8.837  1.00  0.00    -0.744 OA
ENDBRANCH  98  99
ENDBRANCH  66  91
ENDBRANCH  40  41
ENDBRANCH  32  35
ENDBRANCH  30  31
ENDBRANCH  29  30
ENDBRANCH   1  29
TORSDOF 18
