REMARK SMILES Cc1cc(C(=O)NCCCNC(=O)c2ccc(-c3c4nc(c(-c5c(F)cc(S(=O)(=O)[O-])cc5F)c5ccc([nH]5)c(-c5c(F)cc(S(=O)(=O)[O-])cc5F)c5nc(c(-c6c(F)cc(S(=O)(=O)[O-])cc6F)c6ccc3[nH]6)C=C5)C=C4)cc2)ccc1-c1ccc(C(=O)N2CCCCC2)cc1
REMARK SMILES IDX 9 1 8 2 7 3 5 4 6 5 4 7 1 8 2 9 3 10 82 11 81 12 80 13 83 14
REMARK SMILES IDX 84 15 96 16 85 17 95 18 86 19 87 20 88 21 89 22 90 23 94 24
REMARK SMILES IDX 91 25 93 26 92 27 10 28 11 29 12 30 13 32 14 33 15 34 79 35
REMARK SMILES IDX 16 36 78 37 17 38 18 39 19 40 72 41 20 42 77 43 71 44 73 45
REMARK SMILES IDX 21 46 76 47 70 48 69 49 22 51 56 52 35 53 55 54 36 55 39 56
REMARK SMILES IDX 54 57 74 58 37 59 38 60 53 62 75 63 40 64 23 65 24 66 33 67
REMARK SMILES IDX 25 68 26 69 32 70 34 71 27 72 28 73 29 74 30 75 31 76 57 77
REMARK SMILES IDX 58 78 67 79 59 80 60 81 66 82 68 83 61 84 62 85 63 86 64 87
REMARK SMILES IDX 65 88 41 89 42 90 51 91 43 92 44 93 50 94 52 95 45 96 46 97
REMARK SMILES IDX 47 98 48 99 49 100
REMARK H PARENT 7 6 11 31 73 50 39 61
REMARK Flexibility Score: inf
ROOT
ATOM      1  C   UNL     1      -5.291   0.160   0.251  1.00  0.00     0.042 C 
ENDROOT
BRANCH   1   2
ATOM      2  C   UNL     1      -4.028  -0.460   1.045  1.00  0.00     0.118 C 
BRANCH   2   3
ATOM      3  N   UNL     1      -3.284  -1.607   0.470  1.00  0.00    -0.352 N 
ATOM      4  C   UNL     1      -1.981  -1.908   0.129  1.00  0.00     0.251 C 
ATOM      5  O   UNL     1      -1.580  -3.061  -0.019  1.00  0.00    -0.269 OA
ATOM      6  H   UNL     1      -3.886  -2.363   0.280  1.00  0.00     0.163 HD
BRANCH   4   7
ATOM      7  C   UNL     1      -1.022  -0.824  -0.092  1.00  0.00     0.040 A 
ATOM      8  C   UNL     1       2.689  -0.116   0.303  1.00  0.00     0.045 C 
ATOM      9  C   UNL     1       1.212   0.105   0.106  1.00  0.00    -0.042 A 
ATOM     10  C   UNL     1       0.348  -0.998   0.161  1.00  0.00     0.018 A 
ATOM     11  C   UNL     1       0.656   1.370  -0.188  1.00  0.00    -0.015 A 
ATOM     12  C   UNL     1      -0.684   1.478  -0.587  1.00  0.00     0.010 A 
ATOM     13  C   UNL     1      -1.500   0.372  -0.600  1.00  0.00     0.014 A 
BRANCH  11  14
ATOM     14  C   UNL     1       1.406   2.611  -0.134  1.00  0.00    -0.018 A 
ATOM     15  C   UNL     1       2.298   2.913  -1.159  1.00  0.00     0.009 A 
ATOM     16  C   UNL     1       1.188   3.535   0.902  1.00  0.00     0.009 A 
ATOM     17  C   UNL     1       2.995   4.108  -1.132  1.00  0.00     0.014 A 
ATOM     18  C   UNL     1       1.862   4.753   0.909  1.00  0.00     0.014 A 
ATOM     19  C   UNL     1       2.770   5.045  -0.114  1.00  0.00     0.040 A 
BRANCH  19  20
ATOM     20  C   UNL     1       3.615   6.262   0.001  1.00  0.00     0.253 C 
ATOM     21  O   UNL     1       3.748   6.801   1.098  1.00  0.00    -0.269 OA
ATOM     22  N   UNL     1       4.358   6.636  -1.107  1.00  0.00    -0.339 N 
ATOM     23  C   UNL     1       5.759   6.958  -0.914  1.00  0.00     0.120 C 
ATOM     24  C   UNL     1       3.816   6.788  -2.457  1.00  0.00     0.120 C 
ATOM     25  C   UNL     1       6.078   8.350  -1.427  1.00  0.00     0.022 C 
ATOM     26  C   UNL     1       4.117   8.182  -3.000  1.00  0.00     0.022 C 
ATOM     27  C   UNL     1       5.604   8.515  -2.870  1.00  0.00     0.004 C 
ENDBRANCH  19  20
ENDBRANCH  11  14
ENDBRANCH   4   7
ENDBRANCH   2   3
ENDBRANCH   1   2
BRANCH   1  28
ATOM     28  C   UNL     1      -6.718  -0.466   0.597  1.00  0.00     0.118 C 
BRANCH  28  29
ATOM     29  N   UNL     1      -8.061  -0.157  -0.134  1.00  0.00    -0.352 N 
ATOM     30  C   UNL     1      -9.300  -0.910  -0.289  1.00  0.00     0.251 C 
ATOM     31  H   UNL     1      -8.075   0.721  -0.579  1.00  0.00     0.163 HD
ATOM     32  O   UNL     1     -10.231  -0.512   0.432  1.00  0.00    -0.269 OA
BRANCH  30  33
ATOM     33  C   UNL     1      -9.704  -2.084  -1.282  1.00  0.00     0.039 A 
ATOM     34  C   UNL     1     -10.613  -3.111  -0.863  1.00  0.00     0.014 A 
ATOM     35  C   UNL     1      -9.139  -2.344  -2.526  1.00  0.00     0.014 A 
ATOM     36  C   UNL     1     -10.504  -4.473  -1.366  1.00  0.00     0.010 A 
ATOM     37  C   UNL     1      -9.024  -3.689  -3.018  1.00  0.00     0.010 A 
ATOM     38  C   UNL     1      -9.510  -4.800  -2.307  1.00  0.00    -0.014 A 
BRANCH  38  39
ATOM     39  C   UNL     1      -8.763  -6.141  -2.350  1.00  0.00     0.031 A 
ATOM     40  C   UNL     1      -8.989  -7.118  -3.411  1.00  0.00     0.074 A 
ATOM     41  C   UNL     1      -7.708  -6.560  -1.583  1.00  0.00     0.049 A 
ATOM     42  N   UNL     1      -9.201  -8.383  -3.224  1.00  0.00    -0.248 NA
ATOM     43  C   UNL     1      -8.839  -6.722  -4.797  1.00  0.00     0.031 C 
ATOM     44  C   UNL     1      -6.809  -7.729  -1.614  1.00  0.00     0.029 A 
ATOM     45  N   UNL     1      -7.117  -5.899  -0.535  1.00  0.00    -0.354 N 
ATOM     46  C   UNL     1      -8.877  -8.987  -4.422  1.00  0.00     0.074 A 
ATOM     47  C   UNL     1      -8.880  -7.912  -5.399  1.00  0.00     0.031 C 
ATOM     48  C   UNL     1      -6.140  -7.829  -0.439  1.00  0.00     0.029 A 
ATOM     49  C   UNL     1      -6.599  -6.762   0.425  1.00  0.00     0.049 A 
ATOM     50  H   UNL     1      -7.064  -4.918  -0.471  1.00  0.00     0.167 HD
ATOM     51  C   UNL     1      -8.326 -10.241  -4.480  1.00  0.00     0.037 A 
ATOM     52  C   UNL     1      -7.187  -6.791   1.667  1.00  0.00     0.037 A 
ATOM     53  C   UNL     1      -7.884 -10.722  -3.154  1.00  0.00     0.049 A 
ATOM     54  C   UNL     1      -8.000  -8.057   1.798  1.00  0.00     0.074 A 
ATOM     55  C   UNL     1      -6.643 -11.003  -2.592  1.00  0.00     0.029 A 
ATOM     56  N   UNL     1      -8.759 -10.707  -2.079  1.00  0.00    -0.354 N 
ATOM     57  N   UNL     1      -7.832  -9.072   1.000  1.00  0.00    -0.248 NA
ATOM     58  C   UNL     1      -9.095  -8.285   2.740  1.00  0.00     0.031 C 
ATOM     59  C   UNL     1      -6.798 -11.174  -1.183  1.00  0.00     0.029 A 
ATOM     60  C   UNL     1      -8.137 -11.018  -0.880  1.00  0.00     0.049 A 
ATOM     61  H   UNL     1      -9.717 -10.497  -2.158  1.00  0.00     0.167 HD
ATOM     62  C   UNL     1      -8.822  -9.988   1.178  1.00  0.00     0.074 A 
ATOM     63  C   UNL     1      -9.560  -9.481   2.325  1.00  0.00     0.031 C 
ATOM     64  C   UNL     1      -8.949 -11.055   0.334  1.00  0.00     0.037 A 
BRANCH  51  65
ATOM     65  C   UNL     1      -7.911 -10.896  -5.797  1.00  0.00     0.058 A 
ATOM     66  C   UNL     1      -7.001 -11.973  -5.851  1.00  0.00     0.135 A 
ATOM     67  C   UNL     1      -8.440 -10.534  -7.057  1.00  0.00     0.135 A 
ATOM     68  F   UNL     1      -6.533 -12.555  -4.739  1.00  0.00    -0.206 F 
ATOM     69  C   UNL     1      -6.562 -12.547  -7.050  1.00  0.00     0.059 A 
ATOM     70  C   UNL     1      -7.959 -11.030  -8.272  1.00  0.00     0.059 A 
ATOM     71  F   UNL     1      -9.517  -9.741  -7.161  1.00  0.00    -0.206 F 
ATOM     72  C   UNL     1      -7.022 -12.047  -8.261  1.00  0.00     0.060 A 
BRANCH  72  73
ATOM     73  S   UNL     1      -6.475 -12.812  -9.799  1.00  0.00     0.124 S 
ATOM     74  O   UNL     1      -5.023 -12.707  -9.701  1.00  0.00    -0.237 OA
ATOM     75  O   UNL     1      -7.025 -14.158  -9.679  1.00  0.00    -0.237 OA
ATOM     76  O   UNL     1      -7.087 -11.979 -10.831  1.00  0.00    -0.744 OA
ENDBRANCH  72  73
ENDBRANCH  51  65
BRANCH  52  77
ATOM     77  C   UNL     1      -7.556  -5.403   2.261  1.00  0.00     0.058 A 
ATOM     78  C   UNL     1      -6.429  -4.587   2.497  1.00  0.00     0.135 A 
ATOM     79  C   UNL     1      -8.533  -4.755   1.530  1.00  0.00     0.135 A 
ATOM     80  F   UNL     1      -5.709  -4.763   3.612  1.00  0.00    -0.206 F 
ATOM     81  C   UNL     1      -5.961  -3.677   1.539  1.00  0.00     0.059 A 
ATOM     82  C   UNL     1      -8.071  -3.861   0.553  1.00  0.00     0.059 A 
ATOM     83  F   UNL     1      -9.738  -5.329   1.371  1.00  0.00    -0.206 F 
ATOM     84  C   UNL     1      -6.747  -3.487   0.423  1.00  0.00     0.060 A 
BRANCH  84  85
ATOM     85  S   UNL     1      -5.983  -3.054  -1.327  1.00  0.00     0.124 S 
ATOM     86  O   UNL     1      -4.595  -2.956  -0.983  1.00  0.00    -0.237 OA
ATOM     87  O   UNL     1      -6.263  -4.211  -2.172  1.00  0.00    -0.237 OA
ATOM     88  O   UNL     1      -6.588  -1.814  -1.774  1.00  0.00    -0.744 OA
ENDBRANCH  84  85
ENDBRANCH  52  77
BRANCH  64  89
ATOM     89  C   UNL     1      -9.884 -12.214   0.552  1.00  0.00     0.058 A 
ATOM     90  C   UNL     1     -10.220 -12.690   1.830  1.00  0.00     0.135 A 
ATOM     91  C   UNL     1     -10.370 -12.988  -0.530  1.00  0.00     0.135 A 
ATOM     92  F   UNL     1      -9.693 -12.143   2.936  1.00  0.00    -0.206 F 
ATOM     93  C   UNL     1     -11.076 -13.775   2.018  1.00  0.00     0.059 A 
ATOM     94  C   UNL     1     -11.187 -14.097  -0.366  1.00  0.00     0.059 A 
ATOM     95  F   UNL     1     -10.076 -12.708  -1.805  1.00  0.00    -0.206 F 
ATOM     96  C   UNL     1     -11.568 -14.461   0.911  1.00  0.00     0.060 A 
BRANCH  96  97
ATOM     97  S   UNL     1     -12.689 -15.844   1.149  1.00  0.00     0.124 S 
ATOM     98  O   UNL     1     -12.046 -16.585   2.230  1.00  0.00    -0.237 OA
ATOM     99  O   UNL     1     -13.926 -15.155   1.502  1.00  0.00    -0.237 OA
ATOM    100  O   UNL     1     -12.690 -16.514  -0.147  1.00  0.00    -0.744 OA
ENDBRANCH  96  97
ENDBRANCH  64  89
ENDBRANCH  38  39
ENDBRANCH  30  33
ENDBRANCH  28  29
ENDBRANCH   1  28
TORSDOF 15
