REMARK SMILES COc1ccc([C@H](C)NC(=O)[C@@H](C)n2cc(C(=O)NCCCNC(=O)c3ccc(-c4c5nc(c(-c6c(F)cc(S(=O)(=O)[O-])cc6F)c6ccc([nH]6)c(-c6c(F)cc(S(=O)(=O)[O-])cc6F)c6nc(c(-c7c(F)cc(S(=O)(=O)[O-])cc7F)c7ccc4[nH]7)C=C6)C=C5)cc3)cn2)cc1
REMARK SMILES IDX 20 1 19 2 17 3 18 4 16 6 14 7 15 8 93 9 92 10 12 11 13 12
REMARK SMILES IDX 10 13 9 14 11 16 7 17 8 18 6 19 3 20 4 21 95 22 5 23 94 24
REMARK SMILES IDX 2 25 1 26 21 27 22 28 23 29 24 30 25 32 26 33 27 34 91 35
REMARK SMILES IDX 28 36 90 37 29 38 30 39 31 40 84 41 32 42 89 43 83 44 85 45
REMARK SMILES IDX 33 46 88 47 82 48 81 49 34 51 68 52 47 53 67 54 48 55 51 56
REMARK SMILES IDX 66 57 86 58 49 59 50 60 65 62 87 63 52 64 35 65 36 66 45 67
REMARK SMILES IDX 37 68 38 69 44 70 46 71 39 72 40 73 41 74 42 75 43 76 69 77
REMARK SMILES IDX 70 78 79 79 71 80 72 81 78 82 80 83 73 84 74 85 75 86 76 87
REMARK SMILES IDX 77 88 53 89 54 90 63 91 55 92 56 93 62 94 64 95 57 96 58 97
REMARK SMILES IDX 59 98 60 99 61 100
REMARK H PARENT 19 5 9 15 23 31 85 50 51 61
REMARK Flexibility Score: inf
ROOT
ATOM      1  C   UNL     1       2.263  10.219   5.490  1.00  0.00     0.118 C 
ENDROOT
BRANCH   1   2
ATOM      2  N   UNL     1       3.507  10.709   4.909  1.00  0.00    -0.352 N 
ATOM      3  C   UNL     1       4.614  10.025   4.471  1.00  0.00     0.254 C 
ATOM      4  O   UNL     1       5.472  10.654   3.833  1.00  0.00    -0.269 OA
ATOM      5  H   UNL     1       3.562  11.687   4.815  1.00  0.00     0.163 HD
BRANCH   3   6
ATOM      6  C   UNL     1       4.746   8.600   4.683  1.00  0.00     0.077 A 
ATOM      7  N   UNL     1       4.376   6.489   5.181  1.00  0.00    -0.260 N 
ATOM      8  C   UNL     1       4.107   7.768   5.577  1.00  0.00     0.123 A 
ATOM      9  N   UNL     1       5.369   6.422   4.275  1.00  0.00    -0.180 NA
ATOM     10  C   UNL     1       5.605   7.710   3.990  1.00  0.00     0.149 A 
BRANCH   7  11
ATOM     11  C   UNL     1       3.613   5.325   5.607  1.00  0.00     0.193 C 
ATOM     12  C   UNL     1       4.071   3.977   5.065  1.00  0.00     0.044 C 
BRANCH  11  13
ATOM     13  C   UNL     1       2.113   5.564   5.396  1.00  0.00     0.245 C 
ATOM     14  N   UNL     1       1.549   5.751   4.169  1.00  0.00    -0.348 N 
ATOM     15  H   UNL     1       0.575   5.893   4.180  1.00  0.00     0.164 HD
ATOM     16  O   UNL     1       1.349   5.597   6.369  1.00  0.00    -0.273 OA
BRANCH  14  17
ATOM     17  C   UNL     1       2.155   5.775   2.840  1.00  0.00     0.109 C 
ATOM     18  C   UNL     1       1.620   4.618   1.991  1.00  0.00     0.036 C 
BRANCH  17  19
ATOM     19  C   UNL     1       1.960   7.119   2.160  1.00  0.00    -0.026 A 
ATOM     20  C   UNL     1       1.678   9.620   0.867  1.00  0.00     0.118 A 
ATOM     21  C   UNL     1       2.929   9.018   0.980  1.00  0.00     0.047 A 
ATOM     22  C   UNL     1       0.561   8.967   1.386  1.00  0.00     0.047 A 
ATOM     23  C   UNL     1       3.067   7.779   1.610  1.00  0.00     0.009 A 
ATOM     24  C   UNL     1       0.701   7.726   2.027  1.00  0.00     0.009 A 
BRANCH  20  25
ATOM     25  O   UNL     1       1.670  10.802   0.183  1.00  0.00    -0.497 OA
ATOM     26  C   UNL     1       0.586  11.684   0.442  1.00  0.00     0.278 C 
ENDBRANCH  20  25
ENDBRANCH  17  19
ENDBRANCH  14  17
ENDBRANCH  11  13
ENDBRANCH   7  11
ENDBRANCH   3   6
ENDBRANCH   1   2
BRANCH   1  27
ATOM     27  C   UNL     1       2.292  10.195   7.025  1.00  0.00     0.042 C 
BRANCH  27  28
ATOM     28  C   UNL     1       2.002  11.560   7.613  1.00  0.00     0.118 C 
BRANCH  28  29
ATOM     29  N   UNL     1       0.594  11.979   7.470  1.00  0.00    -0.352 N 
ATOM     30  C   UNL     1      -0.016  13.158   7.897  1.00  0.00     0.251 C 
ATOM     31  H   UNL     1       0.005  11.339   7.008  1.00  0.00     0.163 HD
ATOM     32  O   UNL     1      -1.234  13.236   7.999  1.00  0.00    -0.269 OA
BRANCH  30  33
ATOM     33  C   UNL     1       0.838  14.321   8.195  1.00  0.00     0.039 A 
ATOM     34  C   UNL     1       0.616  15.279   9.192  1.00  0.00     0.014 A 
ATOM     35  C   UNL     1       1.979  14.402   7.442  1.00  0.00     0.014 A 
ATOM     36  C   UNL     1       1.595  16.266   9.376  1.00  0.00     0.010 A 
ATOM     37  C   UNL     1       3.037  14.885   8.118  1.00  0.00     0.010 A 
ATOM     38  C   UNL     1       2.824  16.073   8.753  1.00  0.00    -0.014 A 
BRANCH  38  39
ATOM     39  C   UNL     1       3.980  16.946   8.770  1.00  0.00     0.031 A 
ATOM     40  C   UNL     1       4.560  17.145  10.111  1.00  0.00     0.074 A 
ATOM     41  C   UNL     1       4.642  17.262   7.628  1.00  0.00     0.049 A 
ATOM     42  N   UNL     1       4.447  18.183  10.867  1.00  0.00    -0.248 NA
ATOM     43  C   UNL     1       5.159  15.978  10.779  1.00  0.00     0.031 C 
ATOM     44  C   UNL     1       4.396  16.829   6.240  1.00  0.00     0.029 A 
ATOM     45  N   UNL     1       5.773  18.004   7.495  1.00  0.00    -0.354 N 
ATOM     46  C   UNL     1       5.196  17.892  12.000  1.00  0.00     0.074 A 
ATOM     47  C   UNL     1       5.374  16.463  12.003  1.00  0.00     0.031 C 
ATOM     48  C   UNL     1       5.462  17.133   5.463  1.00  0.00     0.029 A 
ATOM     49  C   UNL     1       6.387  17.926   6.246  1.00  0.00     0.049 A 
ATOM     50  H   UNL     1       6.133  18.555   8.228  1.00  0.00     0.167 HD
ATOM     51  C   UNL     1       5.848  18.870  12.685  1.00  0.00     0.037 A 
ATOM     52  C   UNL     1       7.597  18.456   5.927  1.00  0.00     0.037 A 
ATOM     53  C   UNL     1       5.420  20.181  12.252  1.00  0.00     0.049 A 
ATOM     54  C   UNL     1       7.855  19.524   6.941  1.00  0.00     0.074 A 
ATOM     55  C   UNL     1       4.200  20.830  12.212  1.00  0.00     0.029 A 
ATOM     56  N   UNL     1       6.222  20.849  11.353  1.00  0.00    -0.354 N 
ATOM     57  N   UNL     1       7.108  20.595   7.059  1.00  0.00    -0.248 NA
ATOM     58  C   UNL     1       8.579  19.140   8.146  1.00  0.00     0.031 C 
ATOM     59  C   UNL     1       4.179  21.494  10.948  1.00  0.00     0.029 A 
ATOM     60  C   UNL     1       5.415  21.290  10.330  1.00  0.00     0.049 A 
ATOM     61  H   UNL     1       7.194  20.986  11.429  1.00  0.00     0.167 HD
ATOM     62  C   UNL     1       6.945  20.780   8.428  1.00  0.00     0.074 A 
ATOM     63  C   UNL     1       7.916  19.875   9.046  1.00  0.00     0.031 C 
ATOM     64  C   UNL     1       5.843  21.407   8.948  1.00  0.00     0.037 A 
BRANCH  51  65
ATOM     65  C   UNL     1       7.116  18.656  13.470  1.00  0.00     0.058 A 
ATOM     66  C   UNL     1       7.554  19.662  14.353  1.00  0.00     0.135 A 
ATOM     67  C   UNL     1       8.046  17.624  13.209  1.00  0.00     0.135 A 
ATOM     68  F   UNL     1       6.753  20.693  14.664  1.00  0.00    -0.206 F 
ATOM     69  C   UNL     1       8.844  19.676  14.884  1.00  0.00     0.059 A 
ATOM     70  C   UNL     1       9.314  17.587  13.774  1.00  0.00     0.059 A 
ATOM     71  F   UNL     1       7.809  16.655  12.317  1.00  0.00    -0.206 F 
ATOM     72  C   UNL     1       9.721  18.640  14.575  1.00  0.00     0.060 A 
BRANCH  72  73
ATOM     73  S   UNL     1      11.418  18.713  15.169  1.00  0.00     0.124 S 
ATOM     74  O   UNL     1      11.945  19.836  14.402  1.00  0.00    -0.237 OA
ATOM     75  O   UNL     1      11.229  18.944  16.597  1.00  0.00    -0.237 OA
ATOM     76  O   UNL     1      11.954  17.401  14.818  1.00  0.00    -0.744 OA
ENDBRANCH  72  73
ENDBRANCH  51  65
BRANCH  52  77
ATOM     77  C   UNL     1       8.669  17.784   5.136  1.00  0.00     0.058 A 
ATOM     78  C   UNL     1       9.797  18.480   4.667  1.00  0.00     0.135 A 
ATOM     79  C   UNL     1       8.735  16.376   5.046  1.00  0.00     0.135 A 
ATOM     80  F   UNL     1       9.835  19.820   4.734  1.00  0.00    -0.206 F 
ATOM     81  C   UNL     1      10.933  17.821   4.172  1.00  0.00     0.059 A 
ATOM     82  C   UNL     1       9.850  15.699   4.552  1.00  0.00     0.059 A 
ATOM     83  F   UNL     1       7.745  15.606   5.521  1.00  0.00    -0.206 F 
ATOM     84  C   UNL     1      10.957  16.426   4.136  1.00  0.00     0.060 A 
BRANCH  84  85
ATOM     85  S   UNL     1      12.475  15.565   3.653  1.00  0.00     0.124 S 
ATOM     86  O   UNL     1      12.562  15.880   2.231  1.00  0.00    -0.237 OA
ATOM     87  O   UNL     1      13.474  16.197   4.507  1.00  0.00    -0.237 OA
ATOM     88  O   UNL     1      12.188  14.167   3.965  1.00  0.00    -0.744 OA
ENDBRANCH  84  85
ENDBRANCH  52  77
BRANCH  64  89
ATOM     89  C   UNL     1       4.875  22.081   7.998  1.00  0.00     0.058 A 
ATOM     90  C   UNL     1       4.084  21.400   7.052  1.00  0.00     0.135 A 
ATOM     91  C   UNL     1       4.597  23.444   8.177  1.00  0.00     0.135 A 
ATOM     92  F   UNL     1       4.199  20.078   6.886  1.00  0.00    -0.206 F 
ATOM     93  C   UNL     1       3.098  22.042   6.298  1.00  0.00     0.059 A 
ATOM     94  C   UNL     1       3.600  24.102   7.456  1.00  0.00     0.059 A 
ATOM     95  F   UNL     1       5.262  24.145   9.110  1.00  0.00    -0.206 F 
ATOM     96  C   UNL     1       2.861  23.398   6.509  1.00  0.00     0.060 A 
BRANCH  96  97
ATOM     97  S   UNL     1       1.540  24.214   5.585  1.00  0.00     0.124 S 
ATOM     98  O   UNL     1       2.083  24.240   4.230  1.00  0.00    -0.237 OA
ATOM     99  O   UNL     1       0.405  23.320   5.794  1.00  0.00    -0.237 OA
ATOM    100  O   UNL     1       1.423  25.517   6.235  1.00  0.00    -0.744 OA
ENDBRANCH  96  97
ENDBRANCH  64  89
ENDBRANCH  38  39
ENDBRANCH  30  33
ENDBRANCH  28  29
ENDBRANCH  27  28
ENDBRANCH   1  27
TORSDOF 18
