REMARK SMILES CCSC(=S)N1CCc2cc(O)c(OC)cc2[C@]1(C)C(=O)NCCCNC(=O)c1ccc(-c2c3nc(c(-c4c(F)cc(S(=O)(=O)[O-])cc4F)c4ccc([nH]4)c(-c4c(F)cc(S(=O)(=O)[O-])cc4F)c4nc(c(-c5c(F)cc(S(=O)(=O)[O-])cc5F)c5ccc2[nH]5)C=C4)C=C3)cc1
REMARK SMILES IDX 24 1 23 2 22 3 20 4 21 5 18 7 6 8 7 9 8 10 17 11 19 12 9 13
REMARK SMILES IDX 16 14 10 15 13 16 11 17 4 18 5 19 3 20 2 21 1 22 14 23 15 24
REMARK SMILES IDX 12 25 25 27 26 28 27 29 28 31 29 32 30 33 94 34 31 35 93 36
REMARK SMILES IDX 32 37 33 38 34 39 87 40 35 41 92 42 86 43 88 44 36 45 91 46
REMARK SMILES IDX 85 47 84 48 37 50 71 51 50 52 70 53 51 54 54 55 69 56 89 57
REMARK SMILES IDX 52 58 53 59 68 61 90 62 55 63 38 64 39 65 48 66 40 67 41 68
REMARK SMILES IDX 47 69 49 70 42 71 43 72 44 73 45 74 46 75 72 76 73 77 82 78
REMARK SMILES IDX 74 79 75 80 81 81 83 82 76 83 77 84 78 85 79 86 80 87 56 88
REMARK SMILES IDX 57 89 66 90 58 91 59 92 65 93 67 94 60 95 61 96 62 97 63 98
REMARK SMILES IDX 64 99
REMARK H PARENT 22 6 12 26 26 30 88 49 54 60
REMARK Flexibility Score: inf
ROOT
ATOM      1  C   UNL     1       1.481   4.037   0.847  1.00  0.00     0.042 C 
ENDROOT
BRANCH   1   2
ATOM      2  C   UNL     1       2.953   3.849   0.519  1.00  0.00     0.117 C 
BRANCH   2   3
ATOM      3  N   UNL     1       3.812   4.626   1.394  1.00  0.00    -0.354 N 
ATOM      4  C   UNL     1       4.698   4.256   2.366  1.00  0.00     0.250 C 
ATOM      5  O   UNL     1       5.240   5.197   2.960  1.00  0.00    -0.272 OA
ATOM      6  H   UNL     1       3.744   5.599   1.262  1.00  0.00     0.163 HD
BRANCH   4   7
ATOM      7  C   UNL     1       5.048   2.735   2.667  1.00  0.00     0.143 C 
ATOM      8  N   UNL     1       3.766   2.071   3.122  1.00  0.00    -0.339 N 
ATOM      9  C   UNL     1       3.330   2.562   4.445  1.00  0.00     0.124 C 
ATOM     10  C   UNL     1       4.313   2.068   5.508  1.00  0.00     0.057 C 
ATOM     11  C   UNL     1       6.105   2.690   3.812  1.00  0.00    -0.006 A 
ATOM     12  C   UNL     1       5.682   2.182   1.365  1.00  0.00     0.051 C 
ATOM     13  C   UNL     1       5.742   2.380   5.138  1.00  0.00    -0.036 A 
ATOM     14  C   UNL     1       7.452   3.031   3.564  1.00  0.00     0.057 A 
ATOM     15  C   UNL     1       6.727   2.331   6.139  1.00  0.00     0.054 A 
ATOM     16  C   UNL     1       8.435   3.009   4.564  1.00  0.00     0.160 A 
ATOM     17  C   UNL     1       8.062   2.638   5.855  1.00  0.00     0.157 A 
BRANCH   8  18
ATOM     18  C   UNL     1       3.262   0.826   2.709  1.00  0.00     0.137 C 
ATOM     19  S   UNL     1       4.194  -0.525   2.368  1.00  0.00    -0.053 S 
BRANCH  18  20
ATOM     20  S   UNL     1       1.485   0.800   2.726  1.00  0.00    -0.097 SA
BRANCH  20  21
ATOM     21  C   UNL     1       0.975  -0.442   1.512  1.00  0.00     0.074 C 
ATOM     22  C   UNL     1       1.164   0.032   0.082  1.00  0.00     0.016 C 
ENDBRANCH  20  21
ENDBRANCH  18  20
ENDBRANCH   8  18
BRANCH  16  23
ATOM     23  O   UNL     1       9.670   3.371   4.098  1.00  0.00    -0.493 OA
ATOM     24  C   UNL     1      10.754   3.391   5.012  1.00  0.00     0.278 C 
ENDBRANCH  16  23
BRANCH  17  25
ATOM     25  O   UNL     1       8.972   2.571   6.874  1.00  0.00    -0.504 OA
ATOM     26  H   UNL     1       8.696   2.320   7.733  1.00  0.00     0.293 HD
ENDBRANCH  17  25
ENDBRANCH   4   7
ENDBRANCH   2   3
ENDBRANCH   1   2
BRANCH   1  27
ATOM     27  C   UNL     1       0.974   5.458   0.649  1.00  0.00     0.118 C 
BRANCH  27  28
ATOM     28  N   UNL     1       0.924   5.862  -0.751  1.00  0.00    -0.352 N 
ATOM     29  C   UNL     1      -0.146   6.040  -1.598  1.00  0.00     0.251 C 
ATOM     30  H   UNL     1       1.803   6.037  -1.158  1.00  0.00     0.163 HD
ATOM     31  O   UNL     1       0.060   6.234  -2.794  1.00  0.00    -0.269 OA
BRANCH  29  32
ATOM     32  C   UNL     1      -1.535   5.961  -1.091  1.00  0.00     0.039 A 
ATOM     33  C   UNL     1      -1.892   6.535   0.127  1.00  0.00     0.014 A 
ATOM     34  C   UNL     1      -2.503   5.295  -1.851  1.00  0.00     0.014 A 
ATOM     35  C   UNL     1      -3.134   6.257   0.686  1.00  0.00     0.010 A 
ATOM     36  C   UNL     1      -3.793   5.115  -1.337  1.00  0.00     0.010 A 
ATOM     37  C   UNL     1      -4.101   5.539  -0.036  1.00  0.00    -0.014 A 
BRANCH  37  38
ATOM     38  C   UNL     1      -5.412   5.239   0.603  1.00  0.00     0.031 A 
ATOM     39  C   UNL     1      -5.843   3.816   0.851  1.00  0.00     0.074 A 
ATOM     40  C   UNL     1      -6.188   6.257   1.027  1.00  0.00     0.049 A 
ATOM     41  N   UNL     1      -6.938   3.373   1.416  1.00  0.00    -0.248 NA
ATOM     42  C   UNL     1      -4.933   2.749   0.402  1.00  0.00     0.031 C 
ATOM     43  C   UNL     1      -5.881   7.679   0.852  1.00  0.00     0.029 A 
ATOM     44  N   UNL     1      -7.372   6.258   1.719  1.00  0.00    -0.354 N 
ATOM     45  C   UNL     1      -6.862   1.986   1.368  1.00  0.00     0.074 A 
ATOM     46  C   UNL     1      -5.625   1.656   0.695  1.00  0.00     0.031 C 
ATOM     47  C   UNL     1      -6.813   8.412   1.479  1.00  0.00     0.029 A 
ATOM     48  C   UNL     1      -7.820   7.518   2.041  1.00  0.00     0.049 A 
ATOM     49  H   UNL     1      -7.856   5.436   1.963  1.00  0.00     0.167 HD
ATOM     50  C   UNL     1      -7.736   1.071   1.852  1.00  0.00     0.037 A 
ATOM     51  C   UNL     1      -8.923   7.917   2.704  1.00  0.00     0.037 A 
ATOM     52  C   UNL     1      -8.948   1.400   2.556  1.00  0.00     0.049 A 
ATOM     53  C   UNL     1      -9.885   6.885   3.214  1.00  0.00     0.074 A 
ATOM     54  C   UNL     1      -9.882   0.541   3.110  1.00  0.00     0.029 A 
ATOM     55  N   UNL     1      -9.392   2.689   2.811  1.00  0.00    -0.354 N 
ATOM     56  N   UNL     1      -9.796   5.578   3.151  1.00  0.00    -0.248 NA
ATOM     57  C   UNL     1     -11.103   7.378   3.870  1.00  0.00     0.031 C 
ATOM     58  C   UNL     1     -10.908   1.310   3.668  1.00  0.00     0.029 A 
ATOM     59  C   UNL     1     -10.595   2.649   3.497  1.00  0.00     0.049 A 
ATOM     60  H   UNL     1      -8.921   3.512   2.544  1.00  0.00     0.167 HD
ATOM     61  C   UNL     1     -10.948   5.091   3.757  1.00  0.00     0.074 A 
ATOM     62  C   UNL     1     -11.706   6.243   4.202  1.00  0.00     0.031 C 
ATOM     63  C   UNL     1     -11.343   3.805   3.922  1.00  0.00     0.037 A 
BRANCH  50  64
ATOM     64  C   UNL     1      -7.420  -0.383   1.632  1.00  0.00     0.058 A 
ATOM     65  C   UNL     1      -6.416  -1.039   2.361  1.00  0.00     0.135 A 
ATOM     66  C   UNL     1      -8.165  -1.143   0.715  1.00  0.00     0.135 A 
ATOM     67  F   UNL     1      -5.663  -0.356   3.239  1.00  0.00    -0.206 F 
ATOM     68  C   UNL     1      -6.146  -2.391   2.173  1.00  0.00     0.059 A 
ATOM     69  C   UNL     1      -7.928  -2.501   0.526  1.00  0.00     0.059 A 
ATOM     70  F   UNL     1      -9.137  -0.565  -0.008  1.00  0.00    -0.206 F 
ATOM     71  C   UNL     1      -6.907  -3.114   1.252  1.00  0.00     0.060 A 
BRANCH  71  72
ATOM     72  S   UNL     1      -6.543  -4.867   1.022  1.00  0.00     0.124 S 
ATOM     73  O   UNL     1      -5.276  -4.807   0.300  1.00  0.00    -0.237 OA
ATOM     74  O   UNL     1      -6.465  -5.352   2.396  1.00  0.00    -0.237 OA
ATOM     75  O   UNL     1      -7.682  -5.354   0.251  1.00  0.00    -0.744 OA
ENDBRANCH  71  72
ENDBRANCH  50  64
BRANCH  51  76
ATOM     76  C   UNL     1      -9.164   9.368   2.912  1.00  0.00     0.058 A 
ATOM     77  C   UNL     1      -9.016   9.949   4.179  1.00  0.00     0.135 A 
ATOM     78  C   UNL     1      -9.489  10.210   1.837  1.00  0.00     0.135 A 
ATOM     79  F   UNL     1      -8.714   9.182   5.238  1.00  0.00    -0.206 F 
ATOM     80  C   UNL     1      -9.173  11.317   4.373  1.00  0.00     0.059 A 
ATOM     81  C   UNL     1      -9.627  11.584   2.001  1.00  0.00     0.059 A 
ATOM     82  F   UNL     1      -9.627   9.701   0.603  1.00  0.00    -0.206 F 
ATOM     83  C   UNL     1      -9.469  12.128   3.275  1.00  0.00     0.060 A 
BRANCH  83  84
ATOM     84  S   UNL     1      -9.582  13.914   3.521  1.00  0.00     0.124 S 
ATOM     85  O   UNL     1     -10.865  14.035   4.203  1.00  0.00    -0.237 OA
ATOM     86  O   UNL     1      -8.399  14.186   4.332  1.00  0.00    -0.237 OA
ATOM     87  O   UNL     1      -9.535  14.443   2.162  1.00  0.00    -0.744 OA
ENDBRANCH  83  84
ENDBRANCH  51  76
BRANCH  63  88
ATOM     88  C   UNL     1     -12.658   3.571   4.607  1.00  0.00     0.058 A 
ATOM     89  C   UNL     1     -13.874   3.779   3.939  1.00  0.00     0.135 A 
ATOM     90  C   UNL     1     -12.704   3.073   5.919  1.00  0.00     0.135 A 
ATOM     91  F   UNL     1     -13.882   4.263   2.687  1.00  0.00    -0.206 F 
ATOM     92  C   UNL     1     -15.093   3.510   4.551  1.00  0.00     0.059 A 
ATOM     93  C   UNL     1     -13.911   2.777   6.544  1.00  0.00     0.059 A 
ATOM     94  F   UNL     1     -11.567   2.850   6.597  1.00  0.00    -0.206 F 
ATOM     95  C   UNL     1     -15.101   3.005   5.853  1.00  0.00     0.060 A 
BRANCH  95  96
ATOM     96  S   UNL     1     -16.689   2.616   6.619  1.00  0.00     0.124 S 
ATOM     97  O   UNL     1     -17.209   3.948   6.911  1.00  0.00    -0.237 OA
ATOM     98  O   UNL     1     -17.377   1.886   5.558  1.00  0.00    -0.237 OA
ATOM     99  O   UNL     1     -16.318   1.817   7.783  1.00  0.00    -0.744 OA
ENDBRANCH  95  96
ENDBRANCH  63  88
ENDBRANCH  37  38
ENDBRANCH  29  32
ENDBRANCH  27  28
ENDBRANCH   1  27
TORSDOF 18
