REMARK SMILES Cc1ccc([C@H](CC2CCCC2)C(=O)NCCCNC(=O)c2ccc(-c3c4nc(c(-c5c(F)cc(S(=O)(=O)[O-])cc5F)c5ccc([nH]5)c(-c5c(F)cc(S(=O)(=O)[O-])cc5F)c5nc(c(-c6c(F)cc(S(=O)(=O)[O-])cc6F)c6ccc3[nH]6)C=C5)C=C4)cc2)cc1
REMARK SMILES IDX 17 1 16 2 15 3 13 4 14 5 6 7 5 8 1 9 2 10 3 11 89 12 4 13
REMARK SMILES IDX 88 14 7 15 8 16 9 17 12 18 10 19 11 20 18 21 19 22 20 23
REMARK SMILES IDX 21 25 22 26 23 27 87 28 24 29 86 30 25 31 26 32 27 33 80 34
REMARK SMILES IDX 28 35 85 36 79 37 81 38 29 39 84 40 78 41 77 42 30 44 64 45
REMARK SMILES IDX 43 46 63 47 44 48 47 49 62 50 82 51 45 52 46 53 61 55 83 56
REMARK SMILES IDX 48 57 31 58 32 59 41 60 33 61 34 62 40 63 42 64 35 65 36 66
REMARK SMILES IDX 37 67 38 68 39 69 65 70 66 71 75 72 67 73 68 74 74 75 76 76
REMARK SMILES IDX 69 77 70 78 71 79 72 80 73 81 49 82 50 83 59 84 51 85 52 86
REMARK SMILES IDX 58 87 60 88 53 89 54 90 55 91 56 92 57 93
REMARK H PARENT 15 6 19 24 81 43 47 54
REMARK Flexibility Score: inf
ROOT
ATOM      1  C   UNL     1      -0.927  -3.171   0.576  1.00  0.00     0.042 C 
ENDROOT
BRANCH   1   2
ATOM      2  C   UNL     1      -2.370  -2.932   0.168  1.00  0.00     0.117 C 
BRANCH   2   3
ATOM      3  N   UNL     1      -3.095  -2.105   1.129  1.00  0.00    -0.356 N 
ATOM      4  C   UNL     1      -3.674  -0.875   0.978  1.00  0.00     0.227 C 
ATOM      5  O   UNL     1      -4.353  -0.443   1.914  1.00  0.00    -0.274 OA
ATOM      6  H   UNL     1      -3.179  -2.494   2.029  1.00  0.00     0.163 HD
BRANCH   4   7
ATOM      7  C   UNL     1      -3.469  -0.020  -0.281  1.00  0.00     0.109 C 
BRANCH   7   8
ATOM      8  C   UNL     1      -4.058  -0.596  -1.579  1.00  0.00    -0.036 A 
ATOM      9  C   UNL     1      -4.920  -2.448  -5.388  1.00  0.00     0.044 C 
ATOM     10  C   UNL     1      -4.699  -1.769  -4.072  1.00  0.00    -0.051 A 
ATOM     11  C   UNL     1      -4.212  -0.463  -4.012  1.00  0.00     0.004 A 
ATOM     12  C   UNL     1      -5.003  -2.426  -2.879  1.00  0.00     0.004 A 
ATOM     13  C   UNL     1      -3.902   0.117  -2.780  1.00  0.00     0.005 A 
ATOM     14  C   UNL     1      -4.719  -1.830  -1.647  1.00  0.00     0.005 A 
ENDBRANCH   7   8
BRANCH   7  15
ATOM     15  C   UNL     1      -1.973   0.380  -0.437  1.00  0.00     0.022 C 
BRANCH  15  16
ATOM     16  C   UNL     1      -1.499   1.503   0.497  1.00  0.00    -0.010 C 
ATOM     17  C   UNL     1      -1.171   1.076   1.926  1.00  0.00     0.003 C 
ATOM     18  C   UNL     1      -0.155   2.074   0.031  1.00  0.00     0.003 C 
ATOM     19  C   UNL     1      -0.285   2.201   2.458  1.00  0.00     0.000 C 
ATOM     20  C   UNL     1       0.385   2.829   1.238  1.00  0.00     0.000 C 
ENDBRANCH  15  16
ENDBRANCH   7  15
ENDBRANCH   4   7
ENDBRANCH   2   3
ENDBRANCH   1   2
BRANCH   1  21
ATOM     21  C   UNL     1      -0.792  -4.287   1.597  1.00  0.00     0.118 C 
BRANCH  21  22
ATOM     22  N   UNL     1      -0.346  -5.553   1.029  1.00  0.00    -0.352 N 
ATOM     23  C   UNL     1      -0.043  -6.727   1.699  1.00  0.00     0.251 C 
ATOM     24  H   UNL     1      -0.248  -5.576   0.050  1.00  0.00     0.163 HD
ATOM     25  O   UNL     1       0.490  -7.665   1.129  1.00  0.00    -0.269 OA
BRANCH  23  26
ATOM     26  C   UNL     1      -0.468  -6.834   3.112  1.00  0.00     0.039 A 
ATOM     27  C   UNL     1      -1.423  -7.804   3.435  1.00  0.00     0.014 A 
ATOM     28  C   UNL     1      -0.138  -5.828   4.014  1.00  0.00     0.014 A 
ATOM     29  C   UNL     1      -2.192  -7.647   4.586  1.00  0.00     0.010 A 
ATOM     30  C   UNL     1      -0.974  -5.612   5.089  1.00  0.00     0.010 A 
ATOM     31  C   UNL     1      -2.029  -6.499   5.355  1.00  0.00    -0.014 A 
BRANCH  31  32
ATOM     32  C   UNL     1      -2.927  -6.089   6.430  1.00  0.00     0.031 A 
ATOM     33  C   UNL     1      -2.421  -6.051   7.824  1.00  0.00     0.074 A 
ATOM     34  C   UNL     1      -4.155  -5.602   6.145  1.00  0.00     0.049 A 
ATOM     35  N   UNL     1      -3.152  -5.818   8.860  1.00  0.00    -0.248 NA
ATOM     36  C   UNL     1      -1.034  -6.363   8.173  1.00  0.00     0.031 C 
ATOM     37  C   UNL     1      -4.979  -4.746   6.995  1.00  0.00     0.029 A 
ATOM     38  N   UNL     1      -5.006  -5.972   5.100  1.00  0.00    -0.354 N 
ATOM     39  C   UNL     1      -2.314  -5.639   9.934  1.00  0.00     0.074 A 
ATOM     40  C   UNL     1      -1.035  -6.121   9.487  1.00  0.00     0.031 C 
ATOM     41  C   UNL     1      -6.257  -4.832   6.599  1.00  0.00     0.029 A 
ATOM     42  C   UNL     1      -6.325  -5.874   5.592  1.00  0.00     0.049 A 
ATOM     43  H   UNL     1      -4.737  -6.248   4.194  1.00  0.00     0.167 HD
ATOM     44  C   UNL     1      -2.786  -4.970  11.023  1.00  0.00     0.037 A 
ATOM     45  C   UNL     1      -7.135  -6.972   5.680  1.00  0.00     0.037 A 
ATOM     46  C   UNL     1      -4.251  -4.939  11.005  1.00  0.00     0.049 A 
ATOM     47  C   UNL     1      -7.572  -7.316   7.086  1.00  0.00     0.074 A 
ATOM     48  C   UNL     1      -5.192  -3.957  10.756  1.00  0.00     0.029 A 
ATOM     49  N   UNL     1      -4.944  -6.150  11.016  1.00  0.00    -0.354 N 
ATOM     50  N   UNL     1      -7.038  -6.812   8.165  1.00  0.00    -0.248 NA
ATOM     51  C   UNL     1      -8.637  -8.269   7.390  1.00  0.00     0.031 C 
ATOM     52  C   UNL     1      -6.437  -4.600  10.506  1.00  0.00     0.029 A 
ATOM     53  C   UNL     1      -6.262  -5.967  10.650  1.00  0.00     0.049 A 
ATOM     54  H   UNL     1      -4.545  -7.019  11.253  1.00  0.00     0.167 HD
ATOM     55  C   UNL     1      -7.605  -7.385   9.275  1.00  0.00     0.074 A 
ATOM     56  C   UNL     1      -8.632  -8.258   8.735  1.00  0.00     0.031 C 
ATOM     57  C   UNL     1      -7.164  -7.110  10.540  1.00  0.00     0.037 A 
BRANCH  44  58
ATOM     58  C   UNL     1      -1.929  -4.167  11.995  1.00  0.00     0.058 A 
ATOM     59  C   UNL     1      -2.537  -3.424  13.035  1.00  0.00     0.135 A 
ATOM     60  C   UNL     1      -0.534  -3.960  11.884  1.00  0.00     0.135 A 
ATOM     61  F   UNL     1      -3.856  -3.501  13.264  1.00  0.00    -0.206 F 
ATOM     62  C   UNL     1      -1.830  -2.538  13.861  1.00  0.00     0.059 A 
ATOM     63  C   UNL     1       0.197  -3.116  12.723  1.00  0.00     0.059 A 
ATOM     64  F   UNL     1       0.204  -4.511  10.917  1.00  0.00    -0.206 F 
ATOM     65  C   UNL     1      -0.461  -2.385  13.694  1.00  0.00     0.060 A 
BRANCH  65  66
ATOM     66  S   UNL     1       0.450  -1.213  14.716  1.00  0.00     0.124 S 
ATOM     67  O   UNL     1      -0.048   0.067  14.223  1.00  0.00    -0.237 OA
ATOM     68  O   UNL     1       0.034  -1.583  16.064  1.00  0.00    -0.237 OA
ATOM     69  O   UNL     1       1.847  -1.499  14.399  1.00  0.00    -0.744 OA
ENDBRANCH  65  66
ENDBRANCH  44  58
BRANCH  45  70
ATOM     70  C   UNL     1      -6.922  -7.936   4.567  1.00  0.00     0.058 A 
ATOM     71  C   UNL     1      -7.313  -7.519   3.280  1.00  0.00     0.135 A 
ATOM     72  C   UNL     1      -5.948  -8.941   4.659  1.00  0.00     0.135 A 
ATOM     73  F   UNL     1      -8.265  -6.582   3.139  1.00  0.00    -0.206 F 
ATOM     74  C   UNL     1      -6.622  -7.922   2.144  1.00  0.00     0.059 A 
ATOM     75  C   UNL     1      -5.251  -9.371   3.528  1.00  0.00     0.059 A 
ATOM     76  F   UNL     1      -5.546  -9.385   5.859  1.00  0.00    -0.206 F 
ATOM     77  C   UNL     1      -5.538  -8.784   2.294  1.00  0.00     0.060 A 
BRANCH  77  78
ATOM     78  S   UNL     1      -4.390  -8.938   0.904  1.00  0.00     0.124 S 
ATOM     79  O   UNL     1      -5.273  -9.351  -0.181  1.00  0.00    -0.237 OA
ATOM     80  O   UNL     1      -3.869  -7.575   0.810  1.00  0.00    -0.237 OA
ATOM     81  O   UNL     1      -3.441  -9.945   1.363  1.00  0.00    -0.744 OA
ENDBRANCH  77  78
ENDBRANCH  45  70
BRANCH  57  82
ATOM     82  C   UNL     1      -7.577  -7.843  11.801  1.00  0.00     0.058 A 
ATOM     83  C   UNL     1      -7.980  -9.190  11.841  1.00  0.00     0.135 A 
ATOM     84  C   UNL     1      -7.444  -7.215  13.064  1.00  0.00     0.135 A 
ATOM     85  F   UNL     1      -8.028  -9.939  10.731  1.00  0.00    -0.206 F 
ATOM     86  C   UNL     1      -8.303  -9.843  13.034  1.00  0.00     0.059 A 
ATOM     87  C   UNL     1      -7.705  -7.865  14.269  1.00  0.00     0.059 A 
ATOM     88  F   UNL     1      -7.040  -5.941  13.171  1.00  0.00    -0.206 F 
ATOM     89  C   UNL     1      -8.164  -9.173  14.245  1.00  0.00     0.060 A 
BRANCH  89  90
ATOM     90  S   UNL     1      -8.516 -10.021  15.796  1.00  0.00     0.124 S 
ATOM     91  O   UNL     1      -9.902  -9.631  16.034  1.00  0.00    -0.237 OA
ATOM     92  O   UNL     1      -8.309 -11.427  15.458  1.00  0.00    -0.237 OA
ATOM     93  O   UNL     1      -7.532  -9.455  16.712  1.00  0.00    -0.744 OA
ENDBRANCH  89  90
ENDBRANCH  57  82
ENDBRANCH  31  32
ENDBRANCH  23  26
ENDBRANCH  21  22
ENDBRANCH   1  21
TORSDOF 16
