REMARK SMILES O=C(NCCCNC(=O)[C@H]1C[C@@H]2N=CN=C2C[NH2+]1)c1ccc(-c2c3nc(c(-c4c(F)cc(S(=O)(=O)[O-])cc4F)c4ccc([nH]4)c(-c4c(F)cc(S(=O)(=O)[O-])cc4F)c4nc(c(-c5c(F)cc(S(=O)(=O)[O-])cc5F)c5ccc2[nH]5)C=C4)C=C3)cc1
REMARK SMILES IDX 1 1 2 2 3 3 19 5 20 6 84 7 21 8 83 9 22 10 23 11 24 12 77 13
REMARK SMILES IDX 25 14 82 15 76 16 78 17 26 18 81 19 75 20 74 21 27 23 61 24
REMARK SMILES IDX 40 25 60 26 41 27 44 28 59 29 79 30 42 31 43 32 58 34 80 35
REMARK SMILES IDX 45 36 28 37 29 38 38 39 30 40 31 41 37 42 39 43 32 44 33 45
REMARK SMILES IDX 34 46 35 47 36 48 62 49 63 50 72 51 64 52 65 53 71 54 73 55
REMARK SMILES IDX 66 56 67 57 68 58 69 59 70 60 46 61 47 62 56 63 48 64 49 65
REMARK SMILES IDX 55 66 57 67 50 68 51 69 52 70 53 71 54 72 4 73 5 74 6 75
REMARK SMILES IDX 7 76 8 77 9 79 10 80 11 81 18 82 12 83 17 84 13 87 16 88
REMARK SMILES IDX 14 89 15 90
REMARK H PARENT 3 4 78 22 44 33 7 78 18 85 18 86
REMARK Flexibility Score: inf
ROOT
ATOM      1  O   UNL     1       1.315  -0.838  -0.022  1.00  0.00    -0.269 OA
ATOM      2  C   UNL     1       2.302  -0.205   0.364  1.00  0.00     0.251 C 
ATOM      3  N   UNL     1       3.285  -0.947   0.963  1.00  0.00    -0.352 N 
ATOM      4  H   UNL     1       2.962  -1.815   1.298  1.00  0.00     0.163 HD
ENDROOT
BRANCH   2   5
ATOM      5  C   UNL     1       2.293   1.281   0.236  1.00  0.00     0.039 A 
ATOM      6  C   UNL     1       3.397   2.131   0.312  1.00  0.00     0.014 A 
ATOM      7  C   UNL     1       1.018   1.858   0.055  1.00  0.00     0.014 A 
ATOM      8  C   UNL     1       3.224   3.519   0.265  1.00  0.00     0.010 A 
ATOM      9  C   UNL     1       0.841   3.238   0.017  1.00  0.00     0.010 A 
ATOM     10  C   UNL     1       1.945   4.074   0.148  1.00  0.00    -0.014 A 
BRANCH  10  11
ATOM     11  C   UNL     1       1.804   5.530   0.069  1.00  0.00     0.031 A 
ATOM     12  C   UNL     1       2.260   6.165  -1.203  1.00  0.00     0.074 A 
ATOM     13  C   UNL     1       1.148   6.274   0.985  1.00  0.00     0.049 A 
ATOM     14  N   UNL     1       3.199   7.039  -1.375  1.00  0.00    -0.248 NA
ATOM     15  C   UNL     1       1.623   5.724  -2.453  1.00  0.00     0.031 C 
ATOM     16  C   UNL     1       0.345   5.801   2.115  1.00  0.00     0.029 A 
ATOM     17  N   UNL     1       0.977   7.629   1.029  1.00  0.00    -0.354 N 
ATOM     18  C   UNL     1       3.158   7.398  -2.724  1.00  0.00     0.074 A 
ATOM     19  C   UNL     1       2.260   6.467  -3.360  1.00  0.00     0.031 C 
ATOM     20  C   UNL     1      -0.389   6.829   2.599  1.00  0.00     0.029 A 
ATOM     21  C   UNL     1      -0.018   8.052   1.903  1.00  0.00     0.049 A 
ATOM     22  H   UNL     1       1.512   8.253   0.488  1.00  0.00     0.167 HD
ATOM     23  C   UNL     1       3.725   8.545  -3.195  1.00  0.00     0.037 A 
ATOM     24  C   UNL     1      -0.543   9.300   2.003  1.00  0.00     0.037 A 
ATOM     25  C   UNL     1       4.636   9.120  -2.242  1.00  0.00     0.049 A 
ATOM     26  C   UNL     1       0.428  10.247   1.399  1.00  0.00     0.074 A 
ATOM     27  C   UNL     1       5.797   8.700  -1.623  1.00  0.00     0.029 A 
ATOM     28  N   UNL     1       4.221  10.226  -1.542  1.00  0.00    -0.354 N 
ATOM     29  N   UNL     1       1.595  10.531   1.906  1.00  0.00    -0.248 NA
ATOM     30  C   UNL     1       0.258  10.597  -0.003  1.00  0.00     0.031 C 
ATOM     31  C   UNL     1       5.742   9.264  -0.315  1.00  0.00     0.029 A 
ATOM     32  C   UNL     1       4.574  10.022  -0.234  1.00  0.00     0.049 A 
ATOM     33  H   UNL     1       3.760  11.014  -1.910  1.00  0.00     0.167 HD
ATOM     34  C   UNL     1       2.428  10.693   0.811  1.00  0.00     0.074 A 
ATOM     35  C   UNL     1       1.531  10.828  -0.332  1.00  0.00     0.031 C 
ATOM     36  C   UNL     1       3.766  10.432   0.893  1.00  0.00     0.037 A 
BRANCH  23  37
ATOM     37  C   UNL     1       3.235   9.331  -4.389  1.00  0.00     0.058 A 
ATOM     38  C   UNL     1       4.035  10.368  -4.918  1.00  0.00     0.135 A 
ATOM     39  C   UNL     1       1.900   9.299  -4.846  1.00  0.00     0.135 A 
ATOM     40  F   UNL     1       5.319  10.499  -4.548  1.00  0.00    -0.206 F 
ATOM     41  C   UNL     1       3.525  11.344  -5.776  1.00  0.00     0.059 A 
ATOM     42  C   UNL     1       1.386  10.230  -5.743  1.00  0.00     0.059 A 
ATOM     43  F   UNL     1       1.009   8.423  -4.365  1.00  0.00    -0.206 F 
ATOM     44  C   UNL     1       2.191  11.276  -6.167  1.00  0.00     0.060 A 
BRANCH  44  45
ATOM     45  S   UNL     1       1.498  12.601  -7.173  1.00  0.00     0.124 S 
ATOM     46  O   UNL     1       1.458  13.700  -6.215  1.00  0.00    -0.237 OA
ATOM     47  O   UNL     1       2.483  12.720  -8.243  1.00  0.00    -0.237 OA
ATOM     48  O   UNL     1       0.201  12.068  -7.580  1.00  0.00    -0.744 OA
ENDBRANCH  44  45
ENDBRANCH  23  37
BRANCH  24  49
ATOM     49  C   UNL     1      -1.946   9.696   2.307  1.00  0.00     0.058 A 
ATOM     50  C   UNL     1      -2.281  11.028   2.615  1.00  0.00     0.135 A 
ATOM     51  C   UNL     1      -3.026   8.838   2.023  1.00  0.00     0.135 A 
ATOM     52  F   UNL     1      -1.317  11.924   2.877  1.00  0.00    -0.206 F 
ATOM     53  C   UNL     1      -3.601  11.493   2.589  1.00  0.00     0.059 A 
ATOM     54  C   UNL     1      -4.350   9.274   2.004  1.00  0.00     0.059 A 
ATOM     55  F   UNL     1      -2.821   7.564   1.656  1.00  0.00    -0.206 F 
ATOM     56  C   UNL     1      -4.629  10.610   2.261  1.00  0.00     0.060 A 
BRANCH  56  57
ATOM     57  S   UNL     1      -6.311  11.239   2.042  1.00  0.00     0.124 S 
ATOM     58  O   UNL     1      -6.694  11.559   3.412  1.00  0.00    -0.237 OA
ATOM     59  O   UNL     1      -6.101  12.379   1.155  1.00  0.00    -0.237 OA
ATOM     60  O   UNL     1      -7.019  10.111   1.442  1.00  0.00    -0.744 OA
ENDBRANCH  56  57
ENDBRANCH  24  49
BRANCH  36  61
ATOM     61  C   UNL     1       4.392  10.300   2.255  1.00  0.00     0.058 A 
ATOM     62  C   UNL     1       4.060   9.303   3.189  1.00  0.00     0.135 A 
ATOM     63  C   UNL     1       5.487  11.125   2.558  1.00  0.00     0.135 A 
ATOM     64  F   UNL     1       3.097   8.407   2.931  1.00  0.00    -0.206 F 
ATOM     65  C   UNL     1       4.763   9.159   4.386  1.00  0.00     0.059 A 
ATOM     66  C   UNL     1       6.223  10.976   3.729  1.00  0.00     0.059 A 
ATOM     67  F   UNL     1       5.891  12.057   1.678  1.00  0.00    -0.206 F 
ATOM     68  C   UNL     1       5.848   9.996   4.645  1.00  0.00     0.060 A 
BRANCH  68  69
ATOM     69  S   UNL     1       6.822   9.741   6.145  1.00  0.00     0.124 S 
ATOM     70  O   UNL     1       5.920  10.238   7.183  1.00  0.00    -0.237 OA
ATOM     71  O   UNL     1       7.037   8.293   6.139  1.00  0.00    -0.237 OA
ATOM     72  O   UNL     1       8.016  10.539   5.920  1.00  0.00    -0.744 OA
ENDBRANCH  68  69
ENDBRANCH  36  61
ENDBRANCH  10  11
ENDBRANCH   2   5
BRANCH   3  73
ATOM     73  C   UNL     1       4.698  -0.736   1.210  1.00  0.00     0.118 C 
BRANCH  73  74
ATOM     74  C   UNL     1       5.042  -0.280   2.628  1.00  0.00     0.042 C 
BRANCH  74  75
ATOM     75  C   UNL     1       4.883  -1.375   3.694  1.00  0.00     0.118 C 
BRANCH  75  76
ATOM     76  N   UNL     1       5.923  -2.392   3.571  1.00  0.00    -0.351 N 
ATOM     77  C   UNL     1       6.739  -2.964   4.503  1.00  0.00     0.278 C 
ATOM     78  H   UNL     1       6.060  -2.724   2.654  1.00  0.00     0.163 HD
ATOM     79  O   UNL     1       7.574  -3.775   4.089  1.00  0.00    -0.268 OA
BRANCH  77  80
ATOM     80  C   UNL     1       6.557  -2.686   6.009  1.00  0.00     0.275 C 
ATOM     81  C   UNL     1       7.583  -3.490   6.847  1.00  0.00     0.109 C 
ATOM     82  N   UNL     1       6.664  -1.235   6.330  1.00  0.00    -0.331 N 
ATOM     83  C   UNL     1       7.327  -3.335   8.339  1.00  0.00     0.164 C 
ATOM     84  C   UNL     1       6.629  -0.935   7.780  1.00  0.00     0.316 C 
ATOM     85  H   UNL     1       5.886  -0.750   5.883  1.00  0.00     0.347 HD
ATOM     86  H   UNL     1       7.571  -0.922   5.985  1.00  0.00     0.347 HD
ATOM     87  N   UNL     1       6.547  -4.453   8.910  1.00  0.00    -0.264 NA
ATOM     88  C   UNL     1       6.379  -2.204   8.529  1.00  0.00     0.098 C 
ATOM     89  C   UNL     1       5.475  -3.890   9.382  1.00  0.00     0.216 C 
ATOM     90  N   UNL     1       5.319  -2.542   9.183  1.00  0.00    -0.238 NA
ENDBRANCH  77  80
ENDBRANCH  75  76
ENDBRANCH  74  75
ENDBRANCH  73  74
ENDBRANCH   3  73
TORSDOF 13
