REMARK SMILES COCC[C@H](NC(=O)c1ccc(C)cc1F)C(=O)NCCCNC(=O)c1ccc(-c2c3nc(c(-c4c(F)cc(S(=O)(=O)[O-])cc4F)c4ccc([nH]4)c(-c4c(F)cc(S(=O)(=O)[O-])cc4F)c4nc(c(-c5c(F)cc(S(=O)(=O)[O-])cc5F)c5ccc2[nH]5)C=C4)C=C3)cc1
REMARK SMILES IDX 21 1 20 2 19 3 17 4 18 5 5 7 4 8 3 9 2 10 1 11 6 12 7 13
REMARK SMILES IDX 8 15 9 16 10 17 15 18 11 19 14 20 16 21 12 22 13 23 22 24
REMARK SMILES IDX 23 25 24 26 25 28 26 29 27 30 91 31 28 32 90 33 29 34 30 35
REMARK SMILES IDX 31 36 84 37 32 38 89 39 83 40 85 41 33 42 88 43 82 44 81 45
REMARK SMILES IDX 34 47 68 48 47 49 67 50 48 51 51 52 66 53 86 54 49 55 50 56
REMARK SMILES IDX 65 58 87 59 52 60 35 61 36 62 45 63 37 64 38 65 44 66 46 67
REMARK SMILES IDX 39 68 40 69 41 70 42 71 43 72 69 73 70 74 79 75 71 76 72 77
REMARK SMILES IDX 78 78 80 79 73 80 74 81 75 82 76 83 77 84 53 85 54 86 63 87
REMARK SMILES IDX 55 88 56 89 62 90 64 91 57 92 58 93 59 94 60 95 61 96
REMARK H PARENT 19 6 6 14 23 27 85 46 51 57
REMARK Flexibility Score: inf
ROOT
ATOM      1  C   UNL     1       1.211   6.207   0.716  1.00  0.00     0.042 C 
ENDROOT
BRANCH   1   2
ATOM      2  C   UNL     1       1.870   5.194   1.643  1.00  0.00     0.117 C 
BRANCH   2   3
ATOM      3  N   UNL     1       0.931   4.264   2.243  1.00  0.00    -0.354 N 
ATOM      4  C   UNL     1       0.690   2.943   2.043  1.00  0.00     0.242 C 
ATOM      5  O   UNL     1       0.021   2.398   2.934  1.00  0.00    -0.273 OA
ATOM      6  H   UNL     1       0.355   4.672   2.929  1.00  0.00     0.163 HD
BRANCH   4   7
ATOM      7  C   UNL     1       1.099   2.123   0.786  1.00  0.00     0.173 C 
BRANCH   7   8
ATOM      8  C   UNL     1       2.609   2.123   0.449  1.00  0.00     0.063 C 
BRANCH   8   9
ATOM      9  C   UNL     1       3.033   2.677  -0.922  1.00  0.00     0.162 C 
BRANCH   9  10
ATOM     10  O   UNL     1       2.741   4.064  -1.036  1.00  0.00    -0.385 OA
ATOM     11  C   UNL     1       2.066   4.466  -2.224  1.00  0.00     0.194 C 
ENDBRANCH   9  10
ENDBRANCH   8   9
ENDBRANCH   7   8
BRANCH   7  12
ATOM     12  N   UNL     1       0.235   2.354  -0.373  1.00  0.00    -0.340 N 
ATOM     13  C   UNL     1      -0.924   1.772  -0.813  1.00  0.00     0.254 C 
ATOM     14  H   UNL     1       0.553   3.079  -0.958  1.00  0.00     0.164 HD
ATOM     15  O   UNL     1      -1.321   2.028  -1.946  1.00  0.00    -0.269 OA
BRANCH  13  16
ATOM     16  C   UNL     1      -1.712   0.876   0.041  1.00  0.00     0.075 A 
ATOM     17  C   UNL     1      -2.221   1.327   1.258  1.00  0.00     0.017 A 
ATOM     18  C   UNL     1      -2.066  -0.387  -0.425  1.00  0.00     0.136 A 
ATOM     19  C   UNL     1      -2.990   0.475   2.055  1.00  0.00     0.004 A 
ATOM     20  C   UNL     1      -2.856  -1.233   0.354  1.00  0.00     0.043 A 
ATOM     21  F   UNL     1      -1.644  -0.831  -1.617  1.00  0.00    -0.206 F 
ATOM     22  C   UNL     1      -3.296  -0.820   1.618  1.00  0.00    -0.048 A 
ATOM     23  C   UNL     1      -4.104  -1.748   2.475  1.00  0.00     0.044 C 
ENDBRANCH  13  16
ENDBRANCH   7  12
ENDBRANCH   4   7
ENDBRANCH   2   3
ENDBRANCH   1   2
BRANCH   1  24
ATOM     24  C   UNL     1       0.641   7.420   1.449  1.00  0.00     0.118 C 
BRANCH  24  25
ATOM     25  N   UNL     1       1.687   8.304   1.958  1.00  0.00    -0.352 N 
ATOM     26  C   UNL     1       2.038   9.585   1.601  1.00  0.00     0.251 C 
ATOM     27  H   UNL     1       2.233   7.917   2.679  1.00  0.00     0.163 HD
ATOM     28  O   UNL     1       3.091  10.053   2.028  1.00  0.00    -0.269 OA
BRANCH  26  29
ATOM     29  C   UNL     1       1.182  10.398   0.706  1.00  0.00     0.039 A 
ATOM     30  C   UNL     1       1.791  11.227  -0.243  1.00  0.00     0.014 A 
ATOM     31  C   UNL     1      -0.209  10.391   0.823  1.00  0.00     0.014 A 
ATOM     32  C   UNL     1       1.006  11.986  -1.118  1.00  0.00     0.010 A 
ATOM     33  C   UNL     1      -0.991  11.083  -0.100  1.00  0.00     0.010 A 
ATOM     34  C   UNL     1      -0.394  11.889  -1.080  1.00  0.00    -0.014 A 
BRANCH  34  35
ATOM     35  C   UNL     1      -1.252  12.609  -2.058  1.00  0.00     0.031 A 
ATOM     36  C   UNL     1      -2.229  13.653  -1.589  1.00  0.00     0.074 A 
ATOM     37  C   UNL     1      -1.208  12.268  -3.361  1.00  0.00     0.049 A 
ATOM     38  N   UNL     1      -3.122  14.319  -2.276  1.00  0.00    -0.248 NA
ATOM     39  C   UNL     1      -2.217  13.971  -0.153  1.00  0.00     0.031 C 
ATOM     40  C   UNL     1      -0.331  11.248  -3.939  1.00  0.00     0.029 A 
ATOM     41  N   UNL     1      -1.925  12.734  -4.435  1.00  0.00    -0.354 N 
ATOM     42  C   UNL     1      -3.792  15.117  -1.356  1.00  0.00     0.074 A 
ATOM     43  C   UNL     1      -3.234  14.815  -0.055  1.00  0.00     0.031 C 
ATOM     44  C   UNL     1      -0.539  11.187  -5.263  1.00  0.00     0.029 A 
ATOM     45  C   UNL     1      -1.595  12.129  -5.624  1.00  0.00     0.049 A 
ATOM     46  H   UNL     1      -2.611  13.436  -4.360  1.00  0.00     0.167 HD
ATOM     47  C   UNL     1      -4.767  16.033  -1.575  1.00  0.00     0.037 A 
ATOM     48  C   UNL     1      -2.091  12.304  -6.864  1.00  0.00     0.037 A 
ATOM     49  C   UNL     1      -5.303  16.345  -2.874  1.00  0.00     0.049 A 
ATOM     50  C   UNL     1      -3.191  13.304  -7.083  1.00  0.00     0.074 A 
ATOM     51  C   UNL     1      -6.244  17.302  -3.212  1.00  0.00     0.029 A 
ATOM     52  N   UNL     1      -4.953  15.698  -4.052  1.00  0.00    -0.354 N 
ATOM     53  N   UNL     1      -3.773  14.091  -6.210  1.00  0.00    -0.248 NA
ATOM     54  C   UNL     1      -3.708  13.434  -8.452  1.00  0.00     0.031 C 
ATOM     55  C   UNL     1      -6.493  17.206  -4.586  1.00  0.00     0.029 A 
ATOM     56  C   UNL     1      -5.679  16.216  -5.113  1.00  0.00     0.049 A 
ATOM     57  H   UNL     1      -4.286  14.978  -4.122  1.00  0.00     0.167 HD
ATOM     58  C   UNL     1      -4.713  14.823  -6.927  1.00  0.00     0.074 A 
ATOM     59  C   UNL     1      -4.614  14.391  -8.307  1.00  0.00     0.031 C 
ATOM     60  C   UNL     1      -5.577  15.769  -6.481  1.00  0.00     0.037 A 
BRANCH  47  61
ATOM     61  C   UNL     1      -5.316  16.752  -0.373  1.00  0.00     0.058 A 
ATOM     62  C   UNL     1      -4.549  17.687   0.342  1.00  0.00     0.135 A 
ATOM     63  C   UNL     1      -6.619  16.493   0.082  1.00  0.00     0.135 A 
ATOM     64  F   UNL     1      -3.293  17.966  -0.042  1.00  0.00    -0.206 F 
ATOM     65  C   UNL     1      -5.031  18.294   1.497  1.00  0.00     0.059 A 
ATOM     66  C   UNL     1      -7.133  17.112   1.219  1.00  0.00     0.059 A 
ATOM     67  F   UNL     1      -7.400  15.615  -0.566  1.00  0.00    -0.206 F 
ATOM     68  C   UNL     1      -6.321  17.990   1.935  1.00  0.00     0.060 A 
BRANCH  68  69
ATOM     69  S   UNL     1      -6.916  18.745   3.463  1.00  0.00     0.124 S 
ATOM     70  O   UNL     1      -6.210  17.956   4.468  1.00  0.00    -0.237 OA
ATOM     71  O   UNL     1      -6.478  20.130   3.323  1.00  0.00    -0.237 OA
ATOM     72  O   UNL     1      -8.360  18.539   3.403  1.00  0.00    -0.744 OA
ENDBRANCH  68  69
ENDBRANCH  47  61
BRANCH  48  73
ATOM     73  C   UNL     1      -1.515  11.535  -7.998  1.00  0.00     0.058 A 
ATOM     74  C   UNL     1      -0.680  12.163  -8.933  1.00  0.00     0.135 A 
ATOM     75  C   UNL     1      -1.736  10.156  -8.139  1.00  0.00     0.135 A 
ATOM     76  F   UNL     1      -0.447  13.482  -8.843  1.00  0.00    -0.206 F 
ATOM     77  C   UNL     1      -0.077  11.452  -9.964  1.00  0.00     0.059 A 
ATOM     78  C   UNL     1      -1.128   9.419  -9.151  1.00  0.00     0.059 A 
ATOM     79  F   UNL     1      -2.517   9.508  -7.261  1.00  0.00    -0.206 F 
ATOM     80  C   UNL     1      -0.299  10.077 -10.059  1.00  0.00     0.060 A 
BRANCH  80  81
ATOM     81  S   UNL     1       0.564   9.150 -11.347  1.00  0.00     0.124 S 
ATOM     82  O   UNL     1      -0.159   9.566 -12.543  1.00  0.00    -0.237 OA
ATOM     83  O   UNL     1       1.929   9.650 -11.221  1.00  0.00    -0.237 OA
ATOM     84  O   UNL     1       0.375   7.760 -10.944  1.00  0.00    -0.744 OA
ENDBRANCH  80  81
ENDBRANCH  48  73
BRANCH  60  85
ATOM     85  C   UNL     1      -6.483  16.410  -7.495  1.00  0.00     0.058 A 
ATOM     86  C   UNL     1      -7.592  15.730  -8.020  1.00  0.00     0.135 A 
ATOM     87  C   UNL     1      -6.273  17.738  -7.901  1.00  0.00     0.135 A 
ATOM     88  F   UNL     1      -7.831  14.456  -7.672  1.00  0.00    -0.206 F 
ATOM     89  C   UNL     1      -8.457  16.340  -8.922  1.00  0.00     0.059 A 
ATOM     90  C   UNL     1      -7.138  18.375  -8.784  1.00  0.00     0.059 A 
ATOM     91  F   UNL     1      -5.230  18.434  -7.423  1.00  0.00    -0.206 F 
ATOM     92  C   UNL     1      -8.224  17.666  -9.296  1.00  0.00     0.060 A 
BRANCH  92  93
ATOM     93  S   UNL     1      -9.382  18.462 -10.429  1.00  0.00     0.124 S 
ATOM     94  O   UNL     1      -9.020  17.847 -11.701  1.00  0.00    -0.237 OA
ATOM     95  O   UNL     1     -10.677  18.070  -9.881  1.00  0.00    -0.237 OA
ATOM     96  O   UNL     1      -9.059  19.881 -10.303  1.00  0.00    -0.744 OA
ENDBRANCH  92  93
ENDBRANCH  60  85
ENDBRANCH  34  35
ENDBRANCH  26  29
ENDBRANCH  24  25
ENDBRANCH   1  24
TORSDOF 18
