REMARK SMILES COc1ccc(CCNC(=O)[C@@]2(C)CC[C@@H](C(=O)NCCCNC(=O)c3ccc(-c4c5nc(c(-c6c(F)cc(S(=O)(=O)[O-])cc6F)c6ccc([nH]6)c(-c6c(F)cc(S(=O)(=O)[O-])cc6F)c6nc(c(-c7c(F)cc(S(=O)(=O)[O-])cc7F)c7ccc4[nH]7)C=C6)C=C5)cc3)C2(C)C)cc1OC
REMARK SMILES IDX 20 1 19 2 17 3 18 4 16 6 12 7 13 8 14 9 92 10 15 11 93 12
REMARK SMILES IDX 94 13 10 14 9 15 11 17 8 18 7 19 6 20 3 21 4 22 96 23 5 24
REMARK SMILES IDX 95 25 2 26 1 27 97 28 98 29 21 30 22 31 23 32 24 33 25 35
REMARK SMILES IDX 26 36 27 37 91 38 28 39 90 40 29 41 30 42 31 43 84 44 32 45
REMARK SMILES IDX 89 46 83 47 85 48 33 49 88 50 82 51 81 52 34 54 68 55 47 56
REMARK SMILES IDX 67 57 48 58 51 59 66 60 86 61 49 62 50 63 65 65 87 66 52 67
REMARK SMILES IDX 35 68 36 69 45 70 37 71 38 72 44 73 46 74 39 75 40 76 41 77
REMARK SMILES IDX 42 78 43 79 69 80 70 81 79 82 71 83 72 84 78 85 80 86 73 87
REMARK SMILES IDX 74 88 75 89 76 90 77 91 53 92 54 93 63 94 55 95 56 96 62 97
REMARK SMILES IDX 64 98 57 99 58 100 59 101 60 102 61 103
REMARK H PARENT 19 5 9 16 23 34 85 53 51 64
REMARK Flexibility Score: inf
ROOT
ATOM      1  C   UNL     1       2.580  -7.094  -6.254  1.00  0.00     0.117 C 
ENDROOT
BRANCH   1   2
ATOM      2  N   UNL     1       2.812  -8.195  -7.155  1.00  0.00    -0.356 N 
ATOM      3  C   UNL     1       2.234  -8.546  -8.328  1.00  0.00     0.223 C 
ATOM      4  O   UNL     1       2.716  -9.550  -8.871  1.00  0.00    -0.275 OA
ATOM      5  H   UNL     1       3.525  -8.808  -6.862  1.00  0.00     0.163 HD
BRANCH   3   6
ATOM      6  C   UNL     1       1.110  -7.781  -9.060  1.00  0.00     0.085 C 
ATOM      7  C   UNL     1      -0.240  -5.818  -8.197  1.00  0.00     0.052 C 
ATOM      8  C   UNL     1      -1.346  -5.094  -9.020  1.00  0.00     0.022 C 
ATOM      9  C   UNL     1       1.104  -5.378  -8.819  1.00  0.00     0.018 C 
ATOM     10  C   UNL     1      -0.262  -7.428  -8.402  1.00  0.00    -0.010 C 
ATOM     11  C   UNL     1       1.567  -6.495  -9.735  1.00  0.00     0.015 C 
ATOM     12  C   UNL     1      -0.539  -8.274  -7.147  1.00  0.00     0.013 C 
ATOM     13  C   UNL     1      -1.368  -7.890  -9.398  1.00  0.00     0.013 C 
BRANCH   7  14
ATOM     14  C   UNL     1      -0.591  -5.399  -6.735  1.00  0.00     0.226 C 
ATOM     15  N   UNL     1       0.124  -4.631  -5.884  1.00  0.00    -0.355 N 
ATOM     16  H   UNL     1      -0.372  -4.479  -5.048  1.00  0.00     0.163 HD
ATOM     17  O   UNL     1      -1.685  -5.757  -6.269  1.00  0.00    -0.274 OA
BRANCH  15  18
ATOM     18  C   UNL     1       1.421  -3.961  -5.848  1.00  0.00     0.120 C 
BRANCH  18  19
ATOM     19  C   UNL     1       1.324  -2.466  -5.552  1.00  0.00     0.057 C 
BRANCH  19  20
ATOM     20  C   UNL     1       1.190  -2.175  -4.080  1.00  0.00    -0.042 A 
ATOM     21  C   UNL     1       0.987  -1.619  -1.338  1.00  0.00     0.160 A 
ATOM     22  C   UNL     1      -0.161  -1.888  -2.096  1.00  0.00     0.051 A 
ATOM     23  C   UNL     1       2.251  -1.665  -1.934  1.00  0.00     0.160 A 
ATOM     24  C   UNL     1      -0.062  -2.151  -3.463  1.00  0.00     0.008 A 
ATOM     25  C   UNL     1       2.338  -1.956  -3.301  1.00  0.00     0.054 A 
BRANCH  21  26
ATOM     26  O   UNL     1       0.847  -1.395   0.005  1.00  0.00    -0.493 OA
ATOM     27  C   UNL     1       0.197  -0.149   0.263  1.00  0.00     0.278 C 
ENDBRANCH  21  26
BRANCH  23  28
ATOM     28  O   UNL     1       3.472  -1.479  -1.344  1.00  0.00    -0.493 OA
ATOM     29  C   UNL     1       3.513  -0.718  -0.146  1.00  0.00     0.278 C 
ENDBRANCH  23  28
ENDBRANCH  19  20
ENDBRANCH  18  19
ENDBRANCH  15  18
ENDBRANCH   7  14
ENDBRANCH   3   6
ENDBRANCH   1   2
BRANCH   1  30
ATOM     30  C   UNL     1       2.211  -7.516  -4.841  1.00  0.00     0.042 C 
BRANCH  30  31
ATOM     31  C   UNL     1       3.386  -7.994  -4.016  1.00  0.00     0.118 C 
BRANCH  31  32
ATOM     32  N   UNL     1       4.283  -6.915  -3.629  1.00  0.00    -0.352 N 
ATOM     33  C   UNL     1       4.430  -6.217  -2.452  1.00  0.00     0.251 C 
ATOM     34  H   UNL     1       4.899  -6.631  -4.343  1.00  0.00     0.163 HD
ATOM     35  O   UNL     1       5.161  -5.229  -2.454  1.00  0.00    -0.269 OA
BRANCH  33  36
ATOM     36  C   UNL     1       3.722  -6.615  -1.208  1.00  0.00     0.039 A 
ATOM     37  C   UNL     1       3.354  -5.629  -0.285  1.00  0.00     0.014 A 
ATOM     38  C   UNL     1       3.458  -7.949  -0.906  1.00  0.00     0.014 A 
ATOM     39  C   UNL     1       2.682  -5.985   0.892  1.00  0.00     0.010 A 
ATOM     40  C   UNL     1       2.654  -8.284   0.178  1.00  0.00     0.010 A 
ATOM     41  C   UNL     1       2.289  -7.315   1.119  1.00  0.00    -0.014 A 
BRANCH  41  42
ATOM     42  C   UNL     1       1.553  -7.730   2.345  1.00  0.00     0.031 A 
ATOM     43  C   UNL     1       2.119  -8.809   3.243  1.00  0.00     0.074 A 
ATOM     44  C   UNL     1       0.347  -7.193   2.623  1.00  0.00     0.049 A 
ATOM     45  N   UNL     1       1.595  -9.364   4.307  1.00  0.00    -0.248 NA
ATOM     46  C   UNL     1       3.431  -9.369   2.872  1.00  0.00     0.031 C 
ATOM     47  C   UNL     1      -0.344  -6.192   1.808  1.00  0.00     0.029 A 
ATOM     48  N   UNL     1      -0.515  -7.417   3.668  1.00  0.00    -0.354 N 
ATOM     49  C   UNL     1       2.496 -10.346   4.709  1.00  0.00     0.074 A 
ATOM     50  C   UNL     1       3.560 -10.366   3.733  1.00  0.00     0.031 C 
ATOM     51  C   UNL     1      -1.501  -5.859   2.403  1.00  0.00     0.029 A 
ATOM     52  C   UNL     1      -1.657  -6.652   3.618  1.00  0.00     0.049 A 
ATOM     53  H   UNL     1      -0.332  -8.065   4.387  1.00  0.00     0.167 HD
ATOM     54  C   UNL     1       2.465 -11.133   5.811  1.00  0.00     0.037 A 
ATOM     55  C   UNL     1      -2.711  -6.594   4.456  1.00  0.00     0.037 A 
ATOM     56  C   UNL     1       1.426 -11.077   6.806  1.00  0.00     0.049 A 
ATOM     57  C   UNL     1      -2.716  -7.463   5.685  1.00  0.00     0.074 A 
ATOM     58  C   UNL     1       1.330 -11.783   7.992  1.00  0.00     0.029 A 
ATOM     59  N   UNL     1       0.305 -10.263   6.733  1.00  0.00    -0.354 N 
ATOM     60  N   UNL     1      -1.822  -8.338   6.082  1.00  0.00    -0.248 NA
ATOM     61  C   UNL     1      -3.867  -7.328   6.587  1.00  0.00     0.031 C 
ATOM     62  C   UNL     1       0.128 -11.430   8.614  1.00  0.00     0.029 A 
ATOM     63  C   UNL     1      -0.496 -10.461   7.845  1.00  0.00     0.049 A 
ATOM     64  H   UNL     1       0.108  -9.637   5.999  1.00  0.00     0.167 HD
ATOM     65  C   UNL     1      -2.286  -8.831   7.297  1.00  0.00     0.074 A 
ATOM     66  C   UNL     1      -3.533  -8.148   7.574  1.00  0.00     0.031 C 
ATOM     67  C   UNL     1      -1.730  -9.764   8.111  1.00  0.00     0.037 A 
BRANCH  54  68
ATOM     68  C   UNL     1       3.597 -12.110   6.008  1.00  0.00     0.058 A 
ATOM     69  C   UNL     1       4.906 -11.679   6.284  1.00  0.00     0.135 A 
ATOM     70  C   UNL     1       3.368 -13.494   5.948  1.00  0.00     0.135 A 
ATOM     71  F   UNL     1       5.189 -10.367   6.339  1.00  0.00    -0.206 F 
ATOM     72  C   UNL     1       5.951 -12.581   6.453  1.00  0.00     0.059 A 
ATOM     73  C   UNL     1       4.392 -14.416   6.149  1.00  0.00     0.059 A 
ATOM     74  F   UNL     1       2.138 -13.966   5.690  1.00  0.00    -0.206 F 
ATOM     75  C   UNL     1       5.684 -13.949   6.384  1.00  0.00     0.060 A 
BRANCH  75  76
ATOM     76  S   UNL     1       7.052 -15.105   6.612  1.00  0.00     0.124 S 
ATOM     77  O   UNL     1       7.791 -14.930   5.365  1.00  0.00    -0.237 OA
ATOM     78  O   UNL     1       7.702 -14.586   7.811  1.00  0.00    -0.237 OA
ATOM     79  O   UNL     1       6.386 -16.394   6.771  1.00  0.00    -0.744 OA
ENDBRANCH  75  76
ENDBRANCH  54  68
BRANCH  55  80
ATOM     80  C   UNL     1      -3.828  -5.649   4.182  1.00  0.00     0.058 A 
ATOM     81  C   UNL     1      -4.035  -4.524   4.994  1.00  0.00     0.135 A 
ATOM     82  C   UNL     1      -4.702  -5.842   3.101  1.00  0.00     0.135 A 
ATOM     83  F   UNL     1      -3.231  -4.297   6.044  1.00  0.00    -0.206 F 
ATOM     84  C   UNL     1      -5.079  -3.635   4.758  1.00  0.00     0.059 A 
ATOM     85  C   UNL     1      -5.735  -4.951   2.826  1.00  0.00     0.059 A 
ATOM     86  F   UNL     1      -4.537  -6.893   2.282  1.00  0.00    -0.206 F 
ATOM     87  C   UNL     1      -5.922  -3.855   3.668  1.00  0.00     0.060 A 
BRANCH  87  88
ATOM     88  S   UNL     1      -7.243  -2.667   3.344  1.00  0.00     0.124 S 
ATOM     89  O   UNL     1      -8.169  -2.950   4.433  1.00  0.00    -0.237 OA
ATOM     90  O   UNL     1      -6.533  -1.393   3.423  1.00  0.00    -0.237 OA
ATOM     91  O   UNL     1      -7.705  -3.034   2.009  1.00  0.00    -0.744 OA
ENDBRANCH  87  88
ENDBRANCH  55  80
BRANCH  67  92
ATOM     92  C   UNL     1      -2.440 -10.065   9.403  1.00  0.00     0.058 A 
ATOM     93  C   UNL     1      -3.658 -10.761   9.436  1.00  0.00     0.135 A 
ATOM     94  C   UNL     1      -1.869  -9.683  10.628  1.00  0.00     0.135 A 
ATOM     95  F   UNL     1      -4.249 -11.146   8.294  1.00  0.00    -0.206 F 
ATOM     96  C   UNL     1      -4.305 -11.035  10.637  1.00  0.00     0.059 A 
ATOM     97  C   UNL     1      -2.481  -9.976  11.842  1.00  0.00     0.059 A 
ATOM     98  F   UNL     1      -0.698  -9.028  10.655  1.00  0.00    -0.206 F 
ATOM     99  C   UNL     1      -3.708 -10.638  11.835  1.00  0.00     0.060 A 
BRANCH  99 100
ATOM    100  S   UNL     1      -4.550 -11.012  13.387  1.00  0.00     0.124 S 
ATOM    101  O   UNL     1      -5.650 -10.054  13.363  1.00  0.00    -0.237 OA
ATOM    102  O   UNL     1      -4.924 -12.412  13.210  1.00  0.00    -0.237 OA
ATOM    103  O   UNL     1      -3.526 -10.766  14.398  1.00  0.00    -0.744 OA
ENDBRANCH  99 100
ENDBRANCH  67  92
ENDBRANCH  41  42
ENDBRANCH  33  36
ENDBRANCH  31  32
ENDBRANCH  30  31
ENDBRANCH   1  30
TORSDOF 19
