REMARK SMILES Cc1ccc(Oc2cc(C(=O)NCCCNC(=O)c3ccc(-c4c5nc(c(-c6c(F)cc(S(=O)(=O)[O-])cc6F)c6ccc([nH]6)c(-c6c(F)cc(S(=O)(=O)[O-])cc6F)c6nc(c(-c7c(F)cc(S(=O)(=O)[O-])cc7F)c7ccc4[nH]7)C=C6)C=C5)cc3)nc3ccccc23)cc1
REMARK SMILES IDX 14 1 13 2 12 3 10 4 11 5 9 7 7 8 8 9 91 10 86 11 90 12 85 13
REMARK SMILES IDX 87 14 89 15 88 16 6 17 5 18 1 19 2 20 3 21 93 22 4 23 92 24
REMARK SMILES IDX 15 25 16 26 17 27 18 29 19 30 20 31 84 32 21 33 83 34 22 35
REMARK SMILES IDX 23 36 24 37 77 38 25 39 82 40 76 41 78 42 26 43 81 44 75 45
REMARK SMILES IDX 74 46 27 48 61 49 40 50 60 51 41 52 44 53 59 54 79 55 42 56
REMARK SMILES IDX 43 57 58 59 80 60 45 61 28 62 29 63 38 64 30 65 31 66 37 67
REMARK SMILES IDX 39 68 32 69 33 70 34 71 35 72 36 73 62 74 63 75 72 76 64 77
REMARK SMILES IDX 65 78 71 79 73 80 66 81 67 82 68 83 69 84 70 85 46 86 47 87
REMARK SMILES IDX 56 88 48 89 49 90 55 91 57 92 50 93 51 94 52 95 53 96 54 97
REMARK H PARENT 12 6 16 28 78 47 44 58
REMARK Flexibility Score: inf
ROOT
ATOM      1  C   UNL     1      -7.261   5.830   0.019  1.00  0.00     0.042 C 
ENDROOT
BRANCH   1   2
ATOM      2  C   UNL     1      -6.429   5.685   1.292  1.00  0.00     0.118 C 
BRANCH   2   3
ATOM      3  N   UNL     1      -6.746   4.472   2.038  1.00  0.00    -0.351 N 
ATOM      4  C   UNL     1      -6.238   3.196   1.907  1.00  0.00     0.270 C 
ATOM      5  O   UNL     1      -6.561   2.345   2.738  1.00  0.00    -0.268 OA
ATOM      6  H   UNL     1      -7.425   4.581   2.742  1.00  0.00     0.163 HD
BRANCH   4   7
ATOM      7  C   UNL     1      -5.305   2.809   0.796  1.00  0.00     0.132 A 
ATOM      8  C   UNL     1      -3.781   1.263  -0.170  1.00  0.00     0.139 A 
ATOM      9  C   UNL     1      -4.628   1.606   0.879  1.00  0.00     0.082 A 
ATOM     10  C   UNL     1      -3.675   2.082  -1.318  1.00  0.00     0.043 A 
ATOM     11  C   UNL     1      -4.398   3.288  -1.290  1.00  0.00     0.075 A 
ATOM     12  C   UNL     1      -2.896   1.778  -2.461  1.00  0.00     0.014 A 
ATOM     13  N   UNL     1      -5.182   3.642  -0.264  1.00  0.00    -0.242 NA
ATOM     14  C   UNL     1      -4.297   4.159  -2.365  1.00  0.00     0.029 A 
ATOM     15  C   UNL     1      -2.804   2.671  -3.527  1.00  0.00     0.001 A 
ATOM     16  C   UNL     1      -3.503   3.869  -3.476  1.00  0.00     0.002 A 
BRANCH   8  17
ATOM     17  O   UNL     1      -3.104   0.069  -0.040  1.00  0.00    -0.457 OA
BRANCH  17  18
ATOM     18  C   UNL     1      -1.729   0.103   0.073  1.00  0.00     0.127 A 
ATOM     19  C   UNL     1       2.575  -0.126   0.111  1.00  0.00     0.044 C 
ATOM     20  C   UNL     1       1.077  -0.044   0.115  1.00  0.00    -0.051 A 
ATOM     21  C   UNL     1       0.310  -1.195  -0.100  1.00  0.00     0.007 A 
ATOM     22  C   UNL     1       0.427   1.170   0.357  1.00  0.00     0.007 A 
ATOM     23  C   UNL     1      -1.085  -1.120  -0.122  1.00  0.00     0.047 A 
ATOM     24  C   UNL     1      -0.969   1.243   0.348  1.00  0.00     0.047 A 
ENDBRANCH  17  18
ENDBRANCH   8  17
ENDBRANCH   4   7
ENDBRANCH   2   3
ENDBRANCH   1   2
BRANCH   1  25
ATOM     25  C   UNL     1      -8.649   6.393   0.295  1.00  0.00     0.118 C 
BRANCH  25  26
ATOM     26  N   UNL     1      -8.856   7.725  -0.260  1.00  0.00    -0.352 N 
ATOM     27  C   UNL     1     -10.003   8.499  -0.205  1.00  0.00     0.251 C 
ATOM     28  H   UNL     1      -8.088   8.123  -0.730  1.00  0.00     0.163 HD
ATOM     29  O   UNL     1     -10.118   9.525  -0.848  1.00  0.00    -0.269 OA
BRANCH  27  30
ATOM     30  C   UNL     1     -11.057   8.070   0.739  1.00  0.00     0.039 A 
ATOM     31  C   UNL     1     -11.293   8.879   1.855  1.00  0.00     0.014 A 
ATOM     32  C   UNL     1     -11.605   6.793   0.645  1.00  0.00     0.014 A 
ATOM     33  C   UNL     1     -11.951   8.344   2.961  1.00  0.00     0.010 A 
ATOM     34  C   UNL     1     -12.191   6.242   1.770  1.00  0.00     0.010 A 
ATOM     35  C   UNL     1     -12.327   7.002   2.944  1.00  0.00    -0.014 A 
BRANCH  35  36
ATOM     36  C   UNL     1     -12.783   6.273   4.127  1.00  0.00     0.031 A 
ATOM     37  C   UNL     1     -14.194   5.830   4.247  1.00  0.00     0.074 A 
ATOM     38  C   UNL     1     -11.893   5.900   5.072  1.00  0.00     0.049 A 
ATOM     39  N   UNL     1     -14.756   5.436   5.343  1.00  0.00    -0.248 NA
ATOM     40  C   UNL     1     -15.113   5.855   3.116  1.00  0.00     0.031 C 
ATOM     41  C   UNL     1     -12.066   4.851   6.072  1.00  0.00     0.029 A 
ATOM     42  N   UNL     1     -10.713   6.539   5.444  1.00  0.00    -0.354 N 
ATOM     43  C   UNL     1     -15.983   4.895   5.023  1.00  0.00     0.074 A 
ATOM     44  C   UNL     1     -16.182   5.244   3.635  1.00  0.00     0.031 C 
ATOM     45  C   UNL     1     -11.179   5.036   7.059  1.00  0.00     0.029 A 
ATOM     46  C   UNL     1     -10.515   6.304   6.816  1.00  0.00     0.049 A 
ATOM     47  H   UNL     1     -10.124   7.061   4.853  1.00  0.00     0.167 HD
ATOM     48  C   UNL     1     -16.626   4.098   5.929  1.00  0.00     0.037 A 
ATOM     49  C   UNL     1     -10.467   7.332   7.715  1.00  0.00     0.037 A 
ATOM     50  C   UNL     1     -15.923   4.080   7.214  1.00  0.00     0.049 A 
ATOM     51  C   UNL     1     -11.551   7.296   8.768  1.00  0.00     0.074 A 
ATOM     52  C   UNL     1     -15.032   3.185   7.784  1.00  0.00     0.029 A 
ATOM     53  N   UNL     1     -15.877   5.229   7.995  1.00  0.00    -0.354 N 
ATOM     54  N   UNL     1     -12.607   6.533   8.703  1.00  0.00    -0.248 NA
ATOM     55  C   UNL     1     -11.551   8.140   9.961  1.00  0.00     0.031 C 
ATOM     56  C   UNL     1     -14.404   3.824   8.881  1.00  0.00     0.029 A 
ATOM     57  C   UNL     1     -14.921   5.103   8.987  1.00  0.00     0.049 A 
ATOM     58  H   UNL     1     -16.445   6.022   7.861  1.00  0.00     0.167 HD
ATOM     59  C   UNL     1     -13.431   6.798   9.764  1.00  0.00     0.074 A 
ATOM     60  C   UNL     1     -12.710   7.785  10.545  1.00  0.00     0.031 C 
ATOM     61  C   UNL     1     -14.650   6.199   9.903  1.00  0.00     0.037 A 
BRANCH  48  62
ATOM     62  C   UNL     1     -17.706   3.091   5.552  1.00  0.00     0.058 A 
ATOM     63  C   UNL     1     -17.856   1.885   6.275  1.00  0.00     0.135 A 
ATOM     64  C   UNL     1     -18.568   3.207   4.445  1.00  0.00     0.135 A 
ATOM     65  F   UNL     1     -17.209   1.671   7.429  1.00  0.00    -0.206 F 
ATOM     66  C   UNL     1     -18.672   0.832   5.851  1.00  0.00     0.059 A 
ATOM     67  C   UNL     1     -19.351   2.150   3.965  1.00  0.00     0.059 A 
ATOM     68  F   UNL     1     -18.739   4.376   3.815  1.00  0.00    -0.206 F 
ATOM     69  C   UNL     1     -19.382   0.954   4.666  1.00  0.00     0.060 A 
BRANCH  69  70
ATOM     70  S   UNL     1     -20.343  -0.450   4.071  1.00  0.00     0.124 S 
ATOM     71  O   UNL     1     -19.347  -1.517   4.045  1.00  0.00    -0.237 OA
ATOM     72  O   UNL     1     -21.374  -0.569   5.096  1.00  0.00    -0.237 OA
ATOM     73  O   UNL     1     -20.811  -0.010   2.760  1.00  0.00    -0.744 OA
ENDBRANCH  69  70
ENDBRANCH  48  62
BRANCH  49  74
ATOM     74  C   UNL     1      -9.847   8.565   7.163  1.00  0.00     0.058 A 
ATOM     75  C   UNL     1      -8.470   8.522   6.878  1.00  0.00     0.135 A 
ATOM     76  C   UNL     1     -10.620   9.536   6.511  1.00  0.00     0.135 A 
ATOM     77  F   UNL     1      -7.684   7.623   7.494  1.00  0.00    -0.206 F 
ATOM     78  C   UNL     1      -7.915   9.282   5.857  1.00  0.00     0.059 A 
ATOM     79  C   UNL     1     -10.081  10.317   5.487  1.00  0.00     0.059 A 
ATOM     80  F   UNL     1     -11.936   9.627   6.753  1.00  0.00    -0.206 F 
ATOM     81  C   UNL     1      -8.749  10.121   5.119  1.00  0.00     0.060 A 
BRANCH  81  82
ATOM     82  S   UNL     1      -8.108  10.776   3.560  1.00  0.00     0.124 S 
ATOM     83  O   UNL     1      -6.921  11.502   3.998  1.00  0.00    -0.237 OA
ATOM     84  O   UNL     1      -7.856   9.546   2.812  1.00  0.00    -0.237 OA
ATOM     85  O   UNL     1      -9.206  11.599   3.066  1.00  0.00    -0.744 OA
ENDBRANCH  81  82
ENDBRANCH  49  74
BRANCH  61  86
ATOM     86  C   UNL     1     -15.664   6.540  10.961  1.00  0.00     0.058 A 
ATOM     87  C   UNL     1     -15.903   7.847  11.417  1.00  0.00     0.135 A 
ATOM     88  C   UNL     1     -16.534   5.543  11.460  1.00  0.00     0.135 A 
ATOM     89  F   UNL     1     -15.201   8.886  10.939  1.00  0.00    -0.206 F 
ATOM     90  C   UNL     1     -16.898   8.141  12.351  1.00  0.00     0.059 A 
ATOM     91  C   UNL     1     -17.563   5.821  12.357  1.00  0.00     0.059 A 
ATOM     92  F   UNL     1     -16.409   4.261  11.084  1.00  0.00    -0.206 F 
ATOM     93  C   UNL     1     -17.723   7.121  12.817  1.00  0.00     0.060 A 
BRANCH  93  94
ATOM     94  S   UNL     1     -19.048   7.491  13.983  1.00  0.00     0.124 S 
ATOM     95  O   UNL     1     -18.407   7.189  15.259  1.00  0.00    -0.237 OA
ATOM     96  O   UNL     1     -19.320   8.904  13.735  1.00  0.00    -0.237 OA
ATOM     97  O   UNL     1     -20.110   6.577  13.574  1.00  0.00    -0.744 OA
ENDBRANCH  93  94
ENDBRANCH  61  86
ENDBRANCH  35  36
ENDBRANCH  27  30
ENDBRANCH  25  26
ENDBRANCH   1  25
TORSDOF 15
