REMARK SMILES C[C@H](CN(C)C(=O)c1ccc(F)c(F)c1F)C(=O)NCCCNC(=O)c1ccc(-c2c3nc(c(-c4c(F)cc(S(=O)(=O)[O-])cc4F)c4ccc([nH]4)c(-c4c(F)cc(S(=O)(=O)[O-])cc4F)c4nc(c(-c5c(F)cc(S(=O)(=O)[O-])cc5F)c5ccc2[nH]5)C=C4)C=C3)cc1
REMARK SMILES IDX 20 1 19 2 17 3 18 4 2 6 1 7 3 8 4 9 5 10 6 11 7 12 8 13 9 14
REMARK SMILES IDX 15 15 10 16 13 17 16 18 11 19 14 20 12 21 21 22 22 23 23 24
REMARK SMILES IDX 24 25 25 27 26 28 27 29 91 30 28 31 90 32 29 33 30 34 31 35
REMARK SMILES IDX 84 36 32 37 89 38 83 39 85 40 33 41 88 42 82 43 81 44 34 46
REMARK SMILES IDX 68 47 47 48 67 49 48 50 51 51 66 52 86 53 49 54 50 55 65 57
REMARK SMILES IDX 87 58 52 59 35 60 36 61 45 62 37 63 38 64 44 65 46 66 39 67
REMARK SMILES IDX 40 68 41 69 42 70 43 71 69 72 70 73 79 74 71 75 72 76 78 77
REMARK SMILES IDX 80 78 73 79 74 80 75 81 76 82 77 83 53 84 54 85 63 86 55 87
REMARK SMILES IDX 56 88 62 89 64 90 57 91 58 92 59 93 60 94 61 95
REMARK H PARENT 19 5 23 26 85 45 51 56
REMARK Flexibility Score: inf
ROOT
ATOM      1  C   UNL     1      -1.619  -1.375   1.500  1.00  0.00     0.117 C 
ENDROOT
BRANCH   1   2
ATOM      2  N   UNL     1      -1.677  -1.223   0.055  1.00  0.00    -0.356 N 
ATOM      3  C   UNL     1      -0.678  -1.127  -0.864  1.00  0.00     0.224 C 
ATOM      4  O   UNL     1      -1.005  -0.964  -2.044  1.00  0.00    -0.275 OA
ATOM      5  H   UNL     1      -2.587  -1.182  -0.319  1.00  0.00     0.163 HD
BRANCH   3   6
ATOM      6  C   UNL     1       0.801  -1.248  -0.493  1.00  0.00     0.095 C 
ATOM      7  C   UNL     1       1.136  -2.653   0.004  1.00  0.00     0.020 C 
BRANCH   6   8
ATOM      8  C   UNL     1       1.295  -0.043   0.337  1.00  0.00     0.132 C 
BRANCH   8   9
ATOM      9  N   UNL     1       2.066  -0.376   1.543  1.00  0.00    -0.341 N 
ATOM     10  C   UNL     1       3.479  -0.680   1.390  1.00  0.00     0.147 C 
BRANCH   9  11
ATOM     11  C   UNL     1       1.537  -0.025   2.780  1.00  0.00     0.256 C 
ATOM     12  O   UNL     1       0.622   0.778   2.929  1.00  0.00    -0.269 OA
BRANCH  11  13
ATOM     13  C   UNL     1       2.032  -0.671   4.002  1.00  0.00     0.079 A 
ATOM     14  C   UNL     1       2.721   0.093   4.951  1.00  0.00     0.020 A 
ATOM     15  C   UNL     1       1.572  -1.949   4.325  1.00  0.00     0.174 A 
ATOM     16  C   UNL     1       2.956  -0.439   6.222  1.00  0.00     0.043 A 
ATOM     17  C   UNL     1       1.801  -2.468   5.593  1.00  0.00     0.195 A 
ATOM     18  F   UNL     1       0.864  -2.670   3.444  1.00  0.00    -0.203 F 
ATOM     19  C   UNL     1       2.485  -1.713   6.537  1.00  0.00     0.161 A 
ATOM     20  F   UNL     1       1.335  -3.685   5.913  1.00  0.00    -0.200 F 
ATOM     21  F   UNL     1       2.679  -2.198   7.770  1.00  0.00    -0.204 F 
ENDBRANCH  11  13
ENDBRANCH   9  11
ENDBRANCH   8   9
ENDBRANCH   6   8
ENDBRANCH   3   6
ENDBRANCH   1   2
BRANCH   1  22
ATOM     22  C   UNL     1      -2.085  -0.121   2.232  1.00  0.00     0.042 C 
BRANCH  22  23
ATOM     23  C   UNL     1      -3.589  -0.045   2.443  1.00  0.00     0.118 C 
BRANCH  23  24
ATOM     24  N   UNL     1      -4.029  -0.938   3.509  1.00  0.00    -0.352 N 
ATOM     25  C   UNL     1      -4.324  -0.713   4.832  1.00  0.00     0.251 C 
ATOM     26  H   UNL     1      -4.133  -1.876   3.228  1.00  0.00     0.163 HD
ATOM     27  O   UNL     1      -4.390  -1.691   5.579  1.00  0.00    -0.269 OA
BRANCH  25  28
ATOM     28  C   UNL     1      -4.564   0.644   5.390  1.00  0.00     0.039 A 
ATOM     29  C   UNL     1      -4.304   0.863   6.750  1.00  0.00     0.014 A 
ATOM     30  C   UNL     1      -5.128   1.678   4.642  1.00  0.00     0.014 A 
ATOM     31  C   UNL     1      -4.571   2.108   7.334  1.00  0.00     0.010 A 
ATOM     32  C   UNL     1      -5.290   2.950   5.195  1.00  0.00     0.010 A 
ATOM     33  C   UNL     1      -5.039   3.177   6.554  1.00  0.00    -0.014 A 
BRANCH  33  34
ATOM     34  C   UNL     1      -5.299   4.521   7.146  1.00  0.00     0.031 A 
ATOM     35  C   UNL     1      -6.679   5.131   7.084  1.00  0.00     0.074 A 
ATOM     36  C   UNL     1      -4.283   5.221   7.690  1.00  0.00     0.049 A 
ATOM     37  N   UNL     1      -7.081   6.314   7.478  1.00  0.00    -0.248 NA
ATOM     38  C   UNL     1      -7.741   4.320   6.466  1.00  0.00     0.031 C 
ATOM     39  C   UNL     1      -2.889   4.776   7.756  1.00  0.00     0.029 A 
ATOM     40  N   UNL     1      -4.262   6.458   8.286  1.00  0.00    -0.354 N 
ATOM     41  C   UNL     1      -8.425   6.399   7.128  1.00  0.00     0.074 A 
ATOM     42  C   UNL     1      -8.758   5.169   6.444  1.00  0.00     0.031 C 
ATOM     43  C   UNL     1      -2.157   5.708   8.387  1.00  0.00     0.029 A 
ATOM     44  C   UNL     1      -3.019   6.833   8.738  1.00  0.00     0.049 A 
ATOM     45  H   UNL     1      -5.062   7.023   8.381  1.00  0.00     0.167 HD
ATOM     46  C   UNL     1      -9.310   7.396   7.376  1.00  0.00     0.037 A 
ATOM     47  C   UNL     1      -2.615   7.954   9.366  1.00  0.00     0.037 A 
ATOM     48  C   UNL     1      -8.988   8.597   8.102  1.00  0.00     0.049 A 
ATOM     49  C   UNL     1      -3.626   9.022   9.681  1.00  0.00     0.074 A 
ATOM     50  C   UNL     1      -9.827   9.638   8.464  1.00  0.00     0.029 A 
ATOM     51  N   UNL     1      -7.728   8.914   8.589  1.00  0.00    -0.354 N 
ATOM     52  N   UNL     1      -4.904   9.059   9.387  1.00  0.00    -0.248 NA
ATOM     53  C   UNL     1      -3.144  10.192  10.426  1.00  0.00     0.031 C 
ATOM     54  C   UNL     1      -9.067  10.597   9.143  1.00  0.00     0.029 A 
ATOM     55  C   UNL     1      -7.765  10.135   9.242  1.00  0.00     0.049 A 
ATOM     56  H   UNL     1      -6.926   8.353   8.485  1.00  0.00     0.167 HD
ATOM     57  C   UNL     1      -5.384  10.246   9.931  1.00  0.00     0.074 A 
ATOM     58  C   UNL     1      -4.262  10.887  10.586  1.00  0.00     0.031 C 
ATOM     59  C   UNL     1      -6.639  10.758   9.891  1.00  0.00     0.037 A 
BRANCH  46  60
ATOM     60  C   UNL     1     -10.719   7.222   6.870  1.00  0.00     0.058 A 
ATOM     61  C   UNL     1     -11.594   6.277   7.431  1.00  0.00     0.135 A 
ATOM     62  C   UNL     1     -11.211   8.029   5.830  1.00  0.00     0.135 A 
ATOM     63  F   UNL     1     -11.174   5.470   8.417  1.00  0.00    -0.206 F 
ATOM     64  C   UNL     1     -12.892   6.114   6.957  1.00  0.00     0.059 A 
ATOM     65  C   UNL     1     -12.516   7.902   5.360  1.00  0.00     0.059 A 
ATOM     66  F   UNL     1     -10.421   8.951   5.258  1.00  0.00    -0.206 F 
ATOM     67  C   UNL     1     -13.344   6.930   5.919  1.00  0.00     0.060 A 
BRANCH  67  68
ATOM     68  S   UNL     1     -15.031   6.706   5.317  1.00  0.00     0.124 S 
ATOM     69  O   UNL     1     -14.905   5.471   4.550  1.00  0.00    -0.237 OA
ATOM     70  O   UNL     1     -15.796   6.607   6.556  1.00  0.00    -0.237 OA
ATOM     71  O   UNL     1     -15.274   7.911   4.530  1.00  0.00    -0.744 OA
ENDBRANCH  67  68
ENDBRANCH  46  60
BRANCH  47  72
ATOM     72  C   UNL     1      -1.193   8.103   9.775  1.00  0.00     0.058 A 
ATOM     73  C   UNL     1      -0.820   8.021  11.125  1.00  0.00     0.135 A 
ATOM     74  C   UNL     1      -0.177   8.306   8.828  1.00  0.00     0.135 A 
ATOM     75  F   UNL     1      -1.756   7.833  12.068  1.00  0.00    -0.206 F 
ATOM     76  C   UNL     1       0.506   8.147  11.525  1.00  0.00     0.059 A 
ATOM     77  C   UNL     1       1.159   8.411   9.201  1.00  0.00     0.059 A 
ATOM     78  F   UNL     1      -0.479   8.374   7.522  1.00  0.00    -0.206 F 
ATOM     79  C   UNL     1       1.490   8.339  10.554  1.00  0.00     0.060 A 
BRANCH  79  80
ATOM     80  S   UNL     1       3.217   8.440  11.076  1.00  0.00     0.124 S 
ATOM     81  O   UNL     1       3.276   9.785  11.636  1.00  0.00    -0.237 OA
ATOM     82  O   UNL     1       3.315   7.343  12.034  1.00  0.00    -0.237 OA
ATOM     83  O   UNL     1       3.954   8.240   9.831  1.00  0.00    -0.744 OA
ENDBRANCH  79  80
ENDBRANCH  47  72
BRANCH  59  84
ATOM     84  C   UNL     1      -6.868  12.061  10.606  1.00  0.00     0.058 A 
ATOM     85  C   UNL     1      -6.375  13.275  10.103  1.00  0.00     0.135 A 
ATOM     86  C   UNL     1      -7.601  12.094  11.803  1.00  0.00     0.135 A 
ATOM     87  F   UNL     1      -5.665  13.297   8.964  1.00  0.00    -0.206 F 
ATOM     88  C   UNL     1      -6.566  14.473  10.784  1.00  0.00     0.059 A 
ATOM     89  C   UNL     1      -7.827  13.284  12.486  1.00  0.00     0.059 A 
ATOM     90  F   UNL     1      -8.105  10.962  12.319  1.00  0.00    -0.206 F 
ATOM     91  C   UNL     1      -7.289  14.466  11.979  1.00  0.00     0.060 A 
BRANCH  91  92
ATOM     92  S   UNL     1      -7.529  16.024  12.858  1.00  0.00     0.124 S 
ATOM     93  O   UNL     1      -6.223  16.213  13.481  1.00  0.00    -0.237 OA
ATOM     94  O   UNL     1      -7.855  16.949  11.777  1.00  0.00    -0.237 OA
ATOM     95  O   UNL     1      -8.627  15.730  13.774  1.00  0.00    -0.744 OA
ENDBRANCH  91  92
ENDBRANCH  59  84
ENDBRANCH  33  34
ENDBRANCH  25  28
ENDBRANCH  23  24
ENDBRANCH  22  23
ENDBRANCH   1  22
TORSDOF 17
