REMARK SMILES O=C(NCCCNC(=O)c1cc(S(=O)(=O)NNC(=O)[C@H]2C=C(c3ccccc3)N=N2)ccc1F)c1ccc(-c2c3nc(c(-c4c(F)cc(S(=O)(=O)[O-])cc4F)c4ccc([nH]4)c(-c4c(F)cc(S(=O)(=O)[O-])cc4F)c4nc(c(-c5c(F)cc(S(=O)(=O)[O-])cc5F)c5ccc2[nH]5)C=C4)C=C3)cc1
REMARK SMILES IDX 6 1 5 2 4 3 3 4 1 5 2 6 35 8 36 9 100 10 37 11 99 12 38 13
REMARK SMILES IDX 39 14 40 15 93 16 41 17 98 18 92 19 94 20 42 21 97 22 91 23
REMARK SMILES IDX 90 24 43 26 77 27 56 28 76 29 57 30 60 31 75 32 95 33 58 34
REMARK SMILES IDX 59 35 74 37 96 38 61 39 44 40 45 41 54 42 46 43 47 44 53 45
REMARK SMILES IDX 55 46 48 47 49 48 50 49 51 50 52 51 78 52 79 53 88 54 80 55
REMARK SMILES IDX 81 56 87 57 89 58 82 59 83 60 84 61 85 62 86 63 62 64 63 65
REMARK SMILES IDX 72 66 64 67 65 68 71 69 73 70 66 71 67 72 68 73 69 74 70 75
REMARK SMILES IDX 7 76 8 77 9 79 10 80 11 81 33 82 12 83 32 84 34 85 31 86
REMARK SMILES IDX 13 87 14 88 15 89 16 90 17 92 18 93 19 95 20 96 21 97 30 98
REMARK SMILES IDX 22 99 29 100 23 101 24 102 28 103 25 104 27 105 26 106
REMARK H PARENT 3 7 94 25 60 36 7 78 16 91 17 94
REMARK Flexibility Score: inf
ROOT
ATOM      1  C   UNL     1      13.299  19.311   7.831  1.00  0.00     0.118 C 
ENDROOT
BRANCH   1   2
ATOM      2  C   UNL     1      13.837  20.693   7.466  1.00  0.00     0.042 C 
BRANCH   2   3
ATOM      3  C   UNL     1      13.429  21.804   8.418  1.00  0.00     0.118 C 
BRANCH   3   4
ATOM      4  N   UNL     1      13.907  21.606   9.763  1.00  0.00    -0.352 N 
ATOM      5  O   UNL     1      14.796  21.970  11.728  1.00  0.00    -0.269 OA
ATOM      6  C   UNL     1      14.895  22.165  10.512  1.00  0.00     0.251 C 
ATOM      7  H   UNL     1      13.406  20.911  10.248  1.00  0.00     0.163 HD
BRANCH   6   8
ATOM      8  C   UNL     1      16.130  22.804   9.983  1.00  0.00     0.039 A 
ATOM      9  C   UNL     1      16.405  23.392   8.749  1.00  0.00     0.014 A 
ATOM     10  C   UNL     1      17.176  22.764  10.903  1.00  0.00     0.014 A 
ATOM     11  C   UNL     1      17.771  23.585   8.373  1.00  0.00     0.010 A 
ATOM     12  C   UNL     1      18.415  23.279  10.584  1.00  0.00     0.010 A 
ATOM     13  C   UNL     1      18.835  23.290   9.273  1.00  0.00    -0.014 A 
BRANCH  13  14
ATOM     14  C   UNL     1      20.305  23.628   9.096  1.00  0.00     0.031 A 
ATOM     15  C   UNL     1      20.302  25.143   8.743  1.00  0.00     0.074 A 
ATOM     16  C   UNL     1      21.428  22.791   9.313  1.00  0.00     0.049 A 
ATOM     17  N   UNL     1      20.447  25.624   7.549  1.00  0.00    -0.248 NA
ATOM     18  C   UNL     1      19.728  26.211   9.630  1.00  0.00     0.031 C 
ATOM     19  C   UNL     1      21.592  21.358   9.757  1.00  0.00     0.029 A 
ATOM     20  N   UNL     1      22.808  23.048   9.116  1.00  0.00    -0.354 N 
ATOM     21  C   UNL     1      20.444  27.019   7.660  1.00  0.00     0.074 A 
ATOM     22  C   UNL     1      19.775  27.319   8.878  1.00  0.00     0.031 C 
ATOM     23  C   UNL     1      22.890  21.055  10.107  1.00  0.00     0.029 A 
ATOM     24  C   UNL     1      23.764  22.173   9.791  1.00  0.00     0.049 A 
ATOM     25  H   UNL     1      23.111  23.790   8.545  1.00  0.00     0.167 HD
ATOM     26  C   UNL     1      21.268  27.759   6.867  1.00  0.00     0.037 A 
ATOM     27  C   UNL     1      25.170  22.221   9.799  1.00  0.00     0.037 A 
ATOM     28  C   UNL     1      21.736  26.916   5.796  1.00  0.00     0.049 A 
ATOM     29  C   UNL     1      25.518  23.165   8.700  1.00  0.00     0.074 A 
ATOM     30  C   UNL     1      21.115  26.286   4.737  1.00  0.00     0.029 A 
ATOM     31  N   UNL     1      22.808  26.140   6.153  1.00  0.00    -0.354 N 
ATOM     32  N   UNL     1      25.276  22.863   7.451  1.00  0.00    -0.248 NA
ATOM     33  C   UNL     1      25.432  24.572   9.087  1.00  0.00     0.031 C 
ATOM     34  C   UNL     1      21.631  24.955   4.732  1.00  0.00     0.029 A 
ATOM     35  C   UNL     1      22.696  24.881   5.626  1.00  0.00     0.049 A 
ATOM     36  H   UNL     1      23.557  26.447   6.713  1.00  0.00     0.167 HD
ATOM     37  C   UNL     1      24.520  23.932   7.005  1.00  0.00     0.074 A 
ATOM     38  C   UNL     1      24.620  24.940   8.089  1.00  0.00     0.031 C 
ATOM     39  C   UNL     1      23.572  23.801   6.024  1.00  0.00     0.037 A 
BRANCH  26  40
ATOM     40  C   UNL     1      21.988  29.027   7.275  1.00  0.00     0.058 A 
ATOM     41  C   UNL     1      22.294  29.386   8.609  1.00  0.00     0.135 A 
ATOM     42  C   UNL     1      22.615  29.809   6.284  1.00  0.00     0.135 A 
ATOM     43  F   UNL     1      21.868  28.649   9.645  1.00  0.00    -0.206 F 
ATOM     44  C   UNL     1      23.106  30.479   8.935  1.00  0.00     0.059 A 
ATOM     45  C   UNL     1      23.454  30.886   6.585  1.00  0.00     0.059 A 
ATOM     46  F   UNL     1      22.443  29.520   4.985  1.00  0.00    -0.206 F 
ATOM     47  C   UNL     1      23.679  31.228   7.913  1.00  0.00     0.060 A 
BRANCH  47  48
ATOM     48  S   UNL     1      24.701  32.658   8.336  1.00  0.00     0.124 S 
ATOM     49  O   UNL     1      23.747  33.502   9.048  1.00  0.00    -0.237 OA
ATOM     50  O   UNL     1      25.752  32.059   9.150  1.00  0.00    -0.237 OA
ATOM     51  O   UNL     1      25.128  33.166   7.035  1.00  0.00    -0.744 OA
ENDBRANCH  47  48
ENDBRANCH  26  40
BRANCH  27  52
ATOM     52  C   UNL     1      26.189  22.073  10.962  1.00  0.00     0.058 A 
ATOM     53  C   UNL     1      25.684  22.244  12.254  1.00  0.00     0.135 A 
ATOM     54  C   UNL     1      27.628  22.100  10.902  1.00  0.00     0.135 A 
ATOM     55  F   UNL     1      24.361  22.257  12.451  1.00  0.00    -0.206 F 
ATOM     56  C   UNL     1      26.480  22.503  13.376  1.00  0.00     0.059 A 
ATOM     57  C   UNL     1      28.464  22.335  12.042  1.00  0.00     0.059 A 
ATOM     58  F   UNL     1      28.270  21.937   9.731  1.00  0.00    -0.206 F 
ATOM     59  C   UNL     1      27.864  22.577  13.274  1.00  0.00     0.060 A 
BRANCH  59  60
ATOM     60  S   UNL     1      28.767  23.072  14.778  1.00  0.00     0.124 S 
ATOM     61  O   UNL     1      28.216  24.400  15.034  1.00  0.00    -0.237 OA
ATOM     62  O   UNL     1      28.364  22.038  15.728  1.00  0.00    -0.237 OA
ATOM     63  O   UNL     1      30.170  23.041  14.382  1.00  0.00    -0.744 OA
ENDBRANCH  59  60
ENDBRANCH  27  52
BRANCH  39  64
ATOM     64  C   UNL     1      23.412  22.496   5.256  1.00  0.00     0.058 A 
ATOM     65  C   UNL     1      23.724  22.553   3.893  1.00  0.00     0.135 A 
ATOM     66  C   UNL     1      22.783  21.308   5.697  1.00  0.00     0.135 A 
ATOM     67  F   UNL     1      24.228  23.684   3.376  1.00  0.00    -0.206 F 
ATOM     68  C   UNL     1      23.453  21.509   3.016  1.00  0.00     0.059 A 
ATOM     69  C   UNL     1      22.537  20.219   4.837  1.00  0.00     0.059 A 
ATOM     70  F   UNL     1      22.317  21.198   6.947  1.00  0.00    -0.206 F 
ATOM     71  C   UNL     1      22.881  20.334   3.493  1.00  0.00     0.060 A 
BRANCH  71  72
ATOM     72  S   UNL     1      22.610  18.994   2.310  1.00  0.00     0.124 S 
ATOM     73  O   UNL     1      21.646  19.588   1.388  1.00  0.00    -0.237 OA
ATOM     74  O   UNL     1      23.951  18.786   1.772  1.00  0.00    -0.237 OA
ATOM     75  O   UNL     1      22.091  17.902   3.128  1.00  0.00    -0.744 OA
ENDBRANCH  71  72
ENDBRANCH  39  64
ENDBRANCH  13  14
ENDBRANCH   6   8
ENDBRANCH   3   4
ENDBRANCH   2   3
ENDBRANCH   1   2
BRANCH   1  76
ATOM     76  N   UNL     1      11.842  19.217   7.784  1.00  0.00    -0.352 N 
ATOM     77  C   UNL     1      11.037  18.383   7.050  1.00  0.00     0.254 C 
ATOM     78  H   UNL     1      11.365  19.849   8.368  1.00  0.00     0.163 HD
ATOM     79  O   UNL     1       9.817  18.527   7.072  1.00  0.00    -0.269 OA
BRANCH  77  80
ATOM     80  C   UNL     1      11.616  17.347   6.179  1.00  0.00     0.076 A 
ATOM     81  C   UNL     1      11.097  17.200   4.891  1.00  0.00     0.038 A 
ATOM     82  C   UNL     1      12.627  16.490   6.617  1.00  0.00     0.136 A 
ATOM     83  C   UNL     1      11.671  16.259   4.035  1.00  0.00     0.085 A 
ATOM     84  C   UNL     1      13.238  15.601   5.741  1.00  0.00     0.041 A 
ATOM     85  F   UNL     1      13.046  16.509   7.890  1.00  0.00    -0.206 F 
ATOM     86  C   UNL     1      12.777  15.500   4.434  1.00  0.00     0.025 A 
BRANCH  83  87
ATOM     87  S   UNL     1      10.861  15.954   2.502  1.00  0.00     0.257 S 
ATOM     88  O   UNL     1       9.511  15.547   2.766  1.00  0.00    -0.205 OA
ATOM     89  O   UNL     1      11.175  17.060   1.603  1.00  0.00    -0.205 OA
BRANCH  87  90
ATOM     90  N   UNL     1      11.674  14.600   1.875  1.00  0.00    -0.123 NA
ATOM     91  H   UNL     1      12.671  14.754   2.020  1.00  0.00     0.167 HD
BRANCH  90  92
ATOM     92  N   UNL     1      11.361  13.301   2.412  1.00  0.00    -0.275 N 
ATOM     93  C   UNL     1      10.872  12.211   1.742  1.00  0.00     0.265 C 
ATOM     94  H   UNL     1      11.519  13.181   3.376  1.00  0.00     0.186 HD
ATOM     95  O   UNL     1      10.808  11.151   2.379  1.00  0.00    -0.271 OA
BRANCH  93  96
ATOM     96  C   UNL     1      10.367  12.278   0.281  1.00  0.00     0.244 C 
ATOM     97  C   UNL     1      10.400  13.572  -0.442  1.00  0.00     0.042 C 
ATOM     98  N   UNL     1      11.315  11.450  -0.518  1.00  0.00    -0.171 NA
ATOM     99  C   UNL     1      11.388  13.445  -1.329  1.00  0.00     0.091 C 
ATOM    100  N   UNL     1      11.891  12.173  -1.380  1.00  0.00    -0.155 NA
BRANCH  99 101
ATOM    101  C   UNL     1      12.007  14.562  -2.038  1.00  0.00     0.002 A 
ATOM    102  C   UNL     1      11.687  14.841  -3.367  1.00  0.00     0.010 A 
ATOM    103  C   UNL     1      12.943  15.377  -1.378  1.00  0.00     0.010 A 
ATOM    104  C   UNL     1      12.273  15.935  -4.012  1.00  0.00     0.001 A 
ATOM    105  C   UNL     1      13.493  16.491  -2.007  1.00  0.00     0.001 A 
ATOM    106  C   UNL     1      13.158  16.768  -3.327  1.00  0.00     0.000 A 
ENDBRANCH  99 101
ENDBRANCH  93  96
ENDBRANCH  90  92
ENDBRANCH  87  90
ENDBRANCH  83  87
ENDBRANCH  77  80
ENDBRANCH   1  76
TORSDOF 18
