REMARK SMILES CC[C@@H](C)[C@H](C(=O)NCCCNC(=O)c1ccc(-c2c3nc(c(-c4c(F)cc(S(=O)(=O)[O-])cc4F)c4ccc([nH]4)c(-c4c(F)cc(S(=O)(=O)[O-])cc4F)c4nc(c(-c5c(F)cc(S(=O)(=O)[O-])cc5F)c5ccc2[nH]5)C=C4)C=C3)cc1)N1C(=O)/C(=C/c2ccc3c(c2)OCO3)SC1=S
REMARK SMILES IDX 10 1 9 2 8 3 6 4 7 5 5 7 3 8 4 9 2 10 1 11 81 12 82 13 96 14
REMARK SMILES IDX 83 15 84 16 95 17 97 18 85 19 86 20 87 21 91 22 88 23 90 24
REMARK SMILES IDX 89 25 92 26 94 27 93 28 11 29 12 30 13 31 14 33 15 34 16 35
REMARK SMILES IDX 80 36 17 37 79 38 18 39 19 40 20 41 73 42 21 43 78 44 72 45
REMARK SMILES IDX 74 46 22 47 77 48 71 49 70 50 23 52 57 53 36 54 56 55 37 56
REMARK SMILES IDX 40 57 55 58 75 59 38 60 39 61 54 63 76 64 41 65 24 66 25 67
REMARK SMILES IDX 34 68 26 69 27 70 33 71 35 72 28 73 29 74 30 75 31 76 32 77
REMARK SMILES IDX 58 78 59 79 68 80 60 81 61 82 67 83 69 84 62 85 63 86 64 87
REMARK SMILES IDX 65 88 66 89 42 90 43 91 52 92 44 93 45 94 51 95 53 96 46 97
REMARK SMILES IDX 47 98 48 99 49 100 50 101
REMARK H PARENT 8 6 12 32 74 51 40 62
REMARK Flexibility Score: inf
ROOT
ATOM      1  C   UNL     1       2.079   2.011   1.583  1.00  0.00     0.042 C 
ENDROOT
BRANCH   1   2
ATOM      2  C   UNL     1       2.522   2.267   0.144  1.00  0.00     0.117 C 
BRANCH   2   3
ATOM      3  N   UNL     1       1.662   1.562  -0.790  1.00  0.00    -0.354 N 
ATOM      4  C   UNL     1       0.620   1.946  -1.577  1.00  0.00     0.243 C 
ATOM      5  O   UNL     1      -0.142   1.034  -1.931  1.00  0.00    -0.273 OA
ATOM      6  H   UNL     1       1.879   0.605  -0.872  1.00  0.00     0.163 HD
BRANCH   4   7
ATOM      7  C   UNL     1       0.423   3.361  -2.194  1.00  0.00     0.184 C 
BRANCH   7   8
ATOM      8  C   UNL     1       0.593   4.604  -1.250  1.00  0.00     0.018 C 
ATOM      9  C   UNL     1       1.999   5.227  -1.333  1.00  0.00     0.010 C 
BRANCH   8  10
ATOM     10  C   UNL     1      -0.071   4.395   0.129  1.00  0.00     0.002 C 
ATOM     11  C   UNL     1       0.324   5.389   1.206  1.00  0.00     0.004 C 
ENDBRANCH   8  10
ENDBRANCH   7   8
BRANCH   7  12
ATOM     12  N   UNL     1       0.980   3.584  -3.574  1.00  0.00    -0.280 N 
ATOM     13  C   UNL     1       0.623   4.771  -4.200  1.00  0.00     0.266 C 
ATOM     14  C   UNL     1       1.681   2.702  -4.386  1.00  0.00     0.149 C 
ATOM     15  O   UNL     1      -0.216   5.588  -3.822  1.00  0.00    -0.268 OA
ATOM     16  C   UNL     1       1.306   4.933  -5.492  1.00  0.00     0.081 C 
ATOM     17  S   UNL     1       2.009   3.451  -5.956  1.00  0.00    -0.054 SA
ATOM     18  S   UNL     1       2.260   1.159  -4.137  1.00  0.00    -0.052 S 
ATOM     19  C   UNL     1       1.237   6.083  -6.176  1.00  0.00     0.029 C 
BRANCH  19  20
ATOM     20  C   UNL     1       1.537   6.122  -7.603  1.00  0.00    -0.020 A 
ATOM     21  C   UNL     1       2.833   6.333  -8.110  1.00  0.00     0.012 A 
ATOM     22  C   UNL     1       0.487   5.738  -8.448  1.00  0.00     0.058 A 
ATOM     23  C   UNL     1       3.099   6.100  -9.465  1.00  0.00     0.051 A 
ATOM     24  C   UNL     1       0.791   5.473  -9.757  1.00  0.00     0.166 A 
ATOM     25  C   UNL     1       2.064   5.635 -10.251  1.00  0.00     0.165 A 
ATOM     26  O   UNL     1      -0.070   4.958 -10.673  1.00  0.00    -0.454 OA
ATOM     27  O   UNL     1       2.155   5.232 -11.548  1.00  0.00    -0.454 OA
ATOM     28  C   UNL     1       0.857   4.622 -11.722  1.00  0.00     0.468 C 
ENDBRANCH  19  20
ENDBRANCH   7  12
ENDBRANCH   4   7
ENDBRANCH   2   3
ENDBRANCH   1   2
BRANCH   1  29
ATOM     29  C   UNL     1       2.776   0.818   2.210  1.00  0.00     0.118 C 
BRANCH  29  30
ATOM     30  N   UNL     1       4.152   1.136   2.560  1.00  0.00    -0.352 N 
ATOM     31  C   UNL     1       4.717   1.458   3.770  1.00  0.00     0.251 C 
ATOM     32  H   UNL     1       4.783   1.116   1.805  1.00  0.00     0.163 HD
ATOM     33  O   UNL     1       5.825   1.992   3.774  1.00  0.00    -0.269 OA
BRANCH  31  34
ATOM     34  C   UNL     1       4.026   1.180   5.053  1.00  0.00     0.039 A 
ATOM     35  C   UNL     1       4.274   2.017   6.147  1.00  0.00     0.014 A 
ATOM     36  C   UNL     1       3.209   0.060   5.223  1.00  0.00     0.014 A 
ATOM     37  C   UNL     1       3.685   1.746   7.386  1.00  0.00     0.010 A 
ATOM     38  C   UNL     1       2.534  -0.145   6.424  1.00  0.00     0.010 A 
ATOM     39  C   UNL     1       2.792   0.673   7.531  1.00  0.00    -0.014 A 
BRANCH  39  40
ATOM     40  C   UNL     1       2.158   0.365   8.840  1.00  0.00     0.031 A 
ATOM     41  C   UNL     1       2.407  -0.961   9.513  1.00  0.00     0.074 A 
ATOM     42  C   UNL     1       1.310   1.254   9.393  1.00  0.00     0.049 A 
ATOM     43  N   UNL     1       1.916  -1.426  10.634  1.00  0.00    -0.248 NA
ATOM     44  C   UNL     1       3.293  -1.908   8.815  1.00  0.00     0.031 C 
ATOM     45  C   UNL     1       0.918   2.533   8.796  1.00  0.00     0.029 A 
ATOM     46  N   UNL     1       0.616   1.213  10.575  1.00  0.00    -0.354 N 
ATOM     47  C   UNL     1       2.402  -2.724  10.755  1.00  0.00     0.074 A 
ATOM     48  C   UNL     1       3.184  -2.992   9.568  1.00  0.00     0.031 C 
ATOM     49  C   UNL     1       0.074   3.165   9.626  1.00  0.00     0.029 A 
ATOM     50  C   UNL     1      -0.155   2.328  10.800  1.00  0.00     0.049 A 
ATOM     51  H   UNL     1       0.665   0.456  11.203  1.00  0.00     0.167 HD
ATOM     52  C   UNL     1       2.236  -3.603  11.772  1.00  0.00     0.037 A 
ATOM     53  C   UNL     1      -0.954   2.644  11.837  1.00  0.00     0.037 A 
ATOM     54  C   UNL     1       1.502  -3.307  12.974  1.00  0.00     0.049 A 
ATOM     55  C   UNL     1      -1.050   1.695  12.997  1.00  0.00     0.074 A 
ATOM     56  C   UNL     1       1.356  -4.084  14.110  1.00  0.00     0.029 A 
ATOM     57  N   UNL     1       0.789  -2.137  13.196  1.00  0.00    -0.354 N 
ATOM     58  N   UNL     1      -0.508   0.508  13.137  1.00  0.00    -0.248 NA
ATOM     59  C   UNL     1      -1.849   2.134  14.148  1.00  0.00     0.031 C 
ATOM     60  C   UNL     1       0.527  -3.397  15.006  1.00  0.00     0.029 A 
ATOM     61  C   UNL     1       0.188  -2.176  14.443  1.00  0.00     0.049 A 
ATOM     62  H   UNL     1       0.722  -1.389  12.560  1.00  0.00     0.167 HD
ATOM     63  C   UNL     1      -0.895   0.059  14.394  1.00  0.00     0.074 A 
ATOM     64  C   UNL     1      -1.693   1.117  14.984  1.00  0.00     0.031 C 
ATOM     65  C   UNL     1      -0.618  -1.120  15.004  1.00  0.00     0.037 A 
BRANCH  52  66
ATOM     66  C   UNL     1       2.866  -4.963  11.625  1.00  0.00     0.058 A 
ATOM     67  C   UNL     1       4.259  -5.143  11.650  1.00  0.00     0.135 A 
ATOM     68  C   UNL     1       2.065  -6.105  11.454  1.00  0.00     0.135 A 
ATOM     69  F   UNL     1       5.074  -4.086  11.797  1.00  0.00    -0.206 F 
ATOM     70  C   UNL     1       4.837  -6.395  11.465  1.00  0.00     0.059 A 
ATOM     71  C   UNL     1       2.621  -7.372  11.295  1.00  0.00     0.059 A 
ATOM     72  F   UNL     1       0.728  -5.995  11.424  1.00  0.00    -0.206 F 
ATOM     73  C   UNL     1       4.009  -7.503  11.280  1.00  0.00     0.060 A 
BRANCH  73  74
ATOM     74  S   UNL     1       4.772  -9.119  11.017  1.00  0.00     0.124 S 
ATOM     75  O   UNL     1       5.214  -9.008   9.630  1.00  0.00    -0.237 OA
ATOM     76  O   UNL     1       5.832  -9.134  12.020  1.00  0.00    -0.237 OA
ATOM     77  O   UNL     1       3.676 -10.054  11.254  1.00  0.00    -0.744 OA
ENDBRANCH  73  74
ENDBRANCH  52  66
BRANCH  53  78
ATOM     78  C   UNL     1      -1.682   3.939  11.830  1.00  0.00     0.058 A 
ATOM     79  C   UNL     1      -1.265   5.007  12.637  1.00  0.00     0.135 A 
ATOM     80  C   UNL     1      -2.769   4.155  10.968  1.00  0.00     0.135 A 
ATOM     81  F   UNL     1      -0.232   4.847  13.479  1.00  0.00    -0.206 F 
ATOM     82  C   UNL     1      -1.898   6.245  12.592  1.00  0.00     0.059 A 
ATOM     83  C   UNL     1      -3.405   5.390  10.890  1.00  0.00     0.059 A 
ATOM     84  F   UNL     1      -3.192   3.170  10.161  1.00  0.00    -0.206 F 
ATOM     85  C   UNL     1      -2.963   6.429  11.709  1.00  0.00     0.060 A 
BRANCH  85  86
ATOM     86  S   UNL     1      -3.719   8.065  11.590  1.00  0.00     0.124 S 
ATOM     87  O   UNL     1      -4.515   8.111  12.810  1.00  0.00    -0.237 OA
ATOM     88  O   UNL     1      -2.552   8.941  11.555  1.00  0.00    -0.237 OA
ATOM     89  O   UNL     1      -4.474   7.994  10.342  1.00  0.00    -0.744 OA
ENDBRANCH  85  86
ENDBRANCH  53  78
BRANCH  65  90
ATOM     90  C   UNL     1      -1.187  -1.321  16.381  1.00  0.00     0.058 A 
ATOM     91  C   UNL     1      -2.557  -1.552  16.581  1.00  0.00     0.135 A 
ATOM     92  C   UNL     1      -0.353  -1.293  17.509  1.00  0.00     0.135 A 
ATOM     93  F   UNL     1      -3.396  -1.585  15.534  1.00  0.00    -0.206 F 
ATOM     94  C   UNL     1      -3.088  -1.706  17.856  1.00  0.00     0.059 A 
ATOM     95  C   UNL     1      -0.858  -1.471  18.793  1.00  0.00     0.059 A 
ATOM     96  F   UNL     1       0.967  -1.090  17.371  1.00  0.00    -0.206 F 
ATOM     97  C   UNL     1      -2.231  -1.657  18.957  1.00  0.00     0.060 A 
BRANCH  97  98
ATOM     98  S   UNL     1      -2.929  -1.850  20.611  1.00  0.00     0.124 S 
ATOM     99  O   UNL     1      -3.508  -0.530  20.838  1.00  0.00    -0.237 OA
ATOM    100  O   UNL     1      -3.883  -2.938  20.426  1.00  0.00    -0.237 OA
ATOM    101  O   UNL     1      -1.767  -2.177  21.432  1.00  0.00    -0.744 OA
ENDBRANCH  97  98
ENDBRANCH  65  90
ENDBRANCH  39  40
ENDBRANCH  31  34
ENDBRANCH  29  30
ENDBRANCH   1  29
TORSDOF 17
