REMARK SMILES CCN(CCOC)C(=O)c1cccn1CC(=O)NCCCNC(=O)c1ccc(-c2c3nc(c(-c4c(F)cc(S(=O)(=O)[O-])cc4F)c4ccc([nH]4)c(-c4c(F)cc(S(=O)(=O)[O-])cc4F)c4nc(c(-c5c(F)cc(S(=O)(=O)[O-])cc5F)c5ccc2[nH]5)C=C4)C=C3)cc1
REMARK SMILES IDX 16 1 17 2 18 3 15 5 14 6 10 7 11 8 12 9 13 10 8 11 9 12 3 13
REMARK SMILES IDX 2 14 1 15 4 16 5 17 6 18 7 19 19 20 20 21 21 22 22 23 23 24
REMARK SMILES IDX 24 26 25 27 26 28 90 29 27 30 89 31 28 32 29 33 30 34 83 35
REMARK SMILES IDX 31 36 88 37 82 38 84 39 32 40 87 41 81 42 80 43 33 45 67 46
REMARK SMILES IDX 46 47 66 48 47 49 50 50 65 51 85 52 48 53 49 54 64 56 86 57
REMARK SMILES IDX 51 58 34 59 35 60 44 61 36 62 37 63 43 64 45 65 38 66 39 67
REMARK SMILES IDX 40 68 41 69 42 70 68 71 69 72 78 73 70 74 71 75 77 76 79 77
REMARK SMILES IDX 72 78 73 79 74 80 75 81 76 82 52 83 53 84 62 85 54 86 55 87
REMARK SMILES IDX 61 88 63 89 56 90 57 91 58 92 59 93 60 94
REMARK H PARENT 18 4 22 25 84 44 50 55
REMARK Flexibility Score: inf
ROOT
ATOM      1  C   UNL     1       4.947  -0.508   4.290  1.00  0.00     0.239 C 
ATOM      2  O   UNL     1       5.981  -0.294   4.925  1.00  0.00    -0.273 OA
ATOM      3  N   UNL     1       3.791   0.096   4.704  1.00  0.00    -0.354 N 
ATOM      4  H   UNL     1       3.868   0.649   5.516  1.00  0.00     0.163 HD
ENDROOT
BRANCH   1   5
ATOM      5  C   UNL     1       4.955  -1.381   3.049  1.00  0.00     0.222 C 
BRANCH   5   6
ATOM      6  N   UNL     1       4.265  -2.647   3.262  1.00  0.00    -0.334 N 
ATOM      7  C   UNL     1       3.114  -3.101   2.617  1.00  0.00     0.107 A 
ATOM      8  C   UNL     1       2.747  -4.245   3.322  1.00  0.00     0.033 A 
ATOM      9  C   UNL     1       3.717  -4.527   4.310  1.00  0.00     0.020 A 
ATOM     10  C   UNL     1       4.670  -3.550   4.216  1.00  0.00     0.087 A 
BRANCH   7  11
ATOM     11  C   UNL     1       2.550  -2.446   1.434  1.00  0.00     0.270 C 
ATOM     12  O   UNL     1       3.306  -1.901   0.626  1.00  0.00    -0.267 OA
BRANCH  11  13
ATOM     13  N   UNL     1       1.164  -2.377   1.198  1.00  0.00    -0.335 N 
BRANCH  13  14
ATOM     14  C   UNL     1       0.715  -1.616   0.023  1.00  0.00     0.116 C 
ATOM     15  C   UNL     1       0.890  -0.109   0.167  1.00  0.00     0.027 C 
ENDBRANCH  13  14
BRANCH  13  16
ATOM     16  C   UNL     1       0.126  -3.145   1.892  1.00  0.00     0.148 C 
BRANCH  16  17
ATOM     17  C   UNL     1      -0.258  -4.446   1.153  1.00  0.00     0.181 C 
BRANCH  17  18
ATOM     18  O   UNL     1       0.758  -5.446   1.192  1.00  0.00    -0.383 OA
ATOM     19  C   UNL     1       1.710  -5.371   0.138  1.00  0.00     0.194 C 
ENDBRANCH  17  18
ENDBRANCH  16  17
ENDBRANCH  13  16
ENDBRANCH  11  13
ENDBRANCH   7  11
ENDBRANCH   5   6
ENDBRANCH   1   5
BRANCH   3  20
ATOM     20  C   UNL     1       2.466   0.036   4.113  1.00  0.00     0.117 C 
BRANCH  20  21
ATOM     21  C   UNL     1       1.567  -1.009   4.780  1.00  0.00     0.042 C 
BRANCH  21  22
ATOM     22  C   UNL     1       0.983  -0.532   6.102  1.00  0.00     0.118 C 
BRANCH  22  23
ATOM     23  N   UNL     1      -0.049   0.468   5.876  1.00  0.00    -0.352 N 
ATOM     24  C   UNL     1      -0.800   1.213   6.748  1.00  0.00     0.251 C 
ATOM     25  H   UNL     1      -0.243   0.640   4.926  1.00  0.00     0.163 HD
ATOM     26  O   UNL     1      -1.825   1.728   6.319  1.00  0.00    -0.269 OA
BRANCH  24  27
ATOM     27  C   UNL     1      -0.433   1.388   8.174  1.00  0.00     0.039 A 
ATOM     28  C   UNL     1      -1.478   1.630   9.081  1.00  0.00     0.014 A 
ATOM     29  C   UNL     1       0.889   1.396   8.627  1.00  0.00     0.014 A 
ATOM     30  C   UNL     1      -1.210   1.794  10.435  1.00  0.00     0.010 A 
ATOM     31  C   UNL     1       1.162   1.524   9.982  1.00  0.00     0.010 A 
ATOM     32  C   UNL     1       0.108   1.696  10.884  1.00  0.00    -0.014 A 
BRANCH  32  33
ATOM     33  C   UNL     1       0.394   1.617  12.331  1.00  0.00     0.031 A 
ATOM     34  C   UNL     1       0.231   0.171  12.882  1.00  0.00     0.074 A 
ATOM     35  C   UNL     1       0.782   2.796  12.902  1.00  0.00     0.049 A 
ATOM     36  N   UNL     1       0.076  -0.278  14.095  1.00  0.00    -0.248 NA
ATOM     37  C   UNL     1       0.167  -0.951  11.896  1.00  0.00     0.031 C 
ATOM     38  C   UNL     1       0.867   4.101  12.205  1.00  0.00     0.029 A 
ATOM     39  N   UNL     1       1.182   3.147  14.165  1.00  0.00    -0.354 N 
ATOM     40  C   UNL     1       0.092  -1.695  14.034  1.00  0.00     0.074 A 
ATOM     41  C   UNL     1       0.050  -2.046  12.648  1.00  0.00     0.031 C 
ATOM     42  C   UNL     1       1.192   5.090  13.066  1.00  0.00     0.029 A 
ATOM     43  C   UNL     1       1.371   4.538  14.391  1.00  0.00     0.049 A 
ATOM     44  H   UNL     1       1.329   2.478  14.872  1.00  0.00     0.167 HD
ATOM     45  C   UNL     1       0.278  -2.513  15.112  1.00  0.00     0.037 A 
ATOM     46  C   UNL     1       1.573   5.181  15.586  1.00  0.00     0.037 A 
ATOM     47  C   UNL     1       0.464  -1.758  16.305  1.00  0.00     0.049 A 
ATOM     48  C   UNL     1       1.625   4.085  16.567  1.00  0.00     0.074 A 
ATOM     49  C   UNL     1      -0.296  -1.361  17.376  1.00  0.00     0.029 A 
ATOM     50  N   UNL     1       1.730  -1.270  16.483  1.00  0.00    -0.354 N 
ATOM     51  N   UNL     1       2.609   3.253  16.714  1.00  0.00    -0.248 NA
ATOM     52  C   UNL     1       0.361   3.737  17.210  1.00  0.00     0.031 C 
ATOM     53  C   UNL     1       0.523  -0.477  18.124  1.00  0.00     0.029 A 
ATOM     54  C   UNL     1       1.639  -0.208  17.339  1.00  0.00     0.049 A 
ATOM     55  H   UNL     1       2.554  -1.619  16.071  1.00  0.00     0.167 HD
ATOM     56  C   UNL     1       2.019   2.138  17.265  1.00  0.00     0.074 A 
ATOM     57  C   UNL     1       0.658   2.512  17.624  1.00  0.00     0.031 C 
ATOM     58  C   UNL     1       2.530   0.891  17.108  1.00  0.00     0.037 A 
BRANCH  45  59
ATOM     59  C   UNL     1       0.642  -3.987  15.236  1.00  0.00     0.058 A 
ATOM     60  C   UNL     1       0.403  -4.610  16.488  1.00  0.00     0.135 A 
ATOM     61  C   UNL     1       1.579  -4.628  14.409  1.00  0.00     0.135 A 
ATOM     62  F   UNL     1      -0.557  -4.151  17.308  1.00  0.00    -0.206 F 
ATOM     63  C   UNL     1       1.189  -5.649  16.977  1.00  0.00     0.059 A 
ATOM     64  C   UNL     1       2.340  -5.719  14.857  1.00  0.00     0.059 A 
ATOM     65  F   UNL     1       1.841  -4.163  13.179  1.00  0.00    -0.206 F 
ATOM     66  C   UNL     1       2.192  -6.167  16.171  1.00  0.00     0.060 A 
BRANCH  66  67
ATOM     67  S   UNL     1       3.313  -7.397  16.877  1.00  0.00     0.124 S 
ATOM     68  O   UNL     1       4.236  -6.560  17.634  1.00  0.00    -0.237 OA
ATOM     69  O   UNL     1       2.413  -8.224  17.677  1.00  0.00    -0.237 OA
ATOM     70  O   UNL     1       3.869  -8.056  15.699  1.00  0.00    -0.744 OA
ENDBRANCH  66  67
ENDBRANCH  45  59
BRANCH  46  71
ATOM     71  C   UNL     1       1.472   6.593  16.120  1.00  0.00     0.058 A 
ATOM     72  C   UNL     1       1.381   7.764  15.357  1.00  0.00     0.135 A 
ATOM     73  C   UNL     1       1.306   6.797  17.521  1.00  0.00     0.135 A 
ATOM     74  F   UNL     1       1.678   7.765  14.052  1.00  0.00    -0.206 F 
ATOM     75  C   UNL     1       0.969   8.993  15.906  1.00  0.00     0.059 A 
ATOM     76  C   UNL     1       0.866   7.993  18.085  1.00  0.00     0.059 A 
ATOM     77  F   UNL     1       1.516   5.809  18.403  1.00  0.00    -0.206 F 
ATOM     78  C   UNL     1       0.655   9.082  17.261  1.00  0.00     0.060 A 
BRANCH  78  79
ATOM     79  S   UNL     1      -0.158  10.552  17.927  1.00  0.00     0.124 S 
ATOM     80  O   UNL     1       0.977  11.410  18.247  1.00  0.00    -0.237 OA
ATOM     81  O   UNL     1      -0.990  10.988  16.809  1.00  0.00    -0.237 OA
ATOM     82  O   UNL     1      -0.899  10.031  19.073  1.00  0.00    -0.744 OA
ENDBRANCH  78  79
ENDBRANCH  46  71
BRANCH  58  83
ATOM     83  C   UNL     1       3.806   0.806  16.299  1.00  0.00     0.058 A 
ATOM     84  C   UNL     1       5.056   1.013  16.886  1.00  0.00     0.135 A 
ATOM     85  C   UNL     1       3.801   0.562  14.908  1.00  0.00     0.135 A 
ATOM     86  F   UNL     1       5.143   1.269  18.200  1.00  0.00    -0.206 F 
ATOM     87  C   UNL     1       6.238   0.949  16.139  1.00  0.00     0.059 A 
ATOM     88  C   UNL     1       4.962   0.477  14.142  1.00  0.00     0.059 A 
ATOM     89  F   UNL     1       2.647   0.367  14.262  1.00  0.00    -0.206 F 
ATOM     90  C   UNL     1       6.183   0.673  14.769  1.00  0.00     0.060 A 
BRANCH  90  91
ATOM     91  S   UNL     1       7.721   0.562  13.826  1.00  0.00     0.124 S 
ATOM     92  O   UNL     1       8.280   1.900  13.987  1.00  0.00    -0.237 OA
ATOM     93  O   UNL     1       8.430  -0.508  14.519  1.00  0.00    -0.237 OA
ATOM     94  O   UNL     1       7.273   0.237  12.473  1.00  0.00    -0.744 OA
ENDBRANCH  90  91
ENDBRANCH  58  83
ENDBRANCH  32  33
ENDBRANCH  24  27
ENDBRANCH  22  23
ENDBRANCH  21  22
ENDBRANCH  20  21
ENDBRANCH   3  20
TORSDOF 20
