REMARK SMILES CNc1nc(C(=O)N2C[C@@H](C(=O)NCCCNC(=O)c3ccc(-c4c5nc(c(-c6c(F)cc(S(=O)(=O)[O-])cc6F)c6ccc([nH]6)c(-c6c(F)cc(S(=O)(=O)[O-])cc6F)c6nc(c(-c7c(F)cc(S(=O)(=O)[O-])cc7F)c7ccc4[nH]7)C=C6)C=C5)cc3)[C@H](c3ccccc3C)C2)cs1
REMARK SMILES IDX 15 1 14 2 13 3 11 4 12 5 10 7 8 8 9 9 94 10 86 11 6 12 7 13
REMARK SMILES IDX 5 14 3 15 4 16 96 17 95 18 2 19 1 20 87 22 88 23 92 24 89 25
REMARK SMILES IDX 91 26 93 27 90 28 16 29 17 30 18 31 19 33 20 34 21 35 85 36
REMARK SMILES IDX 22 37 84 38 23 39 24 40 25 41 78 42 26 43 83 44 77 45 79 46
REMARK SMILES IDX 27 47 82 48 76 49 75 50 28 52 62 53 41 54 61 55 42 56 45 57
REMARK SMILES IDX 60 58 80 59 43 60 44 61 59 63 81 64 46 65 29 66 30 67 39 68
REMARK SMILES IDX 31 69 32 70 38 71 40 72 33 73 34 74 35 75 36 76 37 77 63 78
REMARK SMILES IDX 64 79 73 80 65 81 66 82 72 83 74 84 67 85 68 86 69 87 70 88
REMARK SMILES IDX 71 89 47 90 48 91 57 92 49 93 50 94 56 95 58 96 51 97 52 98
REMARK SMILES IDX 53 99 54 100 55 101
REMARK H PARENT 13 6 2 21 17 32 79 51 45 62
REMARK Flexibility Score: inf
ROOT
ATOM      1  C   UNL     1      -4.417   1.876  -0.292  1.00  0.00     0.042 C 
ENDROOT
BRANCH   1   2
ATOM      2  C   UNL     1      -3.587   1.473   0.926  1.00  0.00     0.117 C 
BRANCH   2   3
ATOM      3  N   UNL     1      -4.460   0.954   1.965  1.00  0.00    -0.356 N 
ATOM      4  C   UNL     1      -4.719  -0.340   2.307  1.00  0.00     0.225 C 
ATOM      5  O   UNL     1      -5.737  -0.570   2.959  1.00  0.00    -0.275 OA
ATOM      6  H   UNL     1      -4.934   1.634   2.497  1.00  0.00     0.163 HD
BRANCH   4   7
ATOM      7  C   UNL     1      -3.724  -1.415   1.924  1.00  0.00     0.107 C 
ATOM      8  N   UNL     1      -3.560  -3.141   0.383  1.00  0.00    -0.336 N 
ATOM      9  C   UNL     1      -3.986  -1.774   0.469  1.00  0.00     0.134 C 
ATOM     10  C   UNL     1      -3.973  -3.834   1.581  1.00  0.00     0.129 C 
ATOM     11  C   UNL     1      -3.901  -2.757   2.722  1.00  0.00     0.053 C 
BRANCH   8  12
ATOM     12  C   UNL     1      -2.850  -3.732  -0.645  1.00  0.00     0.273 C 
ATOM     13  O   UNL     1      -2.871  -4.944  -0.845  1.00  0.00    -0.267 OA
BRANCH  12  14
ATOM     14  C   UNL     1      -1.984  -2.842  -1.435  1.00  0.00     0.141 A 
ATOM     15  C   UNL     1      -0.454  -1.234  -1.679  1.00  0.00     0.183 A 
ATOM     16  N   UNL     1      -1.279  -1.794  -0.830  1.00  0.00    -0.215 NA
ATOM     17  S   UNL     1      -0.562  -1.834  -3.289  1.00  0.00    -0.105 S 
ATOM     18  C   UNL     1      -1.695  -3.013  -2.775  1.00  0.00     0.102 A 
BRANCH  15  19
ATOM     19  N   UNL     1       0.450  -0.287  -1.363  1.00  0.00    -0.365 N 
ATOM     20  C   UNL     1       0.712   0.063   0.010  1.00  0.00     0.142 C 
ATOM     21  H   UNL     1       0.940   0.174  -2.082  1.00  0.00     0.162 HD
ENDBRANCH  15  19
ENDBRANCH  12  14
ENDBRANCH   8  12
BRANCH  11  22
ATOM     22  C   UNL     1      -2.885  -2.983   3.873  1.00  0.00    -0.039 A 
ATOM     23  C   UNL     1      -2.086  -4.148   3.897  1.00  0.00     0.004 A 
ATOM     24  C   UNL     1      -2.779  -2.129   5.009  1.00  0.00    -0.048 A 
ATOM     25  C   UNL     1      -1.262  -4.481   4.981  1.00  0.00     0.000 A 
ATOM     26  C   UNL     1      -1.939  -2.485   6.091  1.00  0.00     0.004 A 
ATOM     27  C   UNL     1      -3.567  -0.867   5.233  1.00  0.00     0.044 C 
ATOM     28  C   UNL     1      -1.191  -3.652   6.083  1.00  0.00     0.000 A 
ENDBRANCH  11  22
ENDBRANCH   4   7
ENDBRANCH   2   3
ENDBRANCH   1   2
BRANCH   1  29
ATOM     29  C   UNL     1      -5.305   3.092  -0.030  1.00  0.00     0.118 C 
BRANCH  29  30
ATOM     30  N   UNL     1      -4.525   4.309   0.143  1.00  0.00    -0.352 N 
ATOM     31  C   UNL     1      -4.667   5.520  -0.485  1.00  0.00     0.251 C 
ATOM     32  H   UNL     1      -3.796   4.255   0.803  1.00  0.00     0.163 HD
ATOM     33  O   UNL     1      -3.791   6.372  -0.375  1.00  0.00    -0.269 OA
BRANCH  31  34
ATOM     34  C   UNL     1      -5.869   5.784  -1.304  1.00  0.00     0.039 A 
ATOM     35  C   UNL     1      -5.714   6.353  -2.570  1.00  0.00     0.014 A 
ATOM     36  C   UNL     1      -7.143   5.476  -0.817  1.00  0.00     0.014 A 
ATOM     37  C   UNL     1      -6.837   6.563  -3.373  1.00  0.00     0.010 A 
ATOM     38  C   UNL     1      -8.253   5.630  -1.643  1.00  0.00     0.010 A 
ATOM     39  C   UNL     1      -8.111   6.176  -2.928  1.00  0.00    -0.014 A 
BRANCH  39  40
ATOM     40  C   UNL     1      -9.310   6.327  -3.790  1.00  0.00     0.031 A 
ATOM     41  C   UNL     1     -10.416   7.262  -3.385  1.00  0.00     0.074 A 
ATOM     42  C   UNL     1      -9.435   5.565  -4.894  1.00  0.00     0.049 A 
ATOM     43  N   UNL     1     -11.581   7.455  -3.946  1.00  0.00    -0.248 NA
ATOM     44  C   UNL     1     -10.191   8.069  -2.175  1.00  0.00     0.031 C 
ATOM     45  C   UNL     1      -8.446   4.593  -5.367  1.00  0.00     0.029 A 
ATOM     46  N   UNL     1     -10.453   5.473  -5.810  1.00  0.00    -0.354 N 
ATOM     47  C   UNL     1     -12.235   8.388  -3.151  1.00  0.00     0.074 A 
ATOM     48  C   UNL     1     -11.354   8.690  -2.044  1.00  0.00     0.031 C 
ATOM     49  C   UNL     1      -8.901   4.013  -6.490  1.00  0.00     0.029 A 
ATOM     50  C   UNL     1     -10.228   4.540  -6.795  1.00  0.00     0.049 A 
ATOM     51  H   UNL     1     -11.267   6.024  -5.767  1.00  0.00     0.167 HD
ATOM     52  C   UNL     1     -13.451   8.954  -3.338  1.00  0.00     0.037 A 
ATOM     53  C   UNL     1     -11.009   4.142  -7.818  1.00  0.00     0.037 A 
ATOM     54  C   UNL     1     -14.310   8.665  -4.457  1.00  0.00     0.049 A 
ATOM     55  C   UNL     1     -12.358   4.782  -8.002  1.00  0.00     0.074 A 
ATOM     56  C   UNL     1     -15.536   9.228  -4.768  1.00  0.00     0.029 A 
ATOM     57  N   UNL     1     -14.036   7.733  -5.447  1.00  0.00    -0.354 N 
ATOM     58  N   UNL     1     -12.937   5.705  -7.273  1.00  0.00    -0.248 NA
ATOM     59  C   UNL     1     -13.159   4.330  -9.149  1.00  0.00     0.031 C 
ATOM     60  C   UNL     1     -16.021   8.607  -5.924  1.00  0.00     0.029 A 
ATOM     61  C   UNL     1     -15.077   7.691  -6.359  1.00  0.00     0.049 A 
ATOM     62  H   UNL     1     -13.221   7.182  -5.494  1.00  0.00     0.167 HD
ATOM     63  C   UNL     1     -14.157   5.966  -7.888  1.00  0.00     0.074 A 
ATOM     64  C   UNL     1     -14.229   5.107  -9.052  1.00  0.00     0.031 C 
ATOM     65  C   UNL     1     -15.127   6.839  -7.522  1.00  0.00     0.037 A 
BRANCH  52  66
ATOM     66  C   UNL     1     -13.925   9.946  -2.312  1.00  0.00     0.058 A 
ATOM     67  C   UNL     1     -13.343  11.218  -2.192  1.00  0.00     0.135 A 
ATOM     68  C   UNL     1     -14.998   9.636  -1.460  1.00  0.00     0.135 A 
ATOM     69  F   UNL     1     -12.304  11.562  -2.970  1.00  0.00    -0.206 F 
ATOM     70  C   UNL     1     -13.786  12.135  -1.245  1.00  0.00     0.059 A 
ATOM     71  C   UNL     1     -15.477  10.549  -0.524  1.00  0.00     0.059 A 
ATOM     72  F   UNL     1     -15.593   8.434  -1.532  1.00  0.00    -0.206 F 
ATOM     73  C   UNL     1     -14.854  11.791  -0.414  1.00  0.00     0.060 A 
BRANCH  73  74
ATOM     74  S   UNL     1     -15.418  12.994   0.807  1.00  0.00     0.124 S 
ATOM     75  O   UNL     1     -14.345  12.930   1.795  1.00  0.00    -0.237 OA
ATOM     76  O   UNL     1     -15.486  14.225   0.026  1.00  0.00    -0.237 OA
ATOM     77  O   UNL     1     -16.704  12.459   1.243  1.00  0.00    -0.744 OA
ENDBRANCH  73  74
ENDBRANCH  52  66
BRANCH  53  78
ATOM     78  C   UNL     1     -10.524   3.095  -8.756  1.00  0.00     0.058 A 
ATOM     79  C   UNL     1     -10.163   3.418 -10.072  1.00  0.00     0.135 A 
ATOM     80  C   UNL     1     -10.394   1.757  -8.352  1.00  0.00     0.135 A 
ATOM     81  F   UNL     1     -10.275   4.683 -10.506  1.00  0.00    -0.206 F 
ATOM     82  C   UNL     1      -9.702   2.452 -10.960  1.00  0.00     0.059 A 
ATOM     83  C   UNL     1      -9.912   0.776  -9.214  1.00  0.00     0.059 A 
ATOM     84  F   UNL     1     -10.709   1.399  -7.097  1.00  0.00    -0.206 F 
ATOM     85  C   UNL     1      -9.578   1.133 -10.520  1.00  0.00     0.060 A 
BRANCH  85  86
ATOM     86  S   UNL     1      -8.929  -0.104 -11.665  1.00  0.00     0.124 S 
ATOM     87  O   UNL     1     -10.063  -0.297 -12.562  1.00  0.00    -0.237 OA
ATOM     88  O   UNL     1      -7.773   0.581 -12.234  1.00  0.00    -0.237 OA
ATOM     89  O   UNL     1      -8.613  -1.233 -10.794  1.00  0.00    -0.744 OA
ENDBRANCH  85  86
ENDBRANCH  53  78
BRANCH  65  90
ATOM     90  C   UNL     1     -16.338   6.944  -8.406  1.00  0.00     0.058 A 
ATOM     91  C   UNL     1     -17.326   5.949  -8.424  1.00  0.00     0.135 A 
ATOM     92  C   UNL     1     -16.545   8.091  -9.190  1.00  0.00     0.135 A 
ATOM     93  F   UNL     1     -17.172   4.829  -7.700  1.00  0.00    -0.206 F 
ATOM     94  C   UNL     1     -18.475   6.082  -9.198  1.00  0.00     0.059 A 
ATOM     95  C   UNL     1     -17.697   8.257  -9.951  1.00  0.00     0.059 A 
ATOM     96  F   UNL     1     -15.632   9.076  -9.201  1.00  0.00    -0.206 F 
ATOM     97  C   UNL     1     -18.654   7.243  -9.954  1.00  0.00     0.060 A 
BRANCH  97  98
ATOM     98  S   UNL     1     -20.175   7.428 -10.909  1.00  0.00     0.124 S 
ATOM     99  O   UNL     1     -19.939   6.509 -12.018  1.00  0.00    -0.237 OA
ATOM    100  O   UNL     1     -21.197   7.018  -9.952  1.00  0.00    -0.237 OA
ATOM    101  O   UNL     1     -20.185   8.846 -11.259  1.00  0.00    -0.744 OA
ENDBRANCH  97  98
ENDBRANCH  65  90
ENDBRANCH  39  40
ENDBRANCH  31  34
ENDBRANCH  29  30
ENDBRANCH   1  29
TORSDOF 17
