REMARK SMILES Cc1n[nH]c2c1[C@@]1(C(=O)N([C@@H](C)C(=O)NCCCNC(=O)c3ccc(-c4c5nc(c(-c6c(F)cc(S(=O)(=O)[O-])cc6F)c6ccc([nH]6)c(-c6c(F)cc(S(=O)(=O)[O-])cc6F)c6nc(c(-c7c(F)cc(S(=O)(=O)[O-])cc7F)c7ccc4[nH]7)C=C6)C=C5)cc3)c3ccccc31)C(C#N)=C(N)O2
REMARK SMILES IDX 17 1 16 2 15 3 13 4 14 5 11 7 12 8 10 9 1 10 2 11 3 12 6 13
REMARK SMILES IDX 4 14 5 15 7 16 99 18 8 19 93 20 94 21 97 22 9 23 88 24 92 25
REMARK SMILES IDX 89 26 91 27 90 28 95 29 96 30 98 31 18 34 19 35 20 36 21 38
REMARK SMILES IDX 22 39 23 40 87 41 24 42 86 43 25 44 26 45 27 46 80 47 28 48
REMARK SMILES IDX 85 49 79 50 81 51 29 52 84 53 78 54 77 55 30 57 64 58 43 59
REMARK SMILES IDX 63 60 44 61 47 62 62 63 82 64 45 65 46 66 61 68 83 69 48 70
REMARK SMILES IDX 31 71 32 72 41 73 33 74 34 75 40 76 42 77 35 78 36 79 37 80
REMARK SMILES IDX 38 81 39 82 65 83 66 84 75 85 67 86 68 87 74 88 76 89 69 90
REMARK SMILES IDX 70 91 71 92 72 93 73 94 49 95 50 96 59 97 51 98 52 99 58 100
REMARK SMILES IDX 60 101 53 102 54 103 55 104 56 105 57 106
REMARK H PARENT 15 6 4 17 98 32 98 33 19 37 81 56 47 67
REMARK Flexibility Score: inf
ROOT
ATOM      1  C   UNL     1      -4.121   2.425   0.138  1.00  0.00     0.042 C 
ENDROOT
BRANCH   1   2
ATOM      2  C   UNL     1      -3.742   2.357  -1.349  1.00  0.00     0.117 C 
BRANCH   2   3
ATOM      3  N   UNL     1      -3.199   3.613  -1.845  1.00  0.00    -0.354 N 
ATOM      4  C   UNL     1      -1.940   4.053  -2.108  1.00  0.00     0.242 C 
ATOM      5  O   UNL     1      -1.866   5.202  -2.571  1.00  0.00    -0.273 OA
ATOM      6  H   UNL     1      -3.891   4.288  -2.029  1.00  0.00     0.163 HD
BRANCH   4   7
ATOM      7  C   UNL     1      -0.630   3.254  -1.880  1.00  0.00     0.176 C 
ATOM      8  C   UNL     1      -0.521   1.968  -2.693  1.00  0.00     0.042 C 
BRANCH   7   9
ATOM      9  N   UNL     1      -0.244   3.120  -0.477  1.00  0.00    -0.298 N 
ATOM     10  C   UNL     1       1.335  -0.218   0.393  1.00  0.00     0.069 C 
ATOM     11  C   UNL     1       0.833   0.009   1.771  1.00  0.00     0.068 A 
ATOM     12  N   UNL     1       0.858  -1.006   2.641  1.00  0.00    -0.177 NA
ATOM     13  C   UNL     1       0.212   1.148   2.339  1.00  0.00     0.063 A 
ATOM     14  N   UNL     1       0.158  -0.570   3.709  1.00  0.00    -0.246 N 
ATOM     15  C   UNL     1      -0.253   0.721   3.558  1.00  0.00     0.222 A 
ATOM     16  C   UNL     1      -0.222   2.463   1.810  1.00  0.00     0.149 C 
ATOM     17  H   UNL     1      -0.034  -1.120   4.503  1.00  0.00     0.193 HD
ATOM     18  O   UNL     1      -1.056   1.368   4.396  1.00  0.00    -0.422 OA
ATOM     19  C   UNL     1      -0.843   2.235   0.420  1.00  0.00     0.248 C 
ATOM     20  C   UNL     1       0.982   3.300   1.467  1.00  0.00     0.002 A 
ATOM     21  C   UNL     1      -1.196   3.153   2.765  1.00  0.00     0.114 C 
ATOM     22  C   UNL     1      -1.555   2.611   3.961  1.00  0.00     0.208 C 
ATOM     23  O   UNL     1      -1.637   1.349   0.146  1.00  0.00    -0.273 OA
ATOM     24  C   UNL     1       0.895   3.702   0.122  1.00  0.00     0.050 A 
ATOM     25  C   UNL     1       2.026   3.715   2.282  1.00  0.00     0.008 A 
ATOM     26  C   UNL     1       1.873   4.502  -0.439  1.00  0.00     0.027 A 
ATOM     27  C   UNL     1       3.019   4.514   1.718  1.00  0.00     0.001 A 
ATOM     28  C   UNL     1       2.946   4.899   0.369  1.00  0.00     0.002 A 
BRANCH  21  29
ATOM     29  C   UNL     1      -1.733   4.421   2.372  1.00  0.00     0.102 C 
ATOM     30  N   UNL     1      -2.189   5.431   2.053  1.00  0.00    -0.193 NA
ENDBRANCH  21  29
BRANCH  22  31
ATOM     31  N   UNL     1      -2.413   3.182   4.857  1.00  0.00    -0.369 N 
ATOM     32  H   UNL     1      -2.824   4.054   4.659  1.00  0.00     0.159 HD
ATOM     33  H   UNL     1      -2.620   2.721   5.702  1.00  0.00     0.159 HD
ENDBRANCH  22  31
ENDBRANCH   7   9
ENDBRANCH   4   7
ENDBRANCH   2   3
ENDBRANCH   1   2
BRANCH   1  34
ATOM     34  C   UNL     1      -5.413   3.169   0.425  1.00  0.00     0.118 C 
BRANCH  34  35
ATOM     35  N   UNL     1      -6.557   2.555  -0.199  1.00  0.00    -0.352 N 
ATOM     36  C   UNL     1      -7.400   1.533   0.118  1.00  0.00     0.251 C 
ATOM     37  H   UNL     1      -6.784   2.974  -1.061  1.00  0.00     0.163 HD
ATOM     38  O   UNL     1      -8.291   1.322  -0.712  1.00  0.00    -0.269 OA
BRANCH  36  39
ATOM     39  C   UNL     1      -7.288   0.634   1.298  1.00  0.00     0.039 A 
ATOM     40  C   UNL     1      -6.439   0.772   2.402  1.00  0.00     0.014 A 
ATOM     41  C   UNL     1      -8.131  -0.490   1.238  1.00  0.00     0.014 A 
ATOM     42  C   UNL     1      -6.330  -0.265   3.336  1.00  0.00     0.010 A 
ATOM     43  C   UNL     1      -8.049  -1.502   2.175  1.00  0.00     0.010 A 
ATOM     44  C   UNL     1      -7.090  -1.429   3.176  1.00  0.00    -0.014 A 
BRANCH  44  45
ATOM     45  C   UNL     1      -7.053  -2.509   4.164  1.00  0.00     0.031 A 
ATOM     46  C   UNL     1      -7.566  -2.074   5.501  1.00  0.00     0.074 A 
ATOM     47  C   UNL     1      -6.786  -3.789   3.801  1.00  0.00     0.049 A 
ATOM     48  N   UNL     1      -6.939  -2.092   6.631  1.00  0.00    -0.248 NA
ATOM     49  C   UNL     1      -8.857  -1.354   5.568  1.00  0.00     0.031 C 
ATOM     50  C   UNL     1      -6.459  -4.292   2.459  1.00  0.00     0.029 A 
ATOM     51  N   UNL     1      -6.852  -4.949   4.529  1.00  0.00    -0.354 N 
ATOM     52  C   UNL     1      -7.852  -1.643   7.584  1.00  0.00     0.074 A 
ATOM     53  C   UNL     1      -8.925  -1.022   6.858  1.00  0.00     0.031 C 
ATOM     54  C   UNL     1      -6.602  -5.637   2.417  1.00  0.00     0.029 A 
ATOM     55  C   UNL     1      -6.902  -6.123   3.748  1.00  0.00     0.049 A 
ATOM     56  H   UNL     1      -6.864  -4.962   5.513  1.00  0.00     0.167 HD
ATOM     57  C   UNL     1      -7.773  -2.053   8.880  1.00  0.00     0.037 A 
ATOM     58  C   UNL     1      -7.206  -7.383   4.186  1.00  0.00     0.037 A 
ATOM     59  C   UNL     1      -6.477  -2.611   9.159  1.00  0.00     0.049 A 
ATOM     60  C   UNL     1      -6.979  -7.375   5.657  1.00  0.00     0.074 A 
ATOM     61  C   UNL     1      -5.192  -2.107   9.166  1.00  0.00     0.029 A 
ATOM     62  N   UNL     1      -6.358  -3.976   9.073  1.00  0.00    -0.354 N 
ATOM     63  N   UNL     1      -5.797  -7.215   6.191  1.00  0.00    -0.248 NA
ATOM     64  C   UNL     1      -8.108  -6.982   6.486  1.00  0.00     0.031 C 
ATOM     65  C   UNL     1      -4.391  -3.142   8.607  1.00  0.00     0.029 A 
ATOM     66  C   UNL     1      -5.200  -4.258   8.394  1.00  0.00     0.049 A 
ATOM     67  H   UNL     1      -6.992  -4.636   9.435  1.00  0.00     0.167 HD
ATOM     68  C   UNL     1      -6.002  -6.296   7.210  1.00  0.00     0.074 A 
ATOM     69  C   UNL     1      -7.456  -6.205   7.357  1.00  0.00     0.031 C 
ATOM     70  C   UNL     1      -5.002  -5.465   7.624  1.00  0.00     0.037 A 
BRANCH  57  71
ATOM     71  C   UNL     1      -8.965  -2.317   9.767  1.00  0.00     0.058 A 
ATOM     72  C   UNL     1      -8.764  -2.556  11.141  1.00  0.00     0.135 A 
ATOM     73  C   UNL     1     -10.251  -2.630   9.273  1.00  0.00     0.135 A 
ATOM     74  F   UNL     1      -7.573  -2.312  11.711  1.00  0.00    -0.206 F 
ATOM     75  C   UNL     1      -9.752  -3.114  11.954  1.00  0.00     0.059 A 
ATOM     76  C   UNL     1     -11.265  -3.142  10.075  1.00  0.00     0.059 A 
ATOM     77  F   UNL     1     -10.555  -2.541   7.973  1.00  0.00    -0.206 F 
ATOM     78  C   UNL     1     -10.999  -3.409  11.409  1.00  0.00     0.060 A 
BRANCH  78  79
ATOM     79  S   UNL     1     -12.252  -4.179  12.449  1.00  0.00     0.124 S 
ATOM     80  O   UNL     1     -11.635  -5.464  12.755  1.00  0.00    -0.237 OA
ATOM     81  O   UNL     1     -12.341  -3.232  13.556  1.00  0.00    -0.237 OA
ATOM     82  O   UNL     1     -13.425  -4.232  11.581  1.00  0.00    -0.744 OA
ENDBRANCH  78  79
ENDBRANCH  57  71
BRANCH  58  83
ATOM     83  C   UNL     1      -8.033  -8.447   3.526  1.00  0.00     0.058 A 
ATOM     84  C   UNL     1      -8.133  -9.758   4.045  1.00  0.00     0.135 A 
ATOM     85  C   UNL     1      -8.989  -8.114   2.548  1.00  0.00     0.135 A 
ATOM     86  F   UNL     1      -7.281 -10.173   4.996  1.00  0.00    -0.206 F 
ATOM     87  C   UNL     1      -9.147 -10.655   3.658  1.00  0.00     0.059 A 
ATOM     88  C   UNL     1     -10.004  -8.987   2.146  1.00  0.00     0.059 A 
ATOM     89  F   UNL     1      -9.024  -6.884   2.015  1.00  0.00    -0.206 F 
ATOM     90  C   UNL     1     -10.097 -10.247   2.724  1.00  0.00     0.060 A 
BRANCH  90  91
ATOM     91  S   UNL     1     -11.518 -11.311   2.348  1.00  0.00     0.124 S 
ATOM     92  O   UNL     1     -10.886 -12.448   1.687  1.00  0.00    -0.237 OA
ATOM     93  O   UNL     1     -12.070 -11.571   3.673  1.00  0.00    -0.237 OA
ATOM     94  O   UNL     1     -12.350 -10.475   1.485  1.00  0.00    -0.744 OA
ENDBRANCH  90  91
ENDBRANCH  58  83
BRANCH  70  95
ATOM     95  C   UNL     1      -3.604  -5.709   7.114  1.00  0.00     0.058 A 
ATOM     96  C   UNL     1      -3.191  -5.537   5.779  1.00  0.00     0.135 A 
ATOM     97  C   UNL     1      -2.603  -5.944   8.067  1.00  0.00     0.135 A 
ATOM     98  F   UNL     1      -4.071  -5.208   4.823  1.00  0.00    -0.206 F 
ATOM     99  C   UNL     1      -1.846  -5.625   5.407  1.00  0.00     0.059 A 
ATOM    100  C   UNL     1      -1.258  -6.004   7.726  1.00  0.00     0.059 A 
ATOM    101  F   UNL     1      -2.927  -6.048   9.366  1.00  0.00    -0.206 F 
ATOM    102  C   UNL     1      -0.885  -5.854   6.394  1.00  0.00     0.060 A 
BRANCH 102 103
ATOM    103  S   UNL     1       0.861  -5.889   5.939  1.00  0.00     0.124 S 
ATOM    104  O   UNL     1       0.935  -7.070   5.087  1.00  0.00    -0.237 OA
ATOM    105  O   UNL     1       1.027  -4.602   5.270  1.00  0.00    -0.237 OA
ATOM    106  O   UNL     1       1.547  -6.004   7.224  1.00  0.00    -0.744 OA
ENDBRANCH 102 103
ENDBRANCH  70  95
ENDBRANCH  44  45
ENDBRANCH  36  39
ENDBRANCH  34  35
ENDBRANCH   1  34
TORSDOF 16
