REMARK SMILES O=C(NCCCNC(=O)c1ccc(-c2c3nc(c(-c4c(F)cc(S(=O)(=O)[O-])cc4F)c4ccc([nH]4)c(-c4c(F)cc(S(=O)(=O)[O-])cc4F)c4nc(c(-c5c(F)cc(S(=O)(=O)[O-])cc5F)c5ccc2[nH]5)C=C4)C=C3)cc1)C1=NN(c2ccc(S(=O)(=O)[O-])cc2)C(=O)/C1=C/Nc1ccccc1
REMARK SMILES IDX 5 1 4 2 3 3 1 4 2 5 76 7 77 8 91 9 78 10 89 11 92 12 90 13
REMARK SMILES IDX 79 14 80 15 88 16 81 17 87 18 82 19 83 20 84 21 85 22 86 23
REMARK SMILES IDX 93 24 94 26 95 27 99 28 96 29 98 30 97 31 6 32 7 33 8 34
REMARK SMILES IDX 9 36 10 37 11 38 75 39 12 40 74 41 13 42 14 43 15 44 68 45
REMARK SMILES IDX 16 46 73 47 67 48 69 49 17 50 72 51 66 52 65 53 18 55 52 56
REMARK SMILES IDX 31 57 51 58 32 59 35 60 50 61 70 62 33 63 34 64 49 66 71 67
REMARK SMILES IDX 36 68 19 69 20 70 29 71 21 72 22 73 28 74 30 75 23 76 24 77
REMARK SMILES IDX 25 78 26 79 27 80 53 81 54 82 63 83 55 84 56 85 62 86 64 87
REMARK SMILES IDX 57 88 58 89 59 90 60 91 61 92 37 93 38 94 47 95 39 96 40 97
REMARK SMILES IDX 46 98 48 99 41 100 42 101 43 102 44 103 45 104
REMARK H PARENT 3 6 93 25 7 35 69 54 35 65
REMARK Flexibility Score: inf
ROOT
ATOM      1  C   UNL     1       4.921   2.485   0.211  1.00  0.00     0.042 C 
ENDROOT
BRANCH   1   2
ATOM      2  C   UNL     1       4.493   1.063   0.526  1.00  0.00     0.118 C 
BRANCH   2   3
ATOM      3  N   UNL     1       3.054   0.868   0.430  1.00  0.00    -0.351 N 
ATOM      4  O   UNL     1       1.163  -0.282  -0.053  1.00  0.00    -0.267 OA
ATOM      5  C   UNL     1       2.372  -0.146  -0.192  1.00  0.00     0.272 C 
ATOM      6  H   UNL     1       2.499   1.553   0.869  1.00  0.00     0.163 HD
BRANCH   5   7
ATOM      7  C   UNL     1       3.122  -1.167  -0.985  1.00  0.00     0.163 C 
ATOM      8  N   UNL     1       2.999  -1.321  -2.279  1.00  0.00    -0.158 NA
ATOM      9  C   UNL     1       4.048  -2.126  -0.384  1.00  0.00     0.091 C 
ATOM     10  N   UNL     1       3.816  -2.410  -2.599  1.00  0.00    -0.196 N 
ATOM     11  C   UNL     1       4.563  -2.907  -1.519  1.00  0.00     0.282 C 
ATOM     12  C   UNL     1       4.396  -2.354   0.884  1.00  0.00     0.099 C 
ATOM     13  O   UNL     1       5.398  -3.791  -1.446  1.00  0.00    -0.267 OA
BRANCH  10  14
ATOM     14  C   UNL     1       3.658  -3.030  -3.861  1.00  0.00     0.069 A 
ATOM     15  C   UNL     1       3.081  -2.345  -4.942  1.00  0.00     0.030 A 
ATOM     16  C   UNL     1       3.999  -4.381  -4.029  1.00  0.00     0.030 A 
ATOM     17  C   UNL     1       2.855  -2.996  -6.162  1.00  0.00     0.021 A 
ATOM     18  C   UNL     1       3.749  -5.046  -5.231  1.00  0.00     0.021 A 
ATOM     19  C   UNL     1       3.185  -4.348  -6.295  1.00  0.00     0.054 A 
BRANCH  19  20
ATOM     20  S   UNL     1       2.825  -5.188  -7.809  1.00  0.00     0.124 S 
ATOM     21  O   UNL     1       1.439  -4.948  -8.140  1.00  0.00    -0.237 OA
ATOM     22  O   UNL     1       3.897  -4.910  -8.739  1.00  0.00    -0.237 OA
ATOM     23  O   UNL     1       2.958  -6.763  -7.473  1.00  0.00    -0.744 OA
ENDBRANCH  19  20
ENDBRANCH  10  14
BRANCH  12  24
ATOM     24  N   UNL     1       3.866  -1.834   2.036  1.00  0.00    -0.361 N 
ATOM     25  H   UNL     1       2.974  -1.425   1.965  1.00  0.00     0.166 HD
BRANCH  24  26
ATOM     26  C   UNL     1       4.463  -1.825   3.305  1.00  0.00     0.038 A 
ATOM     27  C   UNL     1       3.652  -1.966   4.438  1.00  0.00     0.026 A 
ATOM     28  C   UNL     1       5.849  -1.734   3.481  1.00  0.00     0.026 A 
ATOM     29  C   UNL     1       4.209  -1.991   5.718  1.00  0.00     0.002 A 
ATOM     30  C   UNL     1       6.407  -1.734   4.762  1.00  0.00     0.002 A 
ATOM     31  C   UNL     1       5.586  -1.865   5.880  1.00  0.00     0.000 A 
ENDBRANCH  24  26
ENDBRANCH  12  24
ENDBRANCH   5   7
ENDBRANCH   2   3
ENDBRANCH   1   2
BRANCH   1  32
ATOM     32  C   UNL     1       4.373   3.530   1.173  1.00  0.00     0.118 C 
BRANCH  32  33
ATOM     33  N   UNL     1       4.922   3.427   2.521  1.00  0.00    -0.352 N 
ATOM     34  C   UNL     1       5.687   4.328   3.229  1.00  0.00     0.251 C 
ATOM     35  H   UNL     1       4.715   2.589   2.995  1.00  0.00     0.163 HD
ATOM     36  O   UNL     1       6.166   4.009   4.313  1.00  0.00    -0.269 OA
BRANCH  34  37
ATOM     37  C   UNL     1       5.963   5.663   2.657  1.00  0.00     0.039 A 
ATOM     38  C   UNL     1       7.275   6.146   2.652  1.00  0.00     0.014 A 
ATOM     39  C   UNL     1       4.937   6.415   2.083  1.00  0.00     0.014 A 
ATOM     40  C   UNL     1       7.573   7.332   1.974  1.00  0.00     0.010 A 
ATOM     41  C   UNL     1       5.250   7.538   1.329  1.00  0.00     0.010 A 
ATOM     42  C   UNL     1       6.572   8.005   1.257  1.00  0.00    -0.014 A 
BRANCH  42  43
ATOM     43  C   UNL     1       6.856   9.200   0.420  1.00  0.00     0.031 A 
ATOM     44  C   UNL     1       6.159  10.498   0.721  1.00  0.00     0.074 A 
ATOM     45  C   UNL     1       7.640   9.091  -0.672  1.00  0.00     0.049 A 
ATOM     46  N   UNL     1       6.095  11.590   0.006  1.00  0.00    -0.248 NA
ATOM     47  C   UNL     1       5.397  10.556   1.979  1.00  0.00     0.031 C 
ATOM     48  C   UNL     1       8.353   7.883  -1.091  1.00  0.00     0.029 A 
ATOM     49  N   UNL     1       7.949  10.010  -1.644  1.00  0.00    -0.354 N 
ATOM     50  C   UNL     1       5.259  12.451   0.707  1.00  0.00     0.074 A 
ATOM     51  C   UNL     1       4.803  11.735   1.880  1.00  0.00     0.031 C 
ATOM     52  C   UNL     1       9.031   8.141  -2.221  1.00  0.00     0.029 A 
ATOM     53  C   UNL     1       8.760   9.513  -2.637  1.00  0.00     0.049 A 
ATOM     54  H   UNL     1       7.621  10.938  -1.631  1.00  0.00     0.167 HD
ATOM     55  C   UNL     1       4.916  13.728   0.412  1.00  0.00     0.037 A 
ATOM     56  C   UNL     1       9.219  10.091  -3.764  1.00  0.00     0.037 A 
ATOM     57  C   UNL     1       5.402  14.445  -0.736  1.00  0.00     0.049 A 
ATOM     58  C   UNL     1       8.825  11.509  -4.075  1.00  0.00     0.074 A 
ATOM     59  C   UNL     1       5.148  15.755  -1.105  1.00  0.00     0.029 A 
ATOM     60  N   UNL     1       6.250  13.916  -1.698  1.00  0.00    -0.354 N 
ATOM     61  N   UNL     1       8.048  12.316  -3.393  1.00  0.00    -0.248 NA
ATOM     62  C   UNL     1       9.368  12.095  -5.309  1.00  0.00     0.031 C 
ATOM     63  C   UNL     1       5.822  16.008  -2.305  1.00  0.00     0.029 A 
ATOM     64  C   UNL     1       6.527  14.869  -2.662  1.00  0.00     0.049 A 
ATOM     65  H   UNL     1       6.604  12.997  -1.694  1.00  0.00     0.167 HD
ATOM     66  C   UNL     1       8.036  13.516  -4.096  1.00  0.00     0.074 A 
ATOM     67  C   UNL     1       8.881  13.328  -5.258  1.00  0.00     0.031 C 
ATOM     68  C   UNL     1       7.389  14.670  -3.801  1.00  0.00     0.037 A 
BRANCH  55  69
ATOM     69  C   UNL     1       3.966  14.418   1.352  1.00  0.00     0.058 A 
ATOM     70  C   UNL     1       4.354  14.787   2.650  1.00  0.00     0.135 A 
ATOM     71  C   UNL     1       2.649  14.699   0.958  1.00  0.00     0.135 A 
ATOM     72  F   UNL     1       5.598  14.526   3.084  1.00  0.00    -0.206 F 
ATOM     73  C   UNL     1       3.456  15.363   3.542  1.00  0.00     0.059 A 
ATOM     74  C   UNL     1       1.741  15.303   1.823  1.00  0.00     0.059 A 
ATOM     75  F   UNL     1       2.225  14.370  -0.273  1.00  0.00    -0.206 F 
ATOM     76  C   UNL     1       2.148  15.608   3.122  1.00  0.00     0.060 A 
BRANCH  76  77
ATOM     77  S   UNL     1       0.981  16.320   4.300  1.00  0.00     0.124 S 
ATOM     78  O   UNL     1       0.662  15.161   5.127  1.00  0.00    -0.237 OA
ATOM     79  O   UNL     1       1.778  17.358   4.945  1.00  0.00    -0.237 OA
ATOM     80  O   UNL     1      -0.104  16.804   3.452  1.00  0.00    -0.744 OA
ENDBRANCH  76  77
ENDBRANCH  55  69
BRANCH  56  81
ATOM     81  C   UNL     1      10.129   9.336  -4.665  1.00  0.00     0.058 A 
ATOM     82  C   UNL     1      11.494   9.655  -4.726  1.00  0.00     0.135 A 
ATOM     83  C   UNL     1       9.670   8.270  -5.453  1.00  0.00     0.135 A 
ATOM     84  F   UNL     1      11.978  10.671  -3.996  1.00  0.00    -0.206 F 
ATOM     85  C   UNL     1      12.372   8.947  -5.539  1.00  0.00     0.059 A 
ATOM     86  C   UNL     1      10.533   7.533  -6.259  1.00  0.00     0.059 A 
ATOM     87  F   UNL     1       8.376   7.917  -5.418  1.00  0.00    -0.206 F 
ATOM     88  C   UNL     1      11.883   7.883  -6.299  1.00  0.00     0.060 A 
BRANCH  88  89
ATOM     89  S   UNL     1      13.045   6.928  -7.298  1.00  0.00     0.124 S 
ATOM     90  O   UNL     1      13.313   7.847  -8.397  1.00  0.00    -0.237 OA
ATOM     91  O   UNL     1      14.145   6.710  -6.363  1.00  0.00    -0.237 OA
ATOM     92  O   UNL     1      12.283   5.731  -7.644  1.00  0.00    -0.744 OA
ENDBRANCH  88  89
ENDBRANCH  56  81
BRANCH  68  93
ATOM     93  C   UNL     1       7.608  15.842  -4.715  1.00  0.00     0.058 A 
ATOM     94  C   UNL     1       6.991  15.925  -5.971  1.00  0.00     0.135 A 
ATOM     95  C   UNL     1       8.388  16.930  -4.290  1.00  0.00     0.135 A 
ATOM     96  F   UNL     1       6.242  14.908  -6.426  1.00  0.00    -0.206 F 
ATOM     97  C   UNL     1       7.146  17.046  -6.782  1.00  0.00     0.059 A 
ATOM     98  C   UNL     1       8.539  18.069  -5.074  1.00  0.00     0.059 A 
ATOM     99  F   UNL     1       8.993  16.901  -3.092  1.00  0.00    -0.206 F 
ATOM    100  C   UNL     1       7.919  18.115  -6.322  1.00  0.00     0.060 A 
BRANCH 100 101
ATOM    101  S   UNL     1       8.066  19.587  -7.356  1.00  0.00     0.124 S 
ATOM    102  O   UNL     1       9.004  19.136  -8.378  1.00  0.00    -0.237 OA
ATOM    103  O   UNL     1       6.692  19.794  -7.804  1.00  0.00    -0.237 OA
ATOM    104  O   UNL     1       8.576  20.599  -6.436  1.00  0.00    -0.744 OA
ENDBRANCH 100 101
ENDBRANCH  68  93
ENDBRANCH  42  43
ENDBRANCH  34  37
ENDBRANCH  32  33
ENDBRANCH   1  32
TORSDOF 17
