REMARK SMILES C/C=C(\C)[C@H]1C(C)=C[C@H]2CC[C@@H](OS(=O)(=O)[O-])[C@@H](C)[C@H]2[C@H]1/C=C/C=C/C(=O)NCCCNC(=O)c1ccc(-c2c3nc(c(-c4c(F)cc(S(=O)(=O)[O-])cc4F)c4ccc([nH]4)c(-c4c(F)cc(S(=O)(=O)[O-])cc4F)c4nc(c(-c5c(F)cc(S(=O)(=O)[O-])cc5F)c5ccc2[nH]5)C=C4)C=C3)cc1
REMARK SMILES IDX 29 1 28 2 26 3 27 4 25 6 24 7 23 8 22 9 21 10 5 11 6 12 7 13
REMARK SMILES IDX 8 14 20 15 9 16 18 17 10 18 12 19 19 20 11 21 3 22 1 23 2 24
REMARK SMILES IDX 4 25 13 26 14 27 15 28 16 29 17 30 30 31 31 32 32 33 33 34
REMARK SMILES IDX 34 36 35 37 36 38 100 39 37 40 99 41 38 42 39 43 40 44 93 45
REMARK SMILES IDX 41 46 98 47 92 48 94 49 42 50 97 51 91 52 90 53 43 55 77 56
REMARK SMILES IDX 56 57 76 58 57 59 60 60 75 61 95 62 58 63 59 64 74 66 96 67
REMARK SMILES IDX 61 68 44 69 45 70 54 71 46 72 47 73 53 74 55 75 48 76 49 77
REMARK SMILES IDX 50 78 51 79 52 80 78 81 79 82 88 83 80 84 81 85 87 86 89 87
REMARK SMILES IDX 82 88 83 89 84 90 85 91 86 92 62 93 63 94 72 95 64 96 65 97
REMARK SMILES IDX 71 98 73 99 66 100 67 101 68 102 69 103 70 104
REMARK H PARENT 28 5 32 35 94 54 60 65
REMARK Flexibility Score: inf
ROOT
ATOM      1  C   UNL     1      -1.458   3.838   0.725  1.00  0.00     0.118 C 
ENDROOT
BRANCH   1   2
ATOM      2  N   UNL     1      -0.312   4.630   0.295  1.00  0.00    -0.352 N 
ATOM      3  C   UNL     1       0.408   4.675  -0.858  1.00  0.00     0.243 C 
ATOM      4  O   UNL     1       1.281   5.537  -0.974  1.00  0.00    -0.270 OA
ATOM      5  H   UNL     1       0.006   5.261   0.980  1.00  0.00     0.163 HD
BRANCH   3   6
ATOM      6  C   UNL     1       0.148   3.777  -2.010  1.00  0.00     0.071 C 
ATOM      7  C   UNL     1      -0.320   2.533  -1.891  1.00  0.00     0.005 C 
BRANCH   7   8
ATOM      8  C   UNL     1      -0.584   1.585  -2.947  1.00  0.00    -0.004 C 
ATOM      9  C   UNL     1      -1.323   0.512  -2.622  1.00  0.00    -0.022 C 
BRANCH   9  10
ATOM     10  C   UNL     1      -1.491  -0.777  -3.386  1.00  0.00     0.027 C 
ATOM     11  C   UNL     1      -0.756  -2.022  -2.692  1.00  0.00     0.047 C 
ATOM     12  C   UNL     1      -1.494  -3.353  -2.862  1.00  0.00    -0.069 C 
ATOM     13  C   UNL     1      -0.938  -4.587  -2.198  1.00  0.00     0.040 C 
ATOM     14  C   UNL     1      -2.564  -3.484  -3.672  1.00  0.00    -0.024 C 
ATOM     15  C   UNL     1      -2.984  -0.989  -3.785  1.00  0.00     0.009 C 
ATOM     16  C   UNL     1      -3.156  -2.361  -4.476  1.00  0.00     0.016 C 
ATOM     17  C   UNL     1      -4.081  -0.675  -2.709  1.00  0.00     0.021 C 
ATOM     18  C   UNL     1      -4.614  -2.627  -4.895  1.00  0.00     0.011 C 
ATOM     19  C   UNL     1      -5.490  -0.905  -3.302  1.00  0.00     0.141 C 
ATOM     20  C   UNL     1      -3.924  -1.388  -1.359  1.00  0.00     0.011 C 
ATOM     21  C   UNL     1      -5.637  -2.337  -3.805  1.00  0.00     0.034 C 
BRANCH  11  22
ATOM     22  C   UNL     1      -0.149  -1.727  -1.285  1.00  0.00    -0.070 C 
ATOM     23  C   UNL     1       1.549  -0.325   0.041  1.00  0.00     0.035 C 
ATOM     24  C   UNL     1       0.908  -0.884  -1.192  1.00  0.00    -0.031 C 
ATOM     25  C   UNL     1      -0.759  -2.324  -0.045  1.00  0.00     0.040 C 
ENDBRANCH  11  22
BRANCH  19  26
ATOM     26  O   UNL     1      -6.465  -0.650  -2.300  1.00  0.00    -0.276 OA
BRANCH  26  27
ATOM     27  S   UNL     1      -7.805   0.173  -2.678  1.00  0.00     0.217 S 
ATOM     28  O   UNL     1      -7.435   1.486  -3.164  1.00  0.00    -0.213 OA
ATOM     29  O   UNL     1      -8.686  -0.681  -3.435  1.00  0.00    -0.213 OA
ATOM     30  O   UNL     1      -8.503   0.392  -1.245  1.00  0.00    -0.726 OA
ENDBRANCH  26  27
ENDBRANCH  19  26
ENDBRANCH   9  10
ENDBRANCH   7   8
ENDBRANCH   3   6
ENDBRANCH   1   2
BRANCH   1  31
ATOM     31  C   UNL     1      -1.076   2.852   1.832  1.00  0.00     0.042 C 
BRANCH  31  32
ATOM     32  C   UNL     1      -0.957   3.508   3.208  1.00  0.00     0.118 C 
BRANCH  32  33
ATOM     33  N   UNL     1      -2.231   4.053   3.657  1.00  0.00    -0.352 N 
ATOM     34  C   UNL     1      -2.958   3.823   4.794  1.00  0.00     0.251 C 
ATOM     35  H   UNL     1      -2.640   4.698   3.036  1.00  0.00     0.163 HD
ATOM     36  O   UNL     1      -4.125   4.207   4.831  1.00  0.00    -0.269 OA
BRANCH  34  37
ATOM     37  C   UNL     1      -2.369   3.136   5.964  1.00  0.00     0.039 A 
ATOM     38  C   UNL     1      -3.205   2.342   6.755  1.00  0.00     0.014 A 
ATOM     39  C   UNL     1      -1.036   3.325   6.338  1.00  0.00     0.014 A 
ATOM     40  C   UNL     1      -2.699   1.722   7.897  1.00  0.00     0.010 A 
ATOM     41  C   UNL     1      -0.510   2.634   7.428  1.00  0.00     0.010 A 
ATOM     42  C   UNL     1      -1.340   1.842   8.232  1.00  0.00    -0.014 A 
BRANCH  42  43
ATOM     43  C   UNL     1      -0.797   1.138   9.422  1.00  0.00     0.031 A 
ATOM     44  C   UNL     1      -0.222   1.909  10.579  1.00  0.00     0.074 A 
ATOM     45  C   UNL     1      -0.813  -0.209   9.449  1.00  0.00     0.049 A 
ATOM     46  N   UNL     1       0.248   1.462  11.716  1.00  0.00    -0.248 NA
ATOM     47  C   UNL     1      -0.138   3.371  10.433  1.00  0.00     0.031 C 
ATOM     48  C   UNL     1      -1.278  -1.066   8.356  1.00  0.00     0.029 A 
ATOM     49  N   UNL     1      -0.436  -1.093  10.427  1.00  0.00    -0.354 N 
ATOM     50  C   UNL     1       0.679   2.582  12.418  1.00  0.00     0.074 A 
ATOM     51  C   UNL     1       0.486   3.721  11.548  1.00  0.00     0.031 C 
ATOM     52  C   UNL     1      -1.196  -2.349   8.738  1.00  0.00     0.029 A 
ATOM     53  C   UNL     1      -0.639  -2.409  10.086  1.00  0.00     0.049 A 
ATOM     54  H   UNL     1      -0.057  -0.813  11.290  1.00  0.00     0.167 HD
ATOM     55  C   UNL     1       1.161   2.659  13.682  1.00  0.00     0.037 A 
ATOM     56  C   UNL     1      -0.406  -3.541  10.779  1.00  0.00     0.037 A 
ATOM     57  C   UNL     1       1.352   1.514  14.537  1.00  0.00     0.049 A 
ATOM     58  C   UNL     1       0.119  -3.437  12.183  1.00  0.00     0.074 A 
ATOM     59  C   UNL     1       1.798   1.480  15.847  1.00  0.00     0.029 A 
ATOM     60  N   UNL     1       1.118   0.197  14.162  1.00  0.00    -0.354 N 
ATOM     61  N   UNL     1       0.451  -2.363  12.861  1.00  0.00    -0.248 NA
ATOM     62  C   UNL     1       0.284  -4.693  12.924  1.00  0.00     0.031 C 
ATOM     63  C   UNL     1       1.885   0.142  16.245  1.00  0.00     0.029 A 
ATOM     64  C   UNL     1       1.429  -0.657  15.208  1.00  0.00     0.049 A 
ATOM     65  H   UNL     1       0.780  -0.087  13.283  1.00  0.00     0.167 HD
ATOM     66  C   UNL     1       0.841  -2.811  14.117  1.00  0.00     0.074 A 
ATOM     67  C   UNL     1       0.690  -4.253  14.108  1.00  0.00     0.031 C 
ATOM     68  C   UNL     1       1.279  -2.094  15.183  1.00  0.00     0.037 A 
BRANCH  55  69
ATOM     69  C   UNL     1       1.516   4.027  14.207  1.00  0.00     0.058 A 
ATOM     70  C   UNL     1       0.537   5.011  14.429  1.00  0.00     0.135 A 
ATOM     71  C   UNL     1       2.850   4.363  14.494  1.00  0.00     0.135 A 
ATOM     72  F   UNL     1      -0.754   4.754  14.164  1.00  0.00    -0.206 F 
ATOM     73  C   UNL     1       0.872   6.291  14.862  1.00  0.00     0.059 A 
ATOM     74  C   UNL     1       3.203   5.626  14.963  1.00  0.00     0.059 A 
ATOM     75  F   UNL     1       3.829   3.465  14.308  1.00  0.00    -0.206 F 
ATOM     76  C   UNL     1       2.209   6.590  15.122  1.00  0.00     0.060 A 
BRANCH  76  77
ATOM     77  S   UNL     1       2.629   8.263  15.654  1.00  0.00     0.124 S 
ATOM     78  O   UNL     1       2.429   9.019  14.421  1.00  0.00    -0.237 OA
ATOM     79  O   UNL     1       1.654   8.508  16.712  1.00  0.00    -0.237 OA
ATOM     80  O   UNL     1       4.014   8.143  16.097  1.00  0.00    -0.744 OA
ENDBRANCH  76  77
ENDBRANCH  55  69
BRANCH  56  81
ATOM     81  C   UNL     1      -0.706  -4.854  10.150  1.00  0.00     0.058 A 
ATOM     82  C   UNL     1      -1.792  -5.635  10.570  1.00  0.00     0.135 A 
ATOM     83  C   UNL     1       0.054  -5.323   9.066  1.00  0.00     0.135 A 
ATOM     84  F   UNL     1      -2.547  -5.233  11.605  1.00  0.00    -0.206 F 
ATOM     85  C   UNL     1      -2.116  -6.833   9.941  1.00  0.00     0.059 A 
ATOM     86  C   UNL     1      -0.266  -6.502   8.402  1.00  0.00     0.059 A 
ATOM     87  F   UNL     1       1.091  -4.603   8.612  1.00  0.00    -0.206 F 
ATOM     88  C   UNL     1      -1.352  -7.253   8.850  1.00  0.00     0.060 A 
BRANCH  88  89
ATOM     89  S   UNL     1      -1.833  -8.764   7.985  1.00  0.00     0.124 S 
ATOM     90  O   UNL     1      -1.467  -9.788   8.955  1.00  0.00    -0.237 OA
ATOM     91  O   UNL     1      -3.263  -8.556   7.781  1.00  0.00    -0.237 OA
ATOM     92  O   UNL     1      -1.024  -8.727   6.770  1.00  0.00    -0.744 OA
ENDBRANCH  88  89
ENDBRANCH  56  81
BRANCH  68  93
ATOM     93  C   UNL     1       1.592  -2.852  16.445  1.00  0.00     0.058 A 
ATOM     94  C   UNL     1       2.705  -3.701  16.547  1.00  0.00     0.135 A 
ATOM     95  C   UNL     1       0.785  -2.692  17.584  1.00  0.00     0.135 A 
ATOM     96  F   UNL     1       3.508  -3.894  15.489  1.00  0.00    -0.206 F 
ATOM     97  C   UNL     1       2.987  -4.391  17.722  1.00  0.00     0.059 A 
ATOM     98  C   UNL     1       1.067  -3.346  18.779  1.00  0.00     0.059 A 
ATOM     99  F   UNL     1      -0.286  -1.883  17.546  1.00  0.00    -0.206 F 
ATOM    100  C   UNL     1       2.162  -4.206  18.833  1.00  0.00     0.060 A 
BRANCH 100 101
ATOM    101  S   UNL     1       2.550  -5.094  20.356  1.00  0.00     0.124 S 
ATOM    102  O   UNL     1       2.176  -6.459  20.004  1.00  0.00    -0.237 OA
ATOM    103  O   UNL     1       3.981  -4.846  20.506  1.00  0.00    -0.237 OA
ATOM    104  O   UNL     1       1.700  -4.448  21.353  1.00  0.00    -0.744 OA
ENDBRANCH 100 101
ENDBRANCH  68  93
ENDBRANCH  42  43
ENDBRANCH  34  37
ENDBRANCH  32  33
ENDBRANCH  31  32
ENDBRANCH   1  31
TORSDOF 18
