REMARK SMILES CCCC[C@H]1C(=S)c2cc(C(=O)NCCCNC(=O)c3ccc(-c4c5nc(c(-c6c(F)cc(S(=O)(=O)[O-])cc6F)c6ccc([nH]6)c(-c6c(F)cc(S(=O)(=O)[O-])cc6F)c6nc(c(-c7c(F)cc(S(=O)(=O)[O-])cc7F)c7ccc4[nH]7)C=C6)C=C5)cc3)ccc2N=C1C
REMARK SMILES IDX 15 1 14 2 13 3 11 4 12 5 10 7 5 8 6 9 90 10 7 11 8 12 89 13
REMARK SMILES IDX 91 14 9 15 88 16 87 17 86 18 4 19 3 20 2 21 1 22 16 23 17 24
REMARK SMILES IDX 18 25 19 27 20 28 21 29 85 30 22 31 84 32 23 33 24 34 25 35
REMARK SMILES IDX 78 36 26 37 83 38 77 39 79 40 27 41 82 42 76 43 75 44 28 46
REMARK SMILES IDX 62 47 41 48 61 49 42 50 45 51 60 52 80 53 43 54 44 55 59 57
REMARK SMILES IDX 81 58 46 59 29 60 30 61 39 62 31 63 32 64 38 65 40 66 33 67
REMARK SMILES IDX 34 68 35 69 36 70 37 71 63 72 64 73 73 74 65 75 66 76 72 77
REMARK SMILES IDX 74 78 67 79 68 80 69 81 70 82 71 83 47 84 48 85 57 86 49 87
REMARK SMILES IDX 50 88 56 89 58 90 51 91 52 92 53 93 54 94 55 95
REMARK H PARENT 13 6 17 26 79 45 45 56
REMARK Flexibility Score: inf
ROOT
ATOM      1  C   UNL     1      -5.351   3.281   8.556  1.00  0.00     0.042 C 
ENDROOT
BRANCH   1   2
ATOM      2  C   UNL     1      -5.917   3.914   7.288  1.00  0.00     0.118 C 
BRANCH   2   3
ATOM      3  N   UNL     1      -5.066   4.986   6.809  1.00  0.00    -0.352 N 
ATOM      4  C   UNL     1      -4.025   5.049   5.922  1.00  0.00     0.251 C 
ATOM      5  O   UNL     1      -3.540   6.167   5.736  1.00  0.00    -0.269 OA
ATOM      6  H   UNL     1      -5.284   5.858   7.209  1.00  0.00     0.163 HD
BRANCH   4   7
ATOM      7  C   UNL     1      -3.477   3.892   5.147  1.00  0.00     0.040 A 
ATOM      8  C   UNL     1      -0.954   2.538   1.122  1.00  0.00     0.075 C 
ATOM      9  C   UNL     1      -0.943   3.451   2.338  1.00  0.00     0.033 C 
ATOM     10  C   UNL     1      -1.254   1.109   1.576  1.00  0.00     0.024 C 
ATOM     11  S   UNL     1       0.362   4.480   2.633  1.00  0.00    -0.083 S 
ATOM     12  C   UNL     1      -2.011   3.200   3.324  1.00  0.00     0.016 A 
ATOM     13  N   UNL     1      -1.938   0.827   2.643  1.00  0.00    -0.257 NA
ATOM     14  C   UNL     1      -0.808  -0.036   0.703  1.00  0.00     0.062 C 
ATOM     15  C   UNL     1      -2.561   4.207   4.127  1.00  0.00     0.025 A 
ATOM     16  C   UNL     1      -2.404   1.868   3.462  1.00  0.00     0.071 A 
ATOM     17  C   UNL     1      -3.266   1.549   4.508  1.00  0.00     0.030 A 
ATOM     18  C   UNL     1      -3.769   2.543   5.362  1.00  0.00     0.016 A 
BRANCH   8  19
ATOM     19  C   UNL     1      -1.927   2.896  -0.024  1.00  0.00     0.015 C 
BRANCH  19  20
ATOM     20  C   UNL     1      -2.625   4.260  -0.069  1.00  0.00     0.001 C 
BRANCH  20  21
ATOM     21  C   UNL     1      -1.771   5.522  -0.194  1.00  0.00    -0.003 C 
ATOM     22  C   UNL     1      -0.657   5.450  -1.223  1.00  0.00     0.004 C 
ENDBRANCH  20  21
ENDBRANCH  19  20
ENDBRANCH   8  19
ENDBRANCH   4   7
ENDBRANCH   2   3
ENDBRANCH   1   2
BRANCH   1  23
ATOM     23  C   UNL     1      -5.563   4.148   9.795  1.00  0.00     0.118 C 
BRANCH  23  24
ATOM     24  N   UNL     1      -6.973   4.244  10.164  1.00  0.00    -0.352 N 
ATOM     25  C   UNL     1      -7.614   3.863  11.318  1.00  0.00     0.251 C 
ATOM     26  H   UNL     1      -7.555   4.645   9.479  1.00  0.00     0.163 HD
ATOM     27  O   UNL     1      -8.842   3.821  11.341  1.00  0.00    -0.269 OA
BRANCH  25  28
ATOM     28  C   UNL     1      -6.833   3.493  12.516  1.00  0.00     0.039 A 
ATOM     29  C   UNL     1      -5.703   4.227  12.878  1.00  0.00     0.014 A 
ATOM     30  C   UNL     1      -7.241   2.407  13.297  1.00  0.00     0.014 A 
ATOM     31  C   UNL     1      -4.887   3.773  13.907  1.00  0.00     0.010 A 
ATOM     32  C   UNL     1      -6.471   2.011  14.394  1.00  0.00     0.010 A 
ATOM     33  C   UNL     1      -5.261   2.662  14.679  1.00  0.00    -0.014 A 
BRANCH  33  34
ATOM     34  C   UNL     1      -4.363   2.212  15.776  1.00  0.00     0.031 A 
ATOM     35  C   UNL     1      -3.703   0.861  15.727  1.00  0.00     0.074 A 
ATOM     36  C   UNL     1      -4.090   3.064  16.784  1.00  0.00     0.049 A 
ATOM     37  N   UNL     1      -2.842   0.336  16.562  1.00  0.00    -0.248 NA
ATOM     38  C   UNL     1      -4.056  -0.019  14.603  1.00  0.00     0.031 C 
ATOM     39  C   UNL     1      -4.672   4.400  16.934  1.00  0.00     0.029 A 
ATOM     40  N   UNL     1      -3.233   2.954  17.849  1.00  0.00    -0.354 N 
ATOM     41  C   UNL     1      -2.564  -0.936  16.076  1.00  0.00     0.074 A 
ATOM     42  C   UNL     1      -3.376  -1.120  14.892  1.00  0.00     0.031 C 
ATOM     43  C   UNL     1      -4.106   5.011  17.984  1.00  0.00     0.029 A 
ATOM     44  C   UNL     1      -3.173   4.089  18.624  1.00  0.00     0.049 A 
ATOM     45  H   UNL     1      -2.712   2.142  18.041  1.00  0.00     0.167 HD
ATOM     46  C   UNL     1      -1.700  -1.859  16.563  1.00  0.00     0.037 A 
ATOM     47  C   UNL     1      -2.455   4.359  19.730  1.00  0.00     0.037 A 
ATOM     48  C   UNL     1      -0.883  -1.658  17.732  1.00  0.00     0.049 A 
ATOM     49  C   UNL     1      -1.530   3.309  20.272  1.00  0.00     0.074 A 
ATOM     50  C   UNL     1       0.046  -2.518  18.290  1.00  0.00     0.029 A 
ATOM     51  N   UNL     1      -0.898  -0.518  18.525  1.00  0.00    -0.354 N 
ATOM     52  N   UNL     1      -1.265   2.119  19.787  1.00  0.00    -0.248 NA
ATOM     53  C   UNL     1      -0.815   3.628  21.514  1.00  0.00     0.031 C 
ATOM     54  C   UNL     1       0.554  -1.922  19.448  1.00  0.00     0.029 A 
ATOM     55  C   UNL     1      -0.018  -0.666  19.585  1.00  0.00     0.049 A 
ATOM     56  H   UNL     1      -1.453   0.278  18.359  1.00  0.00     0.167 HD
ATOM     57  C   UNL     1      -0.349   1.548  20.661  1.00  0.00     0.074 A 
ATOM     58  C   UNL     1      -0.090   2.531  21.694  1.00  0.00     0.031 C 
ATOM     59  C   UNL     1       0.222   0.319  20.612  1.00  0.00     0.037 A 
BRANCH  46  60
ATOM     60  C   UNL     1      -1.607  -3.179  15.844  1.00  0.00     0.058 A 
ATOM     61  C   UNL     1      -1.018  -3.292  14.575  1.00  0.00     0.135 A 
ATOM     62  C   UNL     1      -2.090  -4.353  16.446  1.00  0.00     0.135 A 
ATOM     63  F   UNL     1      -0.552  -2.201  13.945  1.00  0.00    -0.206 F 
ATOM     64  C   UNL     1      -0.941  -4.514  13.913  1.00  0.00     0.059 A 
ATOM     65  C   UNL     1      -1.998  -5.591  15.815  1.00  0.00     0.059 A 
ATOM     66  F   UNL     1      -2.661  -4.305  17.660  1.00  0.00    -0.206 F 
ATOM     67  C   UNL     1      -1.438  -5.659  14.541  1.00  0.00     0.060 A 
BRANCH  67  68
ATOM     68  S   UNL     1      -1.347  -7.231  13.659  1.00  0.00     0.124 S 
ATOM     69  O   UNL     1      -2.335  -7.030  12.604  1.00  0.00    -0.237 OA
ATOM     70  O   UNL     1       0.046  -7.264  13.224  1.00  0.00    -0.237 OA
ATOM     71  O   UNL     1      -1.707  -8.215  14.675  1.00  0.00    -0.744 OA
ENDBRANCH  67  68
ENDBRANCH  46  60
BRANCH  47  72
ATOM     72  C   UNL     1      -2.591   5.692  20.375  1.00  0.00     0.058 A 
ATOM     73  C   UNL     1      -1.560   6.639  20.300  1.00  0.00     0.135 A 
ATOM     74  C   UNL     1      -3.788   6.074  21.003  1.00  0.00     0.135 A 
ATOM     75  F   UNL     1      -0.395   6.318  19.718  1.00  0.00    -0.206 F 
ATOM     76  C   UNL     1      -1.716   7.924  20.810  1.00  0.00     0.059 A 
ATOM     77  C   UNL     1      -3.977   7.360  21.497  1.00  0.00     0.059 A 
ATOM     78  F   UNL     1      -4.809   5.207  21.087  1.00  0.00    -0.206 F 
ATOM     79  C   UNL     1      -2.934   8.280  21.393  1.00  0.00     0.060 A 
BRANCH  79  80
ATOM     80  S   UNL     1      -3.159   9.980  21.957  1.00  0.00     0.124 S 
ATOM     81  O   UNL     1      -2.275  10.026  23.116  1.00  0.00    -0.237 OA
ATOM     82  O   UNL     1      -2.725  10.746  20.793  1.00  0.00    -0.237 OA
ATOM     83  O   UNL     1      -4.587  10.053  22.249  1.00  0.00    -0.744 OA
ENDBRANCH  79  80
ENDBRANCH  47  72
BRANCH  59  84
ATOM     84  C   UNL     1       1.187  -0.043  21.706  1.00  0.00     0.058 A 
ATOM     85  C   UNL     1       0.742  -0.357  22.999  1.00  0.00     0.135 A 
ATOM     86  C   UNL     1       2.560  -0.162  21.436  1.00  0.00     0.135 A 
ATOM     87  F   UNL     1      -0.559  -0.251  23.311  1.00  0.00    -0.206 F 
ATOM     88  C   UNL     1       1.626  -0.772  23.989  1.00  0.00     0.059 A 
ATOM     89  C   UNL     1       3.458  -0.599  22.403  1.00  0.00     0.059 A 
ATOM     90  F   UNL     1       3.035   0.120  20.212  1.00  0.00    -0.206 F 
ATOM     91  C   UNL     1       2.982  -0.899  23.679  1.00  0.00     0.060 A 
BRANCH  91  92
ATOM     92  S   UNL     1       4.106  -1.499  24.958  1.00  0.00     0.124 S 
ATOM     93  O   UNL     1       4.140  -0.364  25.875  1.00  0.00    -0.237 OA
ATOM     94  O   UNL     1       3.414  -2.688  25.446  1.00  0.00    -0.237 OA
ATOM     95  O   UNL     1       5.345  -1.755  24.231  1.00  0.00    -0.744 OA
ENDBRANCH  91  92
ENDBRANCH  59  84
ENDBRANCH  33  34
ENDBRANCH  25  28
ENDBRANCH  23  24
ENDBRANCH   1  23
TORSDOF 16
