REMARK SMILES O=C(NCCCNC(=O)c1ccccc1NC(=O)c1ccc2c(c1)C(=O)N(Cc1ccccc1)C2=O)c1ccc(-c2c3nc(c(-c4c(F)cc(S(=O)(=O)[O-])cc4F)c4ccc([nH]4)c(-c4c(F)cc(S(=O)(=O)[O-])cc4F)c4nc(c(-c5c(F)cc(S(=O)(=O)[O-])cc5F)c5ccc2[nH]5)C=C4)C=C3)cc1
REMARK SMILES IDX 5 1 4 2 3 3 1 4 2 5 37 7 38 8 102 9 39 10 101 11 40 12 41 13
REMARK SMILES IDX 42 14 95 15 43 16 100 17 94 18 96 19 44 20 99 21 93 22 92 23
REMARK SMILES IDX 45 25 79 26 58 27 78 28 59 29 62 30 77 31 97 32 60 33 61 34
REMARK SMILES IDX 76 36 98 37 63 38 46 39 47 40 56 41 48 42 49 43 55 44 57 45
REMARK SMILES IDX 50 46 51 47 52 48 53 49 54 50 80 51 81 52 90 53 82 54 83 55
REMARK SMILES IDX 89 56 91 57 84 58 85 59 86 60 87 61 88 62 64 63 65 64 74 65
REMARK SMILES IDX 66 66 67 67 73 68 75 69 68 70 69 71 70 72 71 73 72 74 6 75
REMARK SMILES IDX 7 76 8 77 9 79 10 80 11 81 15 82 12 83 14 84 13 85 16 86
REMARK SMILES IDX 17 87 18 89 19 90 20 91 24 92 21 93 23 94 22 95 25 96 35 97
REMARK SMILES IDX 26 98 27 99 36 100 28 101 29 102 30 103 34 104 31 105 33 106
REMARK SMILES IDX 32 107
REMARK H PARENT 3 6 96 24 62 35 7 78 16 88
REMARK Flexibility Score: inf
ROOT
ATOM      1  C   UNL     1       5.060   2.372   0.468  1.00  0.00     0.042 C 
ENDROOT
BRANCH   1   2
ATOM      2  C   UNL     1       4.614   0.961   0.814  1.00  0.00     0.118 C 
BRANCH   2   3
ATOM      3  N   UNL     1       3.171   0.788   0.722  1.00  0.00    -0.352 N 
ATOM      4  O   UNL     1       1.218   0.144  -0.195  1.00  0.00    -0.269 OA
ATOM      5  C   UNL     1       2.437   0.013  -0.142  1.00  0.00     0.251 C 
ATOM      6  H   UNL     1       2.644   1.302   1.376  1.00  0.00     0.163 HD
BRANCH   5   7
ATOM      7  C   UNL     1       3.123  -0.963  -1.015  1.00  0.00     0.039 A 
ATOM      8  C   UNL     1       4.152  -1.760  -0.510  1.00  0.00     0.014 A 
ATOM      9  C   UNL     1       2.717  -1.099  -2.345  1.00  0.00     0.014 A 
ATOM     10  C   UNL     1       4.871  -2.584  -1.364  1.00  0.00     0.010 A 
ATOM     11  C   UNL     1       3.372  -2.009  -3.179  1.00  0.00     0.010 A 
ATOM     12  C   UNL     1       4.463  -2.748  -2.696  1.00  0.00    -0.014 A 
BRANCH  12  13
ATOM     13  C   UNL     1       5.106  -3.803  -3.515  1.00  0.00     0.031 A 
ATOM     14  C   UNL     1       5.894  -3.469  -4.748  1.00  0.00     0.074 A 
ATOM     15  C   UNL     1       4.960  -5.082  -3.114  1.00  0.00     0.049 A 
ATOM     16  N   UNL     1       6.494  -4.283  -5.578  1.00  0.00    -0.248 NA
ATOM     17  C   UNL     1       6.024  -2.047  -5.106  1.00  0.00     0.031 C 
ATOM     18  C   UNL     1       4.188  -5.513  -1.942  1.00  0.00     0.029 A 
ATOM     19  N   UNL     1       5.447  -6.252  -3.633  1.00  0.00    -0.354 N 
ATOM     20  C   UNL     1       7.048  -3.482  -6.568  1.00  0.00     0.074 A 
ATOM     21  C   UNL     1       6.710  -2.113  -6.241  1.00  0.00     0.031 C 
ATOM     22  C   UNL     1       4.278  -6.843  -1.816  1.00  0.00     0.029 A 
ATOM     23  C   UNL     1       5.048  -7.368  -2.935  1.00  0.00     0.049 A 
ATOM     24  H   UNL     1       6.026  -6.291  -4.428  1.00  0.00     0.167 HD
ATOM     25  C   UNL     1       7.770  -3.865  -7.648  1.00  0.00     0.037 A 
ATOM     26  C   UNL     1       5.242  -8.675  -3.188  1.00  0.00     0.037 A 
ATOM     27  C   UNL     1       8.123  -5.232  -7.937  1.00  0.00     0.049 A 
ATOM     28  C   UNL     1       6.029  -9.063  -4.404  1.00  0.00     0.074 A 
ATOM     29  C   UNL     1       8.930  -5.713  -8.954  1.00  0.00     0.029 A 
ATOM     30  N   UNL     1       7.681  -6.336  -7.222  1.00  0.00    -0.354 N 
ATOM     31  N   UNL     1       6.608  -8.286  -5.288  1.00  0.00    -0.248 NA
ATOM     32  C   UNL     1       6.179 -10.499  -4.667  1.00  0.00     0.031 C 
ATOM     33  C   UNL     1       8.932  -7.110  -8.886  1.00  0.00     0.029 A 
ATOM     34  C   UNL     1       8.162  -7.498  -7.802  1.00  0.00     0.049 A 
ATOM     35  H   UNL     1       7.110  -6.298  -6.421  1.00  0.00     0.167 HD
ATOM     36  C   UNL     1       7.188  -9.140  -6.216  1.00  0.00     0.074 A 
ATOM     37  C   UNL     1       6.919 -10.491  -5.767  1.00  0.00     0.031 C 
ATOM     38  C   UNL     1       7.873  -8.833  -7.344  1.00  0.00     0.037 A 
BRANCH  25  39
ATOM     39  C   UNL     1       8.227  -2.812  -8.617  1.00  0.00     0.058 A 
ATOM     40  C   UNL     1       9.307  -1.963  -8.333  1.00  0.00     0.135 A 
ATOM     41  C   UNL     1       7.649  -2.732  -9.896  1.00  0.00     0.135 A 
ATOM     42  F   UNL     1       9.887  -1.988  -7.123  1.00  0.00    -0.206 F 
ATOM     43  C   UNL     1       9.802  -1.074  -9.284  1.00  0.00     0.059 A 
ATOM     44  C   UNL     1       8.139  -1.864 -10.868  1.00  0.00     0.059 A 
ATOM     45  F   UNL     1       6.612  -3.520 -10.217  1.00  0.00    -0.206 F 
ATOM     46  C   UNL     1       9.216  -1.038 -10.552  1.00  0.00     0.060 A 
BRANCH  46  47
ATOM     47  S   UNL     1       9.908   0.078 -11.791  1.00  0.00     0.124 S 
ATOM     48  O   UNL     1       9.470   1.377 -11.290  1.00  0.00    -0.237 OA
ATOM     49  O   UNL     1      11.339  -0.190 -11.688  1.00  0.00    -0.237 OA
ATOM     50  O   UNL     1       9.280  -0.359 -13.034  1.00  0.00    -0.744 OA
ENDBRANCH  46  47
ENDBRANCH  25  39
BRANCH  26  51
ATOM     51  C   UNL     1       4.627  -9.700  -2.306  1.00  0.00     0.058 A 
ATOM     52  C   UNL     1       5.412 -10.527  -1.492  1.00  0.00     0.135 A 
ATOM     53  C   UNL     1       3.232  -9.867  -2.260  1.00  0.00     0.135 A 
ATOM     54  F   UNL     1       6.748 -10.405  -1.502  1.00  0.00    -0.206 F 
ATOM     55  C   UNL     1       4.840 -11.501  -0.680  1.00  0.00     0.059 A 
ATOM     56  C   UNL     1       2.636 -10.814  -1.436  1.00  0.00     0.059 A 
ATOM     57  F   UNL     1       2.435  -9.086  -3.005  1.00  0.00    -0.206 F 
ATOM     58  C   UNL     1       3.451 -11.639  -0.662  1.00  0.00     0.060 A 
BRANCH  58  59
ATOM     59  S   UNL     1       2.712 -12.893   0.406  1.00  0.00     0.124 S 
ATOM     60  O   UNL     1       2.959 -14.109  -0.360  1.00  0.00    -0.237 OA
ATOM     61  O   UNL     1       3.483 -12.745   1.636  1.00  0.00    -0.237 OA
ATOM     62  O   UNL     1       1.317 -12.474   0.496  1.00  0.00    -0.744 OA
ENDBRANCH  58  59
ENDBRANCH  26  51
BRANCH  38  63
ATOM     63  C   UNL     1       8.370  -9.982  -8.171  1.00  0.00     0.058 A 
ATOM     64  C   UNL     1       7.494 -10.739  -8.963  1.00  0.00     0.135 A 
ATOM     65  C   UNL     1       9.736 -10.299  -8.210  1.00  0.00     0.135 A 
ATOM     66  F   UNL     1       6.176 -10.482  -8.948  1.00  0.00    -0.206 F 
ATOM     67  C   UNL     1       7.954 -11.784  -9.756  1.00  0.00     0.059 A 
ATOM     68  C   UNL     1      10.222 -11.323  -9.015  1.00  0.00     0.059 A 
ATOM     69  F   UNL     1      10.614  -9.599  -7.473  1.00  0.00    -0.206 F 
ATOM     70  C   UNL     1       9.321 -12.066  -9.778  1.00  0.00     0.060 A 
BRANCH  70  71
ATOM     71  S   UNL     1       9.912 -13.395 -10.846  1.00  0.00     0.124 S 
ATOM     72  O   UNL     1       9.489 -14.578 -10.103  1.00  0.00    -0.237 OA
ATOM     73  O   UNL     1       9.195 -13.139 -12.091  1.00  0.00    -0.237 OA
ATOM     74  O   UNL     1      11.353 -13.171 -10.902  1.00  0.00    -0.744 OA
ENDBRANCH  70  71
ENDBRANCH  38  63
ENDBRANCH  12  13
ENDBRANCH   5   7
ENDBRANCH   2   3
ENDBRANCH   1   2
BRANCH   1  75
ATOM     75  C   UNL     1       4.507   3.434   1.402  1.00  0.00     0.118 C 
BRANCH  75  76
ATOM     76  N   UNL     1       4.888   3.204   2.788  1.00  0.00    -0.352 N 
ATOM     77  C   UNL     1       5.623   4.004   3.619  1.00  0.00     0.253 C 
ATOM     78  H   UNL     1       4.575   2.357   3.180  1.00  0.00     0.163 HD
ATOM     79  O   UNL     1       5.997   3.596   4.714  1.00  0.00    -0.269 OA
BRANCH  77  80
ATOM     80  C   UNL     1       5.958   5.374   3.200  1.00  0.00     0.063 A 
ATOM     81  C   UNL     1       7.330   5.675   3.127  1.00  0.00     0.016 A 
ATOM     82  C   UNL     1       4.969   6.333   2.898  1.00  0.00     0.054 A 
ATOM     83  C   UNL     1       7.745   6.940   2.731  1.00  0.00     0.001 A 
ATOM     84  C   UNL     1       5.426   7.611   2.566  1.00  0.00     0.027 A 
ATOM     85  C   UNL     1       6.792   7.910   2.454  1.00  0.00     0.002 A 
BRANCH  82  86
ATOM     86  N   UNL     1       3.586   5.989   2.990  1.00  0.00    -0.321 N 
ATOM     87  C   UNL     1       2.439   6.522   2.422  1.00  0.00     0.255 C 
ATOM     88  H   UNL     1       3.412   5.217   3.575  1.00  0.00     0.170 HD
ATOM     89  O   UNL     1       1.322   6.122   2.730  1.00  0.00    -0.269 OA
BRANCH  87  90
ATOM     90  C   UNL     1       2.560   7.497   1.326  1.00  0.00     0.041 A 
ATOM     91  C   UNL     1       2.422   8.873   1.617  1.00  0.00     0.015 A 
ATOM     92  C   UNL     1       3.135   7.037   0.141  1.00  0.00     0.028 A 
ATOM     93  C   UNL     1       3.080   9.816   0.814  1.00  0.00     0.015 A 
ATOM     94  C   UNL     1       3.802   7.985  -0.598  1.00  0.00     0.054 A 
ATOM     95  C   UNL     1       3.832   9.323  -0.243  1.00  0.00     0.053 A 
ATOM     96  C   UNL     1       4.923   7.716  -1.485  1.00  0.00     0.261 C 
ATOM     97  C   UNL     1       5.031   9.897  -0.866  1.00  0.00     0.261 C 
ATOM     98  O   UNL     1       5.185   6.608  -1.895  1.00  0.00    -0.269 OA
ATOM     99  N   UNL     1       5.624   8.888  -1.575  1.00  0.00    -0.270 N 
ATOM    100  O   UNL     1       5.447  11.016  -0.619  1.00  0.00    -0.269 OA
BRANCH  99 101
ATOM    101  C   UNL     1       6.963   8.940  -2.119  1.00  0.00     0.164 C 
BRANCH 101 102
ATOM    102  C   UNL     1       6.954   8.974  -3.622  1.00  0.00    -0.028 A 
ATOM    103  C   UNL     1       7.022  10.195  -4.302  1.00  0.00     0.005 A 
ATOM    104  C   UNL     1       6.819   7.787  -4.357  1.00  0.00     0.005 A 
ATOM    105  C   UNL     1       6.942  10.226  -5.694  1.00  0.00     0.000 A 
ATOM    106  C   UNL     1       6.725   7.821  -5.746  1.00  0.00     0.000 A 
ATOM    107  C   UNL     1       6.783   9.042  -6.413  1.00  0.00     0.000 A 
ENDBRANCH 101 102
ENDBRANCH  99 101
ENDBRANCH  87  90
ENDBRANCH  82  86
ENDBRANCH  77  80
ENDBRANCH  75  76
ENDBRANCH   1  75
TORSDOF 17
