REMARK SMILES C#CCN(CC(=O)NCCCNC(=O)c1ccc(-c2c3nc(c(-c4c(F)cc(S(=O)(=O)[O-])cc4F)c4ccc([nH]4)c(-c4c(F)cc(S(=O)(=O)[O-])cc4F)c4nc(c(-c5c(F)cc(S(=O)(=O)[O-])cc5F)c5ccc2[nH]5)C=C4)C=C3)cc1)C(=O)c1cccnc1C
REMARK SMILES IDX 10 1 9 2 8 3 6 4 7 5 5 7 4 8 3 9 2 10 1 11 81 12 82 13 83 14
REMARK SMILES IDX 84 15 88 16 85 17 87 18 89 19 86 20 11 21 12 22 13 23 14 25
REMARK SMILES IDX 15 26 16 27 80 28 17 29 79 30 18 31 19 32 20 33 73 34 21 35
REMARK SMILES IDX 78 36 72 37 74 38 22 39 77 40 71 41 70 42 23 44 57 45 36 46
REMARK SMILES IDX 56 47 37 48 40 49 55 50 75 51 38 52 39 53 54 55 76 56 41 57
REMARK SMILES IDX 24 58 25 59 34 60 26 61 27 62 33 63 35 64 28 65 29 66 30 67
REMARK SMILES IDX 31 68 32 69 58 70 59 71 68 72 60 73 61 74 67 75 69 76 62 77
REMARK SMILES IDX 63 78 64 79 65 80 66 81 42 82 43 83 52 84 44 85 45 86 51 87
REMARK SMILES IDX 53 88 46 89 47 90 48 91 49 92 50 93
REMARK H PARENT 8 6 12 24 74 43 40 54
REMARK Flexibility Score: inf
ROOT
ATOM      1  C   UNL     1      -4.938   1.371   0.032  1.00  0.00     0.042 C 
ENDROOT
BRANCH   1   2
ATOM      2  C   UNL     1      -5.061  -0.101   0.423  1.00  0.00     0.117 C 
BRANCH   2   3
ATOM      3  N   UNL     1      -5.321  -1.013  -0.676  1.00  0.00    -0.354 N 
ATOM      4  C   UNL     1      -4.514  -1.841  -1.396  1.00  0.00     0.239 C 
ATOM      5  O   UNL     1      -5.083  -2.758  -2.001  1.00  0.00    -0.273 OA
ATOM      6  H   UNL     1      -6.265  -1.039  -0.955  1.00  0.00     0.163 HD
BRANCH   4   7
ATOM      7  C   UNL     1      -2.974  -1.791  -1.383  1.00  0.00     0.220 C 
BRANCH   7   8
ATOM      8  N   UNL     1      -2.349  -0.472  -1.348  1.00  0.00    -0.318 N 
BRANCH   8   9
ATOM      9  C   UNL     1      -1.774  -0.032  -0.081  1.00  0.00     0.210 C 
BRANCH   9  10
ATOM     10  C   UNL     1      -0.255  -0.032  -0.081  1.00  0.00    -0.085 C 
ATOM     11  C   UNL     1       1.049  -0.032  -0.081  1.00  0.00     0.006 C 
ENDBRANCH   9  10
ENDBRANCH   8   9
BRANCH   8  12
ATOM     12  C   UNL     1      -2.243   0.378  -2.453  1.00  0.00     0.256 C 
ATOM     13  O   UNL     1      -1.852   1.539  -2.364  1.00  0.00    -0.269 OA
BRANCH  12  14
ATOM     14  C   UNL     1      -2.528  -0.121  -3.817  1.00  0.00     0.061 A 
ATOM     15  C   UNL     1      -1.427  -0.455  -4.615  1.00  0.00     0.017 A 
ATOM     16  C   UNL     1      -3.792  -0.116  -4.410  1.00  0.00     0.050 A 
ATOM     17  C   UNL     1      -1.621  -0.825  -5.944  1.00  0.00     0.021 A 
ATOM     18  N   UNL     1      -3.995  -0.525  -5.694  1.00  0.00    -0.261 NA
ATOM     19  C   UNL     1      -5.025   0.384  -3.732  1.00  0.00     0.067 C 
ATOM     20  C   UNL     1      -2.915  -0.860  -6.429  1.00  0.00     0.111 A 
ENDBRANCH  12  14
ENDBRANCH   8  12
ENDBRANCH   7   8
ENDBRANCH   4   7
ENDBRANCH   2   3
ENDBRANCH   1   2
BRANCH   1  21
ATOM     21  C   UNL     1      -6.199   2.003  -0.552  1.00  0.00     0.118 C 
BRANCH  21  22
ATOM     22  N   UNL     1      -7.287   2.081   0.407  1.00  0.00    -0.352 N 
ATOM     23  C   UNL     1      -7.898   3.164   0.988  1.00  0.00     0.251 C 
ATOM     24  H   UNL     1      -7.647   1.209   0.688  1.00  0.00     0.163 HD
ATOM     25  O   UNL     1      -8.677   2.966   1.920  1.00  0.00    -0.269 OA
BRANCH  23  26
ATOM     26  C   UNL     1      -7.635   4.551   0.534  1.00  0.00     0.039 A 
ATOM     27  C   UNL     1      -7.565   5.564   1.497  1.00  0.00     0.014 A 
ATOM     28  C   UNL     1      -7.537   4.883  -0.820  1.00  0.00     0.014 A 
ATOM     29  C   UNL     1      -7.346   6.892   1.112  1.00  0.00     0.010 A 
ATOM     30  C   UNL     1      -7.255   6.197  -1.200  1.00  0.00     0.010 A 
ATOM     31  C   UNL     1      -7.162   7.217  -0.240  1.00  0.00    -0.014 A 
BRANCH  31  32
ATOM     32  C   UNL     1      -6.889   8.612  -0.679  1.00  0.00     0.031 A 
ATOM     33  C   UNL     1      -7.880   9.337  -1.550  1.00  0.00     0.074 A 
ATOM     34  C   UNL     1      -5.720   9.203  -0.358  1.00  0.00     0.049 A 
ATOM     35  N   UNL     1      -7.763  10.492  -2.154  1.00  0.00    -0.248 NA
ATOM     36  C   UNL     1      -9.165   8.661  -1.792  1.00  0.00     0.031 C 
ATOM     37  C   UNL     1      -4.668   8.605   0.467  1.00  0.00     0.029 A 
ATOM     38  N   UNL     1      -5.209  10.429  -0.707  1.00  0.00    -0.354 N 
ATOM     39  C   UNL     1      -8.944  10.670  -2.867  1.00  0.00     0.074 A 
ATOM     40  C   UNL     1      -9.751   9.489  -2.645  1.00  0.00     0.031 C 
ATOM     41  C   UNL     1      -3.641   9.464   0.561  1.00  0.00     0.029 A 
ATOM     42  C   UNL     1      -3.938  10.653  -0.232  1.00  0.00     0.049 A 
ATOM     43  H   UNL     1      -5.706  11.086  -1.246  1.00  0.00     0.167 HD
ATOM     44  C   UNL     1      -9.325  11.726  -3.626  1.00  0.00     0.037 A 
ATOM     45  C   UNL     1      -3.096  11.687  -0.431  1.00  0.00     0.037 A 
ATOM     46  C   UNL     1      -8.530  12.911  -3.821  1.00  0.00     0.049 A 
ATOM     47  C   UNL     1      -3.536  12.844  -1.287  1.00  0.00     0.074 A 
ATOM     48  C   UNL     1      -8.848  14.051  -4.539  1.00  0.00     0.029 A 
ATOM     49  N   UNL     1      -7.263  13.111  -3.294  1.00  0.00    -0.354 N 
ATOM     50  N   UNL     1      -4.668  13.010  -1.928  1.00  0.00    -0.248 NA
ATOM     51  C   UNL     1      -2.588  13.956  -1.447  1.00  0.00     0.031 C 
ATOM     52  C   UNL     1      -7.758  14.925  -4.477  1.00  0.00     0.029 A 
ATOM     53  C   UNL     1      -6.780  14.350  -3.680  1.00  0.00     0.049 A 
ATOM     54  H   UNL     1      -6.777  12.466  -2.729  1.00  0.00     0.167 HD
ATOM     55  C   UNL     1      -4.583  14.259  -2.534  1.00  0.00     0.074 A 
ATOM     56  C   UNL     1      -3.288  14.805  -2.187  1.00  0.00     0.031 C 
ATOM     57  C   UNL     1      -5.500  14.896  -3.303  1.00  0.00     0.037 A 
BRANCH  44  58
ATOM     58  C   UNL     1     -10.663  11.648  -4.311  1.00  0.00     0.058 A 
ATOM     59  C   UNL     1     -11.866  11.737  -3.592  1.00  0.00     0.135 A 
ATOM     60  C   UNL     1     -10.743  11.521  -5.707  1.00  0.00     0.135 A 
ATOM     61  F   UNL     1     -11.848  11.847  -2.255  1.00  0.00    -0.206 F 
ATOM     62  C   UNL     1     -13.100  11.672  -4.230  1.00  0.00     0.059 A 
ATOM     63  C   UNL     1     -11.967  11.481  -6.369  1.00  0.00     0.059 A 
ATOM     64  F   UNL     1      -9.624  11.434  -6.444  1.00  0.00    -0.206 F 
ATOM     65  C   UNL     1     -13.141  11.542  -5.619  1.00  0.00     0.060 A 
BRANCH  65  66
ATOM     66  S   UNL     1     -14.750  11.457  -6.434  1.00  0.00     0.124 S 
ATOM     67  O   UNL     1     -15.180  10.105  -6.087  1.00  0.00    -0.237 OA
ATOM     68  O   UNL     1     -15.486  12.539  -5.785  1.00  0.00    -0.237 OA
ATOM     69  O   UNL     1     -14.433  11.674  -7.839  1.00  0.00    -0.744 OA
ENDBRANCH  65  66
ENDBRANCH  44  58
BRANCH  45  70
ATOM     70  C   UNL     1      -1.751  11.679   0.204  1.00  0.00     0.058 A 
ATOM     71  C   UNL     1      -1.452  12.544   1.267  1.00  0.00     0.135 A 
ATOM     72  C   UNL     1      -0.745  10.800  -0.227  1.00  0.00     0.135 A 
ATOM     73  F   UNL     1      -2.377  13.409   1.708  1.00  0.00    -0.206 F 
ATOM     74  C   UNL     1      -0.199  12.549   1.872  1.00  0.00     0.059 A 
ATOM     75  C   UNL     1       0.507  10.768   0.380  1.00  0.00     0.059 A 
ATOM     76  F   UNL     1      -0.986   9.942  -1.230  1.00  0.00    -0.206 F 
ATOM     77  C   UNL     1       0.774  11.654   1.423  1.00  0.00     0.060 A 
BRANCH  77  78
ATOM     78  S   UNL     1       2.380  11.634   2.249  1.00  0.00     0.124 S 
ATOM     79  O   UNL     1       2.987  12.858   1.740  1.00  0.00    -0.237 OA
ATOM     80  O   UNL     1       2.000  11.648   3.659  1.00  0.00    -0.237 OA
ATOM     81  O   UNL     1       2.981  10.389   1.783  1.00  0.00    -0.744 OA
ENDBRANCH  77  78
ENDBRANCH  45  70
BRANCH  57  82
ATOM     82  C   UNL     1      -5.175  16.285  -3.777  1.00  0.00     0.058 A 
ATOM     83  C   UNL     1      -4.268  16.519  -4.821  1.00  0.00     0.135 A 
ATOM     84  C   UNL     1      -5.851  17.390  -3.233  1.00  0.00     0.135 A 
ATOM     85  F   UNL     1      -3.590  15.499  -5.369  1.00  0.00    -0.206 F 
ATOM     86  C   UNL     1      -4.038  17.803  -5.307  1.00  0.00     0.059 A 
ATOM     87  C   UNL     1      -5.654  18.678  -3.719  1.00  0.00     0.059 A 
ATOM     88  F   UNL     1      -6.735  17.218  -2.237  1.00  0.00    -0.206 F 
ATOM     89  C   UNL     1      -4.742  18.875  -4.754  1.00  0.00     0.060 A 
BRANCH  89  90
ATOM     90  S   UNL     1      -4.485  20.527  -5.438  1.00  0.00     0.124 S 
ATOM     91  O   UNL     1      -3.174  20.869  -4.898  1.00  0.00    -0.237 OA
ATOM     92  O   UNL     1      -4.534  20.281  -6.876  1.00  0.00    -0.237 OA
ATOM     93  O   UNL     1      -5.605  21.295  -4.902  1.00  0.00    -0.744 OA
ENDBRANCH  89  90
ENDBRANCH  57  82
ENDBRANCH  31  32
ENDBRANCH  23  26
ENDBRANCH  21  22
ENDBRANCH   1  21
TORSDOF 18
