REMARK SMILES O=C(CCn1ccnc1)N[C@H]1C=C[C@H](C(=O)NCCCNC(=O)c2ccc(-c3c4nc(c(-c5c(F)cc(S(=O)(=O)[O-])cc5F)c5ccc([nH]5)c(-c5c(F)cc(S(=O)(=O)[O-])cc5F)c5nc(c(-c6c(F)cc(S(=O)(=O)[O-])cc6F)c6ccc3[nH]6)C=C5)C=C4)cc2)C1
REMARK SMILES IDX 18 1 17 2 15 3 16 4 14 6 11 7 12 8 90 9 13 10 10 11 1 12
REMARK SMILES IDX 2 13 3 15 4 16 5 17 6 18 9 19 7 20 8 21 19 22 20 23 21 24
REMARK SMILES IDX 22 25 23 27 24 28 25 29 89 30 26 31 88 32 27 33 28 34 29 35
REMARK SMILES IDX 82 36 30 37 87 38 81 39 83 40 31 41 86 42 80 43 79 44 32 46
REMARK SMILES IDX 66 47 45 48 65 49 46 50 49 51 64 52 84 53 47 54 48 55 63 57
REMARK SMILES IDX 85 58 50 59 33 60 34 61 43 62 35 63 36 64 42 65 44 66 37 67
REMARK SMILES IDX 38 68 39 69 40 70 41 71 67 72 68 73 77 74 69 75 70 76 76 77
REMARK SMILES IDX 78 78 71 79 72 80 73 81 74 82 75 83 51 84 52 85 61 86 53 87
REMARK SMILES IDX 54 88 60 89 62 90 55 91 56 92 57 93 58 94 59 95
REMARK H PARENT 17 5 10 14 21 26 83 45 49 56
REMARK Flexibility Score: inf
ROOT
ATOM      1  C   UNL     1       1.046  -6.556   1.626  1.00  0.00     0.117 C 
ENDROOT
BRANCH   1   2
ATOM      2  N   UNL     1       0.915  -5.777   2.846  1.00  0.00    -0.356 N 
ATOM      3  C   UNL     1       1.503  -4.637   3.292  1.00  0.00     0.227 C 
ATOM      4  O   UNL     1       1.056  -4.186   4.353  1.00  0.00    -0.274 OA
ATOM      5  H   UNL     1       0.264  -6.154   3.481  1.00  0.00     0.163 HD
BRANCH   3   6
ATOM      6  C   UNL     1       2.710  -3.959   2.615  1.00  0.00     0.103 C 
ATOM      7  C   UNL     1       1.942  -1.918   1.493  1.00  0.00     0.106 C 
ATOM      8  C   UNL     1       2.322  -2.983   0.514  1.00  0.00    -0.006 C 
ATOM      9  C   UNL     1       2.604  -2.428   2.783  1.00  0.00     0.047 C 
ATOM     10  C   UNL     1       2.832  -4.054   1.127  1.00  0.00    -0.016 C 
BRANCH   7  11
ATOM     11  N   UNL     1       2.584  -0.719   1.016  1.00  0.00    -0.350 N 
ATOM     12  O   UNL     1       0.766   0.200  -0.025  1.00  0.00    -0.275 OA
ATOM     13  C   UNL     1       1.971   0.200   0.208  1.00  0.00     0.222 C 
ATOM     14  H   UNL     1       3.515  -0.551   1.286  1.00  0.00     0.164 HD
BRANCH  13  15
ATOM     15  C   UNL     1       2.904   1.147  -0.525  1.00  0.00     0.122 C 
BRANCH  15  16
ATOM     16  C   UNL     1       3.950   1.845   0.337  1.00  0.00     0.133 C 
BRANCH  16  17
ATOM     17  N   UNL     1       5.106   1.065   0.743  1.00  0.00    -0.337 N 
ATOM     18  C   UNL     1       5.828   1.289   1.885  1.00  0.00     0.107 A 
ATOM     19  C   UNL     1       5.646  -0.032   0.133  1.00  0.00     0.199 A 
ATOM     20  C   UNL     1       6.728   0.252   1.953  1.00  0.00     0.130 A 
ATOM     21  N   UNL     1       6.599  -0.567   0.862  1.00  0.00    -0.245 NA
ENDBRANCH  16  17
ENDBRANCH  15  16
ENDBRANCH  13  15
ENDBRANCH   7  11
ENDBRANCH   3   6
ENDBRANCH   1   2
BRANCH   1  22
ATOM     22  C   UNL     1       1.677  -7.929   1.851  1.00  0.00     0.042 C 
BRANCH  22  23
ATOM     23  C   UNL     1       0.677  -8.925   2.415  1.00  0.00     0.118 C 
BRANCH  23  24
ATOM     24  N   UNL     1      -0.413  -9.228   1.475  1.00  0.00    -0.352 N 
ATOM     25  C   UNL     1      -1.544  -9.996   1.688  1.00  0.00     0.251 C 
ATOM     26  H   UNL     1      -0.326  -8.835   0.577  1.00  0.00     0.163 HD
ATOM     27  O   UNL     1      -2.205 -10.423   0.746  1.00  0.00    -0.269 OA
BRANCH  25  28
ATOM     28  C   UNL     1      -1.930 -10.288   3.076  1.00  0.00     0.039 A 
ATOM     29  C   UNL     1      -2.297 -11.569   3.496  1.00  0.00     0.014 A 
ATOM     30  C   UNL     1      -1.798  -9.247   3.985  1.00  0.00     0.014 A 
ATOM     31  C   UNL     1      -2.423 -11.810   4.863  1.00  0.00     0.010 A 
ATOM     32  C   UNL     1      -1.698  -9.541   5.315  1.00  0.00     0.010 A 
ATOM     33  C   UNL     1      -2.090 -10.794   5.771  1.00  0.00    -0.014 A 
BRANCH  33  34
ATOM     34  C   UNL     1      -2.046 -11.027   7.210  1.00  0.00     0.031 A 
ATOM     35  C   UNL     1      -1.192 -12.170   7.633  1.00  0.00     0.074 A 
ATOM     36  C   UNL     1      -2.519 -10.125   8.101  1.00  0.00     0.049 A 
ATOM     37  N   UNL     1      -1.567 -13.309   8.113  1.00  0.00    -0.248 NA
ATOM     38  C   UNL     1       0.249 -12.101   7.337  1.00  0.00     0.031 C 
ATOM     39  C   UNL     1      -3.078  -8.790   7.838  1.00  0.00     0.029 A 
ATOM     40  N   UNL     1      -2.487 -10.163   9.458  1.00  0.00    -0.354 N 
ATOM     41  C   UNL     1      -0.394 -13.993   8.427  1.00  0.00     0.074 A 
ATOM     42  C   UNL     1       0.655 -13.316   7.713  1.00  0.00     0.031 C 
ATOM     43  C   UNL     1      -3.092  -8.067   8.978  1.00  0.00     0.029 A 
ATOM     44  C   UNL     1      -2.741  -8.943  10.077  1.00  0.00     0.049 A 
ATOM     45  H   UNL     1      -2.300 -10.987   9.963  1.00  0.00     0.167 HD
ATOM     46  C   UNL     1      -0.350 -14.874   9.469  1.00  0.00     0.037 A 
ATOM     47  C   UNL     1      -2.661  -8.668  11.402  1.00  0.00     0.037 A 
ATOM     48  C   UNL     1      -1.688 -15.227   9.891  1.00  0.00     0.049 A 
ATOM     49  C   UNL     1      -2.744  -9.971  12.110  1.00  0.00     0.074 A 
ATOM     50  C   UNL     1      -2.792 -15.785   9.276  1.00  0.00     0.029 A 
ATOM     51  N   UNL     1      -2.162 -14.637  11.039  1.00  0.00    -0.354 N 
ATOM     52  N   UNL     1      -3.801 -10.739  12.099  1.00  0.00    -0.248 NA
ATOM     53  C   UNL     1      -1.498 -10.637  12.452  1.00  0.00     0.031 C 
ATOM     54  C   UNL     1      -3.912 -15.092   9.825  1.00  0.00     0.029 A 
ATOM     55  C   UNL     1      -3.440 -14.206  10.796  1.00  0.00     0.049 A 
ATOM     56  H   UNL     1      -1.670 -14.541  11.887  1.00  0.00     0.167 HD
ATOM     57  C   UNL     1      -3.304 -12.030  12.003  1.00  0.00     0.074 A 
ATOM     58  C   UNL     1      -1.884 -11.910  12.332  1.00  0.00     0.031 C 
ATOM     59  C   UNL     1      -4.021 -13.020  11.391  1.00  0.00     0.037 A 
BRANCH  46  60
ATOM     60  C   UNL     1       0.853 -15.096  10.373  1.00  0.00     0.058 A 
ATOM     61  C   UNL     1       0.761 -16.065  11.398  1.00  0.00     0.135 A 
ATOM     62  C   UNL     1       1.958 -14.222  10.477  1.00  0.00     0.135 A 
ATOM     63  F   UNL     1      -0.229 -16.972  11.396  1.00  0.00    -0.206 F 
ATOM     64  C   UNL     1       1.620 -16.081  12.498  1.00  0.00     0.059 A 
ATOM     65  C   UNL     1       2.857 -14.255  11.538  1.00  0.00     0.059 A 
ATOM     66  F   UNL     1       2.183 -13.228   9.612  1.00  0.00    -0.206 F 
ATOM     67  C   UNL     1       2.650 -15.151  12.570  1.00  0.00     0.060 A 
BRANCH  67  68
ATOM     68  S   UNL     1       3.675 -15.074  14.048  1.00  0.00     0.124 S 
ATOM     69  O   UNL     1       2.724 -14.569  15.031  1.00  0.00    -0.237 OA
ATOM     70  O   UNL     1       4.083 -16.466  14.205  1.00  0.00    -0.237 OA
ATOM     71  O   UNL     1       4.742 -14.153  13.667  1.00  0.00    -0.744 OA
ENDBRANCH  67  68
ENDBRANCH  46  60
BRANCH  47  72
ATOM     72  C   UNL     1      -2.210  -7.414  12.058  1.00  0.00     0.058 A 
ATOM     73  C   UNL     1      -2.425  -7.194  13.429  1.00  0.00     0.135 A 
ATOM     74  C   UNL     1      -1.309  -6.535  11.421  1.00  0.00     0.135 A 
ATOM     75  F   UNL     1      -3.256  -7.992  14.117  1.00  0.00    -0.206 F 
ATOM     76  C   UNL     1      -1.743  -6.202  14.142  1.00  0.00     0.059 A 
ATOM     77  C   UNL     1      -0.626  -5.532  12.108  1.00  0.00     0.059 A 
ATOM     78  F   UNL     1      -0.995  -6.686  10.126  1.00  0.00    -0.206 F 
ATOM     79  C   UNL     1      -0.826  -5.389  13.476  1.00  0.00     0.060 A 
BRANCH  79  80
ATOM     80  S   UNL     1       0.192  -4.234  14.427  1.00  0.00     0.124 S 
ATOM     81  O   UNL     1      -0.787  -3.232  14.833  1.00  0.00    -0.237 OA
ATOM     82  O   UNL     1       0.710  -5.085  15.493  1.00  0.00    -0.237 OA
ATOM     83  O   UNL     1       1.186  -3.780  13.459  1.00  0.00    -0.744 OA
ENDBRANCH  79  80
ENDBRANCH  47  72
BRANCH  59  84
ATOM     84  C   UNL     1      -5.486 -12.775  11.118  1.00  0.00     0.058 A 
ATOM     85  C   UNL     1      -5.987 -11.803  10.234  1.00  0.00     0.135 A 
ATOM     86  C   UNL     1      -6.414 -13.672  11.668  1.00  0.00     0.135 A 
ATOM     87  F   UNL     1      -5.164 -10.970   9.585  1.00  0.00    -0.206 F 
ATOM     88  C   UNL     1      -7.350 -11.702   9.942  1.00  0.00     0.059 A 
ATOM     89  C   UNL     1      -7.772 -13.611  11.367  1.00  0.00     0.059 A 
ATOM     90  F   UNL     1      -5.995 -14.663  12.472  1.00  0.00    -0.206 F 
ATOM     91  C   UNL     1      -8.236 -12.614  10.513  1.00  0.00     0.060 A 
BRANCH  91  92
ATOM     92  S   UNL     1      -9.987 -12.533  10.077  1.00  0.00     0.124 S 
ATOM     93  O   UNL     1     -10.420 -11.322  10.765  1.00  0.00    -0.237 OA
ATOM     94  O   UNL     1      -9.950 -12.457   8.620  1.00  0.00    -0.237 OA
ATOM     95  O   UNL     1     -10.530 -13.780  10.611  1.00  0.00    -0.744 OA
ENDBRANCH  91  92
ENDBRANCH  59  84
ENDBRANCH  33  34
ENDBRANCH  25  28
ENDBRANCH  23  24
ENDBRANCH  22  23
ENDBRANCH   1  22
TORSDOF 17
