REMARK SMILES Cc1nn([C@H]2CCS(=O)(=O)C2)c(C)c1[C@@H]([NH3+])C(=O)NCCCNC(=O)c1ccc(-c2c3nc(c(-c4c(F)cc(S(=O)(=O)[O-])cc4F)c4ccc([nH]4)c(-c4c(F)cc(S(=O)(=O)[O-])cc4F)c4nc(c(-c5c(F)cc(S(=O)(=O)[O-])cc5F)c5ccc2[nH]5)C=C4)C=C3)cc1
REMARK SMILES IDX 21 1 20 2 19 3 17 4 18 5 15 7 14 8 1 9 2 10 3 11 4 12 12 13
REMARK SMILES IDX 13 14 5 15 6 16 11 17 7 18 8 19 9 20 10 21 16 22 22 26 23 27
REMARK SMILES IDX 24 28 25 30 26 31 27 32 91 33 28 34 90 35 29 36 30 37 31 38
REMARK SMILES IDX 84 39 32 40 89 41 83 42 85 43 33 44 88 45 82 46 81 47 34 49
REMARK SMILES IDX 68 50 47 51 67 52 48 53 51 54 66 55 86 56 49 57 50 58 65 60
REMARK SMILES IDX 87 61 52 62 35 63 36 64 45 65 37 66 38 67 44 68 46 69 39 70
REMARK SMILES IDX 40 71 41 72 42 73 43 74 69 75 70 76 79 77 71 78 72 79 78 80
REMARK SMILES IDX 80 81 73 82 74 83 75 84 76 85 77 86 53 87 54 88 63 89 55 90
REMARK SMILES IDX 56 91 62 92 64 93 57 94 58 95 59 96 60 97 61 98
REMARK H PARENT 19 6 16 23 16 24 16 25 23 29 85 48 51 59
REMARK Flexibility Score: inf
ROOT
ATOM      1  C   UNL     1       1.808  -2.342   6.949  1.00  0.00     0.042 C 
ENDROOT
BRANCH   1   2
ATOM      2  C   UNL     1       2.976  -3.019   6.225  1.00  0.00     0.118 C 
BRANCH   2   3
ATOM      3  N   UNL     1       2.679  -4.394   5.872  1.00  0.00    -0.351 N 
ATOM      4  C   UNL     1       2.144  -4.895   4.718  1.00  0.00     0.283 C 
ATOM      5  O   UNL     1       2.043  -6.125   4.634  1.00  0.00    -0.268 OA
ATOM      6  H   UNL     1       2.892  -5.062   6.563  1.00  0.00     0.163 HD
BRANCH   4   7
ATOM      7  C   UNL     1       1.754  -4.006   3.504  1.00  0.00     0.306 C 
BRANCH   7   8
ATOM      8  C   UNL     1       0.681  -2.985   3.786  1.00  0.00     0.063 A 
ATOM      9  C   UNL     1      -1.401  -4.415   3.094  1.00  0.00     0.069 C 
ATOM     10  C   UNL     1      -0.726  -3.230   3.695  1.00  0.00     0.069 A 
ATOM     11  N   UNL     1      -1.449  -2.195   4.142  1.00  0.00    -0.177 NA
ATOM     12  N   UNL     1      -0.536  -1.260   4.441  1.00  0.00    -0.265 N 
ATOM     13  C   UNL     1       0.735  -1.613   4.029  1.00  0.00     0.046 A 
ATOM     14  C   UNL     1       1.846  -0.622   3.924  1.00  0.00     0.067 C 
BRANCH  12  15
ATOM     15  C   UNL     1      -0.950   0.049   4.899  1.00  0.00     0.123 C 
ATOM     16  C   UNL     1      -2.447   0.299   5.175  1.00  0.00     0.044 C 
ATOM     17  C   UNL     1      -0.290   0.496   6.203  1.00  0.00     0.164 C 
ATOM     18  C   UNL     1      -2.529   1.768   5.609  1.00  0.00     0.139 C 
ATOM     19  S   UNL     1      -0.969   2.119   6.413  1.00  0.00     0.152 S 
ATOM     20  O   UNL     1      -0.210   3.017   5.582  1.00  0.00    -0.229 OA
ATOM     21  O   UNL     1      -1.189   2.367   7.831  1.00  0.00    -0.229 OA
ENDBRANCH  12  15
ENDBRANCH   7   8
BRANCH   7  22
ATOM     22  N   UNL     1       2.951  -3.397   2.901  1.00  0.00    -0.343 N 
ATOM     23  H   UNL     1       3.386  -2.764   3.572  1.00  0.00     0.345 HD
ATOM     24  H   UNL     1       2.683  -2.875   2.066  1.00  0.00     0.345 HD
ATOM     25  H   UNL     1       3.614  -4.129   2.646  1.00  0.00     0.345 HD
ENDBRANCH   7  22
ENDBRANCH   4   7
ENDBRANCH   2   3
ENDBRANCH   1   2
BRANCH   1  26
ATOM     26  C   UNL     1       1.990  -2.288   8.447  1.00  0.00     0.118 C 
BRANCH  26  27
ATOM     27  N   UNL     1       2.978  -1.280   8.890  1.00  0.00    -0.352 N 
ATOM     28  C   UNL     1       3.411  -0.991  10.187  1.00  0.00     0.251 C 
ATOM     29  H   UNL     1       3.386  -0.740   8.175  1.00  0.00     0.163 HD
ATOM     30  O   UNL     1       3.961   0.072  10.445  1.00  0.00    -0.269 OA
BRANCH  28  31
ATOM     31  C   UNL     1       3.203  -2.010  11.235  1.00  0.00     0.039 A 
ATOM     32  C   UNL     1       2.855  -1.772  12.569  1.00  0.00     0.014 A 
ATOM     33  C   UNL     1       3.242  -3.301  10.784  1.00  0.00     0.014 A 
ATOM     34  C   UNL     1       2.471  -2.874  13.347  1.00  0.00     0.010 A 
ATOM     35  C   UNL     1       2.275  -4.073  11.319  1.00  0.00     0.010 A 
ATOM     36  C   UNL     1       2.194  -4.069  12.681  1.00  0.00    -0.014 A 
BRANCH  36  37
ATOM     37  C   UNL     1       1.656  -5.295  13.243  1.00  0.00     0.031 A 
ATOM     38  C   UNL     1       0.373  -5.101  13.941  1.00  0.00     0.074 A 
ATOM     39  C   UNL     1       2.099  -6.527  12.886  1.00  0.00     0.049 A 
ATOM     40  N   UNL     1       0.198  -4.947  15.209  1.00  0.00    -0.248 NA
ATOM     41  C   UNL     1      -0.820  -4.801  13.132  1.00  0.00     0.031 C 
ATOM     42  C   UNL     1       3.103  -6.907  11.878  1.00  0.00     0.029 A 
ATOM     43  N   UNL     1       1.657  -7.739  13.312  1.00  0.00    -0.354 N 
ATOM     44  C   UNL     1      -1.176  -4.845  15.371  1.00  0.00     0.074 A 
ATOM     45  C   UNL     1      -1.692  -4.459  14.085  1.00  0.00     0.031 C 
ATOM     46  C   UNL     1       3.030  -8.236  11.631  1.00  0.00     0.029 A 
ATOM     47  C   UNL     1       2.103  -8.832  12.571  1.00  0.00     0.049 A 
ATOM     48  H   UNL     1       1.062  -7.838  14.091  1.00  0.00     0.167 HD
ATOM     49  C   UNL     1      -1.792  -5.397  16.454  1.00  0.00     0.037 A 
ATOM     50  C   UNL     1       1.702 -10.123  12.726  1.00  0.00     0.037 A 
ATOM     51  C   UNL     1      -0.812  -5.819  17.435  1.00  0.00     0.049 A 
ATOM     52  C   UNL     1       1.104 -10.218  14.090  1.00  0.00     0.074 A 
ATOM     53  C   UNL     1       0.223  -5.186  18.099  1.00  0.00     0.029 A 
ATOM     54  N   UNL     1      -0.533  -7.166  17.515  1.00  0.00    -0.354 N 
ATOM     55  N   UNL     1       1.792 -10.069  15.192  1.00  0.00    -0.248 NA
ATOM     56  C   UNL     1      -0.324  -9.961  14.215  1.00  0.00     0.031 C 
ATOM     57  C   UNL     1       1.298  -6.124  18.082  1.00  0.00     0.029 A 
ATOM     58  C   UNL     1       0.833  -7.309  17.511  1.00  0.00     0.049 A 
ATOM     59  H   UNL     1      -1.194  -7.894  17.567  1.00  0.00     0.167 HD
ATOM     60  C   UNL     1       0.988  -9.295  16.018  1.00  0.00     0.074 A 
ATOM     61  C   UNL     1      -0.334  -9.323  15.390  1.00  0.00     0.031 C 
ATOM     62  C   UNL     1       1.526  -8.454  16.954  1.00  0.00     0.037 A 
BRANCH  49  63
ATOM     63  C   UNL     1      -3.211  -5.916  16.471  1.00  0.00     0.058 A 
ATOM     64  C   UNL     1      -3.774  -6.298  17.706  1.00  0.00     0.135 A 
ATOM     65  C   UNL     1      -3.950  -6.291  15.327  1.00  0.00     0.135 A 
ATOM     66  F   UNL     1      -3.159  -5.994  18.861  1.00  0.00    -0.206 F 
ATOM     67  C   UNL     1      -4.935  -7.065  17.794  1.00  0.00     0.059 A 
ATOM     68  C   UNL     1      -5.141  -7.003  15.394  1.00  0.00     0.059 A 
ATOM     69  F   UNL     1      -3.517  -6.076  14.081  1.00  0.00    -0.206 F 
ATOM     70  C   UNL     1      -5.603  -7.424  16.628  1.00  0.00     0.060 A 
BRANCH  70  71
ATOM     71  S   UNL     1      -7.045  -8.495  16.730  1.00  0.00     0.124 S 
ATOM     72  O   UNL     1      -6.440  -9.754  17.149  1.00  0.00    -0.237 OA
ATOM     73  O   UNL     1      -7.858  -7.810  17.729  1.00  0.00    -0.237 OA
ATOM     74  O   UNL     1      -7.578  -8.469  15.371  1.00  0.00    -0.744 OA
ENDBRANCH  70  71
ENDBRANCH  49  63
BRANCH  50  75
ATOM     75  C   UNL     1       1.491 -11.164  11.680  1.00  0.00     0.058 A 
ATOM     76  C   UNL     1       1.251 -12.508  12.026  1.00  0.00     0.135 A 
ATOM     77  C   UNL     1       1.229 -10.819  10.338  1.00  0.00     0.135 A 
ATOM     78  F   UNL     1       1.463 -12.928  13.282  1.00  0.00    -0.206 F 
ATOM     79  C   UNL     1       0.721 -13.434  11.117  1.00  0.00     0.059 A 
ATOM     80  C   UNL     1       0.710 -11.726   9.412  1.00  0.00     0.059 A 
ATOM     81  F   UNL     1       1.380  -9.558   9.906  1.00  0.00    -0.206 F 
ATOM     82  C   UNL     1       0.428 -13.025   9.817  1.00  0.00     0.060 A 
BRANCH  82  83
ATOM     83  S   UNL     1      -0.443 -14.154   8.701  1.00  0.00     0.124 S 
ATOM     84  O   UNL     1       0.581 -15.154   8.421  1.00  0.00    -0.237 OA
ATOM     85  O   UNL     1      -1.562 -14.600   9.525  1.00  0.00    -0.237 OA
ATOM     86  O   UNL     1      -0.808 -13.301   7.573  1.00  0.00    -0.744 OA
ENDBRANCH  82  83
ENDBRANCH  50  75
BRANCH  62  87
ATOM     87  C   UNL     1       2.994  -8.588  17.289  1.00  0.00     0.058 A 
ATOM     88  C   UNL     1       4.052  -8.409  16.378  1.00  0.00     0.135 A 
ATOM     89  C   UNL     1       3.345  -8.767  18.636  1.00  0.00     0.135 A 
ATOM     90  F   UNL     1       3.815  -8.118  15.092  1.00  0.00    -0.206 F 
ATOM     91  C   UNL     1       5.390  -8.463  16.777  1.00  0.00     0.059 A 
ATOM     92  C   UNL     1       4.670  -8.790  19.063  1.00  0.00     0.059 A 
ATOM     93  F   UNL     1       2.387  -8.879  19.571  1.00  0.00    -0.206 F 
ATOM     94  C   UNL     1       5.690  -8.659  18.125  1.00  0.00     0.060 A 
BRANCH  94  95
ATOM     95  S   UNL     1       7.417  -8.697  18.651  1.00  0.00     0.124 S 
ATOM     96  O   UNL     1       7.881  -9.960  18.087  1.00  0.00    -0.237 OA
ATOM     97  O   UNL     1       7.963  -7.490  18.037  1.00  0.00    -0.237 OA
ATOM     98  O   UNL     1       7.331  -8.659  20.109  1.00  0.00    -0.744 OA
ENDBRANCH  94  95
ENDBRANCH  62  87
ENDBRANCH  36  37
ENDBRANCH  28  31
ENDBRANCH  26  27
ENDBRANCH   1  26
TORSDOF 16
