REMARK SMILES CC[C@H]1CCC[C@H](O[C@@H]2CC[C@]([NH2+]C(C)C)(C(=O)NCCCNC(=O)c3ccc(-c4c5nc(c(-c6c(F)cc(S(=O)(=O)[O-])cc6F)c6ccc([nH]6)c(-c6c(F)cc(S(=O)(=O)[O-])cc6F)c6nc(c(-c7c(F)cc(S(=O)(=O)[O-])cc7F)c7ccc4[nH]7)C=C6)C=C5)cc3)C2)C1
REMARK SMILES IDX 21 1 20 2 19 3 17 4 18 5 12 7 9 8 10 9 92 10 11 11 8 12 7 13
REMARK SMILES IDX 3 14 4 15 93 16 5 17 6 18 2 19 1 20 13 21 14 24 15 25 16 26
REMARK SMILES IDX 22 27 23 28 24 29 25 31 26 32 27 33 91 34 28 35 90 36 29 37
REMARK SMILES IDX 30 38 31 39 84 40 32 41 89 42 83 43 85 44 33 45 88 46 82 47
REMARK SMILES IDX 81 48 34 50 68 51 47 52 67 53 48 54 51 55 66 56 86 57 49 58
REMARK SMILES IDX 50 59 65 61 87 62 52 63 35 64 36 65 45 66 37 67 38 68 44 69
REMARK SMILES IDX 46 70 39 71 40 72 41 73 42 74 43 75 69 76 70 77 79 78 71 79
REMARK SMILES IDX 72 80 78 81 80 82 73 83 74 84 75 85 76 86 77 87 53 88 54 89
REMARK SMILES IDX 63 90 55 91 56 92 62 93 64 94 57 95 58 96 59 97 60 98 61 99
REMARK H PARENT 19 6 13 22 13 23 23 30 85 49 51 60
REMARK Flexibility Score: inf
ROOT
ATOM      1  C   UNL     1       4.681  -0.835   5.343  1.00  0.00     0.042 C 
ENDROOT
BRANCH   1   2
ATOM      2  C   UNL     1       4.175  -2.059   4.542  1.00  0.00     0.118 C 
BRANCH   2   3
ATOM      3  N   UNL     1       3.234  -1.726   3.484  1.00  0.00    -0.351 N 
ATOM      4  C   UNL     1       3.200  -1.744   2.133  1.00  0.00     0.281 C 
ATOM      5  O   UNL     1       2.092  -1.371   1.704  1.00  0.00    -0.268 OA
ATOM      6  H   UNL     1       2.385  -1.395   3.856  1.00  0.00     0.163 HD
BRANCH   4   7
ATOM      7  C   UNL     1       4.288  -2.241   1.115  1.00  0.00     0.178 C 
ATOM      8  C   UNL     1       4.530  -2.700  -1.295  1.00  0.00     0.125 C 
ATOM      9  C   UNL     1       4.522  -4.058  -0.585  1.00  0.00     0.039 C 
ATOM     10  C   UNL     1       3.881  -1.755  -0.299  1.00  0.00     0.111 C 
ATOM     11  C   UNL     1       4.173  -3.772   0.894  1.00  0.00     0.082 C 
BRANCH   8  12
ATOM     12  O   UNL     1       4.074  -2.694  -2.645  1.00  0.00    -0.375 OA
BRANCH  12  13
ATOM     13  C   UNL     1       2.702  -2.495  -3.011  1.00  0.00     0.118 C 
ATOM     14  C   UNL     1       0.708  -0.797  -2.929  1.00  0.00    -0.009 C 
ATOM     15  C   UNL     1      -0.052  -1.909  -2.191  1.00  0.00     0.004 C 
ATOM     16  C   UNL     1       2.232  -1.027  -2.881  1.00  0.00     0.035 C 
ATOM     17  C   UNL     1       0.313  -3.289  -2.716  1.00  0.00     0.003 C 
ATOM     18  C   UNL     1       1.778  -3.565  -2.428  1.00  0.00     0.032 C 
BRANCH  14  19
ATOM     19  C   UNL     1       0.241  -0.564  -4.378  1.00  0.00     0.000 C 
ATOM     20  C   UNL     1      -1.265  -0.389  -4.519  1.00  0.00     0.004 C 
ENDBRANCH  14  19
ENDBRANCH  12  13
ENDBRANCH   8  12
BRANCH   7  21
ATOM     21  N   UNL     1       5.709  -1.922   1.374  1.00  0.00    -0.332 N 
ATOM     22  H   UNL     1       6.169  -1.873   0.465  1.00  0.00     0.347 HD
ATOM     23  H   UNL     1       5.998  -2.663   2.013  1.00  0.00     0.347 HD
BRANCH  21  24
ATOM     24  C   UNL     1       6.071  -0.711   2.091  1.00  0.00     0.176 C 
ATOM     25  C   UNL     1       7.595  -0.604   2.191  1.00  0.00     0.075 C 
ATOM     26  C   UNL     1       5.455   0.621   1.669  1.00  0.00     0.075 C 
ENDBRANCH  21  24
ENDBRANCH   7  21
ENDBRANCH   4   7
ENDBRANCH   2   3
ENDBRANCH   1   2
BRANCH   1  27
ATOM     27  C   UNL     1       3.615   0.141   5.848  1.00  0.00     0.118 C 
BRANCH  27  28
ATOM     28  N   UNL     1       3.446   0.026   7.283  1.00  0.00    -0.352 N 
ATOM     29  C   UNL     1       4.098   0.678   8.301  1.00  0.00     0.251 C 
ATOM     30  H   UNL     1       2.759  -0.617   7.572  1.00  0.00     0.163 HD
ATOM     31  O   UNL     1       4.093   0.161   9.417  1.00  0.00    -0.269 OA
BRANCH  29  32
ATOM     32  C   UNL     1       4.789   1.981   8.106  1.00  0.00     0.039 A 
ATOM     33  C   UNL     1       5.938   2.241   8.865  1.00  0.00     0.014 A 
ATOM     34  C   UNL     1       4.244   3.007   7.327  1.00  0.00     0.014 A 
ATOM     35  C   UNL     1       6.526   3.513   8.856  1.00  0.00     0.010 A 
ATOM     36  C   UNL     1       4.863   4.263   7.277  1.00  0.00     0.010 A 
ATOM     37  C   UNL     1       5.989   4.543   8.068  1.00  0.00    -0.014 A 
BRANCH  37  38
ATOM     38  C   UNL     1       6.544   5.926   8.130  1.00  0.00     0.031 A 
ATOM     39  C   UNL     1       5.719   7.048   8.713  1.00  0.00     0.074 A 
ATOM     40  C   UNL     1       7.775   6.192   7.648  1.00  0.00     0.049 A 
ATOM     41  N   UNL     1       5.996   8.326   8.800  1.00  0.00    -0.248 NA
ATOM     42  C   UNL     1       4.397   6.688   9.250  1.00  0.00     0.031 C 
ATOM     43  C   UNL     1       8.673   5.211   7.039  1.00  0.00     0.029 A 
ATOM     44  N   UNL     1       8.479   7.370   7.585  1.00  0.00    -0.354 N 
ATOM     45  C   UNL     1       4.879   8.923   9.375  1.00  0.00     0.074 A 
ATOM     46  C   UNL     1       3.905   7.873   9.584  1.00  0.00     0.031 C 
ATOM     47  C   UNL     1       9.811   5.825   6.673  1.00  0.00     0.029 A 
ATOM     48  C   UNL     1       9.714   7.247   6.994  1.00  0.00     0.049 A 
ATOM     49  H   UNL     1       8.131   8.224   7.932  1.00  0.00     0.167 HD
ATOM     50  C   UNL     1       4.685  10.221   9.715  1.00  0.00     0.037 A 
ATOM     51  C   UNL     1      10.659   8.172   6.731  1.00  0.00     0.037 A 
ATOM     52  C   UNL     1       5.668  11.260   9.549  1.00  0.00     0.049 A 
ATOM     53  C   UNL     1      10.432   9.604   7.135  1.00  0.00     0.074 A 
ATOM     54  C   UNL     1       5.584  12.592   9.918  1.00  0.00     0.029 A 
ATOM     55  N   UNL     1       6.916  11.085   8.971  1.00  0.00    -0.354 N 
ATOM     56  N   UNL     1       9.385  10.139   7.716  1.00  0.00    -0.248 NA
ATOM     57  C   UNL     1      11.516  10.556   6.854  1.00  0.00     0.031 C 
ATOM     58  C   UNL     1       6.770  13.229   9.534  1.00  0.00     0.029 A 
ATOM     59  C   UNL     1       7.607  12.286   8.961  1.00  0.00     0.049 A 
ATOM     60  H   UNL     1       7.261  10.232   8.619  1.00  0.00     0.167 HD
ATOM     61  C   UNL     1       9.694  11.484   7.891  1.00  0.00     0.074 A 
ATOM     62  C   UNL     1      11.028  11.680   7.364  1.00  0.00     0.031 C 
ATOM     63  C   UNL     1       8.939  12.467   8.441  1.00  0.00     0.037 A 
BRANCH  50  64
ATOM     64  C   UNL     1       3.352  10.595  10.306  1.00  0.00     0.058 A 
ATOM     65  C   UNL     1       2.988  10.214  11.608  1.00  0.00     0.135 A 
ATOM     66  C   UNL     1       2.438  11.370   9.573  1.00  0.00     0.135 A 
ATOM     67  F   UNL     1       3.819   9.463  12.349  1.00  0.00    -0.206 F 
ATOM     68  C   UNL     1       1.754  10.557  12.149  1.00  0.00     0.059 A 
ATOM     69  C   UNL     1       1.207  11.747  10.104  1.00  0.00     0.059 A 
ATOM     70  F   UNL     1       2.736  11.766   8.326  1.00  0.00    -0.206 F 
ATOM     71  C   UNL     1       0.867  11.320  11.387  1.00  0.00     0.060 A 
BRANCH  71  72
ATOM     72  S   UNL     1      -0.737  11.755  12.094  1.00  0.00     0.124 S 
ATOM     73  O   UNL     1      -1.456  10.486  11.979  1.00  0.00    -0.237 OA
ATOM     74  O   UNL     1      -0.381  12.153  13.457  1.00  0.00    -0.237 OA
ATOM     75  O   UNL     1      -1.211  12.825  11.236  1.00  0.00    -0.744 OA
ENDBRANCH  71  72
ENDBRANCH  50  64
BRANCH  51  76
ATOM     76  C   UNL     1      11.924   7.764   6.064  1.00  0.00     0.058 A 
ATOM     77  C   UNL     1      13.130   7.706   6.777  1.00  0.00     0.135 A 
ATOM     78  C   UNL     1      11.948   7.404   4.707  1.00  0.00     0.135 A 
ATOM     79  F   UNL     1      13.158   8.050   8.074  1.00  0.00    -0.206 F 
ATOM     80  C   UNL     1      14.318   7.313   6.170  1.00  0.00     0.059 A 
ATOM     81  C   UNL     1      13.119   6.987   4.083  1.00  0.00     0.059 A 
ATOM     82  F   UNL     1      10.818   7.431   3.985  1.00  0.00    -0.206 F 
ATOM     83  C   UNL     1      14.302   6.951   4.822  1.00  0.00     0.060 A 
BRANCH  83  84
ATOM     84  S   UNL     1      15.834   6.376   4.059  1.00  0.00     0.124 S 
ATOM     85  O   UNL     1      16.558   7.628   3.873  1.00  0.00    -0.237 OA
ATOM     86  O   UNL     1      16.367   5.475   5.076  1.00  0.00    -0.237 OA
ATOM     87  O   UNL     1      15.374   5.724   2.836  1.00  0.00    -0.744 OA
ENDBRANCH  83  84
ENDBRANCH  51  76
BRANCH  63  88
ATOM     88  C   UNL     1       9.545  13.840   8.532  1.00  0.00     0.058 A 
ATOM     89  C   UNL     1       9.671  14.665   7.404  1.00  0.00     0.135 A 
ATOM     90  C   UNL     1       9.954  14.356   9.772  1.00  0.00     0.135 A 
ATOM     91  F   UNL     1       9.300  14.216   6.194  1.00  0.00    -0.206 F 
ATOM     92  C   UNL     1      10.197  15.949   7.499  1.00  0.00     0.059 A 
ATOM     93  C   UNL     1      10.463  15.645   9.894  1.00  0.00     0.059 A 
ATOM     94  F   UNL     1       9.846  13.610  10.883  1.00  0.00    -0.206 F 
ATOM     95  C   UNL     1      10.591  16.431   8.749  1.00  0.00     0.060 A 
BRANCH  95  96
ATOM     96  S   UNL     1      11.239  18.112   8.868  1.00  0.00     0.124 S 
ATOM     97  O   UNL     1      12.590  17.944   8.344  1.00  0.00    -0.237 OA
ATOM     98  O   UNL     1      10.320  18.865   8.019  1.00  0.00    -0.237 OA
ATOM     99  O   UNL     1      11.150  18.410  10.294  1.00  0.00    -0.744 OA
ENDBRANCH  95  96
ENDBRANCH  63  88
ENDBRANCH  37  38
ENDBRANCH  29  32
ENDBRANCH  27  28
ENDBRANCH   1  27
TORSDOF 18
