REMARK SMILES O=C(NCCCNC(=O)c1ccc([C@H]2CCCN(C(=O)c3ccc4[nH]ccc4c3)C2)cc1)c1ccc(-c2c3nc(c(-c4c(F)cc(S(=O)(=O)[O-])cc4F)c4ccc([nH]4)c(-c4c(F)cc(S(=O)(=O)[O-])cc4F)c4nc(c(-c5c(F)cc(S(=O)(=O)[O-])cc5F)c5ccc2[nH]5)C=C4)C=C3)cc1
REMARK SMILES IDX 5 1 4 2 3 3 1 4 2 5 33 7 34 8 98 9 35 10 97 11 36 12 37 13
REMARK SMILES IDX 38 14 91 15 39 16 96 17 90 18 92 19 40 20 95 21 89 22 88 23
REMARK SMILES IDX 41 25 75 26 54 27 74 28 55 29 58 30 73 31 93 32 56 33 57 34
REMARK SMILES IDX 72 36 94 37 59 38 42 39 43 40 52 41 44 42 45 43 51 44 53 45
REMARK SMILES IDX 46 46 47 47 48 48 49 49 50 50 76 51 77 52 86 53 78 54 79 55
REMARK SMILES IDX 85 56 87 57 80 58 81 59 82 60 83 61 84 62 60 63 61 64 70 65
REMARK SMILES IDX 62 66 63 67 69 68 71 69 64 70 65 71 66 72 67 73 68 74 6 75
REMARK SMILES IDX 7 76 8 77 9 79 10 80 11 81 32 82 12 83 31 84 13 85 14 86
REMARK SMILES IDX 15 87 30 88 16 89 18 90 17 91 19 92 20 93 21 94 22 95 29 96
REMARK SMILES IDX 23 97 28 98 24 99 27 100 25 101 26 102
REMARK H PARENT 3 6 92 24 58 35 7 78 25 103
REMARK Flexibility Score: inf
ROOT
ATOM      1  C   UNL     1      12.408   2.846 -13.292  1.00  0.00     0.042 C 
ENDROOT
BRANCH   1   2
ATOM      2  C   UNL     1      13.720   3.134 -13.999  1.00  0.00     0.118 C 
BRANCH   2   3
ATOM      3  N   UNL     1      14.498   1.931 -14.273  1.00  0.00    -0.352 N 
ATOM      4  O   UNL     1      15.385   0.254 -15.490  1.00  0.00    -0.269 OA
ATOM      5  C   UNL     1      14.860   1.363 -15.474  1.00  0.00     0.251 C 
ATOM      6  H   UNL     1      14.814   1.449 -13.475  1.00  0.00     0.163 HD
BRANCH   5   7
ATOM      7  C   UNL     1      14.589   2.080 -16.740  1.00  0.00     0.039 A 
ATOM      8  C   UNL     1      14.780   3.457 -16.819  1.00  0.00     0.014 A 
ATOM      9  C   UNL     1      14.128   1.376 -17.857  1.00  0.00     0.014 A 
ATOM     10  C   UNL     1      14.314   4.154 -17.922  1.00  0.00     0.010 A 
ATOM     11  C   UNL     1      13.792   2.069 -19.026  1.00  0.00     0.010 A 
ATOM     12  C   UNL     1      13.848   3.469 -19.056  1.00  0.00    -0.014 A 
BRANCH  12  13
ATOM     13  C   UNL     1      13.525   4.266 -20.269  1.00  0.00     0.031 A 
ATOM     14  C   UNL     1      12.141   4.292 -20.858  1.00  0.00     0.074 A 
ATOM     15  C   UNL     1      14.500   5.042 -20.787  1.00  0.00     0.049 A 
ATOM     16  N   UNL     1      11.695   4.998 -21.866  1.00  0.00    -0.248 NA
ATOM     17  C   UNL     1      11.129   3.412 -20.253  1.00  0.00     0.031 C 
ATOM     18  C   UNL     1      15.888   5.075 -20.310  1.00  0.00     0.029 A 
ATOM     19  N   UNL     1      14.477   5.974 -21.791  1.00  0.00    -0.354 N 
ATOM     20  C   UNL     1      10.359   4.647 -22.023  1.00  0.00     0.074 A 
ATOM     21  C   UNL     1      10.073   3.638 -21.026  1.00  0.00     0.031 C 
ATOM     22  C   UNL     1      16.559   6.030 -20.967  1.00  0.00     0.029 A 
ATOM     23  C   UNL     1      15.680   6.616 -21.969  1.00  0.00     0.049 A 
ATOM     24  H   UNL     1      13.677   6.165 -22.332  1.00  0.00     0.167 HD
ATOM     25  C   UNL     1       9.457   5.133 -22.910  1.00  0.00     0.037 A 
ATOM     26  C   UNL     1      16.049   7.559 -22.855  1.00  0.00     0.037 A 
ATOM     27  C   UNL     1       9.754   6.146 -23.894  1.00  0.00     0.049 A 
ATOM     28  C   UNL     1      15.029   8.066 -23.831  1.00  0.00     0.074 A 
ATOM     29  C   UNL     1       8.906   6.710 -24.833  1.00  0.00     0.029 A 
ATOM     30  N   UNL     1      10.992   6.749 -24.067  1.00  0.00    -0.354 N 
ATOM     31  N   UNL     1      13.767   7.731 -23.950  1.00  0.00    -0.248 NA
ATOM     32  C   UNL     1      15.482   9.076 -24.794  1.00  0.00     0.031 C 
ATOM     33  C   UNL     1       9.641   7.621 -25.599  1.00  0.00     0.029 A 
ATOM     34  C   UNL     1      10.934   7.666 -25.106  1.00  0.00     0.049 A 
ATOM     35  H   UNL     1      11.795   6.554 -23.531  1.00  0.00     0.167 HD
ATOM     36  C   UNL     1      13.272   8.492 -25.000  1.00  0.00     0.074 A 
ATOM     37  C   UNL     1      14.362   9.333 -25.454  1.00  0.00     0.031 C 
ATOM     38  C   UNL     1      12.033   8.487 -25.550  1.00  0.00     0.037 A 
BRANCH  25  39
ATOM     39  C   UNL     1       8.055   4.584 -22.867  1.00  0.00     0.058 A 
ATOM     40  C   UNL     1       7.167   4.913 -21.830  1.00  0.00     0.135 A 
ATOM     41  C   UNL     1       7.565   3.786 -23.915  1.00  0.00     0.135 A 
ATOM     42  F   UNL     1       7.584   5.658 -20.794  1.00  0.00    -0.206 F 
ATOM     43  C   UNL     1       5.850   4.464 -21.828  1.00  0.00     0.059 A 
ATOM     44  C   UNL     1       6.244   3.346 -23.947  1.00  0.00     0.059 A 
ATOM     45  F   UNL     1       8.370   3.440 -24.932  1.00  0.00    -0.206 F 
ATOM     46  C   UNL     1       5.395   3.685 -22.894  1.00  0.00     0.060 A 
BRANCH  46  47
ATOM     47  S   UNL     1       3.673   3.141 -22.890  1.00  0.00     0.124 S 
ATOM     48  O   UNL     1       3.683   2.152 -21.817  1.00  0.00    -0.237 OA
ATOM     49  O   UNL     1       2.956   4.379 -22.603  1.00  0.00    -0.237 OA
ATOM     50  O   UNL     1       3.481   2.605 -24.234  1.00  0.00    -0.744 OA
ENDBRANCH  46  47
ENDBRANCH  25  39
BRANCH  26  51
ATOM     51  C   UNL     1      17.453   8.047 -22.878  1.00  0.00     0.058 A 
ATOM     52  C   UNL     1      17.776   9.368 -22.538  1.00  0.00     0.135 A 
ATOM     53  C   UNL     1      18.505   7.190 -23.241  1.00  0.00     0.135 A 
ATOM     54  F   UNL     1      16.807  10.226 -22.184  1.00  0.00    -0.206 F 
ATOM     55  C   UNL     1      19.087   9.832 -22.586  1.00  0.00     0.059 A 
ATOM     56  C   UNL     1      19.826   7.619 -23.262  1.00  0.00     0.059 A 
ATOM     57  F   UNL     1      18.253   5.908 -23.553  1.00  0.00    -0.206 F 
ATOM     58  C   UNL     1      20.105   8.949 -22.952  1.00  0.00     0.060 A 
BRANCH  58  59
ATOM     59  S   UNL     1      21.806   9.550 -22.996  1.00  0.00     0.124 S 
ATOM     60  O   UNL     1      21.804  10.335 -24.225  1.00  0.00    -0.237 OA
ATOM     61  O   UNL     1      21.897  10.308 -21.753  1.00  0.00    -0.237 OA
ATOM     62  O   UNL     1      22.594   8.322 -23.032  1.00  0.00    -0.744 OA
ENDBRANCH  58  59
ENDBRANCH  26  51
BRANCH  38  63
ATOM     63  C   UNL     1      11.797   9.436 -26.692  1.00  0.00     0.058 A 
ATOM     64  C   UNL     1      12.379   9.227 -27.953  1.00  0.00     0.135 A 
ATOM     65  C   UNL     1      10.984  10.568 -26.523  1.00  0.00     0.135 A 
ATOM     66  F   UNL     1      13.172   8.164 -28.163  1.00  0.00    -0.206 F 
ATOM     67  C   UNL     1      12.200  10.131 -28.994  1.00  0.00     0.059 A 
ATOM     68  C   UNL     1      10.765  11.469 -27.560  1.00  0.00     0.059 A 
ATOM     69  F   UNL     1      10.395  10.808 -25.341  1.00  0.00    -0.206 F 
ATOM     70  C   UNL     1      11.395  11.252 -28.786  1.00  0.00     0.060 A 
BRANCH  70  71
ATOM     71  S   UNL     1      11.172  12.421 -30.143  1.00  0.00     0.124 S 
ATOM     72  O   UNL     1      12.460  13.108 -30.152  1.00  0.00    -0.237 OA
ATOM     73  O   UNL     1      10.916  11.539 -31.277  1.00  0.00    -0.237 OA
ATOM     74  O   UNL     1      10.034  13.227 -29.713  1.00  0.00    -0.744 OA
ENDBRANCH  70  71
ENDBRANCH  38  63
ENDBRANCH  12  13
ENDBRANCH   5   7
ENDBRANCH   2   3
ENDBRANCH   1   2
BRANCH   1  75
ATOM     75  C   UNL     1      12.584   2.288 -11.892  1.00  0.00     0.118 C 
BRANCH  75  76
ATOM     76  N   UNL     1      13.257   3.223 -10.998  1.00  0.00    -0.352 N 
ATOM     77  C   UNL     1      12.756   3.940  -9.935  1.00  0.00     0.251 C 
ATOM     78  H   UNL     1      14.214   3.363 -11.182  1.00  0.00     0.163 HD
ATOM     79  O   UNL     1      13.420   4.819  -9.408  1.00  0.00    -0.269 OA
BRANCH  77  80
ATOM     80  C   UNL     1      11.393   3.646  -9.451  1.00  0.00     0.039 A 
ATOM     81  C   UNL     1      10.489   4.691  -9.277  1.00  0.00     0.014 A 
ATOM     82  C   UNL     1      11.006   2.334  -9.190  1.00  0.00     0.014 A 
ATOM     83  C   UNL     1       9.159   4.401  -8.968  1.00  0.00     0.005 A 
ATOM     84  C   UNL     1       9.671   2.047  -8.922  1.00  0.00     0.005 A 
ATOM     85  C   UNL     1       8.711   3.070  -8.859  1.00  0.00    -0.043 A 
BRANCH  85  86
ATOM     86  C   UNL     1       7.223   2.775  -8.674  1.00  0.00     0.039 C 
ATOM     87  C   UNL     1       6.362   3.531  -9.719  1.00  0.00     0.012 C 
ATOM     88  C   UNL     1       6.870   1.271  -8.740  1.00  0.00     0.128 C 
ATOM     89  C   UNL     1       4.871   3.211  -9.585  1.00  0.00     0.022 C 
ATOM     90  N   UNL     1       5.438   1.048  -8.606  1.00  0.00    -0.338 N 
ATOM     91  C   UNL     1       4.615   1.709  -9.617  1.00  0.00     0.120 C 
BRANCH  90  92
ATOM     92  C   UNL     1       4.974   0.326  -7.515  1.00  0.00     0.253 C 
ATOM     93  O   UNL     1       5.694  -0.157  -6.645  1.00  0.00    -0.269 OA
BRANCH  92  94
ATOM     94  C   UNL     1       3.524   0.150  -7.359  1.00  0.00     0.040 A 
ATOM     95  C   UNL     1       2.857   0.951  -6.431  1.00  0.00     0.016 A 
ATOM     96  C   UNL     1       2.862  -0.835  -8.104  1.00  0.00     0.024 A 
ATOM     97  C   UNL     1       1.481   0.816  -6.245  1.00  0.00     0.027 A 
ATOM     98  C   UNL     1       1.478  -0.994  -7.911  1.00  0.00     0.000 A 
ATOM     99  C   UNL     1       0.822  -0.162  -7.001  1.00  0.00     0.045 A 
ATOM    100  C   UNL     1       0.503  -1.875  -8.451  1.00  0.00     0.028 A 
ATOM    101  N   UNL     1      -0.510  -0.513  -7.023  1.00  0.00    -0.361 N 
ATOM    102  C   UNL     1      -0.709  -1.562  -7.880  1.00  0.00     0.083 A 
ATOM    103  H   UNL     1      -1.216  -0.072  -6.498  1.00  0.00     0.166 HD
ENDBRANCH  92  94
ENDBRANCH  90  92
ENDBRANCH  85  86
ENDBRANCH  77  80
ENDBRANCH  75  76
ENDBRANCH   1  75
TORSDOF 16
