REMARK SMILES CC(=O)N[C@H]1[C@@H](O[C@H](C)C(=O)NCCCNC(=O)c2ccc(-c3c4nc(c(-c5c(F)cc(S(=O)(=O)[O-])cc5F)c5ccc([nH]5)c(-c5c(F)cc(S(=O)(=O)[O-])cc5F)c5nc(c(-c6c(F)cc(S(=O)(=O)[O-])cc6F)c6ccc3[nH]6)C=C5)C=C4)cc2)[C@H]2OC(C)(C)OC[C@@H]2O[C@H]1Sc1ccc(Cl)cc1
REMARK SMILES IDX 13 1 12 2 10 3 11 4 8 6 9 7 7 8 6 9 5 10 94 11 85 12 93 13
REMARK SMILES IDX 86 14 92 15 87 16 91 17 88 18 89 19 90 20 4 21 1 22 2 23
REMARK SMILES IDX 3 24 95 26 96 27 97 28 102 29 98 30 101 31 99 32 100 33
REMARK SMILES IDX 14 34 15 35 16 36 17 37 18 39 19 40 20 41 84 42 21 43 83 44
REMARK SMILES IDX 22 45 23 46 24 47 77 48 25 49 82 50 76 51 78 52 26 53 81 54
REMARK SMILES IDX 75 55 74 56 27 58 61 59 40 60 60 61 41 62 44 63 59 64 79 65
REMARK SMILES IDX 42 66 43 67 58 69 80 70 45 71 28 72 29 73 38 74 30 75 31 76
REMARK SMILES IDX 37 77 39 78 32 79 33 80 34 81 35 82 36 83 62 84 63 85 72 86
REMARK SMILES IDX 64 87 65 88 71 89 73 90 66 91 67 92 68 93 69 94 70 95 46 96
REMARK SMILES IDX 47 97 56 98 48 99 49 100 55 101 57 102 50 103 51 104 52 105
REMARK SMILES IDX 53 106 54 107
REMARK H PARENT 12 5 4 25 16 38 78 57 44 68
REMARK Flexibility Score: inf
ROOT
ATOM      1  C   UNL     1       8.046  -0.143   2.051  1.00  0.00     0.117 C 
ENDROOT
BRANCH   1   2
ATOM      2  N   UNL     1       7.367   1.179   2.050  1.00  0.00    -0.354 N 
ATOM      3  C   UNL     1       6.966   2.210   1.232  1.00  0.00     0.248 C 
ATOM      4  O   UNL     1       6.939   3.371   1.685  1.00  0.00    -0.272 OA
ATOM      5  H   UNL     1       7.108   1.396   2.975  1.00  0.00     0.163 HD
BRANCH   3   6
ATOM      6  C   UNL     1       6.333   2.160  -0.102  1.00  0.00     0.204 C 
ATOM      7  C   UNL     1       7.363   2.010  -1.192  1.00  0.00     0.049 C 
BRANCH   6   8
ATOM      8  O   UNL     1       5.284   1.251  -0.007  1.00  0.00    -0.360 OA
BRANCH   8   9
ATOM      9  C   UNL     1       4.302   1.466   1.053  1.00  0.00     0.177 C 
ATOM     10  C   UNL     1       4.377   2.571   2.204  1.00  0.00     0.153 C 
ATOM     11  C   UNL     1       5.269   2.216   3.509  1.00  0.00     0.206 C 
ATOM     12  C   UNL     1       4.045   0.092   1.682  1.00  0.00     0.184 C 
ATOM     13  O   UNL     1       4.890   0.866   3.988  1.00  0.00    -0.356 OA
ATOM     14  O   UNL     1       4.383  -0.893   0.697  1.00  0.00    -0.342 OA
ATOM     15  C   UNL     1       4.818  -0.152   2.975  1.00  0.00     0.177 C 
ATOM     16  C   UNL     1       4.546  -2.247   1.084  1.00  0.00     0.163 C 
ATOM     17  C   UNL     1       4.301  -1.529   3.403  1.00  0.00     0.198 C 
ATOM     18  C   UNL     1       5.766  -2.767   0.294  1.00  0.00     0.075 C 
ATOM     19  C   UNL     1       3.334  -3.020   0.578  1.00  0.00     0.075 C 
ATOM     20  O   UNL     1       4.796  -2.504   2.470  1.00  0.00    -0.348 OA
BRANCH  10  21
ATOM     21  N   UNL     1       4.392   3.963   1.751  1.00  0.00    -0.347 N 
ATOM     22  C   UNL     1       2.142   4.022   0.692  1.00  0.00     0.114 C 
ATOM     23  C   UNL     1       3.437   4.684   1.092  1.00  0.00     0.217 C 
ATOM     24  O   UNL     1       3.656   5.857   0.798  1.00  0.00    -0.275 OA
ATOM     25  H   UNL     1       5.220   4.456   1.953  1.00  0.00     0.163 HD
ENDBRANCH  10  21
BRANCH  11  26
ATOM     26  S   UNL     1       7.103   3.025   4.405  1.00  0.00    -0.092 SA
BRANCH  26  27
ATOM     27  C   UNL     1       8.952   2.893   3.736  1.00  0.00     0.010 A 
ATOM     28  C   UNL     1       9.497   2.779   2.427  1.00  0.00     0.016 A 
ATOM     29  C   UNL     1       9.944   2.892   4.731  1.00  0.00     0.016 A 
ATOM     30  C   UNL     1      10.807   2.352   2.133  1.00  0.00     0.021 A 
ATOM     31  C   UNL     1      11.309   2.600   4.438  1.00  0.00     0.021 A 
ATOM     32  C   UNL     1      11.717   2.252   3.154  1.00  0.00     0.041 A 
ATOM     33  Cl  UNL     1      13.317   1.733   2.813  1.00  0.00    -0.084 Cl
ENDBRANCH  26  27
ENDBRANCH  11  26
ENDBRANCH   8   9
ENDBRANCH   6   8
ENDBRANCH   3   6
ENDBRANCH   1   2
BRANCH   1  34
ATOM     34  C   UNL     1       8.771  -0.546   3.422  1.00  0.00     0.042 C 
BRANCH  34  35
ATOM     35  C   UNL     1       8.111  -0.386   4.828  1.00  0.00     0.118 C 
BRANCH  35  36
ATOM     36  N   UNL     1       7.805  -1.633   5.530  1.00  0.00    -0.352 N 
ATOM     37  C   UNL     1       8.422  -2.348   6.533  1.00  0.00     0.251 C 
ATOM     38  H   UNL     1       6.972  -2.054   5.216  1.00  0.00     0.163 HD
ATOM     39  O   UNL     1       7.888  -3.401   6.890  1.00  0.00    -0.269 OA
BRANCH  37  40
ATOM     40  C   UNL     1       9.699  -1.964   7.195  1.00  0.00     0.039 A 
ATOM     41  C   UNL     1      10.682  -2.959   7.319  1.00  0.00     0.014 A 
ATOM     42  C   UNL     1       9.889  -0.754   7.866  1.00  0.00     0.014 A 
ATOM     43  C   UNL     1      11.858  -2.732   8.052  1.00  0.00     0.010 A 
ATOM     44  C   UNL     1      11.085  -0.519   8.585  1.00  0.00     0.010 A 
ATOM     45  C   UNL     1      12.090  -1.500   8.682  1.00  0.00    -0.014 A 
BRANCH  45  46
ATOM     46  C   UNL     1      13.377  -1.247   9.412  1.00  0.00     0.031 A 
ATOM     47  C   UNL     1      13.414  -1.053  10.911  1.00  0.00     0.074 A 
ATOM     48  C   UNL     1      14.538  -1.173   8.725  1.00  0.00     0.049 A 
ATOM     49  N   UNL     1      14.434  -0.773  11.688  1.00  0.00    -0.248 NA
ATOM     50  C   UNL     1      12.137  -1.176  11.627  1.00  0.00     0.031 C 
ATOM     51  C   UNL     1      14.668  -1.326   7.275  1.00  0.00     0.029 A 
ATOM     52  N   UNL     1      15.829  -0.944   9.147  1.00  0.00    -0.354 N 
ATOM     53  C   UNL     1      13.922  -0.666  12.979  1.00  0.00     0.074 A 
ATOM     54  C   UNL     1      12.493  -0.884  12.873  1.00  0.00     0.031 C 
ATOM     55  C   UNL     1      15.960  -1.198   6.931  1.00  0.00     0.029 A 
ATOM     56  C   UNL     1      16.752  -0.919   8.126  1.00  0.00     0.049 A 
ATOM     57  H   UNL     1      16.069  -0.811  10.092  1.00  0.00     0.167 HD
ATOM     58  C   UNL     1      14.575  -0.421  14.144  1.00  0.00     0.037 A 
ATOM     59  C   UNL     1      18.081  -0.687   8.136  1.00  0.00     0.037 A 
ATOM     60  C   UNL     1      16.001  -0.236  14.265  1.00  0.00     0.049 A 
ATOM     61  C   UNL     1      18.785  -0.417   9.440  1.00  0.00     0.074 A 
ATOM     62  C   UNL     1      16.750  -0.034  15.414  1.00  0.00     0.029 A 
ATOM     63  N   UNL     1      16.896  -0.230  13.206  1.00  0.00    -0.354 N 
ATOM     64  N   UNL     1      18.284  -0.358  10.650  1.00  0.00    -0.248 NA
ATOM     65  C   UNL     1      20.237  -0.186   9.381  1.00  0.00     0.031 C 
ATOM     66  C   UNL     1      18.091   0.129  15.046  1.00  0.00     0.029 A 
ATOM     67  C   UNL     1      18.185  -0.013  13.672  1.00  0.00     0.049 A 
ATOM     68  H   UNL     1      16.653  -0.361  12.261  1.00  0.00     0.167 HD
ATOM     69  C   UNL     1      19.360  -0.108  11.496  1.00  0.00     0.074 A 
ATOM     70  C   UNL     1      20.541  -0.037  10.664  1.00  0.00     0.031 C 
ATOM     71  C   UNL     1      19.363   0.047  12.843  1.00  0.00     0.037 A 
BRANCH  58  72
ATOM     72  C   UNL     1      13.751  -0.334  15.404  1.00  0.00     0.058 A 
ATOM     73  C   UNL     1      13.172  -1.472  15.988  1.00  0.00     0.135 A 
ATOM     74  C   UNL     1      13.578   0.896  16.063  1.00  0.00     0.135 A 
ATOM     75  F   UNL     1      13.303  -2.672  15.402  1.00  0.00    -0.206 F 
ATOM     76  C   UNL     1      12.418  -1.389  17.155  1.00  0.00     0.059 A 
ATOM     77  C   UNL     1      12.851   0.998  17.246  1.00  0.00     0.059 A 
ATOM     78  F   UNL     1      14.121   2.015  15.558  1.00  0.00    -0.206 F 
ATOM     79  C   UNL     1      12.258  -0.148  17.775  1.00  0.00     0.060 A 
BRANCH  79  80
ATOM     80  S   UNL     1      11.266  -0.054  19.280  1.00  0.00     0.124 S 
ATOM     81  O   UNL     1       9.914  -0.178  18.744  1.00  0.00    -0.237 OA
ATOM     82  O   UNL     1      11.750  -1.196  20.049  1.00  0.00    -0.237 OA
ATOM     83  O   UNL     1      11.604   1.255  19.830  1.00  0.00    -0.744 OA
ENDBRANCH  79  80
ENDBRANCH  58  72
BRANCH  59  84
ATOM     84  C   UNL     1      18.847  -0.710   6.859  1.00  0.00     0.058 A 
ATOM     85  C   UNL     1      19.738  -1.754   6.569  1.00  0.00     0.135 A 
ATOM     86  C   UNL     1      18.698   0.306   5.902  1.00  0.00     0.135 A 
ATOM     87  F   UNL     1      19.925  -2.742   7.459  1.00  0.00    -0.206 F 
ATOM     88  C   UNL     1      20.460  -1.788   5.381  1.00  0.00     0.059 A 
ATOM     89  C   UNL     1      19.391   0.282   4.696  1.00  0.00     0.059 A 
ATOM     90  F   UNL     1      17.852   1.323   6.128  1.00  0.00    -0.206 F 
ATOM     91  C   UNL     1      20.277  -0.766   4.447  1.00  0.00     0.060 A 
BRANCH  91  92
ATOM     92  S   UNL     1      21.176  -0.850   2.883  1.00  0.00     0.124 S 
ATOM     93  O   UNL     1      22.524  -0.477   3.298  1.00  0.00    -0.237 OA
ATOM     94  O   UNL     1      20.990  -2.245   2.495  1.00  0.00    -0.237 OA
ATOM     95  O   UNL     1      20.481   0.122   2.045  1.00  0.00    -0.744 OA
ENDBRANCH  91  92
ENDBRANCH  59  84
BRANCH  71  96
ATOM     96  C   UNL     1      20.689   0.276  13.517  1.00  0.00     0.058 A 
ATOM     97  C   UNL     1      21.355   1.508  13.437  1.00  0.00     0.135 A 
ATOM     98  C   UNL     1      21.272  -0.733  14.301  1.00  0.00     0.135 A 
ATOM     99  F   UNL     1      20.845   2.504  12.695  1.00  0.00    -0.206 F 
ATOM    100  C   UNL     1      22.561   1.729  14.097  1.00  0.00     0.059 A 
ATOM    101  C   UNL     1      22.466  -0.528  14.988  1.00  0.00     0.059 A 
ATOM    102  F   UNL     1      20.674  -1.929  14.419  1.00  0.00    -0.206 F 
ATOM    103  C   UNL     1      23.108   0.704  14.873  1.00  0.00     0.060 A 
BRANCH 103 104
ATOM    104  S   UNL     1      24.650   1.018  15.760  1.00  0.00     0.124 S 
ATOM    105  O   UNL     1      25.629   0.952  14.682  1.00  0.00    -0.237 OA
ATOM    106  O   UNL     1      24.422   2.339  16.332  1.00  0.00    -0.237 OA
ATOM    107  O   UNL     1      24.710  -0.076  16.730  1.00  0.00    -0.744 OA
ENDBRANCH 103 104
ENDBRANCH  71  96
ENDBRANCH  45  46
ENDBRANCH  37  40
ENDBRANCH  35  36
ENDBRANCH  34  35
ENDBRANCH   1  34
TORSDOF 18
