REMARK SMILES CC(C)(C)OC(=O)N1CCC[C@](Cc2ccccc2)(C(=O)NCCCNC(=O)c2ccc(-c3c4nc(c(-c5c(F)cc(S(=O)(=O)[O-])cc5F)c5ccc([nH]5)c(-c5c(F)cc(S(=O)(=O)[O-])cc5F)c5nc(c(-c6c(F)cc(S(=O)(=O)[O-])cc6F)c6ccc3[nH]6)C=C5)C=C4)cc2)C1
REMARK SMILES IDX 24 1 23 2 22 3 20 4 21 5 12 7 8 8 9 9 95 10 10 11 11 12 6 13
REMARK SMILES IDX 7 14 5 15 2 16 1 17 3 18 4 19 13 20 14 21 15 22 19 23 16 24
REMARK SMILES IDX 18 25 17 26 25 27 26 28 27 29 28 31 29 32 30 33 94 34 31 35
REMARK SMILES IDX 93 36 32 37 33 38 34 39 87 40 35 41 92 42 86 43 88 44 36 45
REMARK SMILES IDX 91 46 85 47 84 48 37 50 71 51 50 52 70 53 51 54 54 55 69 56
REMARK SMILES IDX 89 57 52 58 53 59 68 61 90 62 55 63 38 64 39 65 48 66 40 67
REMARK SMILES IDX 41 68 47 69 49 70 42 71 43 72 44 73 45 74 46 75 72 76 73 77
REMARK SMILES IDX 82 78 74 79 75 80 81 81 83 82 76 83 77 84 78 85 79 86 80 87
REMARK SMILES IDX 56 88 57 89 66 90 58 91 59 92 65 93 67 94 60 95 61 96 62 97
REMARK SMILES IDX 63 98 64 99
REMARK H PARENT 22 6 26 30 88 49 54 60
REMARK Flexibility Score: inf
ROOT
ATOM      1  C   UNL     1       6.482   3.388   3.319  1.00  0.00     0.042 C 
ENDROOT
BRANCH   1   2
ATOM      2  C   UNL     1       5.977   4.048   4.595  1.00  0.00     0.117 C 
BRANCH   2   3
ATOM      3  N   UNL     1       4.570   4.412   4.505  1.00  0.00    -0.355 N 
ATOM      4  C   UNL     1       3.369   3.894   4.852  1.00  0.00     0.228 C 
ATOM      5  O   UNL     1       2.429   4.612   4.484  1.00  0.00    -0.274 OA
ATOM      6  H   UNL     1       4.461   5.286   4.065  1.00  0.00     0.163 HD
BRANCH   4   7
ATOM      7  C   UNL     1       3.090   2.569   5.630  1.00  0.00     0.071 C 
ATOM      8  N   UNL     1       0.897   2.064   4.476  1.00  0.00    -0.307 N 
ATOM      9  C   UNL     1       0.113   2.330   5.669  1.00  0.00     0.123 C 
ATOM     10  C   UNL     1       2.285   1.643   4.678  1.00  0.00     0.140 C 
ATOM     11  C   UNL     1       0.793   3.329   6.588  1.00  0.00     0.023 C 
ATOM     12  C   UNL     1       2.241   2.929   6.886  1.00  0.00     0.021 C 
BRANCH   8  13
ATOM     13  C   UNL     1       0.281   2.135   3.236  1.00  0.00     0.410 C 
ATOM     14  O   UNL     1      -0.806   2.664   3.054  1.00  0.00    -0.224 OA
BRANCH  13  15
ATOM     15  O   UNL     1       0.991   1.488   2.273  1.00  0.00    -0.444 OA
BRANCH  15  16
ATOM     16  C   UNL     1       0.542   1.436   0.890  1.00  0.00     0.106 C 
ATOM     17  C   UNL     1       1.301   0.251   0.274  1.00  0.00     0.056 C 
ATOM     18  C   UNL     1       0.966   2.729   0.191  1.00  0.00     0.056 C 
ATOM     19  C   UNL     1      -0.960   1.172   0.713  1.00  0.00     0.056 C 
ENDBRANCH  15  16
ENDBRANCH  13  15
ENDBRANCH   8  13
BRANCH   7  20
ATOM     20  C   UNL     1       4.401   1.888   6.090  1.00  0.00     0.054 C 
BRANCH  20  21
ATOM     21  C   UNL     1       4.420   0.660   6.976  1.00  0.00    -0.047 A 
ATOM     22  C   UNL     1       4.862   0.776   8.306  1.00  0.00     0.004 A 
ATOM     23  C   UNL     1       4.154  -0.618   6.471  1.00  0.00     0.004 A 
ATOM     24  C   UNL     1       5.033  -0.355   9.106  1.00  0.00     0.000 A 
ATOM     25  C   UNL     1       4.306  -1.747   7.279  1.00  0.00     0.000 A 
ATOM     26  C   UNL     1       4.751  -1.617   8.593  1.00  0.00     0.000 A 
ENDBRANCH  20  21
ENDBRANCH   7  20
ENDBRANCH   4   7
ENDBRANCH   2   3
ENDBRANCH   1   2
BRANCH   1  27
ATOM     27  C   UNL     1       6.640   4.370   2.161  1.00  0.00     0.118 C 
BRANCH  27  28
ATOM     28  N   UNL     1       7.634   5.399   2.450  1.00  0.00    -0.352 N 
ATOM     29  C   UNL     1       8.857   5.640   1.879  1.00  0.00     0.251 C 
ATOM     30  H   UNL     1       7.386   6.021   3.171  1.00  0.00     0.163 HD
ATOM     31  O   UNL     1       9.649   6.384   2.450  1.00  0.00    -0.269 OA
BRANCH  29  32
ATOM     32  C   UNL     1       9.222   5.019   0.588  1.00  0.00     0.039 A 
ATOM     33  C   UNL     1      10.537   4.586   0.391  1.00  0.00     0.014 A 
ATOM     34  C   UNL     1       8.289   4.915  -0.447  1.00  0.00     0.014 A 
ATOM     35  C   UNL     1      10.899   4.002  -0.825  1.00  0.00     0.010 A 
ATOM     36  C   UNL     1       8.630   4.265  -1.628  1.00  0.00     0.010 A 
ATOM     37  C   UNL     1       9.941   3.812  -1.834  1.00  0.00    -0.014 A 
BRANCH  37  38
ATOM     38  C   UNL     1      10.289   3.155  -3.118  1.00  0.00     0.031 A 
ATOM     39  C   UNL     1      10.194   3.924  -4.407  1.00  0.00     0.074 A 
ATOM     40  C   UNL     1      10.616   1.848  -3.127  1.00  0.00     0.049 A 
ATOM     41  N   UNL     1      10.364   3.504  -5.634  1.00  0.00    -0.248 NA
ATOM     42  C   UNL     1       9.830   5.347  -4.306  1.00  0.00     0.031 C 
ATOM     43  C   UNL     1      10.690   0.986  -1.944  1.00  0.00     0.029 A 
ATOM     44  N   UNL     1      10.934   1.012  -4.166  1.00  0.00    -0.354 N 
ATOM     45  C   UNL     1      10.108   4.600  -6.449  1.00  0.00     0.074 A 
ATOM     46  C   UNL     1       9.724   5.692  -5.581  1.00  0.00     0.031 C 
ATOM     47  C   UNL     1      11.048  -0.251  -2.324  1.00  0.00     0.029 A 
ATOM     48  C   UNL     1      11.195  -0.280  -3.775  1.00  0.00     0.049 A 
ATOM     49  H   UNL     1      10.971   1.308  -5.104  1.00  0.00     0.167 HD
ATOM     50  C   UNL     1      10.205   4.694  -7.797  1.00  0.00     0.037 A 
ATOM     51  C   UNL     1      11.511  -1.367  -4.506  1.00  0.00     0.037 A 
ATOM     52  C   UNL     1      10.622   3.612  -8.650  1.00  0.00     0.049 A 
ATOM     53  C   UNL     1      11.636  -1.232  -5.998  1.00  0.00     0.074 A 
ATOM     54  C   UNL     1      10.814   3.620 -10.020  1.00  0.00     0.029 A 
ATOM     55  N   UNL     1      10.916   2.329  -8.212  1.00  0.00    -0.354 N 
ATOM     56  N   UNL     1      11.445  -0.173  -6.748  1.00  0.00    -0.248 NA
ATOM     57  C   UNL     1      12.026  -2.436  -6.744  1.00  0.00     0.031 C 
ATOM     58  C   UNL     1      11.193   2.332 -10.415  1.00  0.00     0.029 A 
ATOM     59  C   UNL     1      11.276   1.532  -9.286  1.00  0.00     0.049 A 
ATOM     60  H   UNL     1      10.875   2.028  -7.275  1.00  0.00     0.167 HD
ATOM     61  C   UNL     1      11.715  -0.576  -8.051  1.00  0.00     0.074 A 
ATOM     62  C   UNL     1      12.094  -1.973  -7.984  1.00  0.00     0.031 C 
ATOM     63  C   UNL     1      11.656   0.145  -9.198  1.00  0.00     0.037 A 
BRANCH  50  64
ATOM     64  C   UNL     1       9.862   6.015  -8.430  1.00  0.00     0.058 A 
ATOM     65  C   UNL     1      10.691   7.139  -8.283  1.00  0.00     0.135 A 
ATOM     66  C   UNL     1       8.707   6.154  -9.216  1.00  0.00     0.135 A 
ATOM     67  F   UNL     1      11.800   7.066  -7.530  1.00  0.00    -0.206 F 
ATOM     68  C   UNL     1      10.371   8.361  -8.864  1.00  0.00     0.059 A 
ATOM     69  C   UNL     1       8.380   7.360  -9.829  1.00  0.00     0.059 A 
ATOM     70  F   UNL     1       7.878   5.112  -9.390  1.00  0.00    -0.206 F 
ATOM     71  C   UNL     1       9.211   8.463  -9.634  1.00  0.00     0.060 A 
BRANCH  71  72
ATOM     72  S   UNL     1       8.809  10.056 -10.382  1.00  0.00     0.124 S 
ATOM     73  O   UNL     1       8.339  10.810  -9.224  1.00  0.00    -0.237 OA
ATOM     74  O   UNL     1      10.094  10.477 -10.932  1.00  0.00    -0.237 OA
ATOM     75  O   UNL     1       7.788   9.720 -11.370  1.00  0.00    -0.744 OA
ENDBRANCH  71  72
ENDBRANCH  50  64
BRANCH  51  76
ATOM     76  C   UNL     1      11.758  -2.667  -3.830  1.00  0.00     0.058 A 
ATOM     77  C   UNL     1      13.055  -3.191  -3.732  1.00  0.00     0.135 A 
ATOM     78  C   UNL     1      10.711  -3.398  -3.248  1.00  0.00     0.135 A 
ATOM     79  F   UNL     1      14.088  -2.529  -4.276  1.00  0.00    -0.206 F 
ATOM     80  C   UNL     1      13.306  -4.401  -3.094  1.00  0.00     0.059 A 
ATOM     81  C   UNL     1      10.940  -4.600  -2.585  1.00  0.00     0.059 A 
ATOM     82  F   UNL     1       9.454  -2.929  -3.297  1.00  0.00    -0.206 F 
ATOM     83  C   UNL     1      12.241  -5.098  -2.521  1.00  0.00     0.060 A 
BRANCH  83  84
ATOM     84  S   UNL     1      12.584  -6.641  -1.648  1.00  0.00     0.124 S 
ATOM     85  O   UNL     1      12.819  -7.559  -2.756  1.00  0.00    -0.237 OA
ATOM     86  O   UNL     1      13.755  -6.289  -0.850  1.00  0.00    -0.237 OA
ATOM     87  O   UNL     1      11.362  -6.871  -0.883  1.00  0.00    -0.744 OA
ENDBRANCH  83  84
ENDBRANCH  51  76
BRANCH  63  88
ATOM     88  C   UNL     1      12.039  -0.555 -10.471  1.00  0.00     0.058 A 
ATOM     89  C   UNL     1      11.191  -1.494 -11.078  1.00  0.00     0.135 A 
ATOM     90  C   UNL     1      13.247  -0.246 -11.115  1.00  0.00     0.135 A 
ATOM     91  F   UNL     1      10.028  -1.829 -10.497  1.00  0.00    -0.206 F 
ATOM     92  C   UNL     1      11.537  -2.118 -12.271  1.00  0.00     0.059 A 
ATOM     93  C   UNL     1      13.602  -0.840 -12.322  1.00  0.00     0.059 A 
ATOM     94  F   UNL     1      14.089   0.653 -10.580  1.00  0.00    -0.206 F 
ATOM     95  C   UNL     1      12.745  -1.784 -12.886  1.00  0.00     0.060 A 
BRANCH  95  96
ATOM     96  S   UNL     1      13.169  -2.575 -14.452  1.00  0.00     0.124 S 
ATOM     97  O   UNL     1      13.576  -3.904 -14.008  1.00  0.00    -0.237 OA
ATOM     98  O   UNL     1      11.910  -2.511 -15.188  1.00  0.00    -0.237 OA
ATOM     99  O   UNL     1      14.239  -1.734 -14.979  1.00  0.00    -0.744 OA
ENDBRANCH  95  96
ENDBRANCH  63  88
ENDBRANCH  37  38
ENDBRANCH  29  32
ENDBRANCH  27  28
ENDBRANCH   1  27
TORSDOF 18
