REMARK SMILES O=C(NCCCNC(=O)[C@@H]1CCCN(C(=O)Nc2ccccc2)C1)c1ccc(-c2c3nc(c(-c4c(F)cc(S(=O)(=O)[O-])cc4F)c4ccc([nH]4)c(-c4c(F)cc(S(=O)(=O)[O-])cc4F)c4nc(c(-c5c(F)cc(S(=O)(=O)[O-])cc5F)c5ccc2[nH]5)C=C4)C=C3)cc1
REMARK SMILES IDX 4 1 3 2 1 3 2 4 25 6 26 7 90 8 27 9 89 10 28 11 29 12 30 13
REMARK SMILES IDX 83 14 31 15 88 16 82 17 84 18 32 19 87 20 81 21 80 22 33 24
REMARK SMILES IDX 67 25 46 26 66 27 47 28 50 29 65 30 85 31 48 32 49 33 64 35
REMARK SMILES IDX 86 36 51 37 34 38 35 39 44 40 36 41 37 42 43 43 45 44 38 45
REMARK SMILES IDX 39 46 40 47 41 48 42 49 68 50 69 51 78 52 70 53 71 54 77 55
REMARK SMILES IDX 79 56 72 57 73 58 74 59 75 60 76 61 52 62 53 63 62 64 54 65
REMARK SMILES IDX 55 66 61 67 63 68 56 69 57 70 58 71 59 72 60 73 5 74 6 75
REMARK SMILES IDX 7 76 8 77 9 79 10 80 11 81 24 82 12 83 14 84 13 85 15 86
REMARK SMILES IDX 16 87 17 88 18 90 19 91 23 92 20 93 22 94 21 95
REMARK H PARENT 3 5 84 23 50 34 7 78 17 89
REMARK Flexibility Score: inf
ROOT
ATOM      1  C   UNL     1       3.816  -0.383  -1.339  1.00  0.00     0.118 C 
ENDROOT
BRANCH   1   2
ATOM      2  N   UNL     1       2.414  -0.211  -1.002  1.00  0.00    -0.352 N 
ATOM      3  O   UNL     1       0.607   0.061   0.313  1.00  0.00    -0.269 OA
ATOM      4  C   UNL     1       1.827   0.089   0.211  1.00  0.00     0.251 C 
ATOM      5  H   UNL     1       1.787  -0.327  -1.752  1.00  0.00     0.163 HD
BRANCH   4   6
ATOM      6  C   UNL     1       2.656   0.424   1.398  1.00  0.00     0.039 A 
ATOM      7  C   UNL     1       3.693   1.350   1.316  1.00  0.00     0.014 A 
ATOM      8  C   UNL     1       2.365  -0.165   2.632  1.00  0.00     0.014 A 
ATOM      9  C   UNL     1       4.527   1.563   2.417  1.00  0.00     0.010 A 
ATOM     10  C   UNL     1       3.156   0.118   3.760  1.00  0.00     0.010 A 
ATOM     11  C   UNL     1       4.277   0.957   3.663  1.00  0.00    -0.014 A 
BRANCH  11  12
ATOM     12  C   UNL     1       5.169   1.237   4.838  1.00  0.00     0.031 A 
ATOM     13  C   UNL     1       5.839   0.123   5.619  1.00  0.00     0.074 A 
ATOM     14  C   UNL     1       5.405   2.514   5.210  1.00  0.00     0.049 A 
ATOM     15  N   UNL     1       6.583   0.200   6.697  1.00  0.00    -0.248 NA
ATOM     16  C   UNL     1       5.645  -1.252   5.135  1.00  0.00     0.031 C 
ATOM     17  C   UNL     1       4.838   3.700   4.564  1.00  0.00     0.029 A 
ATOM     18  N   UNL     1       6.191   3.035   6.211  1.00  0.00    -0.354 N 
ATOM     19  C   UNL     1       6.908  -1.109   7.045  1.00  0.00     0.074 A 
ATOM     20  C   UNL     1       6.268  -1.963   6.067  1.00  0.00     0.031 C 
ATOM     21  C   UNL     1       5.343   4.802   5.135  1.00  0.00     0.029 A 
ATOM     22  C   UNL     1       6.186   4.411   6.258  1.00  0.00     0.049 A 
ATOM     23  H   UNL     1       6.709   2.477   6.835  1.00  0.00     0.167 HD
ATOM     24  C   UNL     1       7.667  -1.560   8.078  1.00  0.00     0.037 A 
ATOM     25  C   UNL     1       6.755   5.276   7.121  1.00  0.00     0.037 A 
ATOM     26  C   UNL     1       8.335  -0.711   9.037  1.00  0.00     0.049 A 
ATOM     27  C   UNL     1       7.559   4.752   8.275  1.00  0.00     0.074 A 
ATOM     28  C   UNL     1       9.154  -1.084  10.091  1.00  0.00     0.029 A 
ATOM     29  N   UNL     1       8.265   0.674   9.067  1.00  0.00    -0.354 N 
ATOM     30  N   UNL     1       7.846   3.511   8.584  1.00  0.00    -0.248 NA
ATOM     31  C   UNL     1       8.106   5.747   9.208  1.00  0.00     0.031 C 
ATOM     32  C   UNL     1       9.533   0.067  10.789  1.00  0.00     0.029 A 
ATOM     33  C   UNL     1       9.004   1.166  10.134  1.00  0.00     0.049 A 
ATOM     34  H   UNL     1       7.764   1.228   8.425  1.00  0.00     0.167 HD
ATOM     35  C   UNL     1       8.624   3.578   9.735  1.00  0.00     0.074 A 
ATOM     36  C   UNL     1       8.778   4.981  10.056  1.00  0.00     0.031 C 
ATOM     37  C   UNL     1       9.159   2.563  10.457  1.00  0.00     0.037 A 
BRANCH  24  38
ATOM     38  C   UNL     1       7.806  -3.053   8.257  1.00  0.00     0.058 A 
ATOM     39  C   UNL     1       8.555  -3.845   7.373  1.00  0.00     0.135 A 
ATOM     40  C   UNL     1       7.233  -3.690   9.372  1.00  0.00     0.135 A 
ATOM     41  F   UNL     1       9.121  -3.296   6.286  1.00  0.00    -0.206 F 
ATOM     42  C   UNL     1       8.702  -5.216   7.568  1.00  0.00     0.059 A 
ATOM     43  C   UNL     1       7.393  -5.054   9.604  1.00  0.00     0.059 A 
ATOM     44  F   UNL     1       6.514  -2.983  10.259  1.00  0.00    -0.206 F 
ATOM     45  C   UNL     1       8.116  -5.812   8.686  1.00  0.00     0.060 A 
BRANCH  45  46
ATOM     46  S   UNL     1       8.310  -7.593   8.918  1.00  0.00     0.124 S 
ATOM     47  O   UNL     1       7.454  -8.117   7.857  1.00  0.00    -0.237 OA
ATOM     48  O   UNL     1       9.744  -7.778   8.722  1.00  0.00    -0.237 OA
ATOM     49  O   UNL     1       7.830  -7.816  10.278  1.00  0.00    -0.744 OA
ENDBRANCH  45  46
ENDBRANCH  24  38
BRANCH  25  50
ATOM     50  C   UNL     1       6.555   6.740   6.936  1.00  0.00     0.058 A 
ATOM     51  C   UNL     1       7.621   7.576   6.574  1.00  0.00     0.135 A 
ATOM     52  C   UNL     1       5.289   7.326   7.096  1.00  0.00     0.135 A 
ATOM     53  F   UNL     1       8.852   7.066   6.422  1.00  0.00    -0.206 F 
ATOM     54  C   UNL     1       7.441   8.942   6.383  1.00  0.00     0.059 A 
ATOM     55  C   UNL     1       5.077   8.682   6.876  1.00  0.00     0.059 A 
ATOM     56  F   UNL     1       4.233   6.567   7.431  1.00  0.00    -0.206 F 
ATOM     57  C   UNL     1       6.163   9.484   6.529  1.00  0.00     0.060 A 
BRANCH  57  58
ATOM     58  S   UNL     1       5.927  11.246   6.216  1.00  0.00     0.124 S 
ATOM     59  O   UNL     1       6.549  11.838   7.395  1.00  0.00    -0.237 OA
ATOM     60  O   UNL     1       6.640  11.431   4.956  1.00  0.00    -0.237 OA
ATOM     61  O   UNL     1       4.476  11.380   6.131  1.00  0.00    -0.744 OA
ENDBRANCH  57  58
ENDBRANCH  25  50
BRANCH  37  62
ATOM     62  C   UNL     1      10.002   2.933  11.649  1.00  0.00     0.058 A 
ATOM     63  C   UNL     1       9.441   3.474  12.818  1.00  0.00     0.135 A 
ATOM     64  C   UNL     1      11.392   2.727  11.629  1.00  0.00     0.135 A 
ATOM     65  F   UNL     1       8.120   3.702  12.890  1.00  0.00    -0.206 F 
ATOM     66  C   UNL     1      10.230   3.828  13.909  1.00  0.00     0.059 A 
ATOM     67  C   UNL     1      12.196   3.044  12.720  1.00  0.00     0.059 A 
ATOM     68  F   UNL     1      11.982   2.204  10.542  1.00  0.00    -0.206 F 
ATOM     69  C   UNL     1      11.608   3.609  13.850  1.00  0.00     0.060 A 
BRANCH  69  70
ATOM     70  S   UNL     1      12.618   4.057  15.278  1.00  0.00     0.124 S 
ATOM     71  O   UNL     1      12.616   5.514  15.195  1.00  0.00    -0.237 OA
ATOM     72  O   UNL     1      11.862   3.484  16.387  1.00  0.00    -0.237 OA
ATOM     73  O   UNL     1      13.900   3.414  15.003  1.00  0.00    -0.744 OA
ENDBRANCH  69  70
ENDBRANCH  37  62
ENDBRANCH  11  12
ENDBRANCH   4   6
ENDBRANCH   1   2
BRANCH   1  74
ATOM     74  C   UNL     1       4.186  -1.801  -1.751  1.00  0.00     0.042 C 
BRANCH  74  75
ATOM     75  C   UNL     1       3.767  -2.237  -3.152  1.00  0.00     0.117 C 
BRANCH  75  76
ATOM     76  N   UNL     1       4.312  -1.438  -4.235  1.00  0.00    -0.356 N 
ATOM     77  C   UNL     1       5.012  -1.824  -5.336  1.00  0.00     0.224 C 
ATOM     78  H   UNL     1       4.150  -0.469  -4.161  1.00  0.00     0.163 HD
ATOM     79  O   UNL     1       4.664  -1.310  -6.407  1.00  0.00    -0.275 OA
BRANCH  77  80
ATOM     80  C   UNL     1       6.279  -2.686  -5.315  1.00  0.00     0.098 C 
ATOM     81  C   UNL     1       6.395  -3.922  -4.437  1.00  0.00     0.017 C 
ATOM     82  C   UNL     1       7.497  -1.785  -5.114  1.00  0.00     0.134 C 
ATOM     83  C   UNL     1       6.901  -3.684  -3.020  1.00  0.00     0.022 C 
ATOM     84  N   UNL     1       7.571  -1.336  -3.729  1.00  0.00    -0.324 N 
ATOM     85  C   UNL     1       7.748  -2.429  -2.772  1.00  0.00     0.121 C 
BRANCH  84  86
ATOM     86  C   UNL     1       7.372   0.009  -3.501  1.00  0.00     0.321 C 
ATOM     87  O   UNL     1       7.057   0.779  -4.416  1.00  0.00    -0.248 OA
ATOM     88  N   UNL     1       7.366   0.558  -2.264  1.00  0.00    -0.308 N 
ATOM     89  H   UNL     1       6.880   1.413  -2.225  1.00  0.00     0.171 HD
BRANCH  88  90
ATOM     90  C   UNL     1       7.900   0.177  -1.034  1.00  0.00     0.042 A 
ATOM     91  C   UNL     1       7.151   0.481   0.101  1.00  0.00     0.026 A 
ATOM     92  C   UNL     1       9.100  -0.517  -0.901  1.00  0.00     0.026 A 
ATOM     93  C   UNL     1       7.485  -0.088   1.328  1.00  0.00     0.002 A 
ATOM     94  C   UNL     1       9.450  -1.063   0.334  1.00  0.00     0.002 A 
ATOM     95  C   UNL     1       8.620  -0.884   1.438  1.00  0.00     0.000 A 
ENDBRANCH  88  90
ENDBRANCH  84  86
ENDBRANCH  77  80
ENDBRANCH  75  76
ENDBRANCH  74  75
ENDBRANCH   1  74
TORSDOF 15
