REMARK SMILES COc1ccc2c(C[NH2+]Cc3cccs3)c(C(=O)NCCCNC(=O)c3ccc(-c4c5nc(c(-c6c(F)cc(S(=O)(=O)[O-])cc6F)c6ccc([nH]6)c(-c6c(F)cc(S(=O)(=O)[O-])cc6F)c6nc(c(-c7c(F)cc(S(=O)(=O)[O-])cc7F)c7ccc4[nH]7)C=C6)C=C5)cc3)[nH]c2c1
REMARK SMILES IDX 20 1 19 2 17 3 18 4 16 6 3 7 4 8 94 9 5 10 93 11 6 12 92 13
REMARK SMILES IDX 7 14 2 16 1 17 8 18 9 19 10 22 11 23 12 24 15 25 13 26 14 27
REMARK SMILES IDX 21 28 22 29 23 30 24 31 25 33 26 34 27 35 91 36 28 37 90 38
REMARK SMILES IDX 29 39 30 40 31 41 84 42 32 43 89 44 83 45 85 46 33 47 88 48
REMARK SMILES IDX 82 49 81 50 34 52 68 53 47 54 67 55 48 56 51 57 66 58 86 59
REMARK SMILES IDX 49 60 50 61 65 63 87 64 52 65 35 66 36 67 45 68 37 69 38 70
REMARK SMILES IDX 44 71 46 72 39 73 40 74 41 75 42 76 43 77 69 78 70 79 79 80
REMARK SMILES IDX 71 81 72 82 78 83 80 84 73 85 74 86 75 87 76 88 77 89 53 90
REMARK SMILES IDX 54 91 63 92 55 93 56 94 62 95 64 96 57 97 58 98 59 99 60 100
REMARK SMILES IDX 61 101
REMARK H PARENT 19 5 92 15 9 20 9 21 23 32 85 51 51 62
REMARK Flexibility Score: inf
ROOT
ATOM      1  C   UNL     1      -2.344   7.546  -2.742  1.00  0.00     0.118 C 
ENDROOT
BRANCH   1   2
ATOM      2  N   UNL     1      -1.192   8.322  -2.339  1.00  0.00    -0.351 N 
ATOM      3  C   UNL     1       0.007   8.020  -1.754  1.00  0.00     0.268 C 
ATOM      4  O   UNL     1       0.679   9.002  -1.435  1.00  0.00    -0.268 OA
ATOM      5  H   UNL     1      -1.293   9.283  -2.527  1.00  0.00     0.163 HD
BRANCH   3   6
ATOM      6  C   UNL     1       0.453   6.652  -1.543  1.00  0.00     0.114 A 
ATOM      7  C   UNL     1       1.104   2.086  -1.143  1.00  0.00     0.120 A 
ATOM      8  C   UNL     1       2.426   2.479  -0.946  1.00  0.00     0.047 A 
ATOM      9  C   UNL     1       0.102   3.028  -1.389  1.00  0.00     0.073 A 
ATOM     10  C   UNL     1       2.772   3.837  -0.962  1.00  0.00     0.015 A 
ATOM     11  C   UNL     1       0.467   4.380  -1.382  1.00  0.00     0.050 A 
ATOM     12  C   UNL     1       1.773   4.810  -1.183  1.00  0.00     0.009 A 
ATOM     13  N   UNL     1      -0.306   5.506  -1.529  1.00  0.00    -0.350 N 
ATOM     14  C   UNL     1       1.765   6.242  -1.271  1.00  0.00     0.045 A 
ATOM     15  H   UNL     1      -1.287   5.493  -1.613  1.00  0.00     0.167 HD
BRANCH   7  16
ATOM     16  O   UNL     1       0.725   0.769  -1.175  1.00  0.00    -0.497 OA
ATOM     17  C   UNL     1       1.087   0.072   0.016  1.00  0.00     0.278 C 
ENDBRANCH   7  16
BRANCH  14  18
ATOM     18  C   UNL     1       2.963   7.131  -1.119  1.00  0.00     0.300 C 
BRANCH  18  19
ATOM     19  N   UNL     1       3.377   7.551  -2.456  1.00  0.00    -0.338 N 
ATOM     20  H   UNL     1       2.610   8.065  -2.891  1.00  0.00     0.346 HD
ATOM     21  H   UNL     1       3.611   6.713  -2.989  1.00  0.00     0.346 HD
BRANCH  19  22
ATOM     22  C   UNL     1       4.558   8.407  -2.424  1.00  0.00     0.308 C 
BRANCH  22  23
ATOM     23  C   UNL     1       5.853   7.681  -2.153  1.00  0.00     0.059 A 
ATOM     24  C   UNL     1       7.001   8.207  -1.589  1.00  0.00     0.021 A 
ATOM     25  S   UNL     1       6.085   6.035  -2.593  1.00  0.00    -0.143 S 
ATOM     26  C   UNL     1       8.034   7.237  -1.444  1.00  0.00     0.012 A 
ATOM     27  C   UNL     1       7.651   6.002  -1.913  1.00  0.00     0.065 A 
ENDBRANCH  22  23
ENDBRANCH  19  22
ENDBRANCH  18  19
ENDBRANCH  14  18
ENDBRANCH   3   6
ENDBRANCH   1   2
BRANCH   1  28
ATOM     28  C   UNL     1      -3.413   7.574  -1.651  1.00  0.00     0.042 C 
BRANCH  28  29
ATOM     29  C   UNL     1      -4.056   8.953  -1.484  1.00  0.00     0.118 C 
BRANCH  29  30
ATOM     30  N   UNL     1      -4.769   9.367  -2.687  1.00  0.00    -0.352 N 
ATOM     31  C   UNL     1      -6.105   9.600  -2.887  1.00  0.00     0.251 C 
ATOM     32  H   UNL     1      -4.201   9.501  -3.481  1.00  0.00     0.163 HD
ATOM     33  O   UNL     1      -6.540   9.668  -4.033  1.00  0.00    -0.269 OA
BRANCH  31  34
ATOM     34  C   UNL     1      -7.015   9.769  -1.735  1.00  0.00     0.039 A 
ATOM     35  C   UNL     1      -8.294   9.210  -1.794  1.00  0.00     0.014 A 
ATOM     36  C   UNL     1      -6.625  10.514  -0.619  1.00  0.00     0.014 A 
ATOM     37  C   UNL     1      -9.162   9.354  -0.709  1.00  0.00     0.010 A 
ATOM     38  C   UNL     1      -7.460  10.586   0.492  1.00  0.00     0.010 A 
ATOM     39  C   UNL     1      -8.739  10.014   0.456  1.00  0.00    -0.014 A 
BRANCH  39  40
ATOM     40  C   UNL     1      -9.622  10.116   1.647  1.00  0.00     0.031 A 
ATOM     41  C   UNL     1     -10.073  11.463   2.143  1.00  0.00     0.074 A 
ATOM     42  C   UNL     1      -9.961   8.996   2.316  1.00  0.00     0.049 A 
ATOM     43  N   UNL     1     -10.787  11.757   3.199  1.00  0.00    -0.248 NA
ATOM     44  C   UNL     1      -9.645  12.637   1.365  1.00  0.00     0.031 C 
ATOM     45  C   UNL     1      -9.542   7.638   1.958  1.00  0.00     0.029 A 
ATOM     46  N   UNL     1     -10.726   8.820   3.441  1.00  0.00    -0.354 N 
ATOM     47  C   UNL     1     -10.881  13.143   3.220  1.00  0.00     0.074 A 
ATOM     48  C   UNL     1     -10.104  13.636   2.104  1.00  0.00     0.031 C 
ATOM     49  C   UNL     1     -10.075   6.769   2.831  1.00  0.00     0.029 A 
ATOM     50  C   UNL     1     -10.835   7.507   3.834  1.00  0.00     0.049 A 
ATOM     51  H   UNL     1     -11.156   9.564   3.922  1.00  0.00     0.167 HD
ATOM     52  C   UNL     1     -11.572  13.932   4.078  1.00  0.00     0.037 A 
ATOM     53  C   UNL     1     -11.468   6.959   4.891  1.00  0.00     0.037 A 
ATOM     54  C   UNL     1     -12.358  13.429   5.175  1.00  0.00     0.049 A 
ATOM     55  C   UNL     1     -12.221   7.857   5.834  1.00  0.00     0.074 A 
ATOM     56  C   UNL     1     -13.141  14.138   6.069  1.00  0.00     0.029 A 
ATOM     57  N   UNL     1     -12.458  12.091   5.532  1.00  0.00    -0.354 N 
ATOM     58  N   UNL     1     -12.355   9.162   5.801  1.00  0.00    -0.248 NA
ATOM     59  C   UNL     1     -12.916   7.209   6.955  1.00  0.00     0.031 C 
ATOM     60  C   UNL     1     -13.671  13.237   6.997  1.00  0.00     0.029 A 
ATOM     61  C   UNL     1     -13.270  11.957   6.646  1.00  0.00     0.049 A 
ATOM     62  H   UNL     1     -12.017  11.347   5.061  1.00  0.00     0.167 HD
ATOM     63  C   UNL     1     -13.173   9.488   6.877  1.00  0.00     0.074 A 
ATOM     64  C   UNL     1     -13.513   8.242   7.533  1.00  0.00     0.031 C 
ATOM     65  C   UNL     1     -13.604  10.707   7.285  1.00  0.00     0.037 A 
BRANCH  52  66
ATOM     66  C   UNL     1     -11.511  15.422   3.865  1.00  0.00     0.058 A 
ATOM     67  C   UNL     1     -12.116  16.036   2.757  1.00  0.00     0.135 A 
ATOM     68  C   UNL     1     -10.872  16.252   4.802  1.00  0.00     0.135 A 
ATOM     69  F   UNL     1     -12.728  15.291   1.821  1.00  0.00    -0.206 F 
ATOM     70  C   UNL     1     -12.065  17.413   2.567  1.00  0.00     0.059 A 
ATOM     71  C   UNL     1     -10.836  17.635   4.649  1.00  0.00     0.059 A 
ATOM     72  F   UNL     1     -10.276  15.721   5.881  1.00  0.00    -0.206 F 
ATOM     73  C   UNL     1     -11.423  18.205   3.521  1.00  0.00     0.060 A 
BRANCH  73  74
ATOM     74  S   UNL     1     -11.373  19.991   3.263  1.00  0.00     0.124 S 
ATOM     75  O   UNL     1     -10.430  20.099   2.154  1.00  0.00    -0.237 OA
ATOM     76  O   UNL     1     -12.764  20.298   2.943  1.00  0.00    -0.237 OA
ATOM     77  O   UNL     1     -10.898  20.507   4.542  1.00  0.00    -0.744 OA
ENDBRANCH  73  74
ENDBRANCH  52  66
BRANCH  53  78
ATOM     78  C   UNL     1     -11.431   5.486   5.098  1.00  0.00     0.058 A 
ATOM     79  C   UNL     1     -12.583   4.704   4.931  1.00  0.00     0.135 A 
ATOM     80  C   UNL     1     -10.242   4.829   5.452  1.00  0.00     0.135 A 
ATOM     81  F   UNL     1     -13.745   5.285   4.597  1.00  0.00    -0.206 F 
ATOM     82  C   UNL     1     -12.564   3.326   5.125  1.00  0.00     0.059 A 
ATOM     83  C   UNL     1     -10.191   3.449   5.624  1.00  0.00     0.059 A 
ATOM     84  F   UNL     1      -9.106   5.528   5.606  1.00  0.00    -0.206 F 
ATOM     85  C   UNL     1     -11.361   2.708   5.469  1.00  0.00     0.060 A 
BRANCH  85  86
ATOM     86  S   UNL     1     -11.338   0.914   5.674  1.00  0.00     0.124 S 
ATOM     87  O   UNL     1     -12.065   0.752   6.928  1.00  0.00    -0.237 OA
ATOM     88  O   UNL     1     -12.030   0.460   4.471  1.00  0.00    -0.237 OA
ATOM     89  O   UNL     1      -9.913   0.600   5.724  1.00  0.00    -0.744 OA
ENDBRANCH  85  86
ENDBRANCH  53  78
BRANCH  65  90
ATOM     90  C   UNL     1     -14.525  10.755   8.474  1.00  0.00     0.058 A 
ATOM     91  C   UNL     1     -14.070  10.490   9.775  1.00  0.00     0.135 A 
ATOM     92  C   UNL     1     -15.871  11.121   8.313  1.00  0.00     0.135 A 
ATOM     93  F   UNL     1     -12.794  10.130   9.984  1.00  0.00    -0.206 F 
ATOM     94  C   UNL     1     -14.923  10.561  10.871  1.00  0.00     0.059 A 
ATOM     95  C   UNL     1     -16.735  11.230   9.398  1.00  0.00     0.059 A 
ATOM     96  F   UNL     1     -16.357  11.396   7.091  1.00  0.00    -0.206 F 
ATOM     97  C   UNL     1     -16.254  10.935  10.673  1.00  0.00     0.060 A 
BRANCH  97  98
ATOM     98  S   UNL     1     -17.341  11.054  12.108  1.00  0.00     0.124 S 
ATOM     99  O   UNL     1     -17.542   9.648  12.443  1.00  0.00    -0.237 OA
ATOM    100  O   UNL     1     -16.532  11.821  13.050  1.00  0.00    -0.237 OA
ATOM    101  O   UNL     1     -18.516  11.749  11.589  1.00  0.00    -0.744 OA
ENDBRANCH  97  98
ENDBRANCH  65  90
ENDBRANCH  39  40
ENDBRANCH  31  34
ENDBRANCH  29  30
ENDBRANCH  28  29
ENDBRANCH   1  28
TORSDOF 18
