REMARK SMILES O=C(NCCCNC(=O)[C@H](c1ccc(O)cc1)[NH+]1CC[NH+](Cc2cccc(Cl)c2)CC1)c1ccc(-c2c3nc(c(-c4c(F)cc(S(=O)(=O)[O-])cc4F)c4ccc([nH]4)c(-c4c(F)cc(S(=O)(=O)[O-])cc4F)c4nc(c(-c5c(F)cc(S(=O)(=O)[O-])cc5F)c5ccc2[nH]5)C=C4)C=C3)cc1
REMARK SMILES IDX 5 1 4 2 3 3 1 4 2 5 32 7 33 8 97 9 34 10 96 11 35 12 36 13
REMARK SMILES IDX 37 14 90 15 38 16 95 17 89 18 91 19 39 20 94 21 88 22 87 23
REMARK SMILES IDX 40 25 74 26 53 27 73 28 54 29 57 30 72 31 92 32 55 33 56 34
REMARK SMILES IDX 71 36 93 37 58 38 41 39 42 40 51 41 43 42 44 43 50 44 52 45
REMARK SMILES IDX 45 46 46 47 47 48 48 49 49 50 75 51 76 52 85 53 77 54 78 55
REMARK SMILES IDX 84 56 86 57 79 58 80 59 81 60 82 61 83 62 59 63 60 64 69 65
REMARK SMILES IDX 61 66 62 67 68 68 70 69 63 70 64 71 65 72 66 73 67 74 6 75
REMARK SMILES IDX 7 76 8 77 9 79 10 80 18 81 19 82 31 83 20 85 30 86 21 87
REMARK SMILES IDX 22 89 23 90 24 91 29 92 25 93 27 94 26 95 28 96 11 97 12 98
REMARK SMILES IDX 17 99 13 100 16 101 14 102 15 103
REMARK H PARENT 3 6 91 24 57 35 7 78 18 84 21 88 15 104
REMARK Flexibility Score: inf
ROOT
ATOM      1  C   UNL     1       9.493  -4.130   3.920  1.00  0.00     0.042 C 
ENDROOT
BRANCH   1   2
ATOM      2  C   UNL     1      10.678  -3.399   3.304  1.00  0.00     0.118 C 
BRANCH   2   3
ATOM      3  N   UNL     1      11.891  -3.670   4.063  1.00  0.00    -0.352 N 
ATOM      4  O   UNL     1      13.542  -5.038   4.744  1.00  0.00    -0.269 OA
ATOM      5  C   UNL     1      12.842  -4.624   3.819  1.00  0.00     0.251 C 
ATOM      6  H   UNL     1      12.046  -3.096   4.848  1.00  0.00     0.163 HD
BRANCH   5   7
ATOM      7  C   UNL     1      13.032  -5.127   2.446  1.00  0.00     0.039 A 
ATOM      8  C   UNL     1      12.963  -4.242   1.364  1.00  0.00     0.014 A 
ATOM      9  C   UNL     1      13.357  -6.470   2.240  1.00  0.00     0.014 A 
ATOM     10  C   UNL     1      13.124  -4.713   0.070  1.00  0.00     0.010 A 
ATOM     11  C   UNL     1      13.606  -6.924   0.945  1.00  0.00     0.010 A 
ATOM     12  C   UNL     1      13.490  -6.047  -0.146  1.00  0.00    -0.014 A 
BRANCH  12  13
ATOM     13  C   UNL     1      13.864  -6.488  -1.508  1.00  0.00     0.031 A 
ATOM     14  C   UNL     1      13.058  -7.525  -2.225  1.00  0.00     0.074 A 
ATOM     15  C   UNL     1      14.968  -5.957  -2.069  1.00  0.00     0.049 A 
ATOM     16  N   UNL     1      13.298  -8.102  -3.373  1.00  0.00    -0.248 NA
ATOM     17  C   UNL     1      11.830  -7.985  -1.562  1.00  0.00     0.031 C 
ATOM     18  C   UNL     1      15.823  -4.942  -1.444  1.00  0.00     0.029 A 
ATOM     19  N   UNL     1      15.569  -6.198  -3.276  1.00  0.00    -0.354 N 
ATOM     20  C   UNL     1      12.271  -9.018  -3.558  1.00  0.00     0.074 A 
ATOM     21  C   UNL     1      11.411  -8.927  -2.396  1.00  0.00     0.031 C 
ATOM     22  C   UNL     1      16.828  -4.640  -2.276  1.00  0.00     0.029 A 
ATOM     23  C   UNL     1      16.730  -5.487  -3.458  1.00  0.00     0.049 A 
ATOM     24  H   UNL     1      15.204  -6.819  -3.946  1.00  0.00     0.167 HD
ATOM     25  C   UNL     1      12.074  -9.857  -4.603  1.00  0.00     0.037 A 
ATOM     26  C   UNL     1      17.642  -5.539  -4.446  1.00  0.00     0.037 A 
ATOM     27  C   UNL     1      12.942  -9.921  -5.750  1.00  0.00     0.049 A 
ATOM     28  C   UNL     1      17.411  -6.483  -5.587  1.00  0.00     0.074 A 
ATOM     29  C   UNL     1      12.819 -10.708  -6.881  1.00  0.00     0.029 A 
ATOM     30  N   UNL     1      14.102  -9.172  -5.908  1.00  0.00    -0.354 N 
ATOM     31  N   UNL     1      16.422  -7.326  -5.763  1.00  0.00    -0.248 NA
ATOM     32  C   UNL     1      18.411  -6.489  -6.661  1.00  0.00     0.031 C 
ATOM     33  C   UNL     1      13.926 -10.465  -7.702  1.00  0.00     0.029 A 
ATOM     34  C   UNL     1      14.715  -9.492  -7.107  1.00  0.00     0.049 A 
ATOM     35  H   UNL     1      14.438  -8.510  -5.261  1.00  0.00     0.167 HD
ATOM     36  C   UNL     1      16.668  -7.954  -6.976  1.00  0.00     0.074 A 
ATOM     37  C   UNL     1      17.900  -7.389  -7.493  1.00  0.00     0.031 C 
ATOM     38  C   UNL     1      15.938  -8.907  -7.604  1.00  0.00     0.037 A 
BRANCH  25  39
ATOM     39  C   UNL     1      10.902 -10.796  -4.522  1.00  0.00     0.058 A 
ATOM     40  C   UNL     1       9.577 -10.344  -4.634  1.00  0.00     0.135 A 
ATOM     41  C   UNL     1      11.109 -12.170  -4.316  1.00  0.00     0.135 A 
ATOM     42  F   UNL     1       9.321  -9.040  -4.819  1.00  0.00    -0.206 F 
ATOM     43  C   UNL     1       8.498 -11.213  -4.495  1.00  0.00     0.059 A 
ATOM     44  C   UNL     1      10.046 -13.061  -4.200  1.00  0.00     0.059 A 
ATOM     45  F   UNL     1      12.354 -12.657  -4.206  1.00  0.00    -0.206 F 
ATOM     46  C   UNL     1       8.743 -12.568  -4.265  1.00  0.00     0.060 A 
BRANCH  46  47
ATOM     47  S   UNL     1       7.338 -13.678  -4.037  1.00  0.00     0.124 S 
ATOM     48  O   UNL     1       6.933 -13.354  -2.672  1.00  0.00    -0.237 OA
ATOM     49  O   UNL     1       6.421 -13.248  -5.087  1.00  0.00    -0.237 OA
ATOM     50  O   UNL     1       7.919 -15.004  -4.221  1.00  0.00    -0.744 OA
ENDBRANCH  46  47
ENDBRANCH  25  39
BRANCH  26  51
ATOM     51  C   UNL     1      18.845  -4.674  -4.360  1.00  0.00     0.058 A 
ATOM     52  C   UNL     1      18.967  -3.525  -5.152  1.00  0.00     0.135 A 
ATOM     53  C   UNL     1      19.840  -4.918  -3.398  1.00  0.00     0.135 A 
ATOM     54  F   UNL     1      18.042  -3.251  -6.084  1.00  0.00    -0.206 F 
ATOM     55  C   UNL     1      20.026  -2.638  -4.985  1.00  0.00     0.059 A 
ATOM     56  C   UNL     1      20.895  -4.034  -3.197  1.00  0.00     0.059 A 
ATOM     57  F   UNL     1      19.753  -5.993  -2.600  1.00  0.00    -0.206 F 
ATOM     58  C   UNL     1      20.978  -2.894  -3.995  1.00  0.00     0.060 A 
BRANCH  58  59
ATOM     59  S   UNL     1      22.284  -1.679  -3.711  1.00  0.00     0.124 S 
ATOM     60  O   UNL     1      23.153  -1.909  -4.859  1.00  0.00    -0.237 OA
ATOM     61  O   UNL     1      21.540  -0.423  -3.714  1.00  0.00    -0.237 OA
ATOM     62  O   UNL     1      22.830  -2.070  -2.415  1.00  0.00    -0.744 OA
ENDBRANCH  58  59
ENDBRANCH  26  51
BRANCH  38  63
ATOM     63  C   UNL     1      16.428  -9.382  -8.941  1.00  0.00     0.058 A 
ATOM     64  C   UNL     1      17.495 -10.284  -9.054  1.00  0.00     0.135 A 
ATOM     65  C   UNL     1      15.755  -9.001 -10.113  1.00  0.00     0.135 A 
ATOM     66  F   UNL     1      18.177 -10.666  -7.963  1.00  0.00    -0.206 F 
ATOM     67  C   UNL     1      17.878 -10.798 -10.288  1.00  0.00     0.059 A 
ATOM     68  C   UNL     1      16.107  -9.519 -11.354  1.00  0.00     0.059 A 
ATOM     69  F   UNL     1      14.725  -8.142 -10.052  1.00  0.00    -0.206 F 
ATOM     70  C   UNL     1      17.171 -10.418 -11.431  1.00  0.00     0.060 A 
BRANCH  70  71
ATOM     71  S   UNL     1      17.622 -11.156 -13.015  1.00  0.00     0.124 S 
ATOM     72  O   UNL     1      18.854 -10.443 -13.332  1.00  0.00    -0.237 OA
ATOM     73  O   UNL     1      17.776 -12.566 -12.671  1.00  0.00    -0.237 OA
ATOM     74  O   UNL     1      16.480 -10.848 -13.871  1.00  0.00    -0.744 OA
ENDBRANCH  70  71
ENDBRANCH  38  63
ENDBRANCH  12  13
ENDBRANCH   5   7
ENDBRANCH   2   3
ENDBRANCH   1   2
BRANCH   1  75
ATOM     75  C   UNL     1       9.157  -3.588   5.306  1.00  0.00     0.118 C 
BRANCH  75  76
ATOM     76  N   UNL     1       8.623  -2.241   5.208  1.00  0.00    -0.351 N 
ATOM     77  C   UNL     1       7.355  -1.869   4.840  1.00  0.00     0.283 C 
ATOM     78  H   UNL     1       9.243  -1.510   5.433  1.00  0.00     0.163 HD
ATOM     79  O   UNL     1       7.205  -0.709   4.446  1.00  0.00    -0.268 OA
BRANCH  77  80
ATOM     80  C   UNL     1       6.213  -2.906   4.955  1.00  0.00     0.305 C 
BRANCH  80  81
ATOM     81  N   UNL     1       5.098  -2.519   5.844  1.00  0.00    -0.312 N 
ATOM     82  C   UNL     1       5.175  -3.144   7.171  1.00  0.00     0.325 C 
ATOM     83  C   UNL     1       4.754  -1.094   5.932  1.00  0.00     0.325 C 
ATOM     84  H   UNL     1       4.301  -2.912   5.343  1.00  0.00     0.349 HD
ATOM     85  C   UNL     1       5.900  -2.330   8.264  1.00  0.00     0.324 C 
ATOM     86  C   UNL     1       5.436  -0.281   7.072  1.00  0.00     0.324 C 
ATOM     87  N   UNL     1       5.496  -0.928   8.392  1.00  0.00    -0.322 N 
ATOM     88  H   UNL     1       6.240  -0.458   8.909  1.00  0.00     0.348 HD
BRANCH  87  89
ATOM     89  C   UNL     1       4.367  -0.663   9.293  1.00  0.00     0.299 C 
BRANCH  89  90
ATOM     90  C   UNL     1       2.998  -1.117   8.840  1.00  0.00     0.008 A 
ATOM     91  C   UNL     1       2.546  -2.418   9.109  1.00  0.00     0.009 A 
ATOM     92  C   UNL     1       2.191  -0.270   8.065  1.00  0.00     0.030 A 
ATOM     93  C   UNL     1       1.385  -2.906   8.505  1.00  0.00     0.002 A 
ATOM     94  C   UNL     1       1.027  -0.759   7.473  1.00  0.00     0.041 A 
ATOM     95  C   UNL     1       0.635  -2.081   7.668  1.00  0.00     0.020 A 
ATOM     96  Cl  UNL     1       0.102   0.265   6.444  1.00  0.00    -0.084 Cl
ENDBRANCH  89  90
ENDBRANCH  87  89
ENDBRANCH  80  81
BRANCH  80  97
ATOM     97  C   UNL     1       5.744  -3.452   3.611  1.00  0.00     0.019 A 
ATOM     98  C   UNL     1       5.157  -2.648   2.624  1.00  0.00     0.014 A 
ATOM     99  C   UNL     1       5.931  -4.823   3.334  1.00  0.00     0.014 A 
ATOM    100  C   UNL     1       4.806  -3.192   1.382  1.00  0.00     0.046 A 
ATOM    101  C   UNL     1       5.592  -5.361   2.095  1.00  0.00     0.046 A 
ATOM    102  C   UNL     1       5.042  -4.540   1.125  1.00  0.00     0.115 A 
BRANCH 102 103
ATOM    103  O   UNL     1       4.749  -5.104  -0.080  1.00  0.00    -0.508 OA
ATOM    104  H   UNL     1       4.375  -4.583  -0.762  1.00  0.00     0.293 HD
ENDBRANCH 102 103
ENDBRANCH  80  97
ENDBRANCH  77  80
ENDBRANCH  75  76
ENDBRANCH   1  75
TORSDOF 18
