REMARK SMILES C[N@@H+]1CCC[C@@H](C(=O)N[C@H](C(=O)NCCCNC(=O)c2ccc(-c3c4nc(c(-c5c(F)cc(S(=O)(=O)[O-])cc5F)c5ccc([nH]5)c(-c5c(F)cc(S(=O)(=O)[O-])cc5F)c5nc(c(-c6c(F)cc(S(=O)(=O)[O-])cc6F)c6ccc3[nH]6)C=C5)C=C4)cc2)c2ccccc2)C1
REMARK SMILES IDX 15 1 14 2 13 3 11 4 12 5 10 7 9 8 7 9 8 10 6 12 1 13 2 14
REMARK SMILES IDX 3 15 92 16 4 18 5 19 86 20 87 21 91 22 88 23 90 24 89 25
REMARK SMILES IDX 16 26 17 27 18 28 19 30 20 31 21 32 85 33 22 34 84 35 23 36
REMARK SMILES IDX 24 37 25 38 78 39 26 40 83 41 77 42 79 43 27 44 82 45 76 46
REMARK SMILES IDX 75 47 28 49 62 50 41 51 61 52 42 53 45 54 60 55 80 56 43 57
REMARK SMILES IDX 44 58 59 60 81 61 46 62 29 63 30 64 39 65 31 66 32 67 38 68
REMARK SMILES IDX 40 69 33 70 34 71 35 72 36 73 37 74 63 75 64 76 73 77 65 78
REMARK SMILES IDX 66 79 72 80 74 81 67 82 68 83 69 84 70 85 71 86 47 87 48 88
REMARK SMILES IDX 57 89 49 90 50 91 56 92 58 93 51 94 52 95 53 96 54 97 55 98
REMARK H PARENT 13 6 9 11 2 17 17 29 79 48 45 59
REMARK Flexibility Score: inf
ROOT
ATOM      1  C   UNL     1       4.002   1.045   2.813  1.00  0.00     0.042 C 
ENDROOT
BRANCH   1   2
ATOM      2  C   UNL     1       2.863   0.405   2.021  1.00  0.00     0.117 C 
BRANCH   2   3
ATOM      3  N   UNL     1       1.879  -0.266   2.866  1.00  0.00    -0.354 N 
ATOM      4  C   UNL     1       0.578   0.077   3.150  1.00  0.00     0.247 C 
ATOM      5  O   UNL     1      -0.042  -0.636   3.945  1.00  0.00    -0.272 OA
ATOM      6  H   UNL     1       2.196  -1.092   3.298  1.00  0.00     0.163 HD
BRANCH   4   7
ATOM      7  C   UNL     1      -0.055   1.328   2.489  1.00  0.00     0.202 C 
BRANCH   7   8
ATOM      8  N   UNL     1      -1.505   1.184   2.406  1.00  0.00    -0.340 N 
ATOM      9  C   UNL     1      -2.361   1.069   1.365  1.00  0.00     0.229 C 
ATOM     10  O   UNL     1      -3.556   0.917   1.661  1.00  0.00    -0.275 OA
ATOM     11  H   UNL     1      -1.949   1.167   3.285  1.00  0.00     0.164 HD
BRANCH   9  12
ATOM     12  C   UNL     1      -1.984   1.069  -0.129  1.00  0.00     0.133 C 
ATOM     13  C   UNL     1       0.990   3.268  -1.025  1.00  0.00     0.332 C 
ATOM     14  N   UNL     1       0.256   2.086  -0.590  1.00  0.00    -0.337 N 
ATOM     15  C   UNL     1       0.717   0.871  -1.265  1.00  0.00     0.262 C 
ATOM     16  C   UNL     1      -1.195   2.259  -0.684  1.00  0.00     0.275 C 
ATOM     17  H   UNL     1       0.464   1.966   0.402  1.00  0.00     0.347 HD
ATOM     18  C   UNL     1       0.051  -0.378  -0.681  1.00  0.00     0.062 C 
ATOM     19  C   UNL     1      -1.468  -0.276  -0.644  1.00  0.00     0.025 C 
ENDBRANCH   9  12
ENDBRANCH   7   8
BRANCH   7  20
ATOM     20  C   UNL     1       0.354   2.663   3.100  1.00  0.00    -0.016 A 
ATOM     21  C   UNL     1       1.256   2.776   4.166  1.00  0.00     0.006 A 
ATOM     22  C   UNL     1      -0.070   3.853   2.484  1.00  0.00     0.006 A 
ATOM     23  C   UNL     1       1.825   4.011   4.496  1.00  0.00     0.000 A 
ATOM     24  C   UNL     1       0.483   5.088   2.819  1.00  0.00     0.000 A 
ATOM     25  C   UNL     1       1.460   5.161   3.803  1.00  0.00     0.000 A 
ENDBRANCH   7  20
ENDBRANCH   4   7
ENDBRANCH   2   3
ENDBRANCH   1   2
BRANCH   1  26
ATOM     26  C   UNL     1       4.827   0.069   3.641  1.00  0.00     0.118 C 
BRANCH  26  27
ATOM     27  N   UNL     1       5.853  -0.597   2.857  1.00  0.00    -0.352 N 
ATOM     28  C   UNL     1       7.222  -0.560   2.993  1.00  0.00     0.251 C 
ATOM     29  H   UNL     1       5.519  -1.158   2.119  1.00  0.00     0.163 HD
ATOM     30  O   UNL     1       7.924  -1.037   2.107  1.00  0.00    -0.269 OA
BRANCH  28  31
ATOM     31  C   UNL     1       7.853   0.072   4.179  1.00  0.00     0.039 A 
ATOM     32  C   UNL     1       9.001   0.850   3.997  1.00  0.00     0.014 A 
ATOM     33  C   UNL     1       7.347  -0.117   5.468  1.00  0.00     0.014 A 
ATOM     34  C   UNL     1       9.600   1.482   5.093  1.00  0.00     0.010 A 
ATOM     35  C   UNL     1       7.895   0.580   6.546  1.00  0.00     0.010 A 
ATOM     36  C   UNL     1       9.034   1.380   6.374  1.00  0.00    -0.014 A 
BRANCH  36  37
ATOM     37  C   UNL     1       9.628   2.088   7.542  1.00  0.00     0.031 A 
ATOM     38  C   UNL     1      10.163   1.306   8.715  1.00  0.00     0.074 A 
ATOM     39  C   UNL     1       9.640   3.437   7.577  1.00  0.00     0.049 A 
ATOM     40  N   UNL     1      10.658   1.744   9.845  1.00  0.00    -0.248 NA
ATOM     41  C   UNL     1      10.110  -0.161   8.615  1.00  0.00     0.031 C 
ATOM     42  C   UNL     1       9.113   4.315   6.530  1.00  0.00     0.029 A 
ATOM     43  N   UNL     1      10.105   4.306   8.533  1.00  0.00    -0.354 N 
ATOM     44  C   UNL     1      10.959   0.612  10.593  1.00  0.00     0.074 A 
ATOM     45  C   UNL     1      10.541  -0.532   9.812  1.00  0.00     0.031 C 
ATOM     46  C   UNL     1       9.306   5.594   6.890  1.00  0.00     0.029 A 
ATOM     47  C   UNL     1       9.934   5.632   8.207  1.00  0.00     0.049 A 
ATOM     48  H   UNL     1      10.522   4.008   9.374  1.00  0.00     0.167 HD
ATOM     49  C   UNL     1      11.552   0.528  11.809  1.00  0.00     0.037 A 
ATOM     50  C   UNL     1      10.243   6.751   8.891  1.00  0.00     0.037 A 
ATOM     51  C   UNL     1      11.996   1.665  12.572  1.00  0.00     0.049 A 
ATOM     52  C   UNL     1      10.903   6.634  10.239  1.00  0.00     0.074 A 
ATOM     53  C   UNL     1      12.661   1.680  13.787  1.00  0.00     0.029 A 
ATOM     54  N   UNL     1      11.823   2.990  12.197  1.00  0.00    -0.354 N 
ATOM     55  N   UNL     1      11.234   5.553  10.903  1.00  0.00    -0.248 NA
ATOM     56  C   UNL     1      11.238   7.889  10.927  1.00  0.00     0.031 C 
ATOM     57  C   UNL     1      12.852   3.013  14.166  1.00  0.00     0.029 A 
ATOM     58  C   UNL     1      12.350   3.829  13.165  1.00  0.00     0.049 A 
ATOM     59  H   UNL     1      11.388   3.288  11.366  1.00  0.00     0.167 HD
ATOM     60  C   UNL     1      11.840   5.996  12.074  1.00  0.00     0.074 A 
ATOM     61  C   UNL     1      11.839   7.444  12.022  1.00  0.00     0.031 C 
ATOM     62  C   UNL     1      12.351   5.270  13.098  1.00  0.00     0.037 A 
BRANCH  49  63
ATOM     63  C   UNL     1      11.763  -0.845  12.388  1.00  0.00     0.058 A 
ATOM     64  C   UNL     1      12.704  -1.737  11.847  1.00  0.00     0.135 A 
ATOM     65  C   UNL     1      11.040  -1.265  13.517  1.00  0.00     0.135 A 
ATOM     66  F   UNL     1      13.414  -1.393  10.761  1.00  0.00    -0.206 F 
ATOM     67  C   UNL     1      12.895  -3.006  12.382  1.00  0.00     0.059 A 
ATOM     68  C   UNL     1      11.236  -2.520  14.086  1.00  0.00     0.059 A 
ATOM     69  F   UNL     1      10.130  -0.453  14.077  1.00  0.00    -0.206 F 
ATOM     70  C   UNL     1      12.154  -3.390  13.501  1.00  0.00     0.060 A 
BRANCH  70  71
ATOM     71  S   UNL     1      12.413  -5.043  14.180  1.00  0.00     0.124 S 
ATOM     72  O   UNL     1      11.747  -5.874  13.182  1.00  0.00    -0.237 OA
ATOM     73  O   UNL     1      13.868  -5.142  14.217  1.00  0.00    -0.237 OA
ATOM     74  O   UNL     1      11.758  -4.981  15.483  1.00  0.00    -0.744 OA
ENDBRANCH  70  71
ENDBRANCH  49  63
BRANCH  50  75
ATOM     75  C   UNL     1       9.952   8.085   8.301  1.00  0.00     0.058 A 
ATOM     76  C   UNL     1      10.989   8.916   7.850  1.00  0.00     0.135 A 
ATOM     77  C   UNL     1       8.635   8.551   8.162  1.00  0.00     0.135 A 
ATOM     78  F   UNL     1      12.265   8.519   7.968  1.00  0.00    -0.206 F 
ATOM     79  C   UNL     1      10.734  10.166   7.295  1.00  0.00     0.059 A 
ATOM     80  C   UNL     1       8.353   9.786   7.587  1.00  0.00     0.059 A 
ATOM     81  F   UNL     1       7.606   7.788   8.562  1.00  0.00    -0.206 F 
ATOM     82  C   UNL     1       9.410  10.591   7.165  1.00  0.00     0.060 A 
BRANCH  82  83
ATOM     83  S   UNL     1       9.086  12.190   6.391  1.00  0.00     0.124 S 
ATOM     84  O   UNL     1       9.491  13.114   7.444  1.00  0.00    -0.237 OA
ATOM     85  O   UNL     1       9.950  12.143   5.215  1.00  0.00    -0.237 OA
ATOM     86  O   UNL     1       7.655  12.141   6.108  1.00  0.00    -0.744 OA
ENDBRANCH  82  83
ENDBRANCH  50  75
BRANCH  62  87
ATOM     87  C   UNL     1      12.986   6.022  14.235  1.00  0.00     0.058 A 
ATOM     88  C   UNL     1      12.218   6.732  15.171  1.00  0.00     0.135 A 
ATOM     89  C   UNL     1      14.378   5.988  14.419  1.00  0.00     0.135 A 
ATOM     90  F   UNL     1      10.884   6.802  15.037  1.00  0.00    -0.206 F 
ATOM     91  C   UNL     1      12.810   7.401  16.238  1.00  0.00     0.059 A 
ATOM     92  C   UNL     1      14.988   6.627  15.494  1.00  0.00     0.059 A 
ATOM     93  F   UNL     1      15.158   5.315  13.559  1.00  0.00    -0.206 F 
ATOM     94  C   UNL     1      14.196   7.340  16.393  1.00  0.00     0.060 A 
BRANCH  94  95
ATOM     95  S   UNL     1      14.949   8.182  17.801  1.00  0.00     0.124 S 
ATOM     96  O   UNL     1      14.862   9.579  17.389  1.00  0.00    -0.237 OA
ATOM     97  O   UNL     1      14.075   7.791  18.903  1.00  0.00    -0.237 OA
ATOM     98  O   UNL     1      16.297   7.624  17.851  1.00  0.00    -0.744 OA
ENDBRANCH  94  95
ENDBRANCH  62  87
ENDBRANCH  36  37
ENDBRANCH  28  31
ENDBRANCH  26  27
ENDBRANCH   1  26
TORSDOF 16
