REMARK SMILES CN1C(=O)C[C@@H](C(=O)NCCCNC(=O)c2ccc(-c3c4nc(c(-c5c(F)cc(S(=O)(=O)[O-])cc5F)c5ccc([nH]5)c(-c5c(F)cc(S(=O)(=O)[O-])cc5F)c5nc(c(-c6c(F)cc(S(=O)(=O)[O-])cc6F)c6ccc3[nH]6)C=C5)C=C4)cc2)C12CCN(S(=O)(=O)c1ccccc1F)CC2
REMARK SMILES IDX 11 1 10 2 9 3 7 4 8 5 6 7 1 8 2 9 3 10 82 11 4 12 5 13 83 14
REMARK SMILES IDX 97 15 84 16 96 17 85 18 86 19 87 20 88 21 89 22 90 23 94 24
REMARK SMILES IDX 91 25 93 26 95 27 92 28 12 29 13 30 14 31 15 33 16 34 17 35
REMARK SMILES IDX 81 36 18 37 80 38 19 39 20 40 21 41 74 42 22 43 79 44 73 45
REMARK SMILES IDX 75 46 23 47 78 48 72 49 71 50 24 52 58 53 37 54 57 55 38 56
REMARK SMILES IDX 41 57 56 58 76 59 39 60 40 61 55 63 77 64 42 65 25 66 26 67
REMARK SMILES IDX 35 68 27 69 28 70 34 71 36 72 29 73 30 74 31 75 32 76 33 77
REMARK SMILES IDX 59 78 60 79 69 80 61 81 62 82 68 83 70 84 63 85 64 86 65 87
REMARK SMILES IDX 66 88 67 89 43 90 44 91 53 92 45 93 46 94 52 95 54 96 47 97
REMARK SMILES IDX 48 98 49 99 50 100 51 101
REMARK H PARENT 9 6 13 32 75 51 41 62
REMARK Flexibility Score: inf
ROOT
ATOM      1  C   UNL     1      -1.900  -1.022   2.109  1.00  0.00     0.042 C 
ENDROOT
BRANCH   1   2
ATOM      2  C   UNL     1      -2.380   0.430   2.039  1.00  0.00     0.117 C 
BRANCH   2   3
ATOM      3  N   UNL     1      -2.005   1.242   3.192  1.00  0.00    -0.356 N 
ATOM      4  C   UNL     1      -1.071   2.195   3.426  1.00  0.00     0.226 C 
ATOM      5  O   UNL     1      -1.072   2.678   4.566  1.00  0.00    -0.275 OA
ATOM      6  H   UNL     1      -2.560   1.054   3.983  1.00  0.00     0.163 HD
BRANCH   4   7
ATOM      7  C   UNL     1      -0.004   2.676   2.442  1.00  0.00     0.113 C 
ATOM      8  C   UNL     1       1.209   0.090   0.023  1.00  0.00     0.147 C 
ATOM      9  N   UNL     1       0.650   1.231   0.733  1.00  0.00    -0.339 N 
ATOM     10  C   UNL     1      -0.213   2.131   0.124  1.00  0.00     0.223 C 
ATOM     11  C   UNL     1       1.119   1.684   2.053  1.00  0.00     0.057 C 
ATOM     12  O   UNL     1      -0.637   2.088  -1.019  1.00  0.00    -0.275 OA
ATOM     13  C   UNL     1      -0.580   3.192   1.125  1.00  0.00     0.116 C 
ATOM     14  C   UNL     1       1.303   0.542   3.072  1.00  0.00     0.046 C 
ATOM     15  C   UNL     1       2.473   2.442   1.843  1.00  0.00     0.046 C 
ATOM     16  C   UNL     1       2.081   0.967   4.307  1.00  0.00     0.105 C 
ATOM     17  C   UNL     1       3.280   2.699   3.118  1.00  0.00     0.105 C 
ATOM     18  N   UNL     1       3.420   1.465   3.941  1.00  0.00    -0.198 NA
BRANCH  18  19
ATOM     19  S   UNL     1       4.610   0.357   3.375  1.00  0.00     0.245 S 
ATOM     20  O   UNL     1       4.139  -0.250   2.150  1.00  0.00    -0.207 OA
ATOM     21  O   UNL     1       5.859   1.096   3.365  1.00  0.00    -0.207 OA
BRANCH  19  22
ATOM     22  C   UNL     1       4.756  -0.909   4.599  1.00  0.00     0.118 A 
ATOM     23  C   UNL     1       5.918  -1.000   5.375  1.00  0.00     0.025 A 
ATOM     24  C   UNL     1       3.789  -1.905   4.700  1.00  0.00     0.143 A 
ATOM     25  C   UNL     1       6.078  -2.065   6.268  1.00  0.00     0.002 A 
ATOM     26  C   UNL     1       3.933  -2.951   5.609  1.00  0.00     0.041 A 
ATOM     27  F   UNL     1       2.680  -1.888   3.951  1.00  0.00    -0.206 F 
ATOM     28  C   UNL     1       5.081  -3.034   6.393  1.00  0.00     0.003 A 
ENDBRANCH  19  22
ENDBRANCH  18  19
ENDBRANCH   4   7
ENDBRANCH   2   3
ENDBRANCH   1   2
BRANCH   1  29
ATOM     29  C   UNL     1      -2.446  -1.818   3.293  1.00  0.00     0.118 C 
BRANCH  29  30
ATOM     30  N   UNL     1      -3.860  -2.120   3.137  1.00  0.00    -0.352 N 
ATOM     31  C   UNL     1      -4.491  -3.322   2.922  1.00  0.00     0.251 C 
ATOM     32  H   UNL     1      -4.460  -1.342   3.194  1.00  0.00     0.163 HD
ATOM     33  O   UNL     1      -5.665  -3.318   2.559  1.00  0.00    -0.269 OA
BRANCH  31  34
ATOM     34  C   UNL     1      -3.787  -4.612   3.119  1.00  0.00     0.039 A 
ATOM     35  C   UNL     1      -4.031  -5.654   2.218  1.00  0.00     0.014 A 
ATOM     36  C   UNL     1      -2.961  -4.834   4.224  1.00  0.00     0.014 A 
ATOM     37  C   UNL     1      -3.418  -6.899   2.400  1.00  0.00     0.010 A 
ATOM     38  C   UNL     1      -2.305  -6.059   4.375  1.00  0.00     0.010 A 
ATOM     39  C   UNL     1      -2.533  -7.107   3.470  1.00  0.00    -0.014 A 
BRANCH  39  40
ATOM     40  C   UNL     1      -1.851  -8.415   3.661  1.00  0.00     0.031 A 
ATOM     41  C   UNL     1      -2.157  -9.267   4.864  1.00  0.00     0.074 A 
ATOM     42  C   UNL     1      -0.914  -8.815   2.779  1.00  0.00     0.049 A 
ATOM     43  N   UNL     1      -1.613 -10.398   5.237  1.00  0.00    -0.248 NA
ATOM     44  C   UNL     1      -3.193  -8.770   5.782  1.00  0.00     0.031 C 
ATOM     45  C   UNL     1      -0.492  -8.064   1.595  1.00  0.00     0.029 A 
ATOM     46  N   UNL     1      -0.139  -9.947   2.747  1.00  0.00    -0.354 N 
ATOM     47  C   UNL     1      -2.221 -10.736   6.440  1.00  0.00     0.074 A 
ATOM     48  C   UNL     1      -3.151  -9.671   6.754  1.00  0.00     0.031 C 
ATOM     49  C   UNL     1       0.453  -8.763   0.945  1.00  0.00     0.029 A 
ATOM     50  C   UNL     1       0.724  -9.996   1.678  1.00  0.00     0.049 A 
ATOM     51  H   UNL     1      -0.195 -10.658   3.426  1.00  0.00     0.167 HD
ATOM     52  C   UNL     1      -2.036 -11.838   7.206  1.00  0.00     0.037 A 
ATOM     53  C   UNL     1       1.635 -10.925   1.328  1.00  0.00     0.037 A 
ATOM     54  C   UNL     1      -1.142 -12.917   6.874  1.00  0.00     0.049 A 
ATOM     55  C   UNL     1       1.798 -12.157   2.174  1.00  0.00     0.074 A 
ATOM     56  C   UNL     1      -0.933 -14.104   7.556  1.00  0.00     0.029 A 
ATOM     57  N   UNL     1      -0.312 -12.945   5.763  1.00  0.00    -0.354 N 
ATOM     58  N   UNL     1       1.181 -12.480   3.285  1.00  0.00    -0.248 NA
ATOM     59  C   UNL     1       2.777 -13.153   1.717  1.00  0.00     0.031 C 
ATOM     60  C   UNL     1       0.042 -14.839   6.870  1.00  0.00     0.029 A 
ATOM     61  C   UNL     1       0.418 -14.122   5.745  1.00  0.00     0.049 A 
ATOM     62  H   UNL     1      -0.251 -12.232   5.087  1.00  0.00     0.167 HD
ATOM     63  C   UNL     1       1.682 -13.724   3.650  1.00  0.00     0.074 A 
ATOM     64  C   UNL     1       2.646 -14.100   2.636  1.00  0.00     0.031 C 
ATOM     65  C   UNL     1       1.372 -14.485   4.728  1.00  0.00     0.037 A 
BRANCH  52  66
ATOM     66  C   UNL     1      -2.822 -11.934   8.484  1.00  0.00     0.058 A 
ATOM     67  C   UNL     1      -4.201 -12.201   8.480  1.00  0.00     0.135 A 
ATOM     68  C   UNL     1      -2.188 -11.777   9.727  1.00  0.00     0.135 A 
ATOM     69  F   UNL     1      -4.857 -12.346   7.319  1.00  0.00    -0.206 F 
ATOM     70  C   UNL     1      -4.930 -12.274   9.663  1.00  0.00     0.059 A 
ATOM     71  C   UNL     1      -2.894 -11.869  10.923  1.00  0.00     0.059 A 
ATOM     72  F   UNL     1      -0.872 -11.522   9.787  1.00  0.00    -0.206 F 
ATOM     73  C   UNL     1      -4.269 -12.100  10.880  1.00  0.00     0.060 A 
BRANCH  73  74
ATOM     74  S   UNL     1      -5.227 -12.181  12.408  1.00  0.00     0.124 S 
ATOM     75  O   UNL     1      -5.865 -10.868  12.419  1.00  0.00    -0.237 OA
ATOM     76  O   UNL     1      -6.115 -13.314  12.164  1.00  0.00    -0.237 OA
ATOM     77  O   UNL     1      -4.211 -12.395  13.433  1.00  0.00    -0.744 OA
ENDBRANCH  73  74
ENDBRANCH  52  66
BRANCH  53  78
ATOM     78  C   UNL     1       2.443 -10.736   0.097  1.00  0.00     0.058 A 
ATOM     79  C   UNL     1       2.172 -11.480  -1.061  1.00  0.00     0.135 A 
ATOM     80  C   UNL     1       3.479  -9.791   0.043  1.00  0.00     0.135 A 
ATOM     81  F   UNL     1       1.194 -12.399  -1.052  1.00  0.00    -0.206 F 
ATOM     82  C   UNL     1       2.904 -11.301  -2.229  1.00  0.00     0.059 A 
ATOM     83  C   UNL     1       4.213  -9.581  -1.120  1.00  0.00     0.059 A 
ATOM     84  F   UNL     1       3.765  -9.046   1.121  1.00  0.00    -0.206 F 
ATOM     85  C   UNL     1       3.922 -10.346  -2.249  1.00  0.00     0.060 A 
BRANCH  85  86
ATOM     86  S   UNL     1       4.827 -10.074  -3.788  1.00  0.00     0.124 S 
ATOM     87  O   UNL     1       5.734 -11.216  -3.801  1.00  0.00    -0.237 OA
ATOM     88  O   UNL     1       3.759 -10.095  -4.783  1.00  0.00    -0.237 OA
ATOM     89  O   UNL     1       5.452  -8.771  -3.580  1.00  0.00    -0.744 OA
ENDBRANCH  85  86
ENDBRANCH  53  78
BRANCH  65  90
ATOM     90  C   UNL     1       2.067 -15.809   4.858  1.00  0.00     0.058 A 
ATOM     91  C   UNL     1       3.401 -15.898   5.284  1.00  0.00     0.135 A 
ATOM     92  C   UNL     1       1.378 -17.004   4.595  1.00  0.00     0.135 A 
ATOM     93  F   UNL     1       4.103 -14.784   5.541  1.00  0.00    -0.206 F 
ATOM     94  C   UNL     1       4.035 -17.128   5.428  1.00  0.00     0.059 A 
ATOM     95  C   UNL     1       1.987 -18.245   4.751  1.00  0.00     0.059 A 
ATOM     96  F   UNL     1       0.098 -16.972   4.192  1.00  0.00    -0.206 F 
ATOM     97  C   UNL     1       3.320 -18.296   5.157  1.00  0.00     0.060 A 
BRANCH  97  98
ATOM     98  S   UNL     1       4.141 -19.889   5.378  1.00  0.00     0.124 S 
ATOM     99  O   UNL     1       4.946 -19.975   4.164  1.00  0.00    -0.237 OA
ATOM    100  O   UNL     1       4.885 -19.693   6.619  1.00  0.00    -0.237 OA
ATOM    101  O   UNL     1       3.030 -20.832   5.464  1.00  0.00    -0.744 OA
ENDBRANCH  97  98
ENDBRANCH  65  90
ENDBRANCH  39  40
ENDBRANCH  31  34
ENDBRANCH  29  30
ENDBRANCH   1  29
TORSDOF 15
