REMARK SMILES COCCC[C@@]1(C(=O)NCCCNC(=O)c2ccc(-c3c4nc(c(-c5c(F)cc(S(=O)(=O)[O-])cc5F)c5ccc([nH]5)c(-c5c(F)cc(S(=O)(=O)[O-])cc5F)c5nc(c(-c6c(F)cc(S(=O)(=O)[O-])cc6F)c6ccc3[nH]6)C=C5)C=C4)cc2)CCCN(C(=O)C2CCC2)C1
REMARK SMILES IDX 10 1 9 2 7 3 8 4 6 6 82 7 92 8 83 9 85 10 84 11 5 12 4 13
REMARK SMILES IDX 3 14 2 15 1 16 86 17 87 18 88 19 89 20 91 21 90 22 11 23
REMARK SMILES IDX 12 24 13 25 14 26 15 28 16 29 17 30 81 31 18 32 80 33 19 34
REMARK SMILES IDX 20 35 21 36 74 37 22 38 79 39 73 40 75 41 23 42 78 43 72 44
REMARK SMILES IDX 71 45 24 47 58 48 37 49 57 50 38 51 41 52 56 53 76 54 39 55
REMARK SMILES IDX 40 56 55 58 77 59 42 60 25 61 26 62 35 63 27 64 28 65 34 66
REMARK SMILES IDX 36 67 29 68 30 69 31 70 32 71 33 72 59 73 60 74 69 75 61 76
REMARK SMILES IDX 62 77 68 78 70 79 63 80 64 81 65 82 66 83 67 84 43 85 44 86
REMARK SMILES IDX 53 87 45 88 46 89 52 90 54 91 47 92 48 93 49 94 50 95 51 96
REMARK H PARENT 9 5 13 27 75 46 41 57
REMARK Flexibility Score: inf
ROOT
ATOM      1  C   UNL     1       0.682   3.905   3.255  1.00  0.00     0.117 C 
ENDROOT
BRANCH   1   2
ATOM      2  N   UNL     1       0.348   2.895   2.271  1.00  0.00    -0.355 N 
ATOM      3  C   UNL     1       1.077   1.856   1.781  1.00  0.00     0.228 C 
ATOM      4  O   UNL     1       0.390   0.917   1.347  1.00  0.00    -0.274 OA
ATOM      5  H   UNL     1      -0.557   2.974   1.893  1.00  0.00     0.163 HD
BRANCH   3   6
ATOM      6  C   UNL     1       2.616   1.837   1.569  1.00  0.00     0.067 C 
ATOM      7  C   UNL     1       3.069   0.340   1.474  1.00  0.00     0.020 C 
ATOM      8  C   UNL     1       3.499   2.435   2.692  1.00  0.00     0.136 C 
ATOM      9  C   UNL     1       2.938  -0.396   2.822  1.00  0.00     0.023 C 
ATOM     10  N   UNL     1       3.251   1.760   3.965  1.00  0.00    -0.341 N 
ATOM     11  C   UNL     1       3.618   0.353   3.967  1.00  0.00     0.119 C 
BRANCH   6  12
ATOM     12  C   UNL     1       2.956   2.591   0.243  1.00  0.00     0.021 C 
BRANCH  12  13
ATOM     13  C   UNL     1       2.263   2.147  -1.062  1.00  0.00     0.030 C 
BRANCH  13  14
ATOM     14  C   UNL     1       0.862   2.695  -1.362  1.00  0.00     0.159 C 
BRANCH  14  15
ATOM     15  O   UNL     1       0.873   4.048  -1.813  1.00  0.00    -0.385 OA
ATOM     16  C   UNL     1       0.943   5.012  -0.776  1.00  0.00     0.194 C 
ENDBRANCH  14  15
ENDBRANCH  13  14
ENDBRANCH  12  13
ENDBRANCH   6  12
BRANCH  10  17
ATOM     17  C   UNL     1       2.898   2.508   5.088  1.00  0.00     0.225 C 
ATOM     18  O   UNL     1       3.186   3.716   5.129  1.00  0.00    -0.275 OA
BRANCH  17  19
ATOM     19  C   UNL     1       2.032   1.905   6.207  1.00  0.00     0.078 C 
ATOM     20  C   UNL     1       1.151   0.651   6.063  1.00  0.00     0.013 C 
ATOM     21  C   UNL     1       2.736   1.261   7.410  1.00  0.00     0.013 C 
ATOM     22  C   UNL     1       1.707   0.124   7.394  1.00  0.00     0.002 C 
ENDBRANCH  17  19
ENDBRANCH  10  17
ENDBRANCH   3   6
ENDBRANCH   1   2
BRANCH   1  23
ATOM     23  C   UNL     1       0.095   5.284   3.030  1.00  0.00     0.042 C 
BRANCH  23  24
ATOM     24  C   UNL     1      -1.415   5.357   3.147  1.00  0.00     0.118 C 
BRANCH  24  25
ATOM     25  N   UNL     1      -1.884   5.120   4.507  1.00  0.00    -0.352 N 
ATOM     26  C   UNL     1      -2.279   6.001   5.485  1.00  0.00     0.251 C 
ATOM     27  H   UNL     1      -1.924   4.172   4.768  1.00  0.00     0.163 HD
ATOM     28  O   UNL     1      -2.429   5.589   6.638  1.00  0.00    -0.269 OA
BRANCH  26  29
ATOM     29  C   UNL     1      -2.501   7.433   5.181  1.00  0.00     0.039 A 
ATOM     30  C   UNL     1      -2.087   8.400   6.102  1.00  0.00     0.014 A 
ATOM     31  C   UNL     1      -3.124   7.831   3.998  1.00  0.00     0.014 A 
ATOM     32  C   UNL     1      -2.210   9.758   5.788  1.00  0.00     0.010 A 
ATOM     33  C   UNL     1      -3.147   9.176   3.640  1.00  0.00     0.010 A 
ATOM     34  C   UNL     1      -2.685  10.156   4.528  1.00  0.00    -0.014 A 
BRANCH  34  35
ATOM     35  C   UNL     1      -2.681  11.583   4.106  1.00  0.00     0.031 A 
ATOM     36  C   UNL     1      -3.967  12.266   3.720  1.00  0.00     0.074 A 
ATOM     37  C   UNL     1      -1.504  12.232   3.982  1.00  0.00     0.049 A 
ATOM     38  N   UNL     1      -4.149  13.466   3.230  1.00  0.00    -0.248 NA
ATOM     39  C   UNL     1      -5.211  11.492   3.875  1.00  0.00     0.031 C 
ATOM     40  C   UNL     1      -0.185  11.657   4.264  1.00  0.00     0.029 A 
ATOM     41  N   UNL     1      -1.221  13.511   3.570  1.00  0.00    -0.354 N 
ATOM     42  C   UNL     1      -5.515  13.582   3.001  1.00  0.00     0.074 A 
ATOM     43  C   UNL     1      -6.114  12.316   3.361  1.00  0.00     0.031 C 
ATOM     44  C   UNL     1       0.760  12.583   4.036  1.00  0.00     0.029 A 
ATOM     45  C   UNL     1       0.125  13.801   3.546  1.00  0.00     0.049 A 
ATOM     46  H   UNL     1      -1.915  14.161   3.315  1.00  0.00     0.167 HD
ATOM     47  C   UNL     1      -6.208  14.654   2.550  1.00  0.00     0.037 A 
ATOM     48  C   UNL     1       0.777  14.913   3.155  1.00  0.00     0.037 A 
ATOM     49  C   UNL     1      -5.608  15.924   2.233  1.00  0.00     0.049 A 
ATOM     50  C   UNL     1      -0.023  16.090   2.661  1.00  0.00     0.074 A 
ATOM     51  C   UNL     1      -6.237  17.099   1.859  1.00  0.00     0.029 A 
ATOM     52  N   UNL     1      -4.247  16.186   2.248  1.00  0.00    -0.354 N 
ATOM     53  N   UNL     1      -1.324  16.210   2.542  1.00  0.00    -0.248 NA
ATOM     54  C   UNL     1       0.732  17.282   2.248  1.00  0.00     0.031 C 
ATOM     55  C   UNL     1      -5.252  18.055   1.593  1.00  0.00     0.029 A 
ATOM     56  C   UNL     1      -4.013  17.493   1.854  1.00  0.00     0.049 A 
ATOM     57  H   UNL     1      -3.549  15.539   2.501  1.00  0.00     0.167 HD
ATOM     58  C   UNL     1      -1.543  17.496   2.059  1.00  0.00     0.074 A 
ATOM     59  C   UNL     1      -0.244  18.123   1.934  1.00  0.00     0.031 C 
ATOM     60  C   UNL     1      -2.713  18.102   1.741  1.00  0.00     0.037 A 
BRANCH  47  61
ATOM     61  C   UNL     1      -7.697  14.522   2.381  1.00  0.00     0.058 A 
ATOM     62  C   UNL     1      -8.562  14.461   3.484  1.00  0.00     0.135 A 
ATOM     63  C   UNL     1      -8.272  14.558   1.099  1.00  0.00     0.135 A 
ATOM     64  F   UNL     1      -8.066  14.407   4.731  1.00  0.00    -0.206 F 
ATOM     65  C   UNL     1      -9.944  14.437   3.325  1.00  0.00     0.059 A 
ATOM     66  C   UNL     1      -9.652  14.561   0.917  1.00  0.00     0.059 A 
ATOM     67  F   UNL     1      -7.491  14.611   0.009  1.00  0.00    -0.206 F 
ATOM     68  C   UNL     1     -10.480  14.498   2.037  1.00  0.00     0.060 A 
BRANCH  68  69
ATOM     69  S   UNL     1     -12.276  14.528   1.854  1.00  0.00     0.124 S 
ATOM     70  O   UNL     1     -12.630  13.162   2.231  1.00  0.00    -0.237 OA
ATOM     71  O   UNL     1     -12.667  15.567   2.801  1.00  0.00    -0.237 OA
ATOM     72  O   UNL     1     -12.470  14.860   0.446  1.00  0.00    -0.744 OA
ENDBRANCH  68  69
ENDBRANCH  47  61
BRANCH  48  73
ATOM     73  C   UNL     1       2.264  14.973   3.199  1.00  0.00     0.058 A 
ATOM     74  C   UNL     1       2.929  15.840   4.080  1.00  0.00     0.135 A 
ATOM     75  C   UNL     1       3.051  14.190   2.340  1.00  0.00     0.135 A 
ATOM     76  F   UNL     1       2.224  16.614   4.918  1.00  0.00    -0.206 F 
ATOM     77  C   UNL     1       4.316  15.957   4.082  1.00  0.00     0.059 A 
ATOM     78  C   UNL     1       4.441  14.266   2.345  1.00  0.00     0.059 A 
ATOM     79  F   UNL     1       2.469  13.330   1.490  1.00  0.00    -0.206 F 
ATOM     80  C   UNL     1       5.063  15.168   3.206  1.00  0.00     0.060 A 
BRANCH  80  81
ATOM     81  S   UNL     1       6.862  15.325   3.217  1.00  0.00     0.124 S 
ATOM     82  O   UNL     1       7.047  16.613   2.558  1.00  0.00    -0.237 OA
ATOM     83  O   UNL     1       7.166  15.288   4.644  1.00  0.00    -0.237 OA
ATOM     84  O   UNL     1       7.304  14.159   2.459  1.00  0.00    -0.744 OA
ENDBRANCH  80  81
ENDBRANCH  48  73
BRANCH  60  85
ATOM     85  C   UNL     1      -2.645  19.520   1.246  1.00  0.00     0.058 A 
ATOM     86  C   UNL     1      -2.151  19.829  -0.031  1.00  0.00     0.135 A 
ATOM     87  C   UNL     1      -3.130  20.576   2.036  1.00  0.00     0.135 A 
ATOM     88  F   UNL     1      -1.668  18.858  -0.822  1.00  0.00    -0.206 F 
ATOM     89  C   UNL     1      -2.117  21.138  -0.498  1.00  0.00     0.059 A 
ATOM     90  C   UNL     1      -3.135  21.888   1.576  1.00  0.00     0.059 A 
ATOM     91  F   UNL     1      -3.623  20.333   3.260  1.00  0.00    -0.206 F 
ATOM     92  C   UNL     1      -2.615  22.161   0.311  1.00  0.00     0.060 A 
BRANCH  92  93
ATOM     93  S   UNL     1      -2.599  23.850  -0.325  1.00  0.00     0.124 S 
ATOM     94  O   UNL     1      -1.178  24.175  -0.260  1.00  0.00    -0.237 OA
ATOM     95  O   UNL     1      -3.151  23.683  -1.666  1.00  0.00    -0.237 OA
ATOM     96  O   UNL     1      -3.452  24.575   0.612  1.00  0.00    -0.744 OA
ENDBRANCH  92  93
ENDBRANCH  60  85
ENDBRANCH  34  35
ENDBRANCH  26  29
ENDBRANCH  24  25
ENDBRANCH  23  24
ENDBRANCH   1  23
TORSDOF 19
