REMARK SMILES COc1ccc([C@@H](CC(=O)NCCCNC(=O)c2ccc(-c3c4nc(c(-c5c(F)cc(S(=O)(=O)[O-])cc5F)c5ccc([nH]5)c(-c5c(F)cc(S(=O)(=O)[O-])cc5F)c5nc(c(-c6c(F)cc(S(=O)(=O)[O-])cc6F)c6ccc3[nH]6)C=C5)C=C4)cc2)N2C(=O)[C@H]3CC=CC[C@H]3C2=O)cc1OC
REMARK SMILES IDX 13 1 12 2 11 3 9 4 10 5 8 7 7 8 6 9 3 10 4 11 96 12 5 13
REMARK SMILES IDX 95 14 2 15 1 16 97 17 98 18 84 19 85 20 93 21 86 22 87 23
REMARK SMILES IDX 92 24 94 25 88 26 91 27 89 28 90 29 14 30 15 31 16 32 17 34
REMARK SMILES IDX 18 35 19 36 83 37 20 38 82 39 21 40 22 41 23 42 76 43 24 44
REMARK SMILES IDX 81 45 75 46 77 47 25 48 80 49 74 50 73 51 26 53 60 54 39 55
REMARK SMILES IDX 59 56 40 57 43 58 58 59 78 60 41 61 42 62 57 64 79 65 44 66
REMARK SMILES IDX 27 67 28 68 37 69 29 70 30 71 36 72 38 73 31 74 32 75 33 76
REMARK SMILES IDX 34 77 35 78 61 79 62 80 71 81 63 82 64 83 70 84 72 85 65 86
REMARK SMILES IDX 66 87 67 88 68 89 69 90 45 91 46 92 55 93 47 94 48 95 54 96
REMARK SMILES IDX 56 97 49 98 50 99 51 100 52 101 53 102
REMARK H PARENT 11 6 15 33 77 52 43 63
REMARK Flexibility Score: inf
ROOT
ATOM      1  C   UNL     1      -0.588  -3.119  -3.198  1.00  0.00     0.042 C 
ENDROOT
BRANCH   1   2
ATOM      2  C   UNL     1       0.209  -4.181  -3.952  1.00  0.00     0.117 C 
BRANCH   2   3
ATOM      3  N   UNL     1      -0.159  -4.170  -5.358  1.00  0.00    -0.356 N 
ATOM      4  C   UNL     1       0.354  -3.457  -6.399  1.00  0.00     0.222 C 
ATOM      5  O   UNL     1      -0.374  -3.354  -7.388  1.00  0.00    -0.275 OA
ATOM      6  H   UNL     1      -0.898  -4.776  -5.596  1.00  0.00     0.163 HD
BRANCH   4   7
ATOM      7  C   UNL     1       1.778  -2.916  -6.383  1.00  0.00     0.130 C 
BRANCH   7   8
ATOM      8  C   UNL     1       1.971  -1.377  -6.281  1.00  0.00     0.133 C 
BRANCH   8   9
ATOM      9  C   UNL     1       1.880  -0.955  -4.805  1.00  0.00    -0.020 A 
ATOM     10  C   UNL     1       1.683  -0.410  -2.026  1.00  0.00     0.160 A 
ATOM     11  C   UNL     1       0.649  -0.058  -2.894  1.00  0.00     0.051 A 
ATOM     12  C   UNL     1       2.859  -0.960  -2.558  1.00  0.00     0.161 A 
ATOM     13  C   UNL     1       0.752  -0.324  -4.264  1.00  0.00     0.010 A 
ATOM     14  C   UNL     1       2.942  -1.238  -3.931  1.00  0.00     0.056 A 
BRANCH  10  15
ATOM     15  O   UNL     1       1.571  -0.343  -0.666  1.00  0.00    -0.493 OA
ATOM     16  C   UNL     1       0.609   0.549  -0.128  1.00  0.00     0.278 C 
ENDBRANCH  10  15
BRANCH  12  17
ATOM     17  O   UNL     1       3.981  -1.317  -1.851  1.00  0.00    -0.493 OA
ATOM     18  C   UNL     1       4.230  -0.574  -0.657  1.00  0.00     0.278 C 
ENDBRANCH  12  17
ENDBRANCH   8   9
BRANCH   8  19
ATOM     19  N   UNL     1       1.137  -0.562  -7.174  1.00  0.00    -0.274 N 
ATOM     20  C   UNL     1       0.777  -0.901  -8.442  1.00  0.00     0.234 C 
ATOM     21  C   UNL     1       1.119   0.804  -7.130  1.00  0.00     0.234 C 
ATOM     22  O   UNL     1       1.252  -1.795  -9.129  1.00  0.00    -0.274 OA
ATOM     23  C   UNL     1      -0.209   0.124  -8.961  1.00  0.00     0.095 C 
ATOM     24  C   UNL     1      -0.007   1.300  -8.002  1.00  0.00     0.095 C 
ATOM     25  O   UNL     1       1.886   1.537  -6.535  1.00  0.00    -0.274 OA
ATOM     26  C   UNL     1      -1.613  -0.479  -9.005  1.00  0.00     0.041 C 
ATOM     27  C   UNL     1      -1.187   1.675  -7.093  1.00  0.00     0.041 C 
ATOM     28  C   UNL     1      -2.324  -0.447  -7.686  1.00  0.00    -0.030 C 
ATOM     29  C   UNL     1      -2.130   0.545  -6.809  1.00  0.00    -0.030 C 
ENDBRANCH   8  19
ENDBRANCH   7   8
ENDBRANCH   4   7
ENDBRANCH   2   3
ENDBRANCH   1   2
BRANCH   1  30
ATOM     30  C   UNL     1      -2.045  -3.450  -2.908  1.00  0.00     0.118 C 
BRANCH  30  31
ATOM     31  N   UNL     1      -2.216  -4.083  -1.617  1.00  0.00    -0.352 N 
ATOM     32  C   UNL     1      -2.486  -3.601  -0.360  1.00  0.00     0.251 C 
ATOM     33  H   UNL     1      -2.118  -5.062  -1.646  1.00  0.00     0.163 HD
ATOM     34  O   UNL     1      -2.353  -4.401   0.570  1.00  0.00    -0.269 OA
BRANCH  32  35
ATOM     35  C   UNL     1      -2.914  -2.204  -0.044  1.00  0.00     0.039 A 
ATOM     36  C   UNL     1      -2.654  -1.741   1.257  1.00  0.00     0.014 A 
ATOM     37  C   UNL     1      -3.661  -1.380  -0.890  1.00  0.00     0.014 A 
ATOM     38  C   UNL     1      -3.123  -0.494   1.696  1.00  0.00     0.010 A 
ATOM     39  C   UNL     1      -4.066  -0.096  -0.476  1.00  0.00     0.010 A 
ATOM     40  C   UNL     1      -3.824   0.357   0.829  1.00  0.00    -0.014 A 
BRANCH  40  41
ATOM     41  C   UNL     1      -4.312   1.690   1.301  1.00  0.00     0.031 A 
ATOM     42  C   UNL     1      -5.787   1.998   1.385  1.00  0.00     0.074 A 
ATOM     43  C   UNL     1      -3.428   2.643   1.661  1.00  0.00     0.049 A 
ATOM     44  N   UNL     1      -6.379   3.093   1.796  1.00  0.00    -0.248 NA
ATOM     45  C   UNL     1      -6.717   0.950   0.939  1.00  0.00     0.031 C 
ATOM     46  C   UNL     1      -1.975   2.499   1.608  1.00  0.00     0.029 A 
ATOM     47  N   UNL     1      -3.611   3.918   2.141  1.00  0.00    -0.354 N 
ATOM     48  C   UNL     1      -7.745   2.869   1.657  1.00  0.00     0.074 A 
ATOM     49  C   UNL     1      -7.891   1.551   1.074  1.00  0.00     0.031 C 
ATOM     50  C   UNL     1      -1.396   3.628   2.045  1.00  0.00     0.029 A 
ATOM     51  C   UNL     1      -2.436   4.587   2.400  1.00  0.00     0.049 A 
ATOM     52  H   UNL     1      -4.500   4.315   2.287  1.00  0.00     0.167 HD
ATOM     53  C   UNL     1      -8.782   3.670   2.004  1.00  0.00     0.037 A 
ATOM     54  C   UNL     1      -2.211   5.828   2.876  1.00  0.00     0.037 A 
ATOM     55  C   UNL     1      -8.644   4.974   2.605  1.00  0.00     0.049 A 
ATOM     56  C   UNL     1      -3.376   6.696   3.256  1.00  0.00     0.074 A 
ATOM     57  C   UNL     1      -9.641   5.830   3.043  1.00  0.00     0.029 A 
ATOM     58  N   UNL     1      -7.438   5.613   2.853  1.00  0.00    -0.354 N 
ATOM     59  N   UNL     1      -4.658   6.435   3.175  1.00  0.00    -0.248 NA
ATOM     60  C   UNL     1      -3.063   8.021   3.809  1.00  0.00     0.031 C 
ATOM     61  C   UNL     1      -9.040   7.003   3.516  1.00  0.00     0.029 A 
ATOM     62  C   UNL     1      -7.667   6.860   3.416  1.00  0.00     0.049 A 
ATOM     63  H   UNL     1      -6.550   5.236   2.658  1.00  0.00     0.167 HD
ATOM     64  C   UNL     1      -5.305   7.555   3.685  1.00  0.00     0.074 A 
ATOM     65  C   UNL     1      -4.273   8.486   4.090  1.00  0.00     0.031 C 
ATOM     66  C   UNL     1      -6.636   7.788   3.806  1.00  0.00     0.037 A 
BRANCH  53  67
ATOM     67  C   UNL     1     -10.175   3.158   1.746  1.00  0.00     0.058 A 
ATOM     68  C   UNL     1     -10.729   2.117   2.510  1.00  0.00     0.135 A 
ATOM     69  C   UNL     1     -10.981   3.741   0.755  1.00  0.00     0.135 A 
ATOM     70  F   UNL     1      -9.999   1.516   3.463  1.00  0.00    -0.206 F 
ATOM     71  C   UNL     1     -12.020   1.652   2.279  1.00  0.00     0.059 A 
ATOM     72  C   UNL     1     -12.285   3.310   0.525  1.00  0.00     0.059 A 
ATOM     73  F   UNL     1     -10.504   4.742  -0.001  1.00  0.00    -0.206 F 
ATOM     74  C   UNL     1     -12.790   2.254   1.282  1.00  0.00     0.060 A 
BRANCH  74  75
ATOM     75  S   UNL     1     -14.462   1.638   0.993  1.00  0.00     0.124 S 
ATOM     76  O   UNL     1     -14.193   0.376   0.312  1.00  0.00    -0.237 OA
ATOM     77  O   UNL     1     -14.994   1.526   2.348  1.00  0.00    -0.237 OA
ATOM     78  O   UNL     1     -15.070   2.678   0.169  1.00  0.00    -0.744 OA
ENDBRANCH  74  75
ENDBRANCH  53  67
BRANCH  54  79
ATOM     79  C   UNL     1      -0.815   6.311   3.050  1.00  0.00     0.058 A 
ATOM     80  C   UNL     1      -0.256   6.462   4.328  1.00  0.00     0.135 A 
ATOM     81  C   UNL     1      -0.008   6.615   1.942  1.00  0.00     0.135 A 
ATOM     82  F   UNL     1      -0.990   6.189   5.417  1.00  0.00    -0.206 F 
ATOM     83  C   UNL     1       1.048   6.911   4.504  1.00  0.00     0.059 A 
ATOM     84  C   UNL     1       1.307   7.043   2.092  1.00  0.00     0.059 A 
ATOM     85  F   UNL     1      -0.491   6.468   0.699  1.00  0.00    -0.206 F 
ATOM     86  C   UNL     1       1.823   7.196   3.378  1.00  0.00     0.060 A 
BRANCH  86  87
ATOM     87  S   UNL     1       3.535   7.722   3.615  1.00  0.00     0.124 S 
ATOM     88  O   UNL     1       3.360   9.099   4.061  1.00  0.00    -0.237 OA
ATOM     89  O   UNL     1       4.009   6.778   4.622  1.00  0.00    -0.237 OA
ATOM     90  O   UNL     1       4.121   7.555   2.288  1.00  0.00    -0.744 OA
ENDBRANCH  86  87
ENDBRANCH  54  79
BRANCH  66  91
ATOM     91  C   UNL     1      -7.047   9.100   4.417  1.00  0.00     0.058 A 
ATOM     92  C   UNL     1      -6.899  10.313   3.725  1.00  0.00     0.135 A 
ATOM     93  C   UNL     1      -7.599   9.146   5.707  1.00  0.00     0.135 A 
ATOM     94  F   UNL     1      -6.372  10.326   2.490  1.00  0.00    -0.206 F 
ATOM     95  C   UNL     1      -7.247  11.529   4.305  1.00  0.00     0.059 A 
ATOM     96  C   UNL     1      -7.979  10.348   6.297  1.00  0.00     0.059 A 
ATOM     97  F   UNL     1      -7.773   8.015   6.409  1.00  0.00    -0.206 F 
ATOM     98  C   UNL     1      -7.779  11.537   5.595  1.00  0.00     0.060 A 
BRANCH  98  99
ATOM     99  S   UNL     1      -8.223  13.120   6.342  1.00  0.00     0.124 S 
ATOM    100  O   UNL     1      -6.913  13.643   6.718  1.00  0.00    -0.237 OA
ATOM    101  O   UNL     1      -8.890  13.811   5.243  1.00  0.00    -0.237 OA
ATOM    102  O   UNL     1      -9.090  12.739   7.453  1.00  0.00    -0.744 OA
ENDBRANCH  98  99
ENDBRANCH  66  91
ENDBRANCH  40  41
ENDBRANCH  32  35
ENDBRANCH  30  31
ENDBRANCH   1  30
TORSDOF 18
