REMARK SMILES Cc1ccc(C)c(N2C(=O)C[C@@H](SCC(=O)NCCCNC(=O)c3ccc(-c4c5nc(c(-c6c(F)cc(S(=O)(=O)[O-])cc6F)c6ccc([nH]6)c(-c6c(F)cc(S(=O)(=O)[O-])cc6F)c6nc(c(-c7c(F)cc(S(=O)(=O)[O-])cc7F)c7ccc4[nH]7)C=C6)C=C5)cc3)C2=O)c1
REMARK SMILES IDX 19 1 18 2 17 3 15 4 16 5 14 7 13 8 12 9 8 10 9 11 90 12
REMARK SMILES IDX 10 13 11 14 91 15 7 16 1 17 2 18 3 19 92 20 4 21 5 22 6 23
REMARK SMILES IDX 20 24 21 25 22 26 23 28 24 29 25 30 89 31 26 32 88 33 27 34
REMARK SMILES IDX 28 35 29 36 82 37 30 38 87 39 81 40 83 41 31 42 86 43 80 44
REMARK SMILES IDX 79 45 32 47 66 48 45 49 65 50 46 51 49 52 64 53 84 54 47 55
REMARK SMILES IDX 48 56 63 58 85 59 50 60 33 61 34 62 43 63 35 64 36 65 42 66
REMARK SMILES IDX 44 67 37 68 38 69 39 70 40 71 41 72 67 73 68 74 77 75 69 76
REMARK SMILES IDX 70 77 76 78 78 79 71 80 72 81 73 82 74 83 75 84 51 85 52 86
REMARK SMILES IDX 61 87 53 88 54 89 60 90 62 91 55 92 56 93 57 94 58 95 59 96
REMARK H PARENT 17 6 21 27 83 46 49 57
REMARK Flexibility Score: inf
ROOT
ATOM      1  C   UNL     1      -6.477   4.126   3.071  1.00  0.00     0.042 C 
ENDROOT
BRANCH   1   2
ATOM      2  C   UNL     1      -6.970   5.172   2.061  1.00  0.00     0.117 C 
BRANCH   2   3
ATOM      3  N   UNL     1      -5.963   6.162   1.700  1.00  0.00    -0.355 N 
ATOM      4  C   UNL     1      -5.210   6.273   0.569  1.00  0.00     0.230 C 
ATOM      5  O   UNL     1      -4.372   7.174   0.503  1.00  0.00    -0.274 OA
ATOM      6  H   UNL     1      -5.803   6.858   2.378  1.00  0.00     0.163 HD
BRANCH   4   7
ATOM      7  C   UNL     1      -5.386   5.303  -0.578  1.00  0.00     0.170 C 
BRANCH   7   8
ATOM      8  S   UNL     1      -4.679   3.666  -0.232  1.00  0.00    -0.138 SA
BRANCH   8   9
ATOM      9  C   UNL     1      -3.004   4.131   0.391  1.00  0.00     0.146 C 
ATOM     10  N   UNL     1      -1.416   2.469  -0.051  1.00  0.00    -0.249 N 
ATOM     11  C   UNL     1      -1.193   3.439  -0.993  1.00  0.00     0.235 C 
ATOM     12  C   UNL     1      -2.352   2.854   0.887  1.00  0.00     0.247 C 
ATOM     13  O   UNL     1      -0.428   3.395  -1.953  1.00  0.00    -0.274 OA
ATOM     14  C   UNL     1      -2.064   4.623  -0.695  1.00  0.00     0.125 C 
ATOM     15  O   UNL     1      -2.651   2.297   1.923  1.00  0.00    -0.273 OA
BRANCH  10  16
ATOM     16  C   UNL     1      -0.738   1.230  -0.020  1.00  0.00     0.055 A 
ATOM     17  C   UNL     1       2.899   0.047  -0.058  1.00  0.00     0.044 C 
ATOM     18  C   UNL     1       1.399   0.037  -0.030  1.00  0.00    -0.049 A 
ATOM     19  C   UNL     1       0.714  -1.175   0.070  1.00  0.00     0.004 A 
ATOM     20  C   UNL     1       0.667   1.229  -0.096  1.00  0.00     0.030 A 
ATOM     21  C   UNL     1      -0.680  -1.192   0.113  1.00  0.00     0.006 A 
ATOM     22  C   UNL     1      -1.424   0.001   0.065  1.00  0.00    -0.027 A 
ATOM     23  C   UNL     1      -2.922  -0.138   0.028  1.00  0.00     0.046 C 
ENDBRANCH  10  16
ENDBRANCH   8   9
ENDBRANCH   7   8
ENDBRANCH   4   7
ENDBRANCH   2   3
ENDBRANCH   1   2
BRANCH   1  24
ATOM     24  C   UNL     1      -6.177   4.689   4.453  1.00  0.00     0.118 C 
BRANCH  24  25
ATOM     25  N   UNL     1      -7.361   5.220   5.150  1.00  0.00    -0.352 N 
ATOM     26  C   UNL     1      -7.489   6.146   6.177  1.00  0.00     0.251 C 
ATOM     27  H   UNL     1      -8.216   4.852   4.829  1.00  0.00     0.163 HD
ATOM     28  O   UNL     1      -8.538   6.198   6.813  1.00  0.00    -0.269 OA
BRANCH  26  29
ATOM     29  C   UNL     1      -6.389   7.079   6.496  1.00  0.00     0.039 A 
ATOM     30  C   UNL     1      -6.411   8.005   7.538  1.00  0.00     0.014 A 
ATOM     31  C   UNL     1      -5.357   7.163   5.585  1.00  0.00     0.014 A 
ATOM     32  C   UNL     1      -5.445   9.020   7.535  1.00  0.00     0.010 A 
ATOM     33  C   UNL     1      -4.209   7.807   5.891  1.00  0.00     0.010 A 
ATOM     34  C   UNL     1      -4.380   8.944   6.628  1.00  0.00    -0.014 A 
BRANCH  34  35
ATOM     35  C   UNL     1      -3.297   9.892   6.533  1.00  0.00     0.031 A 
ATOM     36  C   UNL     1      -2.441   9.891   7.727  1.00  0.00     0.074 A 
ATOM     37  C   UNL     1      -2.932  10.509   5.389  1.00  0.00     0.049 A 
ATOM     38  N   UNL     1      -2.542  10.682   8.738  1.00  0.00    -0.248 NA
ATOM     39  C   UNL     1      -1.550   8.741   7.944  1.00  0.00     0.031 C 
ATOM     40  C   UNL     1      -3.414  10.315   4.017  1.00  0.00     0.029 A 
ATOM     41  N   UNL     1      -1.957  11.442   5.231  1.00  0.00    -0.354 N 
ATOM     42  C   UNL     1      -1.524  10.296   9.594  1.00  0.00     0.074 A 
ATOM     43  C   UNL     1      -1.171   8.957   9.206  1.00  0.00     0.031 C 
ATOM     44  C   UNL     1      -2.604  10.977   3.154  1.00  0.00     0.029 A 
ATOM     45  C   UNL     1      -1.639  11.754   3.915  1.00  0.00     0.049 A 
ATOM     46  H   UNL     1      -1.507  11.868   5.996  1.00  0.00     0.167 HD
ATOM     47  C   UNL     1      -0.854  11.220  10.333  1.00  0.00     0.037 A 
ATOM     48  C   UNL     1      -0.628  12.568   3.513  1.00  0.00     0.037 A 
ATOM     49  C   UNL     1      -1.542  12.494  10.307  1.00  0.00     0.049 A 
ATOM     50  C   UNL     1      -0.281  13.428   4.682  1.00  0.00     0.074 A 
ATOM     51  C   UNL     1      -2.825  12.903  10.623  1.00  0.00     0.029 A 
ATOM     52  N   UNL     1      -1.032  13.478   9.488  1.00  0.00    -0.354 N 
ATOM     53  N   UNL     1      -1.084  14.327   5.187  1.00  0.00    -0.248 NA
ATOM     54  C   UNL     1       0.758  12.953   5.586  1.00  0.00     0.031 C 
ATOM     55  C   UNL     1      -3.182  13.832   9.601  1.00  0.00     0.029 A 
ATOM     56  C   UNL     1      -2.076  14.006   8.767  1.00  0.00     0.049 A 
ATOM     57  H   UNL     1      -0.088  13.754   9.431  1.00  0.00     0.167 HD
ATOM     58  C   UNL     1      -0.935  14.212   6.563  1.00  0.00     0.074 A 
ATOM     59  C   UNL     1       0.274  13.410   6.745  1.00  0.00     0.031 C 
ATOM     60  C   UNL     1      -1.954  14.524   7.419  1.00  0.00     0.037 A 
BRANCH  47  61
ATOM     61  C   UNL     1       0.590  11.086  10.751  1.00  0.00     0.058 A 
ATOM     62  C   UNL     1       1.117  12.019  11.665  1.00  0.00     0.135 A 
ATOM     63  C   UNL     1       1.540  10.249  10.121  1.00  0.00     0.135 A 
ATOM     64  F   UNL     1       0.307  12.868  12.318  1.00  0.00    -0.206 F 
ATOM     65  C   UNL     1       2.486  12.160  11.880  1.00  0.00     0.059 A 
ATOM     66  C   UNL     1       2.903  10.331  10.368  1.00  0.00     0.059 A 
ATOM     67  F   UNL     1       1.217   9.376   9.161  1.00  0.00    -0.206 F 
ATOM     68  C   UNL     1       3.372  11.319  11.214  1.00  0.00     0.060 A 
BRANCH  68  69
ATOM     69  S   UNL     1       5.142  11.564  11.408  1.00  0.00     0.124 S 
ATOM     70  O   UNL     1       5.335  12.831  10.712  1.00  0.00    -0.237 OA
ATOM     71  O   UNL     1       5.284  11.601  12.859  1.00  0.00    -0.237 OA
ATOM     72  O   UNL     1       5.716  10.390  10.756  1.00  0.00    -0.744 OA
ENDBRANCH  68  69
ENDBRANCH  47  61
BRANCH  48  73
ATOM     73  C   UNL     1       0.269  12.428   2.333  1.00  0.00     0.058 A 
ATOM     74  C   UNL     1       1.146  13.463   1.955  1.00  0.00     0.135 A 
ATOM     75  C   UNL     1       0.502  11.173   1.734  1.00  0.00     0.135 A 
ATOM     76  F   UNL     1       1.013  14.688   2.486  1.00  0.00    -0.206 F 
ATOM     77  C   UNL     1       2.224  13.252   1.086  1.00  0.00     0.059 A 
ATOM     78  C   UNL     1       1.564  10.942   0.858  1.00  0.00     0.059 A 
ATOM     79  F   UNL     1      -0.239  10.104   2.059  1.00  0.00    -0.206 F 
ATOM     80  C   UNL     1       2.439  11.979   0.560  1.00  0.00     0.060 A 
BRANCH  80  81
ATOM     81  S   UNL     1       3.936  11.652  -0.404  1.00  0.00     0.124 S 
ATOM     82  O   UNL     1       3.665  12.379  -1.639  1.00  0.00    -0.237 OA
ATOM     83  O   UNL     1       4.981  12.208   0.448  1.00  0.00    -0.237 OA
ATOM     84  O   UNL     1       3.948  10.196  -0.527  1.00  0.00    -0.744 OA
ENDBRANCH  80  81
ENDBRANCH  48  73
BRANCH  60  85
ATOM     85  C   UNL     1      -3.143  15.282   6.873  1.00  0.00     0.058 A 
ATOM     86  C   UNL     1      -4.015  14.802   5.878  1.00  0.00     0.135 A 
ATOM     87  C   UNL     1      -3.496  16.489   7.495  1.00  0.00     0.135 A 
ATOM     88  F   UNL     1      -3.817  13.608   5.303  1.00  0.00    -0.206 F 
ATOM     89  C   UNL     1      -5.157  15.510   5.491  1.00  0.00     0.059 A 
ATOM     90  C   UNL     1      -4.646  17.195   7.150  1.00  0.00     0.059 A 
ATOM     91  F   UNL     1      -2.741  16.976   8.494  1.00  0.00    -0.206 F 
ATOM     92  C   UNL     1      -5.465  16.708   6.135  1.00  0.00     0.060 A 
BRANCH  92  93
ATOM     93  S   UNL     1      -6.977  17.589   5.685  1.00  0.00     0.124 S 
ATOM     94  O   UNL     1      -6.646  18.111   4.364  1.00  0.00    -0.237 OA
ATOM     95  O   UNL     1      -7.983  16.531   5.715  1.00  0.00    -0.237 OA
ATOM     96  O   UNL     1      -7.112  18.594   6.737  1.00  0.00    -0.744 OA
ENDBRANCH  92  93
ENDBRANCH  60  85
ENDBRANCH  34  35
ENDBRANCH  26  29
ENDBRANCH  24  25
ENDBRANCH   1  24
TORSDOF 16
