REMARK SMILES CC(C)(C[S@@](=O)c1ccc(C(C)(C)C)cc1)C(=O)NCCCNC(=O)c1ccc(-c2c3nc(c(-c4c(F)cc(S(=O)(=O)[O-])cc4F)c4ccc([nH]4)c(-c4c(F)cc(S(=O)(=O)[O-])cc4F)c4nc(c(-c5c(F)cc(S(=O)(=O)[O-])cc5F)c5ccc2[nH]5)C=C4)C=C3)cc1
REMARK SMILES IDX 20 1 19 2 17 3 18 4 2 6 1 7 3 8 4 9 5 10 6 11 7 12 8 13
REMARK SMILES IDX 16 14 9 15 15 16 10 17 11 18 12 19 13 20 14 21 21 22 22 23
REMARK SMILES IDX 23 24 24 25 25 27 26 28 27 29 91 30 28 31 90 32 29 33 30 34
REMARK SMILES IDX 31 35 84 36 32 37 89 38 83 39 85 40 33 41 88 42 82 43 81 44
REMARK SMILES IDX 34 46 68 47 47 48 67 49 48 50 51 51 66 52 86 53 49 54 50 55
REMARK SMILES IDX 65 57 87 58 52 59 35 60 36 61 45 62 37 63 38 64 44 65 46 66
REMARK SMILES IDX 39 67 40 68 41 69 42 70 43 71 69 72 70 73 79 74 71 75 72 76
REMARK SMILES IDX 78 77 80 78 73 79 74 80 75 81 76 82 77 83 53 84 54 85 63 86
REMARK SMILES IDX 55 87 56 88 62 89 64 90 57 91 58 92 59 93 60 94 61 95
REMARK H PARENT 19 5 23 26 85 45 51 56
REMARK Flexibility Score: inf
ROOT
ATOM      1  C   UNL     1      -0.268   2.730   3.472  1.00  0.00     0.117 C 
ENDROOT
BRANCH   1   2
ATOM      2  N   UNL     1       0.611   1.576   3.415  1.00  0.00    -0.356 N 
ATOM      3  C   UNL     1       1.041   0.787   2.403  1.00  0.00     0.226 C 
ATOM      4  O   UNL     1       1.760  -0.162   2.733  1.00  0.00    -0.274 OA
ATOM      5  H   UNL     1       0.969   1.314   4.294  1.00  0.00     0.163 HD
BRANCH   3   6
ATOM      6  C   UNL     1       0.663   1.025   0.932  1.00  0.00     0.055 C 
ATOM      7  C   UNL     1       1.498   0.044   0.075  1.00  0.00     0.022 C 
ATOM      8  C   UNL     1       1.119   2.425   0.465  1.00  0.00     0.022 C 
BRANCH   6   9
ATOM      9  C   UNL     1      -0.854   0.862   0.697  1.00  0.00     0.126 C 
BRANCH   9  10
ATOM     10  S   UNL     1      -1.599  -0.687   1.293  1.00  0.00     0.054 S 
ATOM     11  O   UNL     1      -3.086  -0.491   1.300  1.00  0.00    -0.254 OA
BRANCH  10  12
ATOM     12  C   UNL     1      -1.305  -1.865  -0.043  1.00  0.00     0.039 A 
ATOM     13  C   UNL     1      -1.458  -3.224   0.245  1.00  0.00     0.018 A 
ATOM     14  C   UNL     1      -0.895  -1.512  -1.326  1.00  0.00     0.018 A 
ATOM     15  C   UNL     1      -1.102  -4.200  -0.694  1.00  0.00     0.005 A 
ATOM     16  C   UNL     1      -0.496  -2.485  -2.247  1.00  0.00     0.005 A 
ATOM     17  C   UNL     1      -0.555  -3.850  -1.941  1.00  0.00    -0.043 A 
BRANCH  17  18
ATOM     18  C   UNL     1      -0.100  -4.921  -2.943  1.00  0.00    -0.013 C 
ATOM     19  C   UNL     1       0.678  -6.058  -2.242  1.00  0.00     0.016 C 
ATOM     20  C   UNL     1      -1.350  -5.501  -3.627  1.00  0.00     0.016 C 
ATOM     21  C   UNL     1       0.841  -4.367  -4.041  1.00  0.00     0.016 C 
ENDBRANCH  17  18
ENDBRANCH  10  12
ENDBRANCH   9  10
ENDBRANCH   6   9
ENDBRANCH   3   6
ENDBRANCH   1   2
BRANCH   1  22
ATOM     22  C   UNL     1      -1.517   2.452   4.293  1.00  0.00     0.042 C 
BRANCH  22  23
ATOM     23  C   UNL     1      -1.231   2.119   5.749  1.00  0.00     0.118 C 
BRANCH  23  24
ATOM     24  N   UNL     1      -0.527   3.193   6.439  1.00  0.00    -0.352 N 
ATOM     25  C   UNL     1      -0.937   3.987   7.483  1.00  0.00     0.251 C 
ATOM     26  H   UNL     1       0.381   3.378   6.106  1.00  0.00     0.163 HD
ATOM     27  O   UNL     1      -0.288   4.984   7.777  1.00  0.00    -0.269 OA
BRANCH  25  28
ATOM     28  C   UNL     1      -2.164   3.643   8.232  1.00  0.00     0.039 A 
ATOM     29  C   UNL     1      -3.041   4.663   8.608  1.00  0.00     0.014 A 
ATOM     30  C   UNL     1      -2.446   2.316   8.565  1.00  0.00     0.014 A 
ATOM     31  C   UNL     1      -4.234   4.340   9.258  1.00  0.00     0.010 A 
ATOM     32  C   UNL     1      -3.678   1.988   9.114  1.00  0.00     0.010 A 
ATOM     33  C   UNL     1      -4.580   2.996   9.481  1.00  0.00    -0.014 A 
BRANCH  33  34
ATOM     34  C   UNL     1      -5.871   2.622  10.111  1.00  0.00     0.031 A 
ATOM     35  C   UNL     1      -5.882   1.874  11.417  1.00  0.00     0.074 A 
ATOM     36  C   UNL     1      -7.027   2.897   9.477  1.00  0.00     0.049 A 
ATOM     37  N   UNL     1      -6.899   1.409  12.096  1.00  0.00    -0.248 NA
ATOM     38  C   UNL     1      -4.574   1.581  12.026  1.00  0.00     0.031 C 
ATOM     39  C   UNL     1      -7.142   3.573   8.183  1.00  0.00     0.029 A 
ATOM     40  N   UNL     1      -8.327   2.638   9.832  1.00  0.00    -0.354 N 
ATOM     41  C   UNL     1      -6.355   0.761  13.198  1.00  0.00     0.074 A 
ATOM     42  C   UNL     1      -4.917   0.831  13.061  1.00  0.00     0.031 C 
ATOM     43  C   UNL     1      -8.441   3.709   7.872  1.00  0.00     0.029 A 
ATOM     44  C   UNL     1      -9.249   3.091   8.918  1.00  0.00     0.049 A 
ATOM     45  H   UNL     1      -8.575   2.172  10.662  1.00  0.00     0.167 HD
ATOM     46  C   UNL     1      -6.993   0.186  14.246  1.00  0.00     0.037 A 
ATOM     47  C   UNL     1     -10.594   3.015   8.923  1.00  0.00     0.037 A 
ATOM     48  C   UNL     1      -8.426   0.132  14.378  1.00  0.00     0.049 A 
ATOM     49  C   UNL     1     -11.283   2.354  10.085  1.00  0.00     0.074 A 
ATOM     50  C   UNL     1      -9.176  -0.383  15.420  1.00  0.00     0.029 A 
ATOM     51  N   UNL     1      -9.326   0.604  13.432  1.00  0.00    -0.354 N 
ATOM     52  N   UNL     1     -10.756   1.803  11.152  1.00  0.00    -0.248 NA
ATOM     53  C   UNL     1     -12.751   2.310  10.046  1.00  0.00     0.031 C 
ATOM     54  C   UNL     1     -10.529  -0.272  15.080  1.00  0.00     0.029 A 
ATOM     55  C   UNL     1     -10.625   0.369  13.855  1.00  0.00     0.049 A 
ATOM     56  H   UNL     1      -9.079   1.041  12.586  1.00  0.00     0.167 HD
ATOM     57  C   UNL     1     -11.828   1.374  11.928  1.00  0.00     0.074 A 
ATOM     58  C   UNL     1     -13.032   1.739  11.210  1.00  0.00     0.031 C 
ATOM     59  C   UNL     1     -11.815   0.741  13.128  1.00  0.00     0.037 A 
BRANCH  46  60
ATOM     60  C   UNL     1      -6.138  -0.433  15.321  1.00  0.00     0.058 A 
ATOM     61  C   UNL     1      -5.316   0.347  16.153  1.00  0.00     0.135 A 
ATOM     62  C   UNL     1      -6.135  -1.823  15.522  1.00  0.00     0.135 A 
ATOM     63  F   UNL     1      -5.267   1.680  15.999  1.00  0.00    -0.206 F 
ATOM     64  C   UNL     1      -4.484  -0.232  17.106  1.00  0.00     0.059 A 
ATOM     65  C   UNL     1      -5.337  -2.420  16.494  1.00  0.00     0.059 A 
ATOM     66  F   UNL     1      -6.903  -2.619  14.761  1.00  0.00    -0.206 F 
ATOM     67  C   UNL     1      -4.497  -1.618  17.265  1.00  0.00     0.060 A 
BRANCH  67  68
ATOM     68  S   UNL     1      -3.391  -2.355  18.486  1.00  0.00     0.124 S 
ATOM     69  O   UNL     1      -2.094  -2.195  17.835  1.00  0.00    -0.237 OA
ATOM     70  O   UNL     1      -3.617  -1.517  19.659  1.00  0.00    -0.237 OA
ATOM     71  O   UNL     1      -3.872  -3.728  18.596  1.00  0.00    -0.744 OA
ENDBRANCH  67  68
ENDBRANCH  46  60
BRANCH  47  72
ATOM     72  C   UNL     1     -11.371   3.623   7.810  1.00  0.00     0.058 A 
ATOM     73  C   UNL     1     -12.126   4.787   8.015  1.00  0.00     0.135 A 
ATOM     74  C   UNL     1     -11.344   3.082   6.515  1.00  0.00     0.135 A 
ATOM     75  F   UNL     1     -12.188   5.339   9.236  1.00  0.00    -0.206 F 
ATOM     76  C   UNL     1     -12.831   5.392   6.980  1.00  0.00     0.059 A 
ATOM     77  C   UNL     1     -12.020   3.683   5.457  1.00  0.00     0.059 A 
ATOM     78  F   UNL     1     -10.625   1.978   6.262  1.00  0.00    -0.206 F 
ATOM     79  C   UNL     1     -12.765   4.836   5.701  1.00  0.00     0.060 A 
BRANCH  79  80
ATOM     80  S   UNL     1     -13.628   5.672   4.352  1.00  0.00     0.124 S 
ATOM     81  O   UNL     1     -15.023   5.409   4.686  1.00  0.00    -0.237 OA
ATOM     82  O   UNL     1     -13.181   7.052   4.515  1.00  0.00    -0.237 OA
ATOM     83  O   UNL     1     -13.125   4.995   3.160  1.00  0.00    -0.744 OA
ENDBRANCH  79  80
ENDBRANCH  47  72
BRANCH  59  84
ATOM     84  C   UNL     1     -13.145   0.434  13.763  1.00  0.00     0.058 A 
ATOM     85  C   UNL     1     -13.999  -0.557  13.256  1.00  0.00     0.135 A 
ATOM     86  C   UNL     1     -13.546   1.111  14.928  1.00  0.00     0.135 A 
ATOM     87  F   UNL     1     -13.669  -1.230  12.142  1.00  0.00    -0.206 F 
ATOM     88  C   UNL     1     -15.216  -0.849  13.865  1.00  0.00     0.059 A 
ATOM     89  C   UNL     1     -14.742   0.813  15.571  1.00  0.00     0.059 A 
ATOM     90  F   UNL     1     -12.762   2.061  15.462  1.00  0.00    -0.206 F 
ATOM     91  C   UNL     1     -15.577  -0.160  15.025  1.00  0.00     0.060 A 
BRANCH  91  92
ATOM     92  S   UNL     1     -17.143  -0.571  15.823  1.00  0.00     0.124 S 
ATOM     93  O   UNL     1     -18.108   0.009  14.895  1.00  0.00    -0.237 OA
ATOM     94  O   UNL     1     -17.099  -2.030  15.862  1.00  0.00    -0.237 OA
ATOM     95  O   UNL     1     -17.047   0.087  17.122  1.00  0.00    -0.744 OA
ENDBRANCH  91  92
ENDBRANCH  59  84
ENDBRANCH  33  34
ENDBRANCH  25  28
ENDBRANCH  23  24
ENDBRANCH  22  23
ENDBRANCH   1  22
TORSDOF 17
