REMARK SMILES NC(=O)C[C@H](NC(=O)C1(c2ccccc2)CCN(C(=O)[C@@H]2CCC[NH2+]2)CC1)C(=O)NCCCNC(=O)c1ccc(-c2c3nc(c(-c4c(F)cc(S(=O)(=O)[O-])cc4F)c4ccc([nH]4)c(-c4c(F)cc(S(=O)(=O)[O-])cc4F)c4nc(c(-c5c(F)cc(S(=O)(=O)[O-])cc5F)c5ccc2[nH]5)C=C4)C=C3)cc1
REMARK SMILES IDX 32 1 31 2 30 3 28 4 29 5 5 7 4 8 2 9 1 10 3 13 6 14 7 15
REMARK SMILES IDX 8 17 9 18 16 19 27 20 17 21 26 22 18 23 19 24 20 25 10 26
REMARK SMILES IDX 11 27 15 28 12 29 14 30 13 31 21 32 22 33 25 34 23 35 24 36
REMARK SMILES IDX 33 39 34 40 35 41 36 43 37 44 38 45 102 46 39 47 101 48
REMARK SMILES IDX 40 49 41 50 42 51 95 52 43 53 100 54 94 55 96 56 44 57 99 58
REMARK SMILES IDX 93 59 92 60 45 62 79 63 58 64 78 65 59 66 62 67 77 68 97 69
REMARK SMILES IDX 60 70 61 71 76 73 98 74 63 75 46 76 47 77 56 78 48 79 49 80
REMARK SMILES IDX 55 81 57 82 50 83 51 84 52 85 53 86 54 87 80 88 81 89 90 90
REMARK SMILES IDX 82 91 83 92 89 93 91 94 84 95 85 96 86 97 87 98 88 99 64 100
REMARK SMILES IDX 65 101 74 102 66 103 67 104 73 105 75 106 68 107 69 108
REMARK SMILES IDX 70 109 71 110 72 111
REMARK H PARENT 30 6 1 11 1 12 6 16 25 37 25 38 34 42 96 61 62 72
REMARK Flexibility Score: inf
ROOT
ATOM      1  C   UNL     1       3.149  -1.336   4.679  1.00  0.00     0.042 C 
ENDROOT
BRANCH   1   2
ATOM      2  C   UNL     1       3.566  -2.185   3.485  1.00  0.00     0.117 C 
BRANCH   2   3
ATOM      3  N   UNL     1       2.758  -3.375   3.342  1.00  0.00    -0.354 N 
ATOM      4  C   UNL     1       1.896  -3.702   2.340  1.00  0.00     0.243 C 
ATOM      5  O   UNL     1       1.471  -4.862   2.307  1.00  0.00    -0.273 OA
ATOM      6  H   UNL     1       2.842  -4.037   4.066  1.00  0.00     0.163 HD
BRANCH   4   7
ATOM      7  C   UNL     1       1.590  -2.732   1.163  1.00  0.00     0.180 C 
BRANCH   7   8
ATOM      8  C   UNL     1       2.607  -3.037   0.067  1.00  0.00     0.134 C 
BRANCH   8   9
ATOM      9  C   UNL     1       2.152  -2.936  -1.377  1.00  0.00     0.220 C 
ATOM     10  N   UNL     1       0.868  -3.229  -1.697  1.00  0.00    -0.370 N 
ATOM     11  H   UNL     1       0.566  -3.165  -2.631  1.00  0.00     0.159 HD
ATOM     12  H   UNL     1       0.237  -3.506  -0.994  1.00  0.00     0.159 HD
ATOM     13  O   UNL     1       2.930  -2.621  -2.277  1.00  0.00    -0.275 OA
ENDBRANCH   8   9
ENDBRANCH   7   8
BRANCH   7  14
ATOM     14  N   UNL     1       1.252  -1.366   1.647  1.00  0.00    -0.343 N 
ATOM     15  C   UNL     1       1.568  -0.051   1.642  1.00  0.00     0.231 C 
ATOM     16  H   UNL     1       0.454  -1.460   2.217  1.00  0.00     0.164 HD
ATOM     17  O   UNL     1       0.928   0.580   2.499  1.00  0.00    -0.274 OA
BRANCH  15  18
ATOM     18  C   UNL     1       2.565   0.719   0.721  1.00  0.00     0.077 C 
ATOM     19  C   UNL     1       2.258   2.265   0.811  1.00  0.00     0.043 C 
ATOM     20  C   UNL     1       2.336   0.331  -0.743  1.00  0.00     0.043 C 
ATOM     21  C   UNL     1       0.942   2.691   0.134  1.00  0.00     0.121 C 
ATOM     22  C   UNL     1       0.948   0.692  -1.238  1.00  0.00     0.121 C 
ATOM     23  N   UNL     1       0.845   2.134  -1.217  1.00  0.00    -0.337 N 
ATOM     24  C   UNL     1       0.879   2.983  -2.318  1.00  0.00     0.280 C 
ATOM     25  O   UNL     1       0.932   4.210  -2.167  1.00  0.00    -0.268 OA
BRANCH  18  26
ATOM     26  C   UNL     1       4.023   0.480   1.184  1.00  0.00    -0.032 A 
ATOM     27  C   UNL     1       4.931  -0.308   0.452  1.00  0.00     0.005 A 
ATOM     28  C   UNL     1       4.483   1.014   2.402  1.00  0.00     0.005 A 
ATOM     29  C   UNL     1       6.188  -0.644   0.965  1.00  0.00     0.000 A 
ATOM     30  C   UNL     1       5.753   0.705   2.900  1.00  0.00     0.000 A 
ATOM     31  C   UNL     1       6.594  -0.149   2.197  1.00  0.00     0.000 A 
ENDBRANCH  18  26
BRANCH  24  32
ATOM     32  C   UNL     1       0.824   2.427  -3.762  1.00  0.00     0.272 C 
ATOM     33  C   UNL     1      -0.413   1.628  -4.124  1.00  0.00     0.081 C 
ATOM     34  N   UNL     1       1.994   1.600  -4.134  1.00  0.00    -0.336 N 
ATOM     35  C   UNL     1       0.044   0.789  -5.302  1.00  0.00     0.068 C 
ATOM     36  C   UNL     1       1.547   0.627  -5.133  1.00  0.00     0.261 C 
ATOM     37  H   UNL     1       2.353   1.114  -3.312  1.00  0.00     0.346 HD
ATOM     38  H   UNL     1       2.740   2.183  -4.512  1.00  0.00     0.346 HD
ENDBRANCH  24  32
ENDBRANCH  15  18
ENDBRANCH   7  14
ENDBRANCH   4   7
ENDBRANCH   2   3
ENDBRANCH   1   2
BRANCH   1  39
ATOM     39  C   UNL     1       3.971  -1.624   5.927  1.00  0.00     0.118 C 
BRANCH  39  40
ATOM     40  N   UNL     1       5.387  -1.303   5.759  1.00  0.00    -0.352 N 
ATOM     41  C   UNL     1       6.228  -0.521   6.507  1.00  0.00     0.251 C 
ATOM     42  H   UNL     1       5.809  -1.720   4.973  1.00  0.00     0.163 HD
ATOM     43  O   UNL     1       7.352  -0.267   6.064  1.00  0.00    -0.269 OA
BRANCH  41  44
ATOM     44  C   UNL     1       5.801   0.040   7.804  1.00  0.00     0.039 A 
ATOM     45  C   UNL     1       6.252   1.312   8.174  1.00  0.00     0.014 A 
ATOM     46  C   UNL     1       4.977  -0.681   8.669  1.00  0.00     0.014 A 
ATOM     47  C   UNL     1       5.827   1.877   9.379  1.00  0.00     0.010 A 
ATOM     48  C   UNL     1       4.468  -0.074   9.811  1.00  0.00     0.010 A 
ATOM     49  C   UNL     1       4.902   1.202  10.191  1.00  0.00    -0.014 A 
BRANCH  49  50
ATOM     50  C   UNL     1       4.395   1.794  11.454  1.00  0.00     0.031 A 
ATOM     51  C   UNL     1       4.636   1.091  12.765  1.00  0.00     0.074 A 
ATOM     52  C   UNL     1       3.662   2.924  11.415  1.00  0.00     0.049 A 
ATOM     53  N   UNL     1       4.219   1.407  13.964  1.00  0.00    -0.248 NA
ATOM     54  C   UNL     1       5.418  -0.155  12.713  1.00  0.00     0.031 C 
ATOM     55  C   UNL     1       3.317   3.668  10.202  1.00  0.00     0.029 A 
ATOM     56  N   UNL     1       3.074   3.643  12.423  1.00  0.00    -0.354 N 
ATOM     57  C   UNL     1       4.670   0.392  14.801  1.00  0.00     0.074 A 
ATOM     58  C   UNL     1       5.324  -0.586  13.961  1.00  0.00     0.031 C 
ATOM     59  C   UNL     1       2.621   4.764  10.541  1.00  0.00     0.029 A 
ATOM     60  C   UNL     1       2.434   4.779  11.988  1.00  0.00     0.049 A 
ATOM     61  H   UNL     1       3.108   3.372  13.369  1.00  0.00     0.167 HD
ATOM     62  C   UNL     1       4.578   0.297  16.150  1.00  0.00     0.037 A 
ATOM     63  C   UNL     1       1.778   5.729  12.681  1.00  0.00     0.037 A 
ATOM     64  C   UNL     1       3.943   1.288  16.979  1.00  0.00     0.049 A 
ATOM     65  C   UNL     1       1.685   5.606  14.177  1.00  0.00     0.074 A 
ATOM     66  C   UNL     1       3.831   1.319  18.358  1.00  0.00     0.029 A 
ATOM     67  N   UNL     1       3.311   2.429  16.502  1.00  0.00    -0.354 N 
ATOM     68  N   UNL     1       2.160   4.665  14.960  1.00  0.00    -0.248 NA
ATOM     69  C   UNL     1       0.974   6.678  14.883  1.00  0.00     0.031 C 
ATOM     70  C   UNL     1       3.095   2.456  18.711  1.00  0.00     0.029 A 
ATOM     71  C   UNL     1       2.793   3.162  17.557  1.00  0.00     0.049 A 
ATOM     72  H   UNL     1       3.241   2.680  15.553  1.00  0.00     0.167 HD
ATOM     73  C   UNL     1       1.832   5.049  16.256  1.00  0.00     0.074 A 
ATOM     74  C   UNL     1       1.130   6.313  16.148  1.00  0.00     0.031 C 
ATOM     75  C   UNL     1       2.091   4.417  17.429  1.00  0.00     0.037 A 
BRANCH  62  76
ATOM     76  C   UNL     1       5.181  -0.924  16.795  1.00  0.00     0.058 A 
ATOM     77  C   UNL     1       6.568  -1.157  16.787  1.00  0.00     0.135 A 
ATOM     78  C   UNL     1       4.365  -1.890  17.406  1.00  0.00     0.135 A 
ATOM     79  F   UNL     1       7.398  -0.276  16.206  1.00  0.00    -0.206 F 
ATOM     80  C   UNL     1       7.115  -2.328  17.302  1.00  0.00     0.059 A 
ATOM     81  C   UNL     1       4.895  -3.053  17.960  1.00  0.00     0.059 A 
ATOM     82  F   UNL     1       3.034  -1.722  17.450  1.00  0.00    -0.206 F 
ATOM     83  C   UNL     1       6.269  -3.275  17.877  1.00  0.00     0.060 A 
BRANCH  83  84
ATOM     84  S   UNL     1       6.987  -4.810  18.499  1.00  0.00     0.124 S 
ATOM     85  O   UNL     1       7.276  -5.519  17.255  1.00  0.00    -0.237 OA
ATOM     86  O   UNL     1       8.151  -4.334  19.240  1.00  0.00    -0.237 OA
ATOM     87  O   UNL     1       5.919  -5.380  19.312  1.00  0.00    -0.744 OA
ENDBRANCH  83  84
ENDBRANCH  62  76
BRANCH  63  88
ATOM     88  C   UNL     1       1.222   6.911  11.971  1.00  0.00     0.058 A 
ATOM     89  C   UNL     1       1.822   8.172  12.111  1.00  0.00     0.135 A 
ATOM     90  C   UNL     1       0.114   6.806  11.117  1.00  0.00     0.135 A 
ATOM     91  F   UNL     1       2.881   8.323  12.922  1.00  0.00    -0.206 F 
ATOM     92  C   UNL     1       1.340   9.288  11.438  1.00  0.00     0.059 A 
ATOM     93  C   UNL     1      -0.372   7.904  10.412  1.00  0.00     0.059 A 
ATOM     94  F   UNL     1      -0.486   5.619  10.935  1.00  0.00    -0.206 F 
ATOM     95  C   UNL     1       0.245   9.143  10.585  1.00  0.00     0.060 A 
BRANCH  95  96
ATOM     96  S   UNL     1      -0.329  10.588   9.667  1.00  0.00     0.124 S 
ATOM     97  O   UNL     1      -0.943  11.384  10.724  1.00  0.00    -0.237 OA
ATOM     98  O   UNL     1       0.916  11.112   9.114  1.00  0.00    -0.237 OA
ATOM     99  O   UNL     1      -1.251  10.020   8.688  1.00  0.00    -0.744 OA
ENDBRANCH  95  96
ENDBRANCH  63  88
BRANCH  75 100
ATOM    100  C   UNL     1       1.641   5.106  18.688  1.00  0.00     0.058 A 
ATOM    101  C   UNL     1       0.284   5.214  19.029  1.00  0.00     0.135 A 
ATOM    102  C   UNL     1       2.584   5.661  19.568  1.00  0.00     0.135 A 
ATOM    103  F   UNL     1      -0.659   4.705  18.221  1.00  0.00    -0.206 F 
ATOM    104  C   UNL     1      -0.125   5.888  20.176  1.00  0.00     0.059 A 
ATOM    105  C   UNL     1       2.200   6.311  20.736  1.00  0.00     0.059 A 
ATOM    106  F   UNL     1       3.897   5.573  19.298  1.00  0.00    -0.206 F 
ATOM    107  C   UNL     1       0.841   6.438  21.020  1.00  0.00     0.060 A 
BRANCH 107 108
ATOM    108  S   UNL     1       0.299   7.315  22.502  1.00  0.00     0.124 S 
ATOM    109  O   UNL     1      -0.190   8.568  21.938  1.00  0.00    -0.237 OA
ATOM    110  O   UNL     1      -0.722   6.420  23.039  1.00  0.00    -0.237 OA
ATOM    111  O   UNL     1       1.517   7.417  23.300  1.00  0.00    -0.744 OA
ENDBRANCH 107 108
ENDBRANCH  75 100
ENDBRANCH  49  50
ENDBRANCH  41  44
ENDBRANCH  39  40
ENDBRANCH   1  39
TORSDOF 19
