REMARK SMILES Cc1ccc([C@@H](C)Nc2ccc(N)cc2C(=O)NCCCNC(=O)c2ccc(-c3c4nc(c(-c5c(F)cc(S(=O)(=O)[O-])cc5F)c5ccc([nH]5)c(-c5c(F)cc(S(=O)(=O)[O-])cc5F)c5nc(c(-c6c(F)cc(S(=O)(=O)[O-])cc6F)c6ccc3[nH]6)C=C5)C=C4)cc2)cc1F
REMARK SMILES IDX 20 1 19 2 18 3 16 4 17 5 15 7 9 8 10 9 11 10 14 11 12 12
REMARK SMILES IDX 8 13 6 15 7 16 5 17 1 18 2 19 3 20 92 21 4 22 91 23 93 24
REMARK SMILES IDX 13 25 21 28 22 29 23 30 24 32 25 33 26 34 90 35 27 36 89 37
REMARK SMILES IDX 28 38 29 39 30 40 83 41 31 42 88 43 82 44 84 45 32 46 87 47
REMARK SMILES IDX 81 48 80 49 33 51 67 52 46 53 66 54 47 55 50 56 65 57 85 58
REMARK SMILES IDX 48 59 49 60 64 62 86 63 51 64 34 65 35 66 44 67 36 68 37 69
REMARK SMILES IDX 43 70 45 71 38 72 39 73 40 74 41 75 42 76 68 77 69 78 78 79
REMARK SMILES IDX 70 80 71 81 77 82 79 83 72 84 73 85 74 86 75 87 76 88 52 89
REMARK SMILES IDX 53 90 62 91 54 92 55 93 61 94 63 95 56 96 57 97 58 98 59 99
REMARK SMILES IDX 60 100
REMARK H PARENT 18 6 8 14 13 26 13 27 22 31 84 50 50 61
REMARK Flexibility Score: inf
ROOT
ATOM      1  C   UNL     1      -0.503  -1.441   0.751  1.00  0.00     0.042 C 
ENDROOT
BRANCH   1   2
ATOM      2  C   UNL     1      -0.796  -3.122   0.798  1.00  0.00     0.118 C 
BRANCH   2   3
ATOM      3  N   UNL     1      -0.938  -3.860  -0.450  1.00  0.00    -0.352 N 
ATOM      4  C   UNL     1      -1.978  -4.650  -0.873  1.00  0.00     0.253 C 
ATOM      5  O   UNL     1      -2.008  -5.063  -2.030  1.00  0.00    -0.269 OA
ATOM      6  H   UNL     1      -0.184  -3.781  -1.078  1.00  0.00     0.163 HD
BRANCH   4   7
ATOM      7  C   UNL     1      -2.938  -5.166   0.125  1.00  0.00     0.065 A 
ATOM      8  C   UNL     1      -3.665  -4.403   1.050  1.00  0.00     0.048 A 
ATOM      9  C   UNL     1      -4.041  -5.087   2.223  1.00  0.00     0.028 A 
ATOM     10  C   UNL     1      -3.823  -6.460   2.400  1.00  0.00     0.027 A 
ATOM     11  C   UNL     1      -2.844  -6.569   0.243  1.00  0.00     0.041 A 
ATOM     12  C   UNL     1      -3.318  -7.232   1.365  1.00  0.00     0.032 A 
BRANCH   8  13
ATOM     13  N   UNL     1      -4.059  -3.083   0.963  1.00  0.00    -0.378 N 
ATOM     14  H   UNL     1      -4.562  -2.764   1.746  1.00  0.00     0.161 HD
BRANCH  13  15
ATOM     15  C   UNL     1      -3.870  -2.071  -0.072  1.00  0.00     0.106 C 
ATOM     16  C   UNL     1      -4.375  -2.473  -1.449  1.00  0.00     0.036 C 
BRANCH  15  17
ATOM     17  C   UNL     1      -2.498  -1.462   0.081  1.00  0.00    -0.023 A 
ATOM     18  C   UNL     1       1.778   1.267   0.678  1.00  0.00     0.047 C 
ATOM     19  C   UNL     1       0.577   0.391   0.542  1.00  0.00    -0.015 A 
ATOM     20  C   UNL     1      -0.663   0.388   1.839  1.00  0.00     0.007 A 
ATOM     21  C   UNL     1       0.268  -0.498  -1.005  1.00  0.00     0.126 A 
ATOM     22  C   UNL     1      -2.181  -0.593   1.641  1.00  0.00     0.006 A 
ATOM     23  C   UNL     1      -1.241  -1.434  -1.235  1.00  0.00     0.045 A 
ATOM     24  F   UNL     1       1.186  -0.472  -1.978  1.00  0.00    -0.207 F 
ENDBRANCH  15  17
ENDBRANCH  13  15
ENDBRANCH   8  13
BRANCH  12  25
ATOM     25  N   UNL     1      -3.102  -8.592   1.517  1.00  0.00    -0.399 N 
ATOM     26  H   UNL     1      -3.441  -9.058   2.315  1.00  0.00     0.156 HD
ATOM     27  H   UNL     1      -2.610  -9.093   0.826  1.00  0.00     0.156 HD
ENDBRANCH  12  25
ENDBRANCH   4   7
ENDBRANCH   2   3
ENDBRANCH   1   2
BRANCH   1  28
ATOM     28  C   UNL     1      -1.475   0.329  -0.100  1.00  0.00     0.118 C 
BRANCH  28  29
ATOM     29  N   UNL     1      -2.572   1.383   0.496  1.00  0.00    -0.352 N 
ATOM     30  C   UNL     1      -2.309   2.751   0.641  1.00  0.00     0.251 C 
ATOM     31  H   UNL     1      -3.455   1.043   0.764  1.00  0.00     0.163 HD
ATOM     32  O   UNL     1      -2.363   3.305   1.732  1.00  0.00    -0.269 OA
BRANCH  30  33
ATOM     33  C   UNL     1      -1.741   3.414  -0.566  1.00  0.00     0.039 A 
ATOM     34  C   UNL     1      -0.831   4.470  -0.449  1.00  0.00     0.014 A 
ATOM     35  C   UNL     1      -1.895   2.742  -1.773  1.00  0.00     0.014 A 
ATOM     36  C   UNL     1       0.033   4.737  -1.511  1.00  0.00     0.010 A 
ATOM     37  C   UNL     1      -0.873   2.803  -2.667  1.00  0.00     0.010 A 
ATOM     38  C   UNL     1       0.042   3.851  -2.590  1.00  0.00    -0.014 A 
BRANCH  38  39
ATOM     39  C   UNL     1       0.879   3.948  -3.772  1.00  0.00     0.031 A 
ATOM     40  C   UNL     1       2.341   3.919  -3.688  1.00  0.00     0.074 A 
ATOM     41  C   UNL     1       0.203   3.972  -4.944  1.00  0.00     0.049 A 
ATOM     42  N   UNL     1       3.107   4.549  -4.503  1.00  0.00    -0.248 NA
ATOM     43  C   UNL     1       3.076   3.190  -2.659  1.00  0.00     0.031 C 
ATOM     44  C   UNL     1       0.651   3.833  -6.313  1.00  0.00     0.029 A 
ATOM     45  N   UNL     1      -1.153   4.261  -5.078  1.00  0.00    -0.354 N 
ATOM     46  C   UNL     1       4.378   4.041  -4.338  1.00  0.00     0.074 A 
ATOM     47  C   UNL     1       4.341   3.333  -3.080  1.00  0.00     0.031 C 
ATOM     48  C   UNL     1      -0.324   4.296  -7.126  1.00  0.00     0.029 A 
ATOM     49  C   UNL     1      -1.372   4.882  -6.296  1.00  0.00     0.049 A 
ATOM     50  H   UNL     1      -1.847   4.056  -4.411  1.00  0.00     0.167 HD
ATOM     51  C   UNL     1       5.248   4.109  -5.387  1.00  0.00     0.037 A 
ATOM     52  C   UNL     1      -1.742   6.199  -6.229  1.00  0.00     0.037 A 
ATOM     53  C   UNL     1       4.570   4.681  -6.555  1.00  0.00     0.049 A 
ATOM     54  C   UNL     1      -0.614   7.124  -6.643  1.00  0.00     0.074 A 
ATOM     55  C   UNL     1       3.963   4.135  -7.674  1.00  0.00     0.029 A 
ATOM     56  N   UNL     1       4.124   5.981  -6.487  1.00  0.00    -0.354 N 
ATOM     57  N   UNL     1       0.581   6.715  -6.973  1.00  0.00    -0.248 NA
ATOM     58  C   UNL     1      -0.727   8.579  -6.697  1.00  0.00     0.031 C 
ATOM     59  C   UNL     1       3.151   5.143  -8.276  1.00  0.00     0.029 A 
ATOM     60  C   UNL     1       3.270   6.297  -7.522  1.00  0.00     0.049 A 
ATOM     61  H   UNL     1       4.385   6.614  -5.780  1.00  0.00     0.167 HD
ATOM     62  C   UNL     1       1.391   7.782  -7.233  1.00  0.00     0.074 A 
ATOM     63  C   UNL     1       0.522   8.933  -7.054  1.00  0.00     0.031 C 
ATOM     64  C   UNL     1       2.714   7.641  -7.548  1.00  0.00     0.037 A 
BRANCH  51  65
ATOM     65  C   UNL     1       6.609   3.451  -5.477  1.00  0.00     0.058 A 
ATOM     66  C   UNL     1       7.169   3.155  -6.741  1.00  0.00     0.135 A 
ATOM     67  C   UNL     1       7.432   3.123  -4.380  1.00  0.00     0.135 A 
ATOM     68  F   UNL     1       6.538   3.463  -7.882  1.00  0.00    -0.206 F 
ATOM     69  C   UNL     1       8.404   2.533  -6.907  1.00  0.00     0.059 A 
ATOM     70  C   UNL     1       8.664   2.465  -4.519  1.00  0.00     0.059 A 
ATOM     71  F   UNL     1       7.101   3.473  -3.129  1.00  0.00    -0.206 F 
ATOM     72  C   UNL     1       9.143   2.177  -5.791  1.00  0.00     0.060 A 
BRANCH  72  73
ATOM     73  S   UNL     1      10.738   1.377  -6.046  1.00  0.00     0.124 S 
ATOM     74  O   UNL     1      10.370   0.207  -6.840  1.00  0.00    -0.237 OA
ATOM     75  O   UNL     1      11.487   2.411  -6.752  1.00  0.00    -0.237 OA
ATOM     76  O   UNL     1      11.195   1.087  -4.690  1.00  0.00    -0.744 OA
ENDBRANCH  72  73
ENDBRANCH  51  65
BRANCH  52  77
ATOM     77  C   UNL     1      -2.743   6.431  -5.118  1.00  0.00     0.058 A 
ATOM     78  C   UNL     1      -3.998   5.792  -5.237  1.00  0.00     0.135 A 
ATOM     79  C   UNL     1      -2.354   6.809  -3.820  1.00  0.00     0.135 A 
ATOM     80  F   UNL     1      -4.441   5.411  -6.447  1.00  0.00    -0.206 F 
ATOM     81  C   UNL     1      -4.745   5.397  -4.126  1.00  0.00     0.059 A 
ATOM     82  C   UNL     1      -3.096   6.431  -2.689  1.00  0.00     0.059 A 
ATOM     83  F   UNL     1      -1.183   7.435  -3.623  1.00  0.00    -0.206 F 
ATOM     84  C   UNL     1      -4.253   5.665  -2.852  1.00  0.00     0.060 A 
BRANCH  84  85
ATOM     85  S   UNL     1      -5.099   4.902  -1.439  1.00  0.00     0.124 S 
ATOM     86  O   UNL     1      -6.485   5.308  -1.649  1.00  0.00    -0.237 OA
ATOM     87  O   UNL     1      -4.834   3.479  -1.649  1.00  0.00    -0.237 OA
ATOM     88  O   UNL     1      -4.438   5.503  -0.288  1.00  0.00    -0.744 OA
ENDBRANCH  84  85
ENDBRANCH  52  77
BRANCH  64  89
ATOM     89  C   UNL     1       3.624   8.799  -7.857  1.00  0.00     0.058 A 
ATOM     90  C   UNL     1       3.225   9.859  -8.683  1.00  0.00     0.135 A 
ATOM     91  C   UNL     1       4.968   8.834  -7.416  1.00  0.00     0.135 A 
ATOM     92  F   UNL     1       2.008   9.870  -9.250  1.00  0.00    -0.206 F 
ATOM     93  C   UNL     1       4.066  10.936  -8.959  1.00  0.00     0.059 A 
ATOM     94  C   UNL     1       5.842   9.862  -7.732  1.00  0.00     0.059 A 
ATOM     95  F   UNL     1       5.488   7.893  -6.618  1.00  0.00    -0.206 F 
ATOM     96  C   UNL     1       5.368  10.934  -8.465  1.00  0.00     0.060 A 
BRANCH  96  97
ATOM     97  S   UNL     1       6.440  12.344  -8.768  1.00  0.00     0.124 S 
ATOM     98  O   UNL     1       6.160  12.656 -10.166  1.00  0.00    -0.237 OA
ATOM     99  O   UNL     1       5.934  13.302  -7.791  1.00  0.00    -0.237 OA
ATOM    100  O   UNL     1       7.777  11.821  -8.503  1.00  0.00    -0.744 OA
ENDBRANCH  96  97
ENDBRANCH  64  89
ENDBRANCH  38  39
ENDBRANCH  30  33
ENDBRANCH  28  29
ENDBRANCH   1  28
TORSDOF 17
