REMARK SMILES Cc1cccc(C[S@@](=O)C[C@H](C)C(=O)NCCCNC(=O)c2ccc(-c3c4nc(c(-c5c(F)cc(S(=O)(=O)[O-])cc5F)c5ccc([nH]5)c(-c5c(F)cc(S(=O)(=O)[O-])cc5F)c5nc(c(-c6c(F)cc(S(=O)(=O)[O-])cc6F)c6ccc3[nH]6)C=C5)C=C4)cc2)n1
REMARK SMILES IDX 16 1 15 2 13 3 14 4 11 6 12 7 10 8 8 9 9 10 7 11 6 12 1 13
REMARK SMILES IDX 2 14 3 15 88 16 4 17 5 18 17 19 18 20 19 21 20 22 21 24
REMARK SMILES IDX 22 25 23 26 87 27 24 28 86 29 25 30 26 31 27 32 80 33 28 34
REMARK SMILES IDX 85 35 79 36 81 37 29 38 84 39 78 40 77 41 30 43 64 44 43 45
REMARK SMILES IDX 63 46 44 47 47 48 62 49 82 50 45 51 46 52 61 54 83 55 48 56
REMARK SMILES IDX 31 57 32 58 41 59 33 60 34 61 40 62 42 63 35 64 36 65 37 66
REMARK SMILES IDX 38 67 39 68 65 69 66 70 75 71 67 72 68 73 74 74 76 75 69 76
REMARK SMILES IDX 70 77 71 78 72 79 73 80 49 81 50 82 59 83 51 84 52 85 58 86
REMARK SMILES IDX 60 87 53 88 54 89 55 90 56 91 57 92
REMARK H PARENT 15 5 19 23 81 42 47 53
REMARK Flexibility Score: inf
ROOT
ATOM      1  C   UNL     1      -2.215  -0.414   3.778  1.00  0.00     0.117 C 
ENDROOT
BRANCH   1   2
ATOM      2  N   UNL     1      -3.203   0.356   4.485  1.00  0.00    -0.356 N 
ATOM      3  C   UNL     1      -3.754   1.528   4.066  1.00  0.00     0.223 C 
ATOM      4  O   UNL     1      -4.739   1.959   4.672  1.00  0.00    -0.275 OA
ATOM      5  H   UNL     1      -3.508   0.003   5.352  1.00  0.00     0.163 HD
BRANCH   3   6
ATOM      6  C   UNL     1      -3.135   2.337   2.916  1.00  0.00     0.088 C 
ATOM      7  C   UNL     1      -1.782   2.892   3.335  1.00  0.00     0.019 C 
BRANCH   6   8
ATOM      8  C   UNL     1      -3.389   1.780   1.502  1.00  0.00     0.118 C 
BRANCH   8   9
ATOM      9  S   UNL     1      -2.209   0.890   0.458  1.00  0.00     0.028 S 
ATOM     10  O   UNL     1      -1.782  -0.429   1.014  1.00  0.00    -0.259 OA
BRANCH   9  11
ATOM     11  C   UNL     1      -0.808   2.018   0.307  1.00  0.00     0.161 C 
BRANCH  11  12
ATOM     12  C   UNL     1      -1.164   3.130  -0.631  1.00  0.00     0.053 A 
ATOM     13  C   UNL     1      -2.353   3.128  -4.095  1.00  0.00     0.067 C 
ATOM     14  C   UNL     1      -1.966   3.657  -2.751  1.00  0.00     0.038 A 
ATOM     15  C   UNL     1      -2.127   4.988  -2.398  1.00  0.00     0.023 A 
ATOM     16  N   UNL     1      -1.490   2.741  -1.886  1.00  0.00    -0.257 NA
ATOM     17  C   UNL     1      -1.756   5.389  -1.117  1.00  0.00     0.004 A 
ATOM     18  C   UNL     1      -1.258   4.452  -0.218  1.00  0.00     0.025 A 
ENDBRANCH  11  12
ENDBRANCH   9  11
ENDBRANCH   8   9
ENDBRANCH   6   8
ENDBRANCH   3   6
ENDBRANCH   1   2
BRANCH   1  19
ATOM     19  C   UNL     1      -0.980  -0.796   4.554  1.00  0.00     0.042 C 
BRANCH  19  20
ATOM     20  C   UNL     1      -1.223  -1.823   5.634  1.00  0.00     0.118 C 
BRANCH  20  21
ATOM     21  N   UNL     1      -1.687  -3.103   5.117  1.00  0.00    -0.352 N 
ATOM     22  C   UNL     1      -1.096  -4.347   5.141  1.00  0.00     0.251 C 
ATOM     23  H   UNL     1      -2.567  -3.075   4.678  1.00  0.00     0.163 HD
ATOM     24  O   UNL     1      -1.607  -5.273   4.526  1.00  0.00    -0.269 OA
BRANCH  22  25
ATOM     25  C   UNL     1       0.169  -4.556   5.883  1.00  0.00     0.039 A 
ATOM     26  C   UNL     1       1.156  -5.371   5.323  1.00  0.00     0.014 A 
ATOM     27  C   UNL     1       0.390  -3.945   7.117  1.00  0.00     0.014 A 
ATOM     28  C   UNL     1       2.390  -5.502   5.965  1.00  0.00     0.010 A 
ATOM     29  C   UNL     1       1.656  -3.970   7.685  1.00  0.00     0.010 A 
ATOM     30  C   UNL     1       2.666  -4.765   7.128  1.00  0.00    -0.014 A 
BRANCH  30  31
ATOM     31  C   UNL     1       3.991  -4.822   7.796  1.00  0.00     0.031 A 
ATOM     32  C   UNL     1       4.091  -5.284   9.226  1.00  0.00     0.074 A 
ATOM     33  C   UNL     1       5.087  -4.381   7.148  1.00  0.00     0.049 A 
ATOM     34  N   UNL     1       5.135  -5.324  10.011  1.00  0.00    -0.248 NA
ATOM     35  C   UNL     1       2.841  -5.722   9.871  1.00  0.00     0.031 C 
ATOM     36  C   UNL     1       5.108  -3.846   5.784  1.00  0.00     0.029 A 
ATOM     37  N   UNL     1       6.395  -4.298   7.555  1.00  0.00    -0.354 N 
ATOM     38  C   UNL     1       4.665  -5.763  11.244  1.00  0.00     0.074 A 
ATOM     39  C   UNL     1       3.233  -5.913  11.121  1.00  0.00     0.031 C 
ATOM     40  C   UNL     1       6.368  -3.518   5.459  1.00  0.00     0.029 A 
ATOM     41  C   UNL     1       7.238  -3.776   6.602  1.00  0.00     0.049 A 
ATOM     42  H   UNL     1       6.701  -4.585   8.445  1.00  0.00     0.167 HD
ATOM     43  C   UNL     1       5.367  -6.043  12.368  1.00  0.00     0.037 A 
ATOM     44  C   UNL     1       8.561  -3.526   6.646  1.00  0.00     0.037 A 
ATOM     45  C   UNL     1       6.797  -5.922  12.469  1.00  0.00     0.049 A 
ATOM     46  C   UNL     1       9.326  -3.863   7.896  1.00  0.00     0.074 A 
ATOM     47  C   UNL     1       7.616  -6.254  13.533  1.00  0.00     0.029 A 
ATOM     48  N   UNL     1       7.621  -5.423  11.469  1.00  0.00    -0.354 N 
ATOM     49  N   UNL     1       8.879  -4.354   9.028  1.00  0.00    -0.248 NA
ATOM     50  C   UNL     1      10.774  -3.622   7.874  1.00  0.00     0.031 C 
ATOM     51  C   UNL     1       8.929  -5.907  13.197  1.00  0.00     0.029 A 
ATOM     52  C   UNL     1       8.937  -5.412  11.901  1.00  0.00     0.049 A 
ATOM     53  H   UNL     1       7.315  -5.121  10.583  1.00  0.00     0.167 HD
ATOM     54  C   UNL     1       9.993  -4.503   9.845  1.00  0.00     0.074 A 
ATOM     55  C   UNL     1      11.137  -4.060   9.072  1.00  0.00     0.031 C 
ATOM     56  C   UNL     1      10.064  -4.965  11.119  1.00  0.00     0.037 A 
BRANCH  43  57
ATOM     57  C   UNL     1       4.590  -6.503  13.574  1.00  0.00     0.058 A 
ATOM     58  C   UNL     1       3.929  -7.743  13.604  1.00  0.00     0.135 A 
ATOM     59  C   UNL     1       4.507  -5.693  14.718  1.00  0.00     0.135 A 
ATOM     60  F   UNL     1       3.962  -8.553  12.534  1.00  0.00    -0.206 F 
ATOM     61  C   UNL     1       3.174  -8.140  14.703  1.00  0.00     0.059 A 
ATOM     62  C   UNL     1       3.785  -6.086  15.842  1.00  0.00     0.059 A 
ATOM     63  F   UNL     1       5.120  -4.500  14.748  1.00  0.00    -0.206 F 
ATOM     64  C   UNL     1       3.104  -7.301  15.816  1.00  0.00     0.060 A 
BRANCH  64  65
ATOM     65  S   UNL     1       2.102  -7.821  17.225  1.00  0.00     0.124 S 
ATOM     66  O   UNL     1       0.751  -7.628  16.707  1.00  0.00    -0.237 OA
ATOM     67  O   UNL     1       2.518  -9.208  17.409  1.00  0.00    -0.237 OA
ATOM     68  O   UNL     1       2.505  -6.903  18.285  1.00  0.00    -0.744 OA
ENDBRANCH  64  65
ENDBRANCH  43  57
BRANCH  44  69
ATOM     69  C   UNL     1       9.239  -2.952   5.453  1.00  0.00     0.058 A 
ATOM     70  C   UNL     1      10.097  -3.732   4.665  1.00  0.00     0.135 A 
ATOM     71  C   UNL     1       9.001  -1.629   5.047  1.00  0.00     0.135 A 
ATOM     72  F   UNL     1      10.361  -5.000   5.015  1.00  0.00    -0.206 F 
ATOM     73  C   UNL     1      10.697  -3.223   3.517  1.00  0.00     0.059 A 
ATOM     74  C   UNL     1       9.570  -1.105   3.891  1.00  0.00     0.059 A 
ATOM     75  F   UNL     1       8.175  -0.846   5.758  1.00  0.00    -0.206 F 
ATOM     76  C   UNL     1      10.420  -1.910   3.133  1.00  0.00     0.060 A 
BRANCH  76  77
ATOM     77  S   UNL     1      11.142  -1.286   1.600  1.00  0.00     0.124 S 
ATOM     78  O   UNL     1      12.543  -1.135   1.974  1.00  0.00    -0.237 OA
ATOM     79  O   UNL     1      10.843  -2.362   0.661  1.00  0.00    -0.237 OA
ATOM     80  O   UNL     1      10.414  -0.042   1.368  1.00  0.00    -0.744 OA
ENDBRANCH  76  77
ENDBRANCH  44  69
BRANCH  56  81
ATOM     81  C   UNL     1      11.425  -5.043  11.753  1.00  0.00     0.058 A 
ATOM     82  C   UNL     1      12.121  -3.892  12.154  1.00  0.00     0.135 A 
ATOM     83  C   UNL     1      12.015  -6.291  12.016  1.00  0.00     0.135 A 
ATOM     84  F   UNL     1      11.606  -2.675  11.921  1.00  0.00    -0.206 F 
ATOM     85  C   UNL     1      13.365  -3.974  12.773  1.00  0.00     0.059 A 
ATOM     86  C   UNL     1      13.243  -6.398  12.661  1.00  0.00     0.059 A 
ATOM     87  F   UNL     1      11.386  -7.424  11.664  1.00  0.00    -0.206 F 
ATOM     88  C   UNL     1      13.916  -5.233  13.025  1.00  0.00     0.060 A 
BRANCH  88  89
ATOM     89  S   UNL     1      15.513  -5.325  13.860  1.00  0.00     0.124 S 
ATOM     90  O   UNL     1      16.422  -4.892  12.805  1.00  0.00    -0.237 OA
ATOM     91  O   UNL     1      15.339  -4.393  14.970  1.00  0.00    -0.237 OA
ATOM     92  O   UNL     1      15.617  -6.731  14.241  1.00  0.00    -0.744 OA
ENDBRANCH  88  89
ENDBRANCH  56  81
ENDBRANCH  30  31
ENDBRANCH  22  25
ENDBRANCH  20  21
ENDBRANCH  19  20
ENDBRANCH   1  19
TORSDOF 17
