REMARK SMILES CC(C)CCn1nc(C(=O)NCCCNC(=O)c2ccc(-c3c4nc(c(-c5c(F)cc(S(=O)(=O)[O-])cc5F)c5ccc([nH]5)c(-c5c(F)cc(S(=O)(=O)[O-])cc5F)c5nc(c(-c6c(F)cc(S(=O)(=O)[O-])cc6F)c6ccc3[nH]6)C=C5)C=C4)cc2)c2c1CCN(C(=O)[C@@H]1CCc3nn(C)c(=O)n3C1)C2
REMARK SMILES IDX 13 1 12 2 11 3 9 4 10 5 8 7 6 8 7 9 85 10 84 11 86 12 102 13
REMARK SMILES IDX 87 14 88 15 5 16 4 17 2 18 1 19 3 20 89 21 90 22 91 23 92 24
REMARK SMILES IDX 101 25 93 26 100 27 94 28 98 29 95 30 96 31 99 32 97 33
REMARK SMILES IDX 14 34 15 35 16 36 17 38 18 39 19 40 83 41 20 42 82 43 21 44
REMARK SMILES IDX 22 45 23 46 76 47 24 48 81 49 75 50 77 51 25 52 80 53 74 54
REMARK SMILES IDX 73 55 26 57 60 58 39 59 59 60 40 61 43 62 58 63 78 64 41 65
REMARK SMILES IDX 42 66 57 68 79 69 44 70 27 71 28 72 37 73 29 74 30 75 36 76
REMARK SMILES IDX 38 77 31 78 32 79 33 80 34 81 35 82 61 83 62 84 71 85 63 86
REMARK SMILES IDX 64 87 70 88 72 89 65 90 66 91 67 92 68 93 69 94 45 95 46 96
REMARK SMILES IDX 55 97 47 98 48 99 54 100 56 101 49 102 50 103 51 104 52 105
REMARK SMILES IDX 53 106
REMARK H PARENT 11 6 15 37 77 56 43 67
REMARK Flexibility Score: inf
ROOT
ATOM      1  C   UNL     1       0.216   0.987  -8.533  1.00  0.00     0.042 C 
ENDROOT
BRANCH   1   2
ATOM      2  C   UNL     1       0.860   2.069  -7.640  1.00  0.00     0.118 C 
BRANCH   2   3
ATOM      3  N   UNL     1      -0.098   2.896  -6.856  1.00  0.00    -0.351 N 
ATOM      4  C   UNL     1      -0.673   2.946  -5.576  1.00  0.00     0.272 C 
ATOM      5  O   UNL     1      -1.059   4.082  -5.272  1.00  0.00    -0.267 OA
ATOM      6  H   UNL     1      -0.431   3.641  -7.406  1.00  0.00     0.163 HD
BRANCH   4   7
ATOM      7  C   UNL     1      -0.829   1.808  -4.593  1.00  0.00     0.155 A 
ATOM      8  N   UNL     1      -0.936   0.797  -2.652  1.00  0.00    -0.268 N 
ATOM      9  N   UNL     1      -0.959   2.025  -3.250  1.00  0.00    -0.167 NA
ATOM     10  C   UNL     1      -0.572  -0.180  -3.522  1.00  0.00     0.046 A 
ATOM     11  C   UNL     1      -0.884   0.400  -4.814  1.00  0.00     0.026 A 
ATOM     12  C   UNL     1       0.078  -1.738  -3.151  1.00  0.00     0.078 C 
ATOM     13  C   UNL     1      -0.858  -0.291  -6.269  1.00  0.00     0.159 C 
ATOM     14  C   UNL     1       0.595  -2.794  -4.653  1.00  0.00     0.126 C 
ATOM     15  N   UNL     1      -0.149  -1.913  -6.496  1.00  0.00    -0.338 N 
BRANCH   8  16
ATOM     16  C   UNL     1      -1.427   0.639  -1.291  1.00  0.00     0.145 C 
BRANCH  16  17
ATOM     17  C   UNL     1      -0.996  -0.618  -0.505  1.00  0.00     0.027 C 
BRANCH  17  18
ATOM     18  C   UNL     1       0.528  -0.782  -0.328  1.00  0.00    -0.016 C 
ATOM     19  C   UNL     1       1.128   0.198   0.657  1.00  0.00     0.007 C 
ATOM     20  C   UNL     1       0.903  -2.233   0.016  1.00  0.00     0.007 C 
ENDBRANCH  17  18
ENDBRANCH  16  17
ENDBRANCH   8  16
BRANCH  15  21
ATOM     21  C   UNL     1      -0.706  -2.376  -7.858  1.00  0.00     0.227 C 
ATOM     22  O   UNL     1      -1.174  -1.595  -8.687  1.00  0.00    -0.274 OA
BRANCH  21  23
ATOM     23  C   UNL     1      -0.857  -3.927  -8.095  1.00  0.00     0.099 C 
ATOM     24  C   UNL     1      -2.019  -4.591  -7.299  1.00  0.00     0.023 C 
ATOM     25  C   UNL     1       0.413  -4.478  -7.550  1.00  0.00     0.142 C 
ATOM     26  C   UNL     1      -2.359  -3.779  -6.087  1.00  0.00     0.078 C 
ATOM     27  N   UNL     1       0.459  -3.767  -6.324  1.00  0.00    -0.278 N 
ATOM     28  C   UNL     1      -1.077  -3.270  -5.552  1.00  0.00     0.133 A 
ATOM     29  C   UNL     1       1.744  -2.497  -6.363  1.00  0.00     0.345 A 
ATOM     30  N   UNL     1      -0.905  -1.893  -4.899  1.00  0.00    -0.155 NA
ATOM     31  N   UNL     1       0.950  -1.206  -5.304  1.00  0.00    -0.216 N 
ATOM     32  O   UNL     1       2.851  -2.504  -6.868  1.00  0.00    -0.246 OA
ATOM     33  C   UNL     1       1.889  -0.179  -4.801  1.00  0.00     0.179 C 
ENDBRANCH  21  23
ENDBRANCH  15  21
ENDBRANCH   4   7
ENDBRANCH   2   3
ENDBRANCH   1   2
BRANCH   1  34
ATOM     34  C   UNL     1       0.347   1.060 -10.008  1.00  0.00     0.118 C 
BRANCH  34  35
ATOM     35  N   UNL     1       1.566   0.445 -10.555  1.00  0.00    -0.352 N 
ATOM     36  C   UNL     1       1.783   0.190 -11.913  1.00  0.00     0.251 C 
ATOM     37  H   UNL     1       2.278   0.197  -9.922  1.00  0.00     0.163 HD
ATOM     38  O   UNL     1       2.577  -0.657 -12.297  1.00  0.00    -0.269 OA
BRANCH  36  39
ATOM     39  C   UNL     1       1.026   1.045 -12.853  1.00  0.00     0.039 A 
ATOM     40  C   UNL     1       0.620   0.824 -14.161  1.00  0.00     0.014 A 
ATOM     41  C   UNL     1       0.754   2.298 -12.376  1.00  0.00     0.014 A 
ATOM     42  C   UNL     1      -0.072   1.895 -14.789  1.00  0.00     0.010 A 
ATOM     43  C   UNL     1      -0.469   2.776 -12.665  1.00  0.00     0.010 A 
ATOM     44  C   UNL     1      -0.498   2.998 -13.997  1.00  0.00    -0.014 A 
BRANCH  44  45
ATOM     45  C   UNL     1      -1.453   4.062 -14.312  1.00  0.00     0.031 A 
ATOM     46  C   UNL     1      -2.683   3.382 -14.824  1.00  0.00     0.074 A 
ATOM     47  C   UNL     1      -1.306   5.383 -13.959  1.00  0.00     0.049 A 
ATOM     48  N   UNL     1      -2.834   2.993 -16.051  1.00  0.00    -0.248 NA
ATOM     49  C   UNL     1      -3.614   2.662 -13.915  1.00  0.00     0.031 C 
ATOM     50  C   UNL     1      -0.246   6.060 -13.176  1.00  0.00     0.029 A 
ATOM     51  N   UNL     1      -2.103   6.470 -14.284  1.00  0.00    -0.354 N 
ATOM     52  C   UNL     1      -4.113   2.456 -16.098  1.00  0.00     0.074 A 
ATOM     53  C   UNL     1      -4.353   1.956 -14.782  1.00  0.00     0.031 C 
ATOM     54  C   UNL     1      -0.589   7.350 -12.891  1.00  0.00     0.029 A 
ATOM     55  C   UNL     1      -1.822   7.686 -13.582  1.00  0.00     0.049 A 
ATOM     56  H   UNL     1      -2.820   6.410 -14.956  1.00  0.00     0.167 HD
ATOM     57  C   UNL     1      -4.975   2.933 -17.042  1.00  0.00     0.037 A 
ATOM     58  C   UNL     1      -2.449   8.909 -13.741  1.00  0.00     0.037 A 
ATOM     59  C   UNL     1      -4.216   3.716 -17.999  1.00  0.00     0.049 A 
ATOM     60  C   UNL     1      -3.124   8.812 -15.059  1.00  0.00     0.074 A 
ATOM     61  C   UNL     1      -3.260   3.451 -18.959  1.00  0.00     0.029 A 
ATOM     62  N   UNL     1      -3.992   4.995 -17.550  1.00  0.00    -0.354 N 
ATOM     63  N   UNL     1      -2.464   8.706 -16.182  1.00  0.00    -0.248 NA
ATOM     64  C   UNL     1      -4.471   8.266 -15.051  1.00  0.00     0.031 C 
ATOM     65  C   UNL     1      -2.371   4.571 -18.953  1.00  0.00     0.029 A 
ATOM     66  C   UNL     1      -2.895   5.562 -18.127  1.00  0.00     0.049 A 
ATOM     67  H   UNL     1      -4.559   5.450 -16.887  1.00  0.00     0.167 HD
ATOM     68  C   UNL     1      -3.119   7.692 -16.862  1.00  0.00     0.074 A 
ATOM     69  C   UNL     1      -4.398   7.522 -16.157  1.00  0.00     0.031 C 
ATOM     70  C   UNL     1      -2.422   6.857 -17.694  1.00  0.00     0.037 A 
BRANCH  57  71
ATOM     71  C   UNL     1      -6.454   3.208 -16.826  1.00  0.00     0.058 A 
ATOM     72  C   UNL     1      -7.220   3.641 -17.930  1.00  0.00     0.135 A 
ATOM     73  C   UNL     1      -7.101   3.315 -15.573  1.00  0.00     0.135 A 
ATOM     74  F   UNL     1      -6.709   3.602 -19.171  1.00  0.00    -0.206 F 
ATOM     75  C   UNL     1      -8.508   4.163 -17.797  1.00  0.00     0.059 A 
ATOM     76  C   UNL     1      -8.399   3.797 -15.422  1.00  0.00     0.059 A 
ATOM     77  F   UNL     1      -6.492   3.025 -14.418  1.00  0.00    -0.206 F 
ATOM     78  C   UNL     1      -9.093   4.231 -16.538  1.00  0.00     0.060 A 
BRANCH  78  79
ATOM     79  S   UNL     1     -10.772   4.864 -16.382  1.00  0.00     0.124 S 
ATOM     80  O   UNL     1     -10.608   6.253 -16.792  1.00  0.00    -0.237 OA
ATOM     81  O   UNL     1     -11.498   4.003 -17.311  1.00  0.00    -0.237 OA
ATOM     82  O   UNL     1     -11.083   4.652 -14.971  1.00  0.00    -0.744 OA
ENDBRANCH  78  79
ENDBRANCH  57  71
BRANCH  58  83
ATOM     83  C   UNL     1      -2.949   9.936 -12.737  1.00  0.00     0.058 A 
ATOM     84  C   UNL     1      -3.449  11.226 -13.079  1.00  0.00     0.135 A 
ATOM     85  C   UNL     1      -3.269   9.516 -11.438  1.00  0.00     0.135 A 
ATOM     86  F   UNL     1      -3.240  11.727 -14.308  1.00  0.00    -0.206 F 
ATOM     87  C   UNL     1      -4.231  12.017 -12.197  1.00  0.00     0.059 A 
ATOM     88  C   UNL     1      -4.052  10.274 -10.553  1.00  0.00     0.059 A 
ATOM     89  F   UNL     1      -2.905   8.294 -11.024  1.00  0.00    -0.206 F 
ATOM     90  C   UNL     1      -4.546  11.518 -10.935  1.00  0.00     0.060 A 
BRANCH  90  91
ATOM     91  S   UNL     1      -5.672  12.421  -9.820  1.00  0.00     0.124 S 
ATOM     92  O   UNL     1      -4.887  13.602  -9.475  1.00  0.00    -0.237 OA
ATOM     93  O   UNL     1      -6.836  12.660 -10.666  1.00  0.00    -0.237 OA
ATOM     94  O   UNL     1      -5.886  11.480  -8.723  1.00  0.00    -0.744 OA
ENDBRANCH  90  91
ENDBRANCH  58  83
BRANCH  70  95
ATOM     95  C   UNL     1      -1.077   7.298 -18.207  1.00  0.00     0.058 A 
ATOM     96  C   UNL     1       0.135   7.348 -17.492  1.00  0.00     0.135 A 
ATOM     97  C   UNL     1      -1.019   7.554 -19.582  1.00  0.00     0.135 A 
ATOM     98  F   UNL     1       0.181   7.037 -16.188  1.00  0.00    -0.206 F 
ATOM     99  C   UNL     1       1.345   7.670 -18.125  1.00  0.00     0.059 A 
ATOM    100  C   UNL     1       0.168   7.843 -20.234  1.00  0.00     0.059 A 
ATOM    101  F   UNL     1      -2.134   7.462 -20.326  1.00  0.00    -0.206 F 
ATOM    102  C   UNL     1       1.347   7.919 -19.501  1.00  0.00     0.060 A 
BRANCH 102 103
ATOM    103  S   UNL     1       2.889   8.318 -20.353  1.00  0.00     0.124 S 
ATOM    104  O   UNL     1       3.233   9.613 -19.776  1.00  0.00    -0.237 OA
ATOM    105  O   UNL     1       3.755   7.205 -19.979  1.00  0.00    -0.237 OA
ATOM    106  O   UNL     1       2.502   8.349 -21.762  1.00  0.00    -0.744 OA
ENDBRANCH 102 103
ENDBRANCH  70  95
ENDBRANCH  44  45
ENDBRANCH  36  39
ENDBRANCH  34  35
ENDBRANCH   1  34
TORSDOF 18
