REMARK SMILES Cc1cc(C(=O)NCCCNC(=O)c2ccc(-c3c4nc(c(-c5c(F)cc(S(=O)(=O)[O-])cc5F)c5ccc([nH]5)c(-c5c(F)cc(S(=O)(=O)[O-])cc5F)c5nc(c(-c6c(F)cc(S(=O)(=O)[O-])cc6F)c6ccc3[nH]6)C=C5)C=C4)cc2)ccc1NC(=O)c1ccc(=O)n(CCOc2ccccc2)n1
REMARK SMILES IDX 5 1 6 2 7 3 4 5 1 6 2 7 3 8 82 9 81 10 80 11 83 12 84 13
REMARK SMILES IDX 85 15 86 16 87 17 101 18 88 19 91 20 89 21 90 22 92 23 93 24
REMARK SMILES IDX 94 25 95 26 96 27 100 28 97 29 99 30 98 31 8 32 9 33 10 34
REMARK SMILES IDX 11 35 12 36 13 38 14 39 15 40 79 41 16 42 78 43 17 44 18 45
REMARK SMILES IDX 19 46 72 47 20 48 77 49 71 50 73 51 21 52 76 53 70 54 69 55
REMARK SMILES IDX 22 57 56 58 35 59 55 60 36 61 39 62 54 63 74 64 37 65 38 66
REMARK SMILES IDX 53 68 75 69 40 70 23 71 24 72 33 73 25 74 26 75 32 76 34 77
REMARK SMILES IDX 27 78 28 79 29 80 30 81 31 82 57 83 58 84 67 85 59 86 60 87
REMARK SMILES IDX 66 88 68 89 61 90 62 91 63 92 64 93 65 94 41 95 42 96 51 97
REMARK SMILES IDX 43 98 44 99 50 100 52 101 45 102 46 103 47 104 48 105 49 106
REMARK H PARENT 7 4 83 14 11 37 73 56 39 67
REMARK Flexibility Score: inf
ROOT
ATOM      1  C   UNL     1      -1.608  -2.292   0.152  1.00  0.00     0.251 C 
ATOM      2  O   UNL     1      -1.171  -3.441   0.140  1.00  0.00    -0.269 OA
ATOM      3  N   UNL     1      -2.938  -1.998   0.435  1.00  0.00    -0.352 N 
ATOM      4  H   UNL     1      -3.540  -2.769   0.326  1.00  0.00     0.163 HD
ENDROOT
BRANCH   1   5
ATOM      5  C   UNL     1      -0.658  -1.194  -0.137  1.00  0.00     0.040 A 
ATOM      6  C   UNL     1       2.960  -0.143   0.411  1.00  0.00     0.046 C 
ATOM      7  C   UNL     1       1.478  -0.040   0.172  1.00  0.00    -0.027 A 
ATOM      8  C   UNL     1       0.689  -1.213   0.260  1.00  0.00     0.019 A 
ATOM      9  C   UNL     1       0.846   1.147  -0.225  1.00  0.00     0.044 A 
ATOM     10  C   UNL     1      -0.338   1.023  -0.942  1.00  0.00     0.027 A 
ATOM     11  C   UNL     1      -1.097  -0.135  -0.904  1.00  0.00     0.016 A 
BRANCH   9  12
ATOM     12  N   UNL     1       1.372   2.406   0.154  1.00  0.00    -0.320 N 
ATOM     13  C   UNL     1       0.718   3.608   0.403  1.00  0.00     0.276 C 
ATOM     14  H   UNL     1       2.350   2.436   0.258  1.00  0.00     0.170 HD
ATOM     15  O   UNL     1       1.324   4.612   0.763  1.00  0.00    -0.267 OA
BRANCH  13  16
ATOM     16  C   UNL     1      -0.778   3.715   0.198  1.00  0.00     0.149 A 
ATOM     17  C   UNL     1      -1.153   4.199  -1.145  1.00  0.00     0.042 A 
ATOM     18  N   UNL     1      -1.619   3.359   1.129  1.00  0.00    -0.164 NA
ATOM     19  C   UNL     1      -2.320   3.741  -1.581  1.00  0.00     0.076 A 
ATOM     20  N   UNL     1      -2.939   3.182   0.693  1.00  0.00    -0.226 N 
ATOM     21  C   UNL     1      -3.180   2.949  -0.672  1.00  0.00     0.266 A 
ATOM     22  O   UNL     1      -4.041   2.276  -1.179  1.00  0.00    -0.268 OA
BRANCH  20  23
ATOM     23  C   UNL     1      -3.963   2.887   1.718  1.00  0.00     0.190 C 
BRANCH  23  24
ATOM     24  C   UNL     1      -4.656   4.108   2.353  1.00  0.00     0.253 C 
BRANCH  24  25
ATOM     25  O   UNL     1      -5.937   4.453   1.761  1.00  0.00    -0.492 OA
BRANCH  25  26
ATOM     26  C   UNL     1      -5.828   5.351   0.740  1.00  0.00     0.119 A 
ATOM     27  C   UNL     1      -6.223   6.670   0.897  1.00  0.00     0.046 A 
ATOM     28  C   UNL     1      -5.442   4.923  -0.517  1.00  0.00     0.046 A 
ATOM     29  C   UNL     1      -6.042   7.575  -0.158  1.00  0.00     0.004 A 
ATOM     30  C   UNL     1      -5.155   5.824  -1.538  1.00  0.00     0.004 A 
ATOM     31  C   UNL     1      -5.440   7.166  -1.350  1.00  0.00     0.000 A 
ENDBRANCH  25  26
ENDBRANCH  24  25
ENDBRANCH  23  24
ENDBRANCH  20  23
ENDBRANCH  13  16
ENDBRANCH   9  12
ENDBRANCH   1   5
BRANCH   3  32
ATOM     32  C   UNL     1      -3.639  -0.757   0.869  1.00  0.00     0.118 C 
BRANCH  32  33
ATOM     33  C   UNL     1      -4.917  -0.188   0.038  1.00  0.00     0.042 C 
BRANCH  33  34
ATOM     34  C   UNL     1      -6.340  -0.696   0.510  1.00  0.00     0.118 C 
BRANCH  34  35
ATOM     35  N   UNL     1      -7.841  -0.398  -0.012  1.00  0.00    -0.352 N 
ATOM     36  C   UNL     1      -9.154  -1.055  -0.297  1.00  0.00     0.251 C 
ATOM     37  H   UNL     1      -7.919   0.562  -0.216  1.00  0.00     0.163 HD
ATOM     38  O   UNL     1     -10.072  -0.559   0.388  1.00  0.00    -0.269 OA
BRANCH  36  39
ATOM     39  C   UNL     1      -9.721  -2.223  -1.296  1.00  0.00     0.039 A 
ATOM     40  C   UNL     1     -10.673  -3.216  -0.865  1.00  0.00     0.014 A 
ATOM     41  C   UNL     1      -9.296  -2.488  -2.590  1.00  0.00     0.014 A 
ATOM     42  C   UNL     1     -10.609  -4.596  -1.367  1.00  0.00     0.010 A 
ATOM     43  C   UNL     1      -9.199  -3.839  -3.063  1.00  0.00     0.010 A 
ATOM     44  C   UNL     1      -9.606  -4.937  -2.293  1.00  0.00    -0.014 A 
BRANCH  44  45
ATOM     45  C   UNL     1      -8.729  -6.223  -2.260  1.00  0.00     0.031 A 
ATOM     46  C   UNL     1      -8.916  -7.198  -3.323  1.00  0.00     0.074 A 
ATOM     47  C   UNL     1      -7.642  -6.584  -1.491  1.00  0.00     0.049 A 
ATOM     48  N   UNL     1      -9.227  -8.442  -3.169  1.00  0.00    -0.248 NA
ATOM     49  C   UNL     1      -8.723  -6.777  -4.698  1.00  0.00     0.031 C 
ATOM     50  C   UNL     1      -6.710  -7.734  -1.488  1.00  0.00     0.029 A 
ATOM     51  N   UNL     1      -7.049  -5.895  -0.453  1.00  0.00    -0.354 N 
ATOM     52  C   UNL     1      -8.941  -9.019  -4.390  1.00  0.00     0.074 A 
ATOM     53  C   UNL     1      -8.956  -7.922  -5.334  1.00  0.00     0.031 C 
ATOM     54  C   UNL     1      -6.072  -7.806  -0.288  1.00  0.00     0.029 A 
ATOM     55  C   UNL     1      -6.579  -6.736   0.547  1.00  0.00     0.049 A 
ATOM     56  H   UNL     1      -6.969  -4.914  -0.424  1.00  0.00     0.167 HD
ATOM     57  C   UNL     1      -8.335 -10.245  -4.480  1.00  0.00     0.037 A 
ATOM     58  C   UNL     1      -7.261  -6.771   1.743  1.00  0.00     0.037 A 
ATOM     59  C   UNL     1      -7.864 -10.716  -3.159  1.00  0.00     0.049 A 
ATOM     60  C   UNL     1      -8.062  -8.048   1.830  1.00  0.00     0.074 A 
ATOM     61  C   UNL     1      -6.615 -10.948  -2.595  1.00  0.00     0.029 A 
ATOM     62  N   UNL     1      -8.739 -10.728  -2.085  1.00  0.00    -0.354 N 
ATOM     63  N   UNL     1      -7.911  -9.020   0.980  1.00  0.00    -0.248 NA
ATOM     64  C   UNL     1      -9.125  -8.328   2.793  1.00  0.00     0.031 C 
ATOM     65  C   UNL     1      -6.768 -11.102  -1.180  1.00  0.00     0.029 A 
ATOM     66  C   UNL     1      -8.113 -10.994  -0.882  1.00  0.00     0.049 A 
ATOM     67  H   UNL     1      -9.707 -10.563  -2.170  1.00  0.00     0.167 HD
ATOM     68  C   UNL     1      -8.854  -9.976   1.169  1.00  0.00     0.074 A 
ATOM     69  C   UNL     1      -9.585  -9.511   2.339  1.00  0.00     0.031 C 
ATOM     70  C   UNL     1      -8.937 -11.046   0.324  1.00  0.00     0.037 A 
BRANCH  57  71
ATOM     71  C   UNL     1      -7.899 -10.866  -5.807  1.00  0.00     0.058 A 
ATOM     72  C   UNL     1      -7.013 -11.962  -5.856  1.00  0.00     0.135 A 
ATOM     73  C   UNL     1      -8.381 -10.469  -7.078  1.00  0.00     0.135 A 
ATOM     74  F   UNL     1      -6.575 -12.559  -4.740  1.00  0.00    -0.206 F 
ATOM     75  C   UNL     1      -6.576 -12.543  -7.054  1.00  0.00     0.059 A 
ATOM     76  C   UNL     1      -7.897 -10.972  -8.288  1.00  0.00     0.059 A 
ATOM     77  F   UNL     1      -9.433  -9.652  -7.212  1.00  0.00    -0.206 F 
ATOM     78  C   UNL     1      -7.003 -12.025  -8.269  1.00  0.00     0.060 A 
BRANCH  78  79
ATOM     79  S   UNL     1      -6.486 -12.812  -9.804  1.00  0.00     0.124 S 
ATOM     80  O   UNL     1      -5.032 -12.723  -9.725  1.00  0.00    -0.237 OA
ATOM     81  O   UNL     1      -7.050 -14.151  -9.664  1.00  0.00    -0.237 OA
ATOM     82  O   UNL     1      -7.102 -11.985 -10.839  1.00  0.00    -0.744 OA
ENDBRANCH  78  79
ENDBRANCH  57  71
BRANCH  58  83
ATOM     83  C   UNL     1      -7.755  -5.399   2.282  1.00  0.00     0.058 A 
ATOM     84  C   UNL     1      -6.723  -4.481   2.543  1.00  0.00     0.135 A 
ATOM     85  C   UNL     1      -8.747  -4.863   1.490  1.00  0.00     0.135 A 
ATOM     86  F   UNL     1      -6.069  -4.534   3.709  1.00  0.00    -0.206 F 
ATOM     87  C   UNL     1      -6.298  -3.554   1.583  1.00  0.00     0.059 A 
ATOM     88  C   UNL     1      -8.300  -3.991   0.492  1.00  0.00     0.059 A 
ATOM     89  F   UNL     1      -9.889  -5.544   1.298  1.00  0.00    -0.206 F 
ATOM     90  C   UNL     1      -7.040  -3.457   0.415  1.00  0.00     0.060 A 
BRANCH  90  91
ATOM     91  S   UNL     1      -6.204  -3.054  -1.447  1.00  0.00     0.124 S 
ATOM     92  O   UNL     1      -4.806  -2.958  -1.074  1.00  0.00    -0.237 OA
ATOM     93  O   UNL     1      -6.483  -4.219  -2.271  1.00  0.00    -0.237 OA
ATOM     94  O   UNL     1      -6.794  -1.823  -1.939  1.00  0.00    -0.744 OA
ENDBRANCH  90  91
ENDBRANCH  58  83
BRANCH  70  95
ATOM     95  C   UNL     1      -9.848 -12.222   0.534  1.00  0.00     0.058 A 
ATOM     96  C   UNL     1     -10.202 -12.693   1.807  1.00  0.00     0.135 A 
ATOM     97  C   UNL     1     -10.309 -13.004  -0.553  1.00  0.00     0.135 A 
ATOM     98  F   UNL     1      -9.680 -12.154   2.920  1.00  0.00    -0.206 F 
ATOM     99  C   UNL     1     -11.070 -13.767   1.984  1.00  0.00     0.059 A 
ATOM    100  C   UNL     1     -11.136 -14.103  -0.400  1.00  0.00     0.059 A 
ATOM    101  F   UNL     1      -9.981 -12.744  -1.824  1.00  0.00    -0.206 F 
ATOM    102  C   UNL     1     -11.547 -14.453   0.871  1.00  0.00     0.060 A 
BRANCH 102 103
ATOM    103  S   UNL     1     -12.677 -15.827   1.095  1.00  0.00     0.124 S 
ATOM    104  O   UNL     1     -12.042 -16.578   2.174  1.00  0.00    -0.237 OA
ATOM    105  O   UNL     1     -13.911 -15.132   1.447  1.00  0.00    -0.237 OA
ATOM    106  O   UNL     1     -12.678 -16.489  -0.206  1.00  0.00    -0.744 OA
ENDBRANCH 102 103
ENDBRANCH  70  95
ENDBRANCH  44  45
ENDBRANCH  36  39
ENDBRANCH  34  35
ENDBRANCH  33  34
ENDBRANCH  32  33
ENDBRANCH   3  32
TORSDOF 19
