REMARK SMILES Cc1cc(OC(F)(F)F)cc2c1O[C@@H](C(F)(F)F)C(C(=O)NCCCNC(=O)c1ccc(-c3c4nc(c(-c5c(F)cc(S(=O)(=O)[O-])cc5F)c5ccc([nH]5)c(-c5c(F)cc(S(=O)(=O)[O-])cc5F)c5nc(c(-c6c(F)cc(S(=O)(=O)[O-])cc6F)c6ccc3[nH]6)C=C5)C=C4)cc1)=C2
REMARK SMILES IDX 24 1 23 2 22 3 20 4 21 5 19 7 1 8 2 9 3 10 12 11 4 12 11 13
REMARK SMILES IDX 13 14 10 15 95 16 14 17 5 18 6 19 7 20 8 21 9 22 15 23 16 24
REMARK SMILES IDX 17 25 18 26 25 27 26 28 27 29 28 31 29 32 30 33 94 34 31 35
REMARK SMILES IDX 93 36 32 37 33 38 34 39 87 40 35 41 92 42 86 43 88 44 36 45
REMARK SMILES IDX 91 46 85 47 84 48 37 50 71 51 50 52 70 53 51 54 54 55 69 56
REMARK SMILES IDX 89 57 52 58 53 59 68 61 90 62 55 63 38 64 39 65 48 66 40 67
REMARK SMILES IDX 41 68 47 69 49 70 42 71 43 72 44 73 45 74 46 75 72 76 73 77
REMARK SMILES IDX 82 78 74 79 75 80 81 81 83 82 76 83 77 84 78 85 79 86 80 87
REMARK SMILES IDX 56 88 57 89 66 90 58 91 59 92 65 93 67 94 60 95 61 96 62 97
REMARK SMILES IDX 63 98 64 99
REMARK H PARENT 22 6 26 30 88 49 54 60
REMARK Flexibility Score: inf
ROOT
ATOM      1  C   UNL     1      -3.165  -1.778   6.038  1.00  0.00     0.042 C 
ENDROOT
BRANCH   1   2
ATOM      2  C   UNL     1      -3.888  -0.826   5.091  1.00  0.00     0.118 C 
BRANCH   2   3
ATOM      3  N   UNL     1      -3.619   0.565   5.421  1.00  0.00    -0.352 N 
ATOM      4  C   UNL     1      -2.868   1.573   4.923  1.00  0.00     0.251 C 
ATOM      5  O   UNL     1      -3.002   2.657   5.501  1.00  0.00    -0.270 OA
ATOM      6  H   UNL     1      -4.117   0.848   6.222  1.00  0.00     0.163 HD
BRANCH   4   7
ATOM      7  C   UNL     1      -1.932   1.467   3.766  1.00  0.00     0.067 C 
ATOM      8  C   UNL     1       1.116   0.130  -0.172  1.00  0.00     0.048 C 
ATOM      9  C   UNL     1       0.727   1.411   0.512  1.00  0.00    -0.005 A 
ATOM     10  C   UNL     1       1.298   2.619   0.076  1.00  0.00     0.054 A 
ATOM     11  C   UNL     1      -0.209   1.438   1.552  1.00  0.00     0.131 A 
ATOM     12  C   UNL     1       0.953   3.831   0.677  1.00  0.00     0.130 A 
ATOM     13  C   UNL     1      -0.553   2.642   2.169  1.00  0.00     0.021 A 
ATOM     14  O   UNL     1      -0.806   0.259   1.900  1.00  0.00    -0.475 OA
ATOM     15  C   UNL     1       0.033   3.833   1.730  1.00  0.00     0.058 A 
ATOM     16  C   UNL     1      -1.536   2.643   3.245  1.00  0.00     0.025 C 
ATOM     17  C   UNL     1      -1.357   0.180   3.243  1.00  0.00     0.314 C 
BRANCH  12  18
ATOM     18  O   UNL     1       1.430   5.066   0.340  1.00  0.00    -0.406 OA
BRANCH  18  19
ATOM     19  C   UNL     1       2.275   5.159  -0.793  1.00  0.00     0.573 C 
ATOM     20  F   UNL     1       3.429   4.486  -0.601  1.00  0.00    -0.132 F 
ATOM     21  F   UNL     1       1.659   4.695  -1.902  1.00  0.00    -0.132 F 
ATOM     22  F   UNL     1       2.578   6.460  -1.001  1.00  0.00    -0.132 F 
ENDBRANCH  18  19
ENDBRANCH  12  18
BRANCH  17  23
ATOM     23  C   UNL     1      -0.345  -0.487   4.189  1.00  0.00     0.429 C 
ATOM     24  F   UNL     1      -0.469  -0.059   5.466  1.00  0.00    -0.167 F 
ATOM     25  F   UNL     1      -0.541  -1.830   4.204  1.00  0.00    -0.167 F 
ATOM     26  F   UNL     1       0.937  -0.269   3.821  1.00  0.00    -0.167 F 
ENDBRANCH  17  23
ENDBRANCH   4   7
ENDBRANCH   2   3
ENDBRANCH   1   2
BRANCH   1  27
ATOM     27  C   UNL     1      -3.888  -1.926   7.374  1.00  0.00     0.118 C 
BRANCH  27  28
ATOM     28  N   UNL     1      -5.082  -2.751   7.242  1.00  0.00    -0.352 N 
ATOM     29  C   UNL     1      -5.270  -4.066   7.595  1.00  0.00     0.251 C 
ATOM     30  H   UNL     1      -5.864  -2.304   6.845  1.00  0.00     0.163 HD
ATOM     31  O   UNL     1      -6.232  -4.685   7.152  1.00  0.00    -0.269 OA
BRANCH  29  32
ATOM     32  C   UNL     1      -4.308  -4.728   8.501  1.00  0.00     0.039 A 
ATOM     33  C   UNL     1      -3.854  -6.014   8.199  1.00  0.00     0.014 A 
ATOM     34  C   UNL     1      -3.877  -4.083   9.664  1.00  0.00     0.014 A 
ATOM     35  C   UNL     1      -2.923  -6.631   9.037  1.00  0.00     0.010 A 
ATOM     36  C   UNL     1      -2.897  -4.668  10.459  1.00  0.00     0.010 A 
ATOM     37  C   UNL     1      -2.421  -5.953  10.160  1.00  0.00    -0.014 A 
BRANCH  37  38
ATOM     38  C   UNL     1      -1.429  -6.589  11.060  1.00  0.00     0.031 A 
ATOM     39  C   UNL     1      -1.823  -6.950  12.466  1.00  0.00     0.074 A 
ATOM     40  C   UNL     1      -0.171  -6.800  10.628  1.00  0.00     0.049 A 
ATOM     41  N   UNL     1      -1.100  -7.490  13.412  1.00  0.00    -0.248 NA
ATOM     42  C   UNL     1      -3.207  -6.645  12.868  1.00  0.00     0.031 C 
ATOM     43  C   UNL     1       0.336  -6.452   9.299  1.00  0.00     0.029 A 
ATOM     44  N   UNL     1       0.912  -7.356  11.261  1.00  0.00    -0.354 N 
ATOM     45  C   UNL     1      -1.939  -7.594  14.515  1.00  0.00     0.074 A 
ATOM     46  C   UNL     1      -3.204  -7.000  14.145  1.00  0.00     0.031 C 
ATOM     47  C   UNL     1       1.622  -6.828   9.207  1.00  0.00     0.029 A 
ATOM     48  C   UNL     1       2.040  -7.418  10.476  1.00  0.00     0.049 A 
ATOM     49  H   UNL     1       0.885  -7.681  12.190  1.00  0.00     0.167 HD
ATOM     50  C   UNL     1      -1.688  -8.165  15.716  1.00  0.00     0.037 A 
ATOM     51  C   UNL     1       3.268  -7.902  10.748  1.00  0.00     0.037 A 
ATOM     52  C   UNL     1      -0.432  -8.770  16.070  1.00  0.00     0.049 A 
ATOM     53  C   UNL     1       3.532  -8.508  12.100  1.00  0.00     0.074 A 
ATOM     54  C   UNL     1      -0.089  -9.411  17.246  1.00  0.00     0.029 A 
ATOM     55  N   UNL     1       0.685  -8.810  15.248  1.00  0.00    -0.354 N 
ATOM     56  N   UNL     1       2.709  -8.652  13.112  1.00  0.00    -0.248 NA
ATOM     57  C   UNL     1       4.886  -9.022  12.349  1.00  0.00     0.031 C 
ATOM     58  C   UNL     1       1.249  -9.805  17.151  1.00  0.00     0.029 A 
ATOM     59  C   UNL     1       1.725  -9.450  15.899  1.00  0.00     0.049 A 
ATOM     60  H   UNL     1       0.731  -8.439  14.338  1.00  0.00     0.167 HD
ATOM     61  C   UNL     1       3.436  -9.298  14.105  1.00  0.00     0.074 A 
ATOM     62  C   UNL     1       4.765  -9.521  13.573  1.00  0.00     0.031 C 
ATOM     63  C   UNL     1       3.038  -9.674  15.345  1.00  0.00     0.037 A 
BRANCH  50  64
ATOM     64  C   UNL     1      -2.802  -8.184  16.725  1.00  0.00     0.058 A 
ATOM     65  C   UNL     1      -3.924  -9.012  16.556  1.00  0.00     0.135 A 
ATOM     66  C   UNL     1      -2.732  -7.404  17.890  1.00  0.00     0.135 A 
ATOM     67  F   UNL     1      -4.048  -9.764  15.451  1.00  0.00    -0.206 F 
ATOM     68  C   UNL     1      -4.948  -9.049  17.495  1.00  0.00     0.059 A 
ATOM     69  C   UNL     1      -3.733  -7.445  18.856  1.00  0.00     0.059 A 
ATOM     70  F   UNL     1      -1.683  -6.593  18.099  1.00  0.00    -0.206 F 
ATOM     71  C   UNL     1      -4.842  -8.263  18.644  1.00  0.00     0.060 A 
BRANCH  71  72
ATOM     72  S   UNL     1      -6.176  -8.336  19.858  1.00  0.00     0.124 S 
ATOM     73  O   UNL     1      -7.251  -7.644  19.152  1.00  0.00    -0.237 OA
ATOM     74  O   UNL     1      -6.358  -9.774  20.034  1.00  0.00    -0.237 OA
ATOM     75  O   UNL     1      -5.628  -7.630  21.011  1.00  0.00    -0.744 OA
ENDBRANCH  71  72
ENDBRANCH  50  64
BRANCH  51  76
ATOM     76  C   UNL     1       4.323  -7.875   9.700  1.00  0.00     0.058 A 
ATOM     77  C   UNL     1       4.734  -9.057   9.067  1.00  0.00     0.135 A 
ATOM     78  C   UNL     1       4.918  -6.672   9.289  1.00  0.00     0.135 A 
ATOM     79  F   UNL     1       4.199 -10.233   9.431  1.00  0.00    -0.206 F 
ATOM     80  C   UNL     1       5.701  -9.051   8.068  1.00  0.00     0.059 A 
ATOM     81  C   UNL     1       5.872  -6.638   8.276  1.00  0.00     0.059 A 
ATOM     82  F   UNL     1       4.549  -5.512   9.853  1.00  0.00    -0.206 F 
ATOM     83  C   UNL     1       6.261  -7.834   7.675  1.00  0.00     0.060 A 
BRANCH  83  84
ATOM     84  S   UNL     1       7.474  -7.836   6.336  1.00  0.00     0.124 S 
ATOM     85  O   UNL     1       8.621  -8.467   6.978  1.00  0.00    -0.237 OA
ATOM     86  O   UNL     1       6.798  -8.628   5.314  1.00  0.00    -0.237 OA
ATOM     87  O   UNL     1       7.628  -6.419   6.020  1.00  0.00    -0.744 OA
ENDBRANCH  83  84
ENDBRANCH  51  76
BRANCH  63  88
ATOM     88  C   UNL     1       4.031 -10.389  16.216  1.00  0.00     0.058 A 
ATOM     89  C   UNL     1       5.068  -9.700  16.861  1.00  0.00     0.135 A 
ATOM     90  C   UNL     1       3.869 -11.755  16.502  1.00  0.00     0.135 A 
ATOM     91  F   UNL     1       5.267  -8.396  16.616  1.00  0.00    -0.206 F 
ATOM     92  C   UNL     1       5.910 -10.340  17.765  1.00  0.00     0.059 A 
ATOM     93  C   UNL     1       4.684 -12.409  17.419  1.00  0.00     0.059 A 
ATOM     94  F   UNL     1       2.885 -12.457  15.916  1.00  0.00    -0.206 F 
ATOM     95  C   UNL     1       5.702 -11.692  18.047  1.00  0.00     0.060 A 
BRANCH  95  96
ATOM     96  S   UNL     1       6.750 -12.485  19.285  1.00  0.00     0.124 S 
ATOM     97  O   UNL     1       8.025 -12.569  18.582  1.00  0.00    -0.237 OA
ATOM     98  O   UNL     1       6.697 -11.533  20.391  1.00  0.00    -0.237 OA
ATOM     99  O   UNL     1       6.083 -13.760  19.530  1.00  0.00    -0.744 OA
ENDBRANCH  95  96
ENDBRANCH  63  88
ENDBRANCH  37  38
ENDBRANCH  29  32
ENDBRANCH  27  28
ENDBRANCH   1  27
TORSDOF 16
