REMARK SMILES C[C@@H]1[C@@H](C(=O)NCCCNC(=O)c2ccc(-c3c4nc(c(-c5c(F)cc(S(=O)(=O)[O-])cc5F)c5ccc([nH]5)c(-c5c(F)cc(S(=O)(=O)[O-])cc5F)c5nc(c(-c6c(F)cc(S(=O)(=O)[O-])cc6F)c6ccc3[nH]6)C=C5)C=C4)cc2)CCN1C(=O)[C@]1([NH3+])CCOC1
REMARK SMILES IDX 8 1 7 2 6 3 4 4 5 5 3 7 1 8 2 9 81 10 79 11 80 12 82 13
REMARK SMILES IDX 83 14 84 15 86 16 89 17 87 18 88 19 85 20 9 24 10 25 11 26
REMARK SMILES IDX 12 28 13 29 14 30 78 31 15 32 77 33 16 34 17 35 18 36 71 37
REMARK SMILES IDX 19 38 76 39 70 40 72 41 20 42 75 43 69 44 68 45 21 47 55 48
REMARK SMILES IDX 34 49 54 50 35 51 38 52 53 53 73 54 36 55 37 56 52 58 74 59
REMARK SMILES IDX 39 60 22 61 23 62 32 63 24 64 25 65 31 66 33 67 26 68 27 69
REMARK SMILES IDX 28 70 29 71 30 72 56 73 57 74 66 75 58 76 59 77 65 78 67 79
REMARK SMILES IDX 60 80 61 81 62 82 63 83 64 84 40 85 41 86 50 87 42 88 43 89
REMARK SMILES IDX 49 90 51 91 44 92 45 93 46 94 47 95 48 96
REMARK H PARENT 6 6 85 21 85 22 85 23 10 27 72 46 38 57
REMARK Flexibility Score: inf
ROOT
ATOM      1  C   UNL     1       7.253  -3.832  -0.160  1.00  0.00     0.042 C 
ENDROOT
BRANCH   1   2
ATOM      2  C   UNL     1       7.104  -5.185  -0.846  1.00  0.00     0.117 C 
BRANCH   2   3
ATOM      3  N   UNL     1       6.177  -6.056  -0.146  1.00  0.00    -0.356 N 
ATOM      4  C   UNL     1       5.040  -6.662  -0.584  1.00  0.00     0.225 C 
ATOM      5  O   UNL     1       4.448  -7.406   0.199  1.00  0.00    -0.275 OA
ATOM      6  H   UNL     1       6.407  -6.236   0.794  1.00  0.00     0.163 HD
BRANCH   4   7
ATOM      7  C   UNL     1       4.573  -6.440  -2.014  1.00  0.00     0.102 C 
ATOM      8  C   UNL     1       4.008  -4.636  -3.655  1.00  0.00     0.032 C 
ATOM      9  C   UNL     1       3.857  -5.087  -2.197  1.00  0.00     0.094 C 
ATOM     10  N   UNL     1       2.450  -5.369  -1.881  1.00  0.00    -0.334 N 
ATOM     11  C   UNL     1       3.493  -7.447  -2.417  1.00  0.00     0.037 C 
ATOM     12  C   UNL     1       2.204  -6.809  -1.925  1.00  0.00     0.121 C 
BRANCH  10  13
ATOM     13  C   UNL     1       1.419  -4.557  -1.455  1.00  0.00     0.286 C 
ATOM     14  O   UNL     1       0.288  -5.063  -1.328  1.00  0.00    -0.267 OA
BRANCH  13  15
ATOM     15  C   UNL     1       1.569  -3.031  -1.080  1.00  0.00     0.199 C 
ATOM     16  C   UNL     1       1.901  -2.109  -2.236  1.00  0.00     0.110 C 
ATOM     17  C   UNL     1       2.668  -2.760  -0.058  1.00  0.00     0.239 C 
ATOM     18  C   UNL     1       3.332  -1.666  -2.009  1.00  0.00     0.167 C 
ATOM     19  O   UNL     1       3.774  -2.151  -0.743  1.00  0.00    -0.374 OA
BRANCH  15  20
ATOM     20  N   UNL     1       0.248  -2.603  -0.503  1.00  0.00    -0.343 N 
ATOM     21  H   UNL     1       0.293  -1.618  -0.244  1.00  0.00     0.345 HD
ATOM     22  H   UNL     1       0.041  -3.164   0.324  1.00  0.00     0.345 HD
ATOM     23  H   UNL     1      -0.486  -2.738  -1.198  1.00  0.00     0.345 HD
ENDBRANCH  15  20
ENDBRANCH  13  15
ENDBRANCH  10  13
ENDBRANCH   4   7
ENDBRANCH   2   3
ENDBRANCH   1   2
BRANCH   1  24
ATOM     24  C   UNL     1       7.779  -3.894   1.271  1.00  0.00     0.118 C 
BRANCH  24  25
ATOM     25  N   UNL     1       9.130  -4.431   1.364  1.00  0.00    -0.352 N 
ATOM     26  C   UNL     1      10.261  -3.889   1.931  1.00  0.00     0.251 C 
ATOM     27  H   UNL     1       9.252  -5.320   0.960  1.00  0.00     0.163 HD
ATOM     28  O   UNL     1      11.339  -4.447   1.770  1.00  0.00    -0.269 OA
BRANCH  26  29
ATOM     29  C   UNL     1      10.186  -2.626   2.703  1.00  0.00     0.039 A 
ATOM     30  C   UNL     1      11.179  -1.661   2.511  1.00  0.00     0.014 A 
ATOM     31  C   UNL     1       9.156  -2.389   3.616  1.00  0.00     0.014 A 
ATOM     32  C   UNL     1      11.096  -0.434   3.175  1.00  0.00     0.010 A 
ATOM     33  C   UNL     1       9.030  -1.137   4.215  1.00  0.00     0.010 A 
ATOM     34  C   UNL     1       9.996  -0.143   3.999  1.00  0.00    -0.014 A 
BRANCH  34  35
ATOM     35  C   UNL     1       9.833   1.196   4.628  1.00  0.00     0.031 A 
ATOM     36  C   UNL     1       9.816   1.338   6.127  1.00  0.00     0.074 A 
ATOM     37  C   UNL     1       9.638   2.279   3.847  1.00  0.00     0.049 A 
ATOM     38  N   UNL     1       9.619   2.409   6.852  1.00  0.00    -0.248 NA
ATOM     39  C   UNL     1      10.025   0.113   6.913  1.00  0.00     0.031 C 
ATOM     40  C   UNL     1       9.589   2.268   2.383  1.00  0.00     0.029 A 
ATOM     41  N   UNL     1       9.433   3.597   4.173  1.00  0.00    -0.354 N 
ATOM     42  C   UNL     1       9.670   1.987   8.176  1.00  0.00     0.074 A 
ATOM     43  C   UNL     1       9.861   0.553   8.152  1.00  0.00     0.031 C 
ATOM     44  C   UNL     1       9.394   3.520   1.939  1.00  0.00     0.029 A 
ATOM     45  C   UNL     1       9.258   4.417   3.082  1.00  0.00     0.049 A 
ATOM     46  H   UNL     1       9.414   3.925   5.101  1.00  0.00     0.167 HD
ATOM     47  C   UNL     1       9.589   2.729   9.307  1.00  0.00     0.037 A 
ATOM     48  C   UNL     1       9.003   5.738   3.008  1.00  0.00     0.037 A 
ATOM     49  C   UNL     1       9.413   4.159   9.324  1.00  0.00     0.049 A 
ATOM     50  C   UNL     1       8.893   6.537   4.279  1.00  0.00     0.074 A 
ATOM     51  C   UNL     1       9.367   5.006  10.418  1.00  0.00     0.029 A 
ATOM     52  N   UNL     1       9.246   4.953   8.198  1.00  0.00    -0.354 N 
ATOM     53  N   UNL     1       9.006   6.130   5.521  1.00  0.00    -0.248 NA
ATOM     54  C   UNL     1       8.628   7.975   4.140  1.00  0.00     0.031 C 
ATOM     55  C   UNL     1       9.121   6.303   9.957  1.00  0.00     0.029 A 
ATOM     56  C   UNL     1       9.074   6.276   8.572  1.00  0.00     0.049 A 
ATOM     57  H   UNL     1       9.250   4.624   7.270  1.00  0.00     0.167 HD
ATOM     58  C   UNL     1       8.857   7.266   6.309  1.00  0.00     0.074 A 
ATOM     59  C   UNL     1       8.658   8.378   5.403  1.00  0.00     0.031 C 
ATOM     60  C   UNL     1       8.886   7.378   7.661  1.00  0.00     0.037 A 
BRANCH  47  61
ATOM     61  C   UNL     1       9.691   2.008  10.626  1.00  0.00     0.058 A 
ATOM     62  C   UNL     1      10.894   1.423  11.056  1.00  0.00     0.135 A 
ATOM     63  C   UNL     1       8.587   1.938  11.491  1.00  0.00     0.135 A 
ATOM     64  F   UNL     1      11.979   1.448  10.265  1.00  0.00    -0.206 F 
ATOM     65  C   UNL     1      10.990   0.769  12.280  1.00  0.00     0.059 A 
ATOM     66  C   UNL     1       8.669   1.316  12.734  1.00  0.00     0.059 A 
ATOM     67  F   UNL     1       7.412   2.480  11.133  1.00  0.00    -0.206 F 
ATOM     68  C   UNL     1       9.871   0.722  13.113  1.00  0.00     0.060 A 
BRANCH  68  69
ATOM     69  S   UNL     1      10.017  -0.124  14.701  1.00  0.00     0.124 S 
ATOM     70  O   UNL     1      10.096  -1.520  14.281  1.00  0.00    -0.237 OA
ATOM     71  O   UNL     1      11.247   0.444  15.244  1.00  0.00    -0.237 OA
ATOM     72  O   UNL     1       8.793   0.251  15.401  1.00  0.00    -0.744 OA
ENDBRANCH  68  69
ENDBRANCH  47  61
BRANCH  48  73
ATOM     73  C   UNL     1       8.851   6.394   1.680  1.00  0.00     0.058 A 
ATOM     74  C   UNL     1       9.812   7.301   1.209  1.00  0.00     0.135 A 
ATOM     75  C   UNL     1       7.750   6.124   0.853  1.00  0.00     0.135 A 
ATOM     76  F   UNL     1      10.880   7.600   1.965  1.00  0.00    -0.206 F 
ATOM     77  C   UNL     1       9.679   7.931  -0.025  1.00  0.00     0.059 A 
ATOM     78  C   UNL     1       7.609   6.718  -0.397  1.00  0.00     0.059 A 
ATOM     79  F   UNL     1       6.809   5.252   1.248  1.00  0.00    -0.206 F 
ATOM     80  C   UNL     1       8.575   7.629  -0.823  1.00  0.00     0.060 A 
BRANCH  80  81
ATOM     81  S   UNL     1       8.438   8.415  -2.443  1.00  0.00     0.124 S 
ATOM     82  O   UNL     1       8.111   9.788  -2.078  1.00  0.00    -0.237 OA
ATOM     83  O   UNL     1       9.770   8.201  -3.000  1.00  0.00    -0.237 OA
ATOM     84  O   UNL     1       7.368   7.662  -3.092  1.00  0.00    -0.744 OA
ENDBRANCH  80  81
ENDBRANCH  48  73
BRANCH  60  85
ATOM     85  C   UNL     1       8.740   8.756   8.248  1.00  0.00     0.058 A 
ATOM     86  C   UNL     1       7.519   9.448   8.227  1.00  0.00     0.135 A 
ATOM     87  C   UNL     1       9.829   9.371   8.890  1.00  0.00     0.135 A 
ATOM     88  F   UNL     1       6.448   8.911   7.621  1.00  0.00    -0.206 F 
ATOM     89  C   UNL     1       7.389  10.710   8.799  1.00  0.00     0.059 A 
ATOM     90  C   UNL     1       9.713  10.618   9.496  1.00  0.00     0.059 A 
ATOM     91  F   UNL     1      11.018   8.750   8.949  1.00  0.00    -0.206 F 
ATOM     92  C   UNL     1       8.491  11.285   9.434  1.00  0.00     0.060 A 
BRANCH  92  93
ATOM     93  S   UNL     1       8.297  12.908  10.202  1.00  0.00     0.124 S 
ATOM     94  O   UNL     1       8.215  13.778   9.034  1.00  0.00    -0.237 OA
ATOM     95  O   UNL     1       7.061  12.747  10.962  1.00  0.00    -0.237 OA
ATOM     96  O   UNL     1       9.507  13.050  11.008  1.00  0.00    -0.744 OA
ENDBRANCH  92  93
ENDBRANCH  60  85
ENDBRANCH  34  35
ENDBRANCH  26  29
ENDBRANCH  24  25
ENDBRANCH   1  24
TORSDOF 16
