REMARK SMILES Cc1cccc(N2C(=O)/C(=C3/C(=O)N([C@@H](C)C(=O)NCCCNC(=O)c4ccc(-c5c6nc(c(-c7c(F)cc(S(=O)(=O)[O-])cc7F)c7ccc([nH]7)c(-c7c(F)cc(S(=O)(=O)[O-])cc7F)c7nc(c(-c8c(F)cc(S(=O)(=O)[O-])cc8F)c8ccc5[nH]8)C=C7)C=C6)cc4)c4ccccc43)SC2=S)c1C
REMARK SMILES IDX 21 1 20 2 19 3 17 4 18 5 15 7 16 8 14 9 7 10 8 11 99 12 9 13
REMARK SMILES IDX 10 14 98 15 100 16 11 17 12 18 97 19 13 20 92 21 96 22 93 23
REMARK SMILES IDX 95 24 94 25 6 26 1 27 2 28 3 29 101 30 4 31 102 32 5 33
REMARK SMILES IDX 22 34 23 35 24 36 25 38 26 39 27 40 91 41 28 42 90 43 29 44
REMARK SMILES IDX 30 45 31 46 84 47 32 48 89 49 83 50 85 51 33 52 88 53 82 54
REMARK SMILES IDX 81 55 34 57 68 58 47 59 67 60 48 61 51 62 66 63 86 64 49 65
REMARK SMILES IDX 50 66 65 68 87 69 52 70 35 71 36 72 45 73 37 74 38 75 44 76
REMARK SMILES IDX 46 77 39 78 40 79 41 80 42 81 43 82 69 83 70 84 79 85 71 86
REMARK SMILES IDX 72 87 78 88 80 89 73 90 74 91 75 92 76 93 77 94 53 95 54 96
REMARK SMILES IDX 63 97 55 98 56 99 62 100 64 101 57 102 58 103 59 104 60 105
REMARK SMILES IDX 61 106
REMARK H PARENT 19 6 23 37 85 56 51 67
REMARK Flexibility Score: inf
ROOT
ATOM      1  C   UNL     1       2.684  -8.966   4.530  1.00  0.00     0.042 C 
ENDROOT
BRANCH   1   2
ATOM      2  C   UNL     1       3.496  -9.797   3.543  1.00  0.00     0.117 C 
BRANCH   2   3
ATOM      3  N   UNL     1       2.642 -10.453   2.575  1.00  0.00    -0.354 N 
ATOM      4  C   UNL     1       2.249 -10.112   1.319  1.00  0.00     0.242 C 
ATOM      5  O   UNL     1       1.387 -10.851   0.824  1.00  0.00    -0.273 OA
ATOM      6  H   UNL     1       2.275 -11.312   2.887  1.00  0.00     0.163 HD
BRANCH   4   7
ATOM      7  C   UNL     1       2.788  -8.892   0.520  1.00  0.00     0.177 C 
ATOM      8  C   UNL     1       4.297  -8.884   0.303  1.00  0.00     0.042 C 
BRANCH   7   9
ATOM      9  N   UNL     1       2.126  -7.621   0.806  1.00  0.00    -0.295 N 
ATOM     10  N   UNL     1      -0.839  -2.923  -0.481  1.00  0.00    -0.261 N 
ATOM     11  C   UNL     1      -0.682  -3.749   0.617  1.00  0.00     0.271 C 
ATOM     12  C   UNL     1      -1.129  -3.549  -1.673  1.00  0.00     0.152 C 
ATOM     13  O   UNL     1      -0.881  -3.438   1.780  1.00  0.00    -0.268 OA
ATOM     14  C   UNL     1      -0.377  -5.136   0.164  1.00  0.00     0.094 C 
ATOM     15  S   UNL     1      -1.046  -5.297  -1.431  1.00  0.00    -0.053 SA
ATOM     16  S   UNL     1      -1.444  -2.876  -3.170  1.00  0.00    -0.051 S 
ATOM     17  C   UNL     1       0.469  -5.987   0.774  1.00  0.00     0.069 C 
ATOM     18  C   UNL     1       0.925  -7.286   0.156  1.00  0.00     0.261 C 
ATOM     19  C   UNL     1       1.359  -5.753   1.926  1.00  0.00     0.012 A 
ATOM     20  O   UNL     1       0.372  -7.907  -0.734  1.00  0.00    -0.269 OA
ATOM     21  C   UNL     1       2.421  -6.664   1.800  1.00  0.00     0.053 A 
ATOM     22  C   UNL     1       1.327  -4.871   2.997  1.00  0.00     0.011 A 
ATOM     23  C   UNL     1       3.543  -6.537   2.602  1.00  0.00     0.027 A 
ATOM     24  C   UNL     1       2.421  -4.797   3.858  1.00  0.00     0.001 A 
ATOM     25  C   UNL     1       3.541  -5.595   3.635  1.00  0.00     0.002 A 
BRANCH  10  26
ATOM     26  C   UNL     1      -0.796  -1.518  -0.299  1.00  0.00     0.054 A 
ATOM     27  C   UNL     1       1.732   1.338   0.163  1.00  0.00     0.044 C 
ATOM     28  C   UNL     1       0.456   0.547   0.030  1.00  0.00    -0.046 A 
ATOM     29  C   UNL     1      -0.764   1.239   0.098  1.00  0.00     0.004 A 
ATOM     30  C   UNL     1       0.448  -0.856  -0.143  1.00  0.00    -0.024 A 
ATOM     31  C   UNL     1      -1.980   0.570  -0.028  1.00  0.00     0.002 A 
ATOM     32  C   UNL     1       1.731  -1.650  -0.132  1.00  0.00     0.047 C 
ATOM     33  C   UNL     1      -1.999  -0.805  -0.239  1.00  0.00     0.027 A 
ENDBRANCH  10  26
ENDBRANCH   7   9
ENDBRANCH   4   7
ENDBRANCH   2   3
ENDBRANCH   1   2
BRANCH   1  34
ATOM     34  C   UNL     1       2.186  -9.776   5.718  1.00  0.00     0.118 C 
BRANCH  34  35
ATOM     35  N   UNL     1       3.227  -9.933   6.729  1.00  0.00    -0.352 N 
ATOM     36  C   UNL     1       3.484  -9.225   7.882  1.00  0.00     0.251 C 
ATOM     37  H   UNL     1       3.853 -10.672   6.558  1.00  0.00     0.163 HD
ATOM     38  O   UNL     1       4.585  -9.353   8.414  1.00  0.00    -0.269 OA
BRANCH  36  39
ATOM     39  C   UNL     1       2.480  -8.309   8.481  1.00  0.00     0.039 A 
ATOM     40  C   UNL     1       1.115  -8.580   8.415  1.00  0.00     0.014 A 
ATOM     41  C   UNL     1       2.914  -7.183   9.193  1.00  0.00     0.014 A 
ATOM     42  C   UNL     1       0.192  -7.650   8.880  1.00  0.00     0.010 A 
ATOM     43  C   UNL     1       1.983  -6.309   9.774  1.00  0.00     0.010 A 
ATOM     44  C   UNL     1       0.608  -6.511   9.587  1.00  0.00    -0.014 A 
BRANCH  44  45
ATOM     45  C   UNL     1      -0.420  -5.583  10.136  1.00  0.00     0.031 A 
ATOM     46  C   UNL     1      -0.494  -4.148   9.685  1.00  0.00     0.074 A 
ATOM     47  C   UNL     1      -1.349  -6.064  10.989  1.00  0.00     0.049 A 
ATOM     48  N   UNL     1      -1.365  -3.225  10.010  1.00  0.00    -0.248 NA
ATOM     49  C   UNL     1       0.544  -3.685   8.752  1.00  0.00     0.031 C 
ATOM     50  C   UNL     1      -1.394  -7.439  11.493  1.00  0.00     0.029 A 
ATOM     51  N   UNL     1      -2.460  -5.476  11.542  1.00  0.00    -0.354 N 
ATOM     52  C   UNL     1      -0.980  -2.076   9.327  1.00  0.00     0.074 A 
ATOM     53  C   UNL     1       0.234  -2.404   8.611  1.00  0.00     0.031 C 
ATOM     54  C   UNL     1      -2.521  -7.616  12.197  1.00  0.00     0.029 A 
ATOM     55  C   UNL     1      -3.241  -6.349  12.264  1.00  0.00     0.049 A 
ATOM     56  H   UNL     1      -2.676  -4.522  11.433  1.00  0.00     0.167 HD
ATOM     57  C   UNL     1      -1.592  -0.867   9.282  1.00  0.00     0.037 A 
ATOM     58  C   UNL     1      -4.408  -6.159  12.910  1.00  0.00     0.037 A 
ATOM     59  C   UNL     1      -2.801  -0.546   9.997  1.00  0.00     0.049 A 
ATOM     60  C   UNL     1      -5.029  -4.793  12.907  1.00  0.00     0.074 A 
ATOM     61  C   UNL     1      -3.486   0.656  10.037  1.00  0.00     0.029 A 
ATOM     62  N   UNL     1      -3.510  -1.434  10.796  1.00  0.00    -0.354 N 
ATOM     63  N   UNL     1      -4.633  -3.712  12.278  1.00  0.00    -0.248 NA
ATOM     64  C   UNL     1      -6.242  -4.613  13.714  1.00  0.00     0.031 C 
ATOM     65  C   UNL     1      -4.586   0.507  10.890  1.00  0.00     0.029 A 
ATOM     66  C   UNL     1      -4.615  -0.802  11.345  1.00  0.00     0.049 A 
ATOM     67  H   UNL     1      -3.264  -2.375  10.949  1.00  0.00     0.167 HD
ATOM     68  C   UNL     1      -5.555  -2.725  12.604  1.00  0.00     0.074 A 
ATOM     69  C   UNL     1      -6.536  -3.341  13.475  1.00  0.00     0.031 C 
ATOM     70  C   UNL     1      -5.582  -1.426  12.217  1.00  0.00     0.037 A 
BRANCH  57  71
ATOM     71  C   UNL     1      -0.948   0.201   8.437  1.00  0.00     0.058 A 
ATOM     72  C   UNL     1      -0.941   0.124   7.034  1.00  0.00     0.135 A 
ATOM     73  C   UNL     1      -0.330   1.314   9.030  1.00  0.00     0.135 A 
ATOM     74  F   UNL     1      -1.504  -0.925   6.414  1.00  0.00    -0.206 F 
ATOM     75  C   UNL     1      -0.304   1.084   6.253  1.00  0.00     0.059 A 
ATOM     76  C   UNL     1       0.288   2.302   8.267  1.00  0.00     0.059 A 
ATOM     77  F   UNL     1      -0.310   1.445  10.366  1.00  0.00    -0.206 F 
ATOM     78  C   UNL     1       0.316   2.166   6.880  1.00  0.00     0.060 A 
BRANCH  78  79
ATOM     79  S   UNL     1       1.181   3.375   5.855  1.00  0.00     0.124 S 
ATOM     80  O   UNL     1       2.344   2.608   5.418  1.00  0.00    -0.237 OA
ATOM     81  O   UNL     1       0.196   3.674   4.820  1.00  0.00    -0.237 OA
ATOM     82  O   UNL     1       1.464   4.467   6.781  1.00  0.00    -0.744 OA
ENDBRANCH  78  79
ENDBRANCH  57  71
BRANCH  58  83
ATOM     83  C   UNL     1      -5.065  -7.309  13.586  1.00  0.00     0.058 A 
ATOM     84  C   UNL     1      -6.234  -7.876  13.058  1.00  0.00     0.135 A 
ATOM     85  C   UNL     1      -4.501  -7.911  14.721  1.00  0.00     0.135 A 
ATOM     86  F   UNL     1      -6.817  -7.330  11.980  1.00  0.00    -0.206 F 
ATOM     87  C   UNL     1      -6.811  -9.010  13.620  1.00  0.00     0.059 A 
ATOM     88  C   UNL     1      -5.044  -9.061  15.286  1.00  0.00     0.059 A 
ATOM     89  F   UNL     1      -3.376  -7.413  15.257  1.00  0.00    -0.206 F 
ATOM     90  C   UNL     1      -6.199  -9.604  14.726  1.00  0.00     0.060 A 
BRANCH  90  91
ATOM     91  S   UNL     1      -6.899 -11.135  15.381  1.00  0.00     0.124 S 
ATOM     92  O   UNL     1      -8.144 -10.660  15.974  1.00  0.00    -0.237 OA
ATOM     93  O   UNL     1      -7.034 -11.947  14.175  1.00  0.00    -0.237 OA
ATOM     94  O   UNL     1      -5.884 -11.592  16.325  1.00  0.00    -0.744 OA
ENDBRANCH  90  91
ENDBRANCH  58  83
BRANCH  70  95
ATOM     95  C   UNL     1      -6.714  -0.576  12.721  1.00  0.00     0.058 A 
ATOM     96  C   UNL     1      -6.756  -0.123  14.049  1.00  0.00     0.135 A 
ATOM     97  C   UNL     1      -7.729  -0.149  11.849  1.00  0.00     0.135 A 
ATOM     98  F   UNL     1      -5.816  -0.510  14.925  1.00  0.00    -0.206 F 
ATOM     99  C   UNL     1      -7.769   0.719  14.496  1.00  0.00     0.059 A 
ATOM    100  C   UNL     1      -8.738   0.711  12.269  1.00  0.00     0.059 A 
ATOM    101  F   UNL     1      -7.731  -0.550  10.568  1.00  0.00    -0.206 F 
ATOM    102  C   UNL     1      -8.752   1.137  13.596  1.00  0.00     0.060 A 
BRANCH 102 103
ATOM    103  S   UNL     1     -10.025   2.276  14.179  1.00  0.00     0.124 S 
ATOM    104  O   UNL     1     -10.817   1.413  15.049  1.00  0.00    -0.237 OA
ATOM    105  O   UNL     1      -9.238   3.304  14.853  1.00  0.00    -0.237 OA
ATOM    106  O   UNL     1     -10.687   2.706  12.951  1.00  0.00    -0.744 OA
ENDBRANCH 102 103
ENDBRANCH  70  95
ENDBRANCH  44  45
ENDBRANCH  36  39
ENDBRANCH  34  35
ENDBRANCH   1  34
TORSDOF 15
