REMARK SMILES COc1ccccc1-c1ccc(O)c(C(=O)NCCCNC(=O)c2ccc(-c3c4nc(c(-c5c(F)cc(S(=O)(=O)[O-])cc5F)c5ccc([nH]5)c(-c5c(F)cc(S(=O)(=O)[O-])cc5F)c5nc(c(-c6c(F)cc(S(=O)(=O)[O-])cc6F)c6ccc3[nH]6)C=C5)C=C4)cc2)c1
REMARK SMILES IDX 19 1 18 2 17 3 15 4 16 5 14 7 9 8 10 9 90 10 11 11 12 12
REMARK SMILES IDX 8 13 3 14 4 15 5 16 7 17 6 18 2 19 1 20 13 21 20 23 21 24
REMARK SMILES IDX 22 25 23 27 24 28 25 29 89 30 26 31 88 32 27 33 28 34 29 35
REMARK SMILES IDX 82 36 30 37 87 38 81 39 83 40 31 41 86 42 80 43 79 44 32 46
REMARK SMILES IDX 66 47 45 48 65 49 46 50 49 51 64 52 84 53 47 54 48 55 63 57
REMARK SMILES IDX 85 58 50 59 33 60 34 61 43 62 35 63 36 64 42 65 44 66 37 67
REMARK SMILES IDX 38 68 39 69 40 70 41 71 67 72 68 73 77 74 69 75 70 76 76 77
REMARK SMILES IDX 78 78 71 79 72 80 73 81 74 82 75 83 51 84 52 85 61 86 53 87
REMARK SMILES IDX 54 88 60 89 62 90 55 91 56 92 57 93 58 94 59 95
REMARK H PARENT 17 6 13 22 21 26 83 45 49 56
REMARK Flexibility Score: inf
ROOT
ATOM      1  C   UNL     1       3.091  -2.006   4.093  1.00  0.00     0.042 C 
ENDROOT
BRANCH   1   2
ATOM      2  C   UNL     1       3.115  -0.596   3.502  1.00  0.00     0.118 C 
BRANCH   2   3
ATOM      3  N   UNL     1       4.475  -0.125   3.285  1.00  0.00    -0.352 N 
ATOM      4  C   UNL     1       5.267  -0.048   2.168  1.00  0.00     0.255 C 
ATOM      5  O   UNL     1       6.356   0.524   2.279  1.00  0.00    -0.269 OA
ATOM      6  H   UNL     1       4.914   0.203   4.103  1.00  0.00     0.163 HD
BRANCH   4   7
ATOM      7  C   UNL     1       4.879  -0.546   0.819  1.00  0.00     0.082 A 
ATOM      8  C   UNL     1       3.468  -1.893  -0.666  1.00  0.00    -0.014 A 
ATOM      9  C   UNL     1       4.099  -1.324  -1.778  1.00  0.00     0.013 A 
ATOM     10  C   UNL     1       3.921  -1.541   0.618  1.00  0.00     0.026 A 
ATOM     11  C   UNL     1       5.123  -0.392  -1.604  1.00  0.00     0.047 A 
ATOM     12  C   UNL     1       5.497   0.001  -0.318  1.00  0.00     0.128 A 
BRANCH   8  13
ATOM     13  C   UNL     1       2.305  -2.783  -0.800  1.00  0.00     0.024 A 
ATOM     14  C   UNL     1       1.044  -2.454  -0.253  1.00  0.00     0.126 A 
ATOM     15  C   UNL     1      -0.018  -3.361  -0.292  1.00  0.00     0.047 A 
ATOM     16  C   UNL     1       0.145  -4.598  -0.911  1.00  0.00     0.004 A 
ATOM     17  C   UNL     1       2.441  -4.032  -1.428  1.00  0.00     0.012 A 
ATOM     18  C   UNL     1       1.371  -4.931  -1.482  1.00  0.00     0.001 A 
BRANCH  14  19
ATOM     19  O   UNL     1       0.802  -1.288   0.434  1.00  0.00    -0.496 OA
ATOM     20  C   UNL     1       0.804  -0.145  -0.422  1.00  0.00     0.278 C 
ENDBRANCH  14  19
ENDBRANCH   8  13
BRANCH  12  21
ATOM     21  O   UNL     1       6.489   0.947  -0.252  1.00  0.00    -0.507 OA
ATOM     22  H   UNL     1       6.870   1.282  -1.040  1.00  0.00     0.293 HD
ENDBRANCH  12  21
ENDBRANCH   4   7
ENDBRANCH   2   3
ENDBRANCH   1   2
BRANCH   1  23
ATOM     23  C   UNL     1       3.483  -2.063   5.569  1.00  0.00     0.118 C 
BRANCH  23  24
ATOM     24  N   UNL     1       2.501  -1.408   6.419  1.00  0.00    -0.352 N 
ATOM     25  C   UNL     1       1.802  -1.875   7.502  1.00  0.00     0.251 C 
ATOM     26  H   UNL     1       2.306  -0.474   6.177  1.00  0.00     0.163 HD
ATOM     27  O   UNL     1       0.862  -1.206   7.926  1.00  0.00    -0.269 OA
BRANCH  25  28
ATOM     28  C   UNL     1       2.151  -3.155   8.162  1.00  0.00     0.039 A 
ATOM     29  C   UNL     1       1.113  -3.931   8.687  1.00  0.00     0.014 A 
ATOM     30  C   UNL     1       3.477  -3.561   8.343  1.00  0.00     0.014 A 
ATOM     31  C   UNL     1       1.399  -5.120   9.362  1.00  0.00     0.010 A 
ATOM     32  C   UNL     1       3.759  -4.783   8.957  1.00  0.00     0.010 A 
ATOM     33  C   UNL     1       2.724  -5.568   9.486  1.00  0.00    -0.014 A 
BRANCH  33  34
ATOM     34  C   UNL     1       3.021  -6.858  10.161  1.00  0.00     0.031 A 
ATOM     35  C   UNL     1       3.794  -6.895  11.452  1.00  0.00     0.074 A 
ATOM     36  C   UNL     1       2.620  -8.008   9.585  1.00  0.00     0.049 A 
ATOM     37  N   UNL     1       4.113  -7.925  12.194  1.00  0.00    -0.248 NA
ATOM     38  C   UNL     1       4.300  -5.612  11.962  1.00  0.00     0.031 C 
ATOM     39  C   UNL     1       1.932  -8.108   8.296  1.00  0.00     0.029 A 
ATOM     40  N   UNL     1       2.733  -9.309  10.004  1.00  0.00    -0.354 N 
ATOM     41  C   UNL     1       4.868  -7.420  13.245  1.00  0.00     0.074 A 
ATOM     42  C   UNL     1       5.000  -5.997  13.019  1.00  0.00     0.031 C 
ATOM     43  C   UNL     1       1.661  -9.397   8.043  1.00  0.00     0.029 A 
ATOM     44  C   UNL     1       2.171 -10.216   9.138  1.00  0.00     0.049 A 
ATOM     45  H   UNL     1       3.175  -9.568  10.845  1.00  0.00     0.167 HD
ATOM     46  C   UNL     1       5.388  -8.078  14.311  1.00  0.00     0.037 A 
ATOM     47  C   UNL     1       2.066 -11.556   9.220  1.00  0.00     0.037 A 
ATOM     48  C   UNL     1       5.230  -9.491  14.541  1.00  0.00     0.049 A 
ATOM     49  C   UNL     1       2.584 -12.258  10.443  1.00  0.00     0.074 A 
ATOM     50  C   UNL     1       5.649 -10.241  15.627  1.00  0.00     0.029 A 
ATOM     51  N   UNL     1       4.607 -10.371  13.667  1.00  0.00    -0.354 N 
ATOM     52  N   UNL     1       3.216 -11.752  11.475  1.00  0.00    -0.248 NA
ATOM     53  C   UNL     1       2.357 -13.707  10.524  1.00  0.00     0.031 C 
ATOM     54  C   UNL     1       5.311 -11.580  15.392  1.00  0.00     0.029 A 
ATOM     55  C   UNL     1       4.643 -11.658  14.180  1.00  0.00     0.049 A 
ATOM     56  H   UNL     1       4.199 -10.118  12.808  1.00  0.00     0.167 HD
ATOM     57  C   UNL     1       3.446 -12.817  12.339  1.00  0.00     0.074 A 
ATOM     58  C   UNL     1       2.871 -13.991  11.713  1.00  0.00     0.031 C 
ATOM     59  C   UNL     1       4.073 -12.819  13.542  1.00  0.00     0.037 A 
BRANCH  46  60
ATOM     60  C   UNL     1       6.180  -7.269  15.304  1.00  0.00     0.058 A 
ATOM     61  C   UNL     1       5.567  -6.328  16.148  1.00  0.00     0.135 A 
ATOM     62  C   UNL     1       7.569  -7.438  15.416  1.00  0.00     0.135 A 
ATOM     63  F   UNL     1       4.243  -6.118  16.077  1.00  0.00    -0.206 F 
ATOM     64  C   UNL     1       6.308  -5.549  17.032  1.00  0.00     0.059 A 
ATOM     65  C   UNL     1       8.327  -6.689  16.313  1.00  0.00     0.059 A 
ATOM     66  F   UNL     1       8.208  -8.327  14.640  1.00  0.00    -0.206 F 
ATOM     67  C   UNL     1       7.690  -5.731  17.100  1.00  0.00     0.060 A 
BRANCH  67  68
ATOM     68  S   UNL     1       8.645  -4.693  18.228  1.00  0.00     0.124 S 
ATOM     69  O   UNL     1       8.684  -3.431  17.496  1.00  0.00    -0.237 OA
ATOM     70  O   UNL     1       7.825  -4.700  19.434  1.00  0.00    -0.237 OA
ATOM     71  O   UNL     1       9.921  -5.395  18.337  1.00  0.00    -0.744 OA
ENDBRANCH  67  68
ENDBRANCH  46  60
BRANCH  47  72
ATOM     72  C   UNL     1       1.389 -12.299   8.126  1.00  0.00     0.058 A 
ATOM     73  C   UNL     1       0.089 -12.799   8.291  1.00  0.00     0.135 A 
ATOM     74  C   UNL     1       1.998 -12.454   6.872  1.00  0.00     0.135 A 
ATOM     75  F   UNL     1      -0.532 -12.676   9.474  1.00  0.00    -0.206 F 
ATOM     76  C   UNL     1      -0.587 -13.424   7.248  1.00  0.00     0.059 A 
ATOM     77  C   UNL     1       1.334 -13.057   5.808  1.00  0.00     0.059 A 
ATOM     78  F   UNL     1       3.233 -11.975   6.660  1.00  0.00    -0.206 F 
ATOM     79  C   UNL     1       0.041 -13.539   6.006  1.00  0.00     0.060 A 
BRANCH  79  80
ATOM     80  S   UNL     1      -0.883 -14.260   4.631  1.00  0.00     0.124 S 
ATOM     81  O   UNL     1      -0.848 -15.679   4.964  1.00  0.00    -0.237 OA
ATOM     82  O   UNL     1      -2.182 -13.606   4.757  1.00  0.00    -0.237 OA
ATOM     83  O   UNL     1      -0.104 -13.865   3.462  1.00  0.00    -0.744 OA
ENDBRANCH  79  80
ENDBRANCH  47  72
BRANCH  59  84
ATOM     84  C   UNL     1       4.151 -14.132  14.271  1.00  0.00     0.058 A 
ATOM     85  C   UNL     1       5.012 -15.158  13.852  1.00  0.00     0.135 A 
ATOM     86  C   UNL     1       3.372 -14.356  15.418  1.00  0.00     0.135 A 
ATOM     87  F   UNL     1       5.774 -14.996  12.759  1.00  0.00    -0.206 F 
ATOM     88  C   UNL     1       5.075 -16.374  14.526  1.00  0.00     0.059 A 
ATOM     89  C   UNL     1       3.438 -15.554  16.122  1.00  0.00     0.059 A 
ATOM     90  F   UNL     1       2.541 -13.403  15.867  1.00  0.00    -0.206 F 
ATOM     91  C   UNL     1       4.280 -16.564  15.658  1.00  0.00     0.060 A 
BRANCH  91  92
ATOM     92  S   UNL     1       4.374 -18.141  16.531  1.00  0.00     0.124 S 
ATOM     93  O   UNL     1       3.584 -19.005  15.660  1.00  0.00    -0.237 OA
ATOM     94  O   UNL     1       5.809 -18.405  16.553  1.00  0.00    -0.237 OA
ATOM     95  O   UNL     1       3.778 -17.845  17.830  1.00  0.00    -0.744 OA
ENDBRANCH  91  92
ENDBRANCH  59  84
ENDBRANCH  33  34
ENDBRANCH  25  28
ENDBRANCH  23  24
ENDBRANCH   1  23
TORSDOF 16
