REMARK SMILES C[C@@H]1CN(S(=O)(=O)[C@@H](C)C(=O)NCCCNC(=O)c2ccc(-c3c4nc(c(-c5c(F)cc(S(=O)(=O)[O-])cc5F)c5ccc([nH]5)c(-c5c(F)cc(S(=O)(=O)[O-])cc5F)c5nc(c(-c6c(F)cc(S(=O)(=O)[O-])cc6F)c6ccc3[nH]6)C=C5)C=C4)cc2)CC[C@@H]1[NH3+]
REMARK SMILES IDX 14 1 13 2 12 3 10 4 11 5 8 7 9 8 5 9 6 10 7 11 4 12 1 13
REMARK SMILES IDX 2 14 3 15 87 16 86 17 85 18 88 19 15 23 16 24 17 25 18 27
REMARK SMILES IDX 19 28 20 29 84 30 21 31 83 32 22 33 23 34 24 35 77 36 25 37
REMARK SMILES IDX 82 38 76 39 78 40 26 41 81 42 75 43 74 44 27 46 61 47 40 48
REMARK SMILES IDX 60 49 41 50 44 51 59 52 79 53 42 54 43 55 58 57 80 58 45 59
REMARK SMILES IDX 28 60 29 61 38 62 30 63 31 64 37 65 39 66 32 67 33 68 34 69
REMARK SMILES IDX 35 70 36 71 62 72 63 73 72 74 64 75 65 76 71 77 73 78 66 79
REMARK SMILES IDX 67 80 68 81 69 82 70 83 46 84 47 85 56 86 48 87 49 88 55 89
REMARK SMILES IDX 57 90 50 91 51 92 52 93 53 94 54 95
REMARK H PARENT 12 6 88 20 88 21 88 22 16 26 78 45 44 56
REMARK Flexibility Score: inf
ROOT
ATOM      1  C   UNL     1      -0.702  -2.206  -1.462  1.00  0.00     0.042 C 
ENDROOT
BRANCH   1   2
ATOM      2  C   UNL     1       0.538  -2.978  -0.954  1.00  0.00     0.117 C 
BRANCH   2   3
ATOM      3  N   UNL     1       1.123  -3.757  -2.049  1.00  0.00    -0.355 N 
ATOM      4  C   UNL     1       2.257  -3.710  -2.798  1.00  0.00     0.239 C 
ATOM      5  O   UNL     1       2.236  -4.465  -3.781  1.00  0.00    -0.274 OA
ATOM      6  H   UNL     1       0.544  -4.509  -2.311  1.00  0.00     0.163 HD
BRANCH   4   7
ATOM      7  C   UNL     1       3.523  -2.946  -2.478  1.00  0.00     0.210 C 
ATOM      8  C   UNL     1       3.905  -2.723  -1.030  1.00  0.00     0.037 C 
BRANCH   7   9
ATOM      9  S   UNL     1       3.856  -1.556  -3.564  1.00  0.00     0.225 S 
ATOM     10  O   UNL     1       3.147  -1.706  -4.822  1.00  0.00    -0.211 OA
ATOM     11  O   UNL     1       5.291  -1.369  -3.566  1.00  0.00    -0.211 OA
BRANCH   9  12
ATOM     12  N   UNL     1       3.188  -0.178  -2.787  1.00  0.00    -0.200 NA
ATOM     13  C   UNL     1       1.499   0.745  -0.460  1.00  0.00     0.015 C 
ATOM     14  C   UNL     1       1.155   0.966  -1.943  1.00  0.00     0.059 C 
ATOM     15  C   UNL     1       1.708  -0.133  -2.853  1.00  0.00     0.111 C 
ATOM     16  C   UNL     1       1.663   2.302  -2.500  1.00  0.00     0.186 C 
ATOM     17  C   UNL     1       3.192   2.326  -2.531  1.00  0.00     0.082 C 
ATOM     18  C   UNL     1       3.760   1.121  -3.293  1.00  0.00     0.108 C 
BRANCH  16  19
ATOM     19  N   UNL     1       1.120   3.414  -1.726  1.00  0.00    -0.355 N 
ATOM     20  H   UNL     1       1.430   3.338  -0.758  1.00  0.00     0.344 HD
ATOM     21  H   UNL     1       0.101   3.386  -1.760  1.00  0.00     0.344 HD
ATOM     22  H   UNL     1       1.449   4.295  -2.121  1.00  0.00     0.344 HD
ENDBRANCH  16  19
ENDBRANCH   9  12
ENDBRANCH   7   9
ENDBRANCH   4   7
ENDBRANCH   2   3
ENDBRANCH   1   2
BRANCH   1  23
ATOM     23  C   UNL     1      -1.960  -2.300  -0.608  1.00  0.00     0.118 C 
BRANCH  23  24
ATOM     24  N   UNL     1      -1.875  -1.537   0.621  1.00  0.00    -0.352 N 
ATOM     25  C   UNL     1      -2.155  -0.253   1.019  1.00  0.00     0.251 C 
ATOM     26  H   UNL     1      -1.526  -2.080   1.364  1.00  0.00     0.163 HD
ATOM     27  O   UNL     1      -1.967  -0.052   2.225  1.00  0.00    -0.269 OA
BRANCH  25  28
ATOM     28  C   UNL     1      -2.639   0.895   0.176  1.00  0.00     0.039 A 
ATOM     29  C   UNL     1      -2.722   2.142   0.833  1.00  0.00     0.014 A 
ATOM     30  C   UNL     1      -3.025   0.866  -1.165  1.00  0.00     0.014 A 
ATOM     31  C   UNL     1      -3.171   3.308   0.189  1.00  0.00     0.010 A 
ATOM     32  C   UNL     1      -3.454   2.047  -1.825  1.00  0.00     0.010 A 
ATOM     33  C   UNL     1      -3.529   3.285  -1.161  1.00  0.00    -0.014 A 
BRANCH  33  34
ATOM     34  C   UNL     1      -3.922   4.542  -1.879  1.00  0.00     0.031 A 
ATOM     35  C   UNL     1      -5.324   4.752  -2.396  1.00  0.00     0.074 A 
ATOM     36  C   UNL     1      -3.011   5.513  -2.104  1.00  0.00     0.049 A 
ATOM     37  N   UNL     1      -5.802   5.743  -3.110  1.00  0.00    -0.248 NA
ATOM     38  C   UNL     1      -6.320   3.728  -2.052  1.00  0.00     0.031 C 
ATOM     39  C   UNL     1      -1.635   5.509  -1.612  1.00  0.00     0.029 A 
ATOM     40  N   UNL     1      -3.094   6.683  -2.825  1.00  0.00    -0.354 N 
ATOM     41  C   UNL     1      -7.154   5.473  -3.292  1.00  0.00     0.074 A 
ATOM     42  C   UNL     1      -7.410   4.199  -2.647  1.00  0.00     0.031 C 
ATOM     43  C   UNL     1      -0.984   6.576  -2.099  1.00  0.00     0.029 A 
ATOM     44  C   UNL     1      -1.895   7.349  -2.939  1.00  0.00     0.049 A 
ATOM     45  H   UNL     1      -3.933   7.013  -3.221  1.00  0.00     0.167 HD
ATOM     46  C   UNL     1      -8.099   6.222  -3.913  1.00  0.00     0.037 A 
ATOM     47  C   UNL     1      -1.546   8.443  -3.646  1.00  0.00     0.037 A 
ATOM     48  C   UNL     1      -7.864   7.498  -4.544  1.00  0.00     0.049 A 
ATOM     49  C   UNL     1      -2.582   9.193  -4.434  1.00  0.00     0.074 A 
ATOM     50  C   UNL     1      -8.787   8.351  -5.129  1.00  0.00     0.029 A 
ATOM     51  N   UNL     1      -6.624   8.101  -4.690  1.00  0.00    -0.354 N 
ATOM     52  N   UNL     1      -3.863   8.946  -4.547  1.00  0.00    -0.248 NA
ATOM     53  C   UNL     1      -2.130  10.379  -5.178  1.00  0.00     0.031 C 
ATOM     54  C   UNL     1      -8.099   9.442  -5.675  1.00  0.00     0.029 A 
ATOM     55  C   UNL     1      -6.753   9.290  -5.394  1.00  0.00     0.049 A 
ATOM     56  H   UNL     1      -5.777   7.739  -4.344  1.00  0.00     0.167 HD
ATOM     57  C   UNL     1      -4.375   9.959  -5.351  1.00  0.00     0.074 A 
ATOM     58  C   UNL     1      -3.267  10.824  -5.696  1.00  0.00     0.031 C 
ATOM     59  C   UNL     1      -5.654  10.151  -5.755  1.00  0.00     0.037 A 
BRANCH  46  60
ATOM     60  C   UNL     1      -9.504   5.684  -3.948  1.00  0.00     0.058 A 
ATOM     61  C   UNL     1     -10.323   5.696  -2.809  1.00  0.00     0.135 A 
ATOM     62  C   UNL     1     -10.059   5.214  -5.150  1.00  0.00     0.135 A 
ATOM     63  F   UNL     1      -9.841   6.131  -1.634  1.00  0.00    -0.206 F 
ATOM     64  C   UNL     1     -11.635   5.234  -2.852  1.00  0.00     0.059 A 
ATOM     65  C   UNL     1     -11.376   4.768  -5.222  1.00  0.00     0.059 A 
ATOM     66  F   UNL     1      -9.321   5.191  -6.271  1.00  0.00    -0.206 F 
ATOM     67  C   UNL     1     -12.151   4.768  -4.063  1.00  0.00     0.060 A 
BRANCH  67  68
ATOM     68  S   UNL     1     -13.853   4.165  -4.102  1.00  0.00     0.124 S 
ATOM     69  O   UNL     1     -13.718   2.877  -3.429  1.00  0.00    -0.237 OA
ATOM     70  O   UNL     1     -14.568   5.196  -3.357  1.00  0.00    -0.237 OA
ATOM     71  O   UNL     1     -14.158   4.100  -5.527  1.00  0.00    -0.744 OA
ENDBRANCH  67  68
ENDBRANCH  46  60
BRANCH  47  72
ATOM     72  C   UNL     1      -0.128   8.889  -3.654  1.00  0.00     0.058 A 
ATOM     73  C   UNL     1       0.277  10.040  -2.965  1.00  0.00     0.135 A 
ATOM     74  C   UNL     1       0.852   8.159  -4.347  1.00  0.00     0.135 A 
ATOM     75  F   UNL     1      -0.627  10.774  -2.298  1.00  0.00    -0.206 F 
ATOM     76  C   UNL     1       1.603  10.460  -2.968  1.00  0.00     0.059 A 
ATOM     77  C   UNL     1       2.186   8.549  -4.350  1.00  0.00     0.059 A 
ATOM     78  F   UNL     1       0.515   7.042  -5.010  1.00  0.00    -0.206 F 
ATOM     79  C   UNL     1       2.551   9.705  -3.662  1.00  0.00     0.060 A 
BRANCH  79  80
ATOM     80  S   UNL     1       4.279  10.226  -3.612  1.00  0.00     0.124 S 
ATOM     81  O   UNL     1       4.262  11.382  -4.501  1.00  0.00    -0.237 OA
ATOM     82  O   UNL     1       4.472  10.512  -2.194  1.00  0.00    -0.237 OA
ATOM     83  O   UNL     1       4.995   9.055  -4.111  1.00  0.00    -0.744 OA
ENDBRANCH  79  80
ENDBRANCH  47  72
BRANCH  59  84
ATOM     84  C   UNL     1      -5.941  11.351  -6.616  1.00  0.00     0.058 A 
ATOM     85  C   UNL     1      -5.574  11.384  -7.970  1.00  0.00     0.135 A 
ATOM     86  C   UNL     1      -6.633  12.458  -6.099  1.00  0.00     0.135 A 
ATOM     87  F   UNL     1      -4.899  10.357  -8.512  1.00  0.00    -0.206 F 
ATOM     88  C   UNL     1      -5.872  12.477  -8.779  1.00  0.00     0.059 A 
ATOM     89  C   UNL     1      -6.961  13.553  -6.895  1.00  0.00     0.059 A 
ATOM     90  F   UNL     1      -7.011  12.478  -4.811  1.00  0.00    -0.206 F 
ATOM     91  C   UNL     1      -6.570  13.556  -8.233  1.00  0.00     0.060 A 
BRANCH  91  92
ATOM     92  S   UNL     1      -6.994  14.946  -9.306  1.00  0.00     0.124 S 
ATOM     93  O   UNL     1      -5.705  15.616  -9.443  1.00  0.00    -0.237 OA
ATOM     94  O   UNL     1      -7.491  14.278 -10.504  1.00  0.00    -0.237 OA
ATOM     95  O   UNL     1      -8.001  15.673  -8.538  1.00  0.00    -0.744 OA
ENDBRANCH  91  92
ENDBRANCH  59  84
ENDBRANCH  33  34
ENDBRANCH  25  28
ENDBRANCH  23  24
ENDBRANCH   1  23
TORSDOF 16
