REMARK SMILES CCCc1cc(S(F)(F)(F)(F)F)cc2c1O[C@@H](C(F)(F)F)C(C(=O)NCCCNC(=O)c1ccc(-c3c4nc(c(-c5c(F)cc(S(=O)(=O)[O-])cc5F)c5ccc([nH]5)c(-c5c(F)cc(S(=O)(=O)[O-])cc5F)c5nc(c(-c6c(F)cc(S(=O)(=O)[O-])cc6F)c6ccc3[nH]6)C=C5)C=C4)cc1)=C2
REMARK SMILES IDX 27 1 26 2 25 3 23 4 24 5 22 7 4 8 5 9 15 10 6 11 14 12 16 13
REMARK SMILES IDX 13 14 98 15 17 16 3 17 2 18 1 19 7 20 8 21 9 22 10 23 11 24
REMARK SMILES IDX 12 25 18 26 19 27 20 28 21 29 28 30 29 31 30 32 31 34 32 35
REMARK SMILES IDX 33 36 97 37 34 38 96 39 35 40 36 41 37 42 90 43 38 44 95 45
REMARK SMILES IDX 89 46 91 47 39 48 94 49 88 50 87 51 40 53 74 54 53 55 73 56
REMARK SMILES IDX 54 57 57 58 72 59 92 60 55 61 56 62 71 64 93 65 58 66 41 67
REMARK SMILES IDX 42 68 51 69 43 70 44 71 50 72 52 73 45 74 46 75 47 76 48 77
REMARK SMILES IDX 49 78 75 79 76 80 85 81 77 82 78 83 84 84 86 85 79 86 80 87
REMARK SMILES IDX 81 88 82 89 83 90 59 91 60 92 69 93 61 94 62 95 68 96 70 97
REMARK SMILES IDX 63 98 64 99 65 100 66 101 67 102
REMARK H PARENT 25 6 29 33 91 52 57 63
REMARK Flexibility Score: inf
ROOT
ATOM      1  C   UNL     1      -4.861   5.558   4.259  1.00  0.00     0.042 C 
ENDROOT
BRANCH   1   2
ATOM      2  C   UNL     1      -4.188   4.484   5.098  1.00  0.00     0.118 C 
BRANCH   2   3
ATOM      3  N   UNL     1      -5.098   3.340   5.250  1.00  0.00    -0.352 N 
ATOM      4  C   UNL     1      -4.699   2.012   4.760  1.00  0.00     0.251 C 
ATOM      5  O   UNL     1      -5.486   1.023   4.892  1.00  0.00    -0.270 OA
ATOM      6  H   UNL     1      -5.976   3.462   5.680  1.00  0.00     0.163 HD
BRANCH   4   7
ATOM      7  C   UNL     1      -3.344   1.823   4.097  1.00  0.00     0.067 C 
ATOM      8  C   UNL     1       0.539   1.123   2.725  1.00  0.00    -0.004 A 
ATOM      9  C   UNL     1       1.353   2.188   2.384  1.00  0.00     0.032 A 
ATOM     10  C   UNL     1      -0.715   1.383   3.224  1.00  0.00     0.131 A 
ATOM     11  C   UNL     1       0.925   3.480   2.542  1.00  0.00     0.108 A 
ATOM     12  C   UNL     1      -1.187   2.674   3.380  1.00  0.00     0.019 A 
ATOM     13  O   UNL     1      -1.467   0.322   3.664  1.00  0.00    -0.475 OA
ATOM     14  C   UNL     1      -0.341   3.722   3.032  1.00  0.00     0.036 A 
ATOM     15  C   UNL     1      -2.511   2.846   3.952  1.00  0.00     0.025 C 
ATOM     16  C   UNL     1      -2.914   0.455   3.584  1.00  0.00     0.314 C 
BRANCH   8  17
ATOM     17  C   UNL     1       1.045  -0.300   2.553  1.00  0.00     0.039 C 
BRANCH  17  18
ATOM     18  C   UNL     1       0.539  -0.862   1.235  1.00  0.00     0.001 C 
ATOM     19  C   UNL     1       1.045  -0.001   0.089  1.00  0.00     0.004 C 
ENDBRANCH  17  18
ENDBRANCH   8  17
BRANCH  11  20
ATOM     20  S   UNL     1       2.015   4.860   2.112  1.00  0.00     0.310 S 
ATOM     21  F   UNL     1       2.677   4.899   3.553  1.00  0.00    -0.094 F 
ATOM     22  F   UNL     1       0.901   5.823   2.673  1.00  0.00    -0.094 F 
ATOM     23  F   UNL     1       2.912   6.072   1.734  1.00  0.00    -0.094 F 
ATOM     24  F   UNL     1       3.176   3.878   1.685  1.00  0.00    -0.094 F 
ATOM     25  F   UNL     1       1.163   3.619   2.595  1.00  0.00    -0.094 F 
ENDBRANCH  11  20
BRANCH  16  26
ATOM     26  C   UNL     1      -3.559  -0.622   4.441  1.00  0.00     0.429 C 
ATOM     27  F   UNL     1      -4.883  -0.510   4.371  1.00  0.00    -0.167 F 
ATOM     28  F   UNL     1      -3.192  -1.821   3.997  1.00  0.00    -0.167 F 
ATOM     29  F   UNL     1      -3.168  -0.477   5.704  1.00  0.00    -0.167 F 
ENDBRANCH  16  26
ENDBRANCH   4   7
ENDBRANCH   2   3
ENDBRANCH   1   2
BRANCH   1  30
ATOM     30  C   UNL     1      -6.137   6.014   4.948  1.00  0.00     0.118 C 
BRANCH  30  31
ATOM     31  N   UNL     1      -5.810   6.560   6.274  1.00  0.00    -0.352 N 
ATOM     32  C   UNL     1      -6.144   7.954   6.597  1.00  0.00     0.251 C 
ATOM     33  H   UNL     1      -5.367   5.991   6.944  1.00  0.00     0.163 HD
ATOM     34  O   UNL     1      -5.861   8.426   7.743  1.00  0.00    -0.269 OA
BRANCH  32  35
ATOM     35  C   UNL     1      -6.827   8.832   5.561  1.00  0.00     0.039 A 
ATOM     36  C   UNL     1      -6.223  10.058   5.336  1.00  0.00     0.014 A 
ATOM     37  C   UNL     1      -7.854   8.424   4.824  1.00  0.00     0.014 A 
ATOM     38  C   UNL     1      -6.965  10.916   4.490  1.00  0.00     0.010 A 
ATOM     39  C   UNL     1      -8.445   9.272   3.918  1.00  0.00     0.010 A 
ATOM     40  C   UNL     1      -7.937  10.520   3.688  1.00  0.00    -0.014 A 
BRANCH  40  41
ATOM     41  C   UNL     1      -8.462  11.404   2.569  1.00  0.00     0.031 A 
ATOM     42  C   UNL     1      -9.802  11.795   2.542  1.00  0.00     0.074 A 
ATOM     43  C   UNL     1      -7.569  11.633   1.536  1.00  0.00     0.049 A 
ATOM     44  N   UNL     1     -10.436  12.461   1.577  1.00  0.00    -0.248 NA
ATOM     45  C   UNL     1     -10.761  11.523   3.624  1.00  0.00     0.031 C 
ATOM     46  C   UNL     1      -6.213  11.250   1.559  1.00  0.00     0.029 A 
ATOM     47  N   UNL     1      -7.811  12.252   0.330  1.00  0.00    -0.354 N 
ATOM     48  C   UNL     1     -11.709  12.669   1.920  1.00  0.00     0.074 A 
ATOM     49  C   UNL     1     -11.938  12.063   3.239  1.00  0.00     0.031 C 
ATOM     50  C   UNL     1      -5.650  11.622   0.379  1.00  0.00     0.029 A 
ATOM     51  C   UNL     1      -6.643  12.245  -0.400  1.00  0.00     0.049 A 
ATOM     52  H   UNL     1      -8.671  12.634   0.040  1.00  0.00     0.167 HD
ATOM     53  C   UNL     1     -12.687  13.342   1.186  1.00  0.00     0.037 A 
ATOM     54  C   UNL     1      -6.437  12.746  -1.675  1.00  0.00     0.037 A 
ATOM     55  C   UNL     1     -12.469  13.881  -0.072  1.00  0.00     0.049 A 
ATOM     56  C   UNL     1      -7.431  13.368  -2.435  1.00  0.00     0.074 A 
ATOM     57  C   UNL     1     -13.442  14.569  -0.822  1.00  0.00     0.029 A 
ATOM     58  N   UNL     1     -11.308  13.852  -0.812  1.00  0.00    -0.354 N 
ATOM     59  N   UNL     1      -8.693  13.610  -2.075  1.00  0.00    -0.248 NA
ATOM     60  C   UNL     1      -7.232  13.873  -3.799  1.00  0.00     0.031 C 
ATOM     61  C   UNL     1     -12.878  14.942  -2.003  1.00  0.00     0.029 A 
ATOM     62  C   UNL     1     -11.544  14.492  -2.009  1.00  0.00     0.049 A 
ATOM     63  H   UNL     1     -10.456  13.445  -0.534  1.00  0.00     0.167 HD
ATOM     64  C   UNL     1      -9.338  14.240  -3.059  1.00  0.00     0.074 A 
ATOM     65  C   UNL     1      -8.410  14.412  -4.185  1.00  0.00     0.031 C 
ATOM     66  C   UNL     1     -10.662  14.682  -3.061  1.00  0.00     0.037 A 
BRANCH  53  67
ATOM     67  C   UNL     1     -14.069  13.491   1.800  1.00  0.00     0.058 A 
ATOM     68  C   UNL     1     -14.208  14.161   3.005  1.00  0.00     0.135 A 
ATOM     69  C   UNL     1     -15.120  12.976   1.173  1.00  0.00     0.135 A 
ATOM     70  F   UNL     1     -13.242  14.903   3.537  1.00  0.00    -0.206 F 
ATOM     71  C   UNL     1     -15.471  13.982   3.618  1.00  0.00     0.059 A 
ATOM     72  C   UNL     1     -16.355  12.957   1.777  1.00  0.00     0.059 A 
ATOM     73  F   UNL     1     -14.977  12.473  -0.050  1.00  0.00    -0.206 F 
ATOM     74  C   UNL     1     -16.551  13.547   2.994  1.00  0.00     0.060 A 
BRANCH  74  75
ATOM     75  S   UNL     1     -18.203  13.724   3.713  1.00  0.00     0.124 S 
ATOM     76  O   UNL     1     -18.258  12.986   5.053  1.00  0.00    -0.237 OA
ATOM     77  O   UNL     1     -18.507  15.208   3.934  1.00  0.00    -0.237 OA
ATOM     78  O   UNL     1     -19.363  13.058   2.647  1.00  0.00    -0.744 OA
ENDBRANCH  74  75
ENDBRANCH  53  67
BRANCH  54  79
ATOM     79  C   UNL     1      -5.050  12.611  -2.283  1.00  0.00     0.058 A 
ATOM     80  C   UNL     1      -4.354  13.752  -2.647  1.00  0.00     0.135 A 
ATOM     81  C   UNL     1      -4.527  11.402  -2.453  1.00  0.00     0.135 A 
ATOM     82  F   UNL     1      -4.719  14.975  -2.270  1.00  0.00    -0.206 F 
ATOM     83  C   UNL     1      -3.221  13.500  -3.455  1.00  0.00     0.059 A 
ATOM     84  C   UNL     1      -3.346  11.241  -3.136  1.00  0.00     0.059 A 
ATOM     85  F   UNL     1      -5.153  10.338  -1.958  1.00  0.00    -0.206 F 
ATOM     86  C   UNL     1      -2.635  12.322  -3.576  1.00  0.00     0.060 A 
BRANCH  86  87
ATOM     87  S   UNL     1      -0.979  12.150  -4.287  1.00  0.00     0.124 S 
ATOM     88  O   UNL     1      -0.982  12.682  -5.722  1.00  0.00    -0.237 OA
ATOM     89  O   UNL     1       0.022  12.948  -3.448  1.00  0.00    -0.237 OA
ATOM     90  O   UNL     1      -0.530  10.500  -4.292  1.00  0.00    -0.744 OA
ENDBRANCH  86  87
ENDBRANCH  54  79
BRANCH  66  91
ATOM     91  C   UNL     1     -11.167  15.417  -4.292  1.00  0.00     0.058 A 
ATOM     92  C   UNL     1     -11.257  14.664  -5.451  1.00  0.00     0.135 A 
ATOM     93  C   UNL     1     -11.626  16.662  -4.242  1.00  0.00     0.135 A 
ATOM     94  F   UNL     1     -11.049  13.350  -5.481  1.00  0.00    -0.206 F 
ATOM     95  C   UNL     1     -11.592  15.418  -6.601  1.00  0.00     0.059 A 
ATOM     96  C   UNL     1     -12.064  17.292  -5.382  1.00  0.00     0.059 A 
ATOM     97  F   UNL     1     -11.662  17.305  -3.079  1.00  0.00    -0.206 F 
ATOM     98  C   UNL     1     -12.125  16.626  -6.575  1.00  0.00     0.060 A 
BRANCH  98  99
ATOM     99  S   UNL     1     -12.894  17.361  -8.039  1.00  0.00     0.124 S 
ATOM    100  O   UNL     1     -11.858  17.465  -9.161  1.00  0.00    -0.237 OA
ATOM    101  O   UNL     1     -14.058  16.481  -8.500  1.00  0.00    -0.237 OA
ATOM    102  O   UNL     1     -13.477  18.922  -7.654  1.00  0.00    -0.744 OA
ENDBRANCH  98  99
ENDBRANCH  66  91
ENDBRANCH  40  41
ENDBRANCH  32  35
ENDBRANCH  30  31
ENDBRANCH   1  30
TORSDOF 17
