REMARK SMILES CC[C@@H](C)NC(=O)Cn1cccc1C(=O)NCCCNC(=O)c1ccc(-c2c3nc(c(-c4c(F)cc(S(=O)(=O)[O-])cc4F)c4ccc([nH]4)c(-c4c(F)cc(S(=O)(=O)[O-])cc4F)c4nc(c(-c5c(F)cc(S(=O)(=O)[O-])cc5F)c5ccc2[nH]5)C=C4)C=C3)cc1
REMARK SMILES IDX 17 1 16 2 14 3 15 4 13 6 9 7 10 8 11 9 12 10 8 11 6 12 5 13
REMARK SMILES IDX 7 15 3 16 4 17 2 18 1 19 18 20 19 21 20 22 21 23 22 25 23 26
REMARK SMILES IDX 24 27 88 28 25 29 87 30 26 31 27 32 28 33 81 34 29 35 86 36
REMARK SMILES IDX 80 37 82 38 30 39 85 40 79 41 78 42 31 44 65 45 44 46 64 47
REMARK SMILES IDX 45 48 48 49 63 50 83 51 46 52 47 53 62 55 84 56 49 57 32 58
REMARK SMILES IDX 33 59 42 60 34 61 35 62 41 63 43 64 36 65 37 66 38 67 39 68
REMARK SMILES IDX 40 69 66 70 67 71 76 72 68 73 69 74 75 75 77 76 70 77 71 78
REMARK SMILES IDX 72 79 73 80 74 81 50 82 51 83 60 84 52 85 53 86 59 87 61 88
REMARK SMILES IDX 54 89 55 90 56 91 57 92 58 93
REMARK H PARENT 16 5 5 14 20 24 82 43 48 54
REMARK Flexibility Score: inf
ROOT
ATOM      1  C   UNL     1       5.044  -4.470  -2.456  1.00  0.00     0.118 C 
ENDROOT
BRANCH   1   2
ATOM      2  N   UNL     1       5.850  -3.279  -2.537  1.00  0.00    -0.351 N 
ATOM      3  C   UNL     1       5.665  -1.934  -2.645  1.00  0.00     0.267 C 
ATOM      4  O   UNL     1       6.718  -1.317  -2.432  1.00  0.00    -0.268 OA
ATOM      5  H   UNL     1       6.809  -3.500  -2.505  1.00  0.00     0.163 HD
BRANCH   3   6
ATOM      6  C   UNL     1       4.448  -1.187  -2.970  1.00  0.00     0.107 A 
ATOM      7  N   UNL     1       3.167  -1.480  -3.434  1.00  0.00    -0.334 N 
ATOM      8  C   UNL     1       2.533  -0.312  -3.816  1.00  0.00     0.087 A 
ATOM      9  C   UNL     1       3.295   0.755  -3.429  1.00  0.00     0.020 A 
ATOM     10  C   UNL     1       4.474   0.214  -2.900  1.00  0.00     0.033 A 
BRANCH   7  11
ATOM     11  C   UNL     1       2.509  -2.772  -3.555  1.00  0.00     0.222 C 
BRANCH  11  12
ATOM     12  C   UNL     1       0.991  -2.762  -3.579  1.00  0.00     0.240 C 
ATOM     13  N   UNL     1       0.290  -2.509  -2.430  1.00  0.00    -0.352 N 
ATOM     14  H   UNL     1      -0.673  -2.707  -2.467  1.00  0.00     0.163 HD
ATOM     15  O   UNL     1       0.358  -3.055  -4.596  1.00  0.00    -0.273 OA
BRANCH  13  16
ATOM     16  C   UNL     1       0.780  -1.983  -1.155  1.00  0.00     0.078 C 
ATOM     17  C   UNL     1       0.336  -2.897  -0.016  1.00  0.00     0.031 C 
BRANCH  16  18
ATOM     18  C   UNL     1       0.270  -0.544  -0.982  1.00  0.00     0.021 C 
ATOM     19  C   UNL     1       0.964   0.207   0.143  1.00  0.00     0.006 C 
ENDBRANCH  16  18
ENDBRANCH  13  16
ENDBRANCH  11  12
ENDBRANCH   7  11
ENDBRANCH   3   6
ENDBRANCH   1   2
BRANCH   1  20
ATOM     20  C   UNL     1       4.787  -5.096  -3.828  1.00  0.00     0.042 C 
BRANCH  20  21
ATOM     21  C   UNL     1       5.637  -6.347  -4.041  1.00  0.00     0.118 C 
BRANCH  21  22
ATOM     22  N   UNL     1       5.177  -7.413  -3.162  1.00  0.00    -0.352 N 
ATOM     23  C   UNL     1       5.673  -8.672  -2.943  1.00  0.00     0.251 C 
ATOM     24  H   UNL     1       4.374  -7.193  -2.637  1.00  0.00     0.163 HD
ATOM     25  O   UNL     1       4.956  -9.495  -2.390  1.00  0.00    -0.269 OA
BRANCH  23  26
ATOM     26  C   UNL     1       7.028  -9.055  -3.385  1.00  0.00     0.039 A 
ATOM     27  C   UNL     1       7.195 -10.344  -3.907  1.00  0.00     0.014 A 
ATOM     28  C   UNL     1       8.128  -8.206  -3.228  1.00  0.00     0.014 A 
ATOM     29  C   UNL     1       8.449 -10.755  -4.339  1.00  0.00     0.010 A 
ATOM     30  C   UNL     1       9.379  -8.601  -3.687  1.00  0.00     0.010 A 
ATOM     31  C   UNL     1       9.530  -9.868  -4.261  1.00  0.00    -0.014 A 
BRANCH  31  32
ATOM     32  C   UNL     1      10.779 -10.214  -4.976  1.00  0.00     0.031 A 
ATOM     33  C   UNL     1      10.587 -10.047  -6.516  1.00  0.00     0.074 A 
ATOM     34  C   UNL     1      11.817 -10.634  -4.187  1.00  0.00     0.049 A 
ATOM     35  N   UNL     1      11.073 -10.713  -7.524  1.00  0.00    -0.248 NA
ATOM     36  C   UNL     1       9.590  -9.037  -6.987  1.00  0.00     0.031 C 
ATOM     37  C   UNL     1      11.800 -10.701  -2.705  1.00  0.00     0.029 A 
ATOM     38  N   UNL     1      13.086 -11.095  -4.443  1.00  0.00    -0.354 N 
ATOM     39  C   UNL     1      10.599 -10.098  -8.715  1.00  0.00     0.074 A 
ATOM     40  C   UNL     1       9.594  -9.162  -8.316  1.00  0.00     0.031 C 
ATOM     41  C   UNL     1      12.930 -11.267  -2.225  1.00  0.00     0.029 A 
ATOM     42  C   UNL     1      13.796 -11.626  -3.327  1.00  0.00     0.049 A 
ATOM     43  H   UNL     1      13.481 -11.060  -5.344  1.00  0.00     0.167 HD
ATOM     44  C   UNL     1      11.164 -10.280  -9.947  1.00  0.00     0.037 A 
ATOM     45  C   UNL     1      14.940 -12.391  -3.322  1.00  0.00     0.037 A 
ATOM     46  C   UNL     1      12.299 -11.131  -9.844  1.00  0.00     0.049 A 
ATOM     47  C   UNL     1      15.261 -12.530  -4.752  1.00  0.00     0.074 A 
ATOM     48  C   UNL     1      12.572 -12.466  -9.991  1.00  0.00     0.029 A 
ATOM     49  N   UNL     1      13.444 -10.499  -9.439  1.00  0.00    -0.354 N 
ATOM     50  N   UNL     1      15.716 -11.590  -5.521  1.00  0.00    -0.248 NA
ATOM     51  C   UNL     1      14.700 -13.710  -5.405  1.00  0.00     0.031 C 
ATOM     52  C   UNL     1      13.887 -12.638  -9.492  1.00  0.00     0.029 A 
ATOM     53  C   UNL     1      14.244 -11.446  -8.865  1.00  0.00     0.049 A 
ATOM     54  H   UNL     1      13.653  -9.543  -9.542  1.00  0.00     0.167 HD
ATOM     55  C   UNL     1      15.262 -11.941  -6.772  1.00  0.00     0.074 A 
ATOM     56  C   UNL     1      14.690 -13.275  -6.657  1.00  0.00     0.031 C 
ATOM     57  C   UNL     1      15.056 -11.032  -7.756  1.00  0.00     0.037 A 
BRANCH  44  58
ATOM     58  C   UNL     1      11.050  -9.534 -11.272  1.00  0.00     0.058 A 
ATOM     59  C   UNL     1      11.540 -10.186 -12.437  1.00  0.00     0.135 A 
ATOM     60  C   UNL     1      10.887  -8.145 -11.386  1.00  0.00     0.135 A 
ATOM     61  F   UNL     1      11.648 -11.525 -12.480  1.00  0.00    -0.206 F 
ATOM     62  C   UNL     1      12.001  -9.499 -13.557  1.00  0.00     0.059 A 
ATOM     63  C   UNL     1      11.291  -7.436 -12.530  1.00  0.00     0.059 A 
ATOM     64  F   UNL     1      10.401  -7.423 -10.366  1.00  0.00    -0.206 F 
ATOM     65  C   UNL     1      11.906  -8.116 -13.582  1.00  0.00     0.060 A 
BRANCH  65  66
ATOM     66  S   UNL     1      12.612  -7.240 -14.997  1.00  0.00     0.124 S 
ATOM     67  O   UNL     1      14.044  -7.373 -14.752  1.00  0.00    -0.237 OA
ATOM     68  O   UNL     1      12.093  -8.007 -16.127  1.00  0.00    -0.237 OA
ATOM     69  O   UNL     1      12.067  -5.893 -14.866  1.00  0.00    -0.744 OA
ENDBRANCH  65  66
ENDBRANCH  44  58
BRANCH  45  70
ATOM     70  C   UNL     1      15.655 -13.316  -2.354  1.00  0.00     0.058 A 
ATOM     71  C   UNL     1      15.500 -13.340  -0.963  1.00  0.00     0.135 A 
ATOM     72  C   UNL     1      16.484 -14.361  -2.861  1.00  0.00     0.135 A 
ATOM     73  F   UNL     1      14.900 -12.329  -0.322  1.00  0.00    -0.206 F 
ATOM     74  C   UNL     1      15.958 -14.411  -0.170  1.00  0.00     0.059 A 
ATOM     75  C   UNL     1      16.913 -15.453  -2.107  1.00  0.00     0.059 A 
ATOM     76  F   UNL     1      16.880 -14.384  -4.142  1.00  0.00    -0.206 F 
ATOM     77  C   UNL     1      16.608 -15.494  -0.761  1.00  0.00     0.060 A 
BRANCH  77  78
ATOM     78  S   UNL     1      16.939 -17.003   0.180  1.00  0.00     0.124 S 
ATOM     79  O   UNL     1      18.179 -16.669   0.870  1.00  0.00    -0.237 OA
ATOM     80  O   UNL     1      15.751 -17.113   1.022  1.00  0.00    -0.237 OA
ATOM     81  O   UNL     1      17.050 -18.027  -0.856  1.00  0.00    -0.744 OA
ENDBRANCH  77  78
ENDBRANCH  45  70
BRANCH  57  82
ATOM     82  C   UNL     1      15.354  -9.589  -7.387  1.00  0.00     0.058 A 
ATOM     83  C   UNL     1      16.655  -9.085  -7.416  1.00  0.00     0.135 A 
ATOM     84  C   UNL     1      14.354  -8.695  -6.942  1.00  0.00     0.135 A 
ATOM     85  F   UNL     1      17.667  -9.874  -7.806  1.00  0.00    -0.206 F 
ATOM     86  C   UNL     1      16.943  -7.761  -7.061  1.00  0.00     0.059 A 
ATOM     87  C   UNL     1      14.608  -7.368  -6.593  1.00  0.00     0.059 A 
ATOM     88  F   UNL     1      13.082  -9.094  -6.860  1.00  0.00    -0.206 F 
ATOM     89  C   UNL     1      15.913  -6.905  -6.660  1.00  0.00     0.060 A 
BRANCH  89  90
ATOM     90  S   UNL     1      16.298  -5.185  -6.255  1.00  0.00     0.124 S 
ATOM     91  O   UNL     1      17.228  -5.329  -5.139  1.00  0.00    -0.237 OA
ATOM     92  O   UNL     1      16.878  -4.700  -7.502  1.00  0.00    -0.237 OA
ATOM     93  O   UNL     1      15.000  -4.611  -5.907  1.00  0.00    -0.744 OA
ENDBRANCH  89  90
ENDBRANCH  57  82
ENDBRANCH  31  32
ENDBRANCH  23  26
ENDBRANCH  21  22
ENDBRANCH  20  21
ENDBRANCH   1  20
TORSDOF 17
