REMARK SMILES COc1cccc(Cn2c(=O)c(=O)n(CC(=O)NCCCNC(=O)c3ccc(-c4c5nc(c(-c6c(F)cc(S(=O)(=O)[O-])cc6F)c6ccc([nH]6)c(-c6c(F)cc(S(=O)(=O)[O-])cc6F)c6nc(c(-c7c(F)cc(S(=O)(=O)[O-])cc7F)c7ccc4[nH]7)C=C6)C=C5)cc3)c3ccccc32)c1
REMARK SMILES IDX 19 1 18 2 16 3 17 4 15 6 14 7 9 8 10 9 96 10 11 11 12 12
REMARK SMILES IDX 91 13 95 14 13 15 92 16 94 17 93 18 8 19 7 20 3 21 4 22
REMARK SMILES IDX 97 23 5 24 6 25 2 26 1 27 20 28 21 29 22 30 23 31 24 33
REMARK SMILES IDX 25 34 26 35 90 36 27 37 89 38 28 39 29 40 30 41 83 42 31 43
REMARK SMILES IDX 88 44 82 45 84 46 32 47 87 48 81 49 80 50 33 52 67 53 46 54
REMARK SMILES IDX 66 55 47 56 50 57 65 58 85 59 48 60 49 61 64 63 86 64 51 65
REMARK SMILES IDX 34 66 35 67 44 68 36 69 37 70 43 71 45 72 38 73 39 74 40 75
REMARK SMILES IDX 41 76 42 77 68 78 69 79 78 80 70 81 71 82 77 83 79 84 72 85
REMARK SMILES IDX 73 86 74 87 75 88 76 89 52 90 53 91 62 92 54 93 55 94 61 95
REMARK SMILES IDX 63 96 56 97 57 98 58 99 59 100 60 101
REMARK H PARENT 18 5 22 32 84 51 50 62
REMARK Flexibility Score: inf
ROOT
ATOM      1  C   UNL     1       0.905   6.401   1.621  1.00  0.00     0.117 C 
ENDROOT
BRANCH   1   2
ATOM      2  N   UNL     1       1.350   7.576   0.902  1.00  0.00    -0.354 N 
ATOM      3  C   UNL     1       2.546   7.881   0.338  1.00  0.00     0.240 C 
ATOM      4  O   UNL     1       2.599   8.957  -0.274  1.00  0.00    -0.273 OA
ATOM      5  H   UNL     1       0.665   8.277   0.805  1.00  0.00     0.163 HD
BRANCH   3   6
ATOM      6  C   UNL     1       3.719   6.902   0.211  1.00  0.00     0.226 C 
BRANCH   6   7
ATOM      7  N   UNL     1       4.204   6.011   1.254  1.00  0.00    -0.293 N 
ATOM      8  N   UNL     1       5.313   4.092   2.986  1.00  0.00    -0.298 N 
ATOM      9  C   UNL     1       5.057   3.749   1.672  1.00  0.00     0.317 A 
ATOM     10  C   UNL     1       5.612   5.462   3.212  1.00  0.00     0.068 A 
ATOM     11  O   UNL     1       5.548   2.809   1.068  1.00  0.00    -0.263 OA
ATOM     12  C   UNL     1       4.022   4.653   1.012  1.00  0.00     0.317 A 
ATOM     13  C   UNL     1       5.095   6.431   2.299  1.00  0.00     0.069 A 
ATOM     14  C   UNL     1       6.542   5.844   4.188  1.00  0.00     0.028 A 
ATOM     15  O   UNL     1       3.182   4.165   0.271  1.00  0.00    -0.263 OA
ATOM     16  C   UNL     1       5.491   7.766   2.435  1.00  0.00     0.028 A 
ATOM     17  C   UNL     1       6.982   7.168   4.250  1.00  0.00     0.002 A 
ATOM     18  C   UNL     1       6.450   8.125   3.387  1.00  0.00     0.002 A 
BRANCH   8  19
ATOM     19  C   UNL     1       5.340   3.019   3.980  1.00  0.00     0.162 C 
BRANCH  19  20
ATOM     20  C   UNL     1       3.957   2.348   4.007  1.00  0.00    -0.024 A 
ATOM     21  C   UNL     1       2.168   1.411   2.651  1.00  0.00     0.119 A 
ATOM     22  C   UNL     1       1.232   1.801   3.598  1.00  0.00     0.046 A 
ATOM     23  C   UNL     1       3.527   1.584   2.899  1.00  0.00     0.052 A 
ATOM     24  C   UNL     1       1.656   2.395   4.786  1.00  0.00     0.004 A 
ATOM     25  C   UNL     1       3.008   2.705   4.975  1.00  0.00     0.006 A 
BRANCH  21  26
ATOM     26  O   UNL     1       1.719   1.174   1.379  1.00  0.00    -0.497 OA
ATOM     27  C   UNL     1       1.799  -0.187   0.992  1.00  0.00     0.278 C 
ENDBRANCH  21  26
ENDBRANCH  19  20
ENDBRANCH   8  19
ENDBRANCH   6   7
ENDBRANCH   3   6
ENDBRANCH   1   2
BRANCH   1  28
ATOM     28  C   UNL     1       1.160   6.526   3.120  1.00  0.00     0.042 C 
BRANCH  28  29
ATOM     29  C   UNL     1       0.193   7.478   3.825  1.00  0.00     0.118 C 
BRANCH  29  30
ATOM     30  N   UNL     1      -1.148   6.922   3.924  1.00  0.00    -0.352 N 
ATOM     31  C   UNL     1      -2.048   6.956   4.958  1.00  0.00     0.251 C 
ATOM     32  H   UNL     1      -1.459   6.445   3.120  1.00  0.00     0.163 HD
ATOM     33  O   UNL     1      -3.051   6.248   4.889  1.00  0.00    -0.269 OA
BRANCH  31  34
ATOM     34  C   UNL     1      -1.835   7.812   6.150  1.00  0.00     0.039 A 
ATOM     35  C   UNL     1      -2.298   7.346   7.387  1.00  0.00     0.014 A 
ATOM     36  C   UNL     1      -1.279   9.091   6.061  1.00  0.00     0.014 A 
ATOM     37  C   UNL     1      -2.196   8.149   8.525  1.00  0.00     0.010 A 
ATOM     38  C   UNL     1      -1.121   9.870   7.208  1.00  0.00     0.010 A 
ATOM     39  C   UNL     1      -1.601   9.417   8.445  1.00  0.00    -0.014 A 
BRANCH  39  40
ATOM     40  C   UNL     1      -1.530  10.299   9.637  1.00  0.00     0.031 A 
ATOM     41  C   UNL     1      -2.340  11.569   9.678  1.00  0.00     0.074 A 
ATOM     42  C   UNL     1      -0.728   9.968  10.667  1.00  0.00     0.049 A 
ATOM     43  N   UNL     1      -2.380  12.494  10.602  1.00  0.00    -0.248 NA
ATOM     44  C   UNL     1      -3.200  11.845   8.516  1.00  0.00     0.031 C 
ATOM     45  C   UNL     1       0.123   8.777  10.726  1.00  0.00     0.029 A 
ATOM     46  N   UNL     1      -0.494  10.601  11.860  1.00  0.00    -0.354 N 
ATOM     47  C   UNL     1      -3.257  13.464  10.129  1.00  0.00     0.074 A 
ATOM     48  C   UNL     1      -3.688  13.040   8.815  1.00  0.00     0.031 C 
ATOM     49  C   UNL     1       0.766   8.754  11.905  1.00  0.00     0.029 A 
ATOM     50  C   UNL     1       0.398   9.940  12.671  1.00  0.00     0.049 A 
ATOM     51  H   UNL     1      -0.924  11.450  12.113  1.00  0.00     0.167 HD
ATOM     52  C   UNL     1      -3.684  14.593  10.745  1.00  0.00     0.037 A 
ATOM     53  C   UNL     1       0.863  10.257  13.894  1.00  0.00     0.037 A 
ATOM     54  C   UNL     1      -3.276  14.990  12.067  1.00  0.00     0.049 A 
ATOM     55  C   UNL     1       0.367  11.511  14.561  1.00  0.00     0.074 A 
ATOM     56  C   UNL     1      -3.671  16.097  12.796  1.00  0.00     0.029 A 
ATOM     57  N   UNL     1      -2.387  14.282  12.863  1.00  0.00    -0.354 N 
ATOM     58  N   UNL     1      -0.483  12.402  14.109  1.00  0.00    -0.248 NA
ATOM     59  C   UNL     1       0.888  11.800  15.904  1.00  0.00     0.031 C 
ATOM     60  C   UNL     1      -3.002  16.072  14.025  1.00  0.00     0.029 A 
ATOM     61  C   UNL     1      -2.216  14.931  14.074  1.00  0.00     0.049 A 
ATOM     62  H   UNL     1      -1.942  13.443  12.604  1.00  0.00     0.167 HD
ATOM     63  C   UNL     1      -0.619  13.344  15.122  1.00  0.00     0.074 A 
ATOM     64  C   UNL     1       0.229  12.908  16.214  1.00  0.00     0.031 C 
ATOM     65  C   UNL     1      -1.376  14.468  15.149  1.00  0.00     0.037 A 
BRANCH  52  66
ATOM     66  C   UNL     1      -4.654  15.469  10.000  1.00  0.00     0.058 A 
ATOM     67  C   UNL     1      -5.989  15.081   9.804  1.00  0.00     0.135 A 
ATOM     68  C   UNL     1      -4.256  16.719   9.501  1.00  0.00     0.135 A 
ATOM     69  F   UNL     1      -6.418  13.888  10.246  1.00  0.00    -0.206 F 
ATOM     70  C   UNL     1      -6.889  15.889   9.116  1.00  0.00     0.059 A 
ATOM     71  C   UNL     1      -5.146  17.555   8.831  1.00  0.00     0.059 A 
ATOM     72  F   UNL     1      -2.991  17.139   9.659  1.00  0.00    -0.206 F 
ATOM     73  C   UNL     1      -6.457  17.124   8.630  1.00  0.00     0.060 A 
BRANCH  73  74
ATOM     74  S   UNL     1      -7.636  18.164   7.742  1.00  0.00     0.124 S 
ATOM     75  O   UNL     1      -7.710  17.482   6.454  1.00  0.00    -0.237 OA
ATOM     76  O   UNL     1      -8.829  18.070   8.578  1.00  0.00    -0.237 OA
ATOM     77  O   UNL     1      -6.989  19.472   7.725  1.00  0.00    -0.744 OA
ENDBRANCH  73  74
ENDBRANCH  52  66
BRANCH  53  78
ATOM     78  C   UNL     1       1.829   9.359  14.580  1.00  0.00     0.058 A 
ATOM     79  C   UNL     1       1.437   8.590  15.685  1.00  0.00     0.135 A 
ATOM     80  C   UNL     1       3.158   9.248  14.144  1.00  0.00     0.135 A 
ATOM     81  F   UNL     1       0.177   8.665  16.140  1.00  0.00    -0.206 F 
ATOM     82  C   UNL     1       2.332   7.757  16.349  1.00  0.00     0.059 A 
ATOM     83  C   UNL     1       4.066   8.406  14.778  1.00  0.00     0.059 A 
ATOM     84  F   UNL     1       3.578   9.948  13.079  1.00  0.00    -0.206 F 
ATOM     85  C   UNL     1       3.647   7.674  15.888  1.00  0.00     0.060 A 
BRANCH  85  86
ATOM     86  S   UNL     1       4.795   6.562  16.730  1.00  0.00     0.124 S 
ATOM     87  O   UNL     1       5.122   7.331  17.925  1.00  0.00    -0.237 OA
ATOM     88  O   UNL     1       3.977   5.372  16.939  1.00  0.00    -0.237 OA
ATOM     89  O   UNL     1       5.876   6.406  15.762  1.00  0.00    -0.744 OA
ENDBRANCH  85  86
ENDBRANCH  53  78
BRANCH  65  90
ATOM     90  C   UNL     1      -1.345  15.285  16.408  1.00  0.00     0.058 A 
ATOM     91  C   UNL     1      -0.249  16.100  16.726  1.00  0.00     0.135 A 
ATOM     92  C   UNL     1      -2.445  15.286  17.280  1.00  0.00     0.135 A 
ATOM     93  F   UNL     1       0.828  16.127  15.926  1.00  0.00    -0.206 F 
ATOM     94  C   UNL     1      -0.235  16.876  17.881  1.00  0.00     0.059 A 
ATOM     95  C   UNL     1      -2.462  16.070  18.428  1.00  0.00     0.059 A 
ATOM     96  F   UNL     1      -3.521  14.529  17.013  1.00  0.00    -0.206 F 
ATOM     97  C   UNL     1      -1.347  16.854  18.726  1.00  0.00     0.060 A 
BRANCH  97  98
ATOM     98  S   UNL     1      -1.332  17.889  20.204  1.00  0.00     0.124 S 
ATOM     99  O   UNL     1      -0.473  17.116  21.095  1.00  0.00    -0.237 OA
ATOM    100  O   UNL     1      -0.769  19.140  19.707  1.00  0.00    -0.237 OA
ATOM    101  O   UNL     1      -2.740  17.952  20.587  1.00  0.00    -0.744 OA
ENDBRANCH  97  98
ENDBRANCH  65  90
ENDBRANCH  39  40
ENDBRANCH  31  34
ENDBRANCH  29  30
ENDBRANCH  28  29
ENDBRANCH   1  28
TORSDOF 17
