REMARK SMILES CCn1cc(Br)cc1C(=O)N[C@@H]1C=C[C@@H](C(=O)NCCCNC(=O)c2ccc(-c3c4nc(c(-c5c(F)cc(S(=O)(=O)[O-])cc5F)c5ccc([nH]5)c(-c5c(F)cc(S(=O)(=O)[O-])cc5F)c5nc(c(-c6c(F)cc(S(=O)(=O)[O-])cc6F)c6ccc3[nH]6)C=C5)C=C4)cc2)C1
REMARK SMILES IDX 20 1 19 2 18 3 16 4 17 5 15 7 12 8 13 9 91 10 14 11 11 12
REMARK SMILES IDX 9 13 10 14 8 16 3 17 4 18 5 19 7 20 6 21 2 22 1 23 21 24
REMARK SMILES IDX 22 25 23 26 24 28 25 29 26 30 90 31 27 32 89 33 28 34 29 35
REMARK SMILES IDX 30 36 83 37 31 38 88 39 82 40 84 41 32 42 87 43 81 44 80 45
REMARK SMILES IDX 33 47 67 48 46 49 66 50 47 51 50 52 65 53 85 54 48 55 49 56
REMARK SMILES IDX 64 58 86 59 51 60 34 61 35 62 44 63 36 64 37 65 43 66 45 67
REMARK SMILES IDX 38 68 39 69 40 70 41 71 42 72 68 73 69 74 78 75 70 76 71 77
REMARK SMILES IDX 77 78 79 79 72 80 73 81 74 82 75 83 76 84 52 85 53 86 62 87
REMARK SMILES IDX 54 88 55 89 61 90 63 91 56 92 57 93 58 94 59 95 60 96
REMARK H PARENT 18 6 11 15 22 27 84 46 50 57
REMARK Flexibility Score: inf
ROOT
ATOM      1  C   UNL     1       1.580  -2.260   3.953  1.00  0.00     0.042 C 
ENDROOT
BRANCH   1   2
ATOM      2  C   UNL     1       0.550  -1.203   3.575  1.00  0.00     0.117 C 
BRANCH   2   3
ATOM      3  N   UNL     1       1.102   0.037   3.007  1.00  0.00    -0.356 N 
ATOM      4  C   UNL     1       1.036   0.788   1.873  1.00  0.00     0.227 C 
ATOM      5  O   UNL     1       1.489   1.934   2.021  1.00  0.00    -0.274 OA
ATOM      6  H   UNL     1       1.715   0.458   3.653  1.00  0.00     0.163 HD
BRANCH   4   7
ATOM      7  C   UNL     1       0.610   0.350   0.376  1.00  0.00     0.103 C 
ATOM      8  C   UNL     1       0.454  -2.679  -0.703  1.00  0.00     0.106 C 
ATOM      9  C   UNL     1      -1.233  -1.612  -1.152  1.00  0.00    -0.006 C 
ATOM     10  C   UNL     1       1.775  -1.329   0.088  1.00  0.00     0.047 C 
ATOM     11  C   UNL     1      -1.113  -0.020  -0.654  1.00  0.00    -0.016 C 
BRANCH   8  12
ATOM     12  N   UNL     1       0.784  -3.474  -1.812  1.00  0.00    -0.345 N 
ATOM     13  C   UNL     1       0.703  -2.837  -2.980  1.00  0.00     0.268 C 
ATOM     14  O   UNL     1       0.718  -3.402  -4.063  1.00  0.00    -0.268 OA
ATOM     15  H   UNL     1       1.052  -4.418  -1.734  1.00  0.00     0.164 HD
BRANCH  13  16
ATOM     16  C   UNL     1       0.637  -1.437  -2.715  1.00  0.00     0.108 A 
ATOM     17  N   UNL     1       0.582  -0.771  -1.304  1.00  0.00    -0.343 N 
ATOM     18  C   UNL     1       1.431   0.400  -1.815  1.00  0.00     0.102 A 
ATOM     19  C   UNL     1       1.152   0.686  -3.122  1.00  0.00     0.036 A 
ATOM     20  C   UNL     1       0.671  -0.468  -3.704  1.00  0.00     0.049 A 
ATOM     21  Br  UNL     1       1.712   2.191  -4.087  1.00  0.00    -0.049 Br
BRANCH  17  22
ATOM     22  C   UNL     1      -0.229  -1.337   0.539  1.00  0.00     0.119 C 
ATOM     23  C   UNL     1      -1.548  -0.531   1.516  1.00  0.00     0.027 C 
ENDBRANCH  17  22
ENDBRANCH  13  16
ENDBRANCH   8  12
ENDBRANCH   4   7
ENDBRANCH   2   3
ENDBRANCH   1   2
BRANCH   1  24
ATOM     24  C   UNL     1       2.148  -1.961   5.315  1.00  0.00     0.118 C 
BRANCH  24  25
ATOM     25  N   UNL     1       1.125  -2.055   6.367  1.00  0.00    -0.352 N 
ATOM     26  C   UNL     1       1.290  -1.834   7.722  1.00  0.00     0.251 C 
ATOM     27  H   UNL     1       0.219  -2.304   6.072  1.00  0.00     0.163 HD
ATOM     28  O   UNL     1       0.502  -2.295   8.537  1.00  0.00    -0.269 OA
BRANCH  26  29
ATOM     29  C   UNL     1       2.412  -0.974   8.133  1.00  0.00     0.039 A 
ATOM     30  C   UNL     1       3.253  -1.258   9.206  1.00  0.00     0.014 A 
ATOM     31  C   UNL     1       2.675   0.102   7.299  1.00  0.00     0.014 A 
ATOM     32  C   UNL     1       4.349  -0.416   9.416  1.00  0.00     0.010 A 
ATOM     33  C   UNL     1       3.949   0.581   7.280  1.00  0.00     0.010 A 
ATOM     34  C   UNL     1       4.689   0.539   8.436  1.00  0.00    -0.014 A 
BRANCH  34  35
ATOM     35  C   UNL     1       5.975   1.235   8.371  1.00  0.00     0.031 A 
ATOM     36  C   UNL     1       7.060   0.229   8.437  1.00  0.00     0.074 A 
ATOM     37  C   UNL     1       6.141   2.565   8.120  1.00  0.00     0.049 A 
ATOM     38  N   UNL     1       7.614  -0.171   9.534  1.00  0.00    -0.248 NA
ATOM     39  C   UNL     1       7.307  -0.691   7.307  1.00  0.00     0.031 C 
ATOM     40  C   UNL     1       5.127   3.596   7.856  1.00  0.00     0.029 A 
ATOM     41  N   UNL     1       7.305   3.299   8.026  1.00  0.00    -0.354 N 
ATOM     42  C   UNL     1       8.587  -1.068   9.132  1.00  0.00     0.074 A 
ATOM     43  C   UNL     1       8.132  -1.582   7.872  1.00  0.00     0.031 C 
ATOM     44  C   UNL     1       5.713   4.737   7.407  1.00  0.00     0.029 A 
ATOM     45  C   UNL     1       7.157   4.594   7.468  1.00  0.00     0.049 A 
ATOM     46  H   UNL     1       8.176   2.949   8.325  1.00  0.00     0.167 HD
ATOM     47  C   UNL     1       9.837  -0.941   9.658  1.00  0.00     0.037 A 
ATOM     48  C   UNL     1       8.154   5.487   7.148  1.00  0.00     0.037 A 
ATOM     49  C   UNL     1       9.792  -0.084  10.829  1.00  0.00     0.049 A 
ATOM     50  C   UNL     1       9.340   5.104   7.967  1.00  0.00     0.074 A 
ATOM     51  C   UNL     1       9.057  -0.067  12.001  1.00  0.00     0.029 A 
ATOM     52  N   UNL     1      10.259   1.196  10.654  1.00  0.00    -0.354 N 
ATOM     53  N   UNL     1       9.352   5.221   9.269  1.00  0.00    -0.248 NA
ATOM     54  C   UNL     1      10.188   4.057   7.416  1.00  0.00     0.031 C 
ATOM     55  C   UNL     1       8.732   1.306  12.216  1.00  0.00     0.029 A 
ATOM     56  C   UNL     1       9.406   2.073  11.268  1.00  0.00     0.049 A 
ATOM     57  H   UNL     1      11.077   1.444  10.165  1.00  0.00     0.167 HD
ATOM     58  C   UNL     1       9.772   3.976   9.713  1.00  0.00     0.074 A 
ATOM     59  C   UNL     1      10.295   3.304   8.516  1.00  0.00     0.031 C 
ATOM     60  C   UNL     1       9.343   3.470  10.909  1.00  0.00     0.037 A 
BRANCH  47  61
ATOM     61  C   UNL     1      11.117  -1.112   8.866  1.00  0.00     0.058 A 
ATOM     62  C   UNL     1      12.341  -1.001   9.560  1.00  0.00     0.135 A 
ATOM     63  C   UNL     1      11.215  -1.069   7.456  1.00  0.00     0.135 A 
ATOM     64  F   UNL     1      12.368  -1.018  10.902  1.00  0.00    -0.206 F 
ATOM     65  C   UNL     1      13.553  -0.783   8.910  1.00  0.00     0.059 A 
ATOM     66  C   UNL     1      12.421  -0.901   6.787  1.00  0.00     0.059 A 
ATOM     67  F   UNL     1      10.151  -1.105   6.650  1.00  0.00    -0.206 F 
ATOM     68  C   UNL     1      13.582  -0.735   7.521  1.00  0.00     0.060 A 
BRANCH  68  69
ATOM     69  S   UNL     1      15.151  -0.469   6.684  1.00  0.00     0.124 S 
ATOM     70  O   UNL     1      15.474   0.893   7.089  1.00  0.00    -0.237 OA
ATOM     71  O   UNL     1      15.974  -1.525   7.267  1.00  0.00    -0.237 OA
ATOM     72  O   UNL     1      14.814  -0.652   5.276  1.00  0.00    -0.744 OA
ENDBRANCH  68  69
ENDBRANCH  47  61
BRANCH  48  73
ATOM     73  C   UNL     1       8.299   6.394   5.952  1.00  0.00     0.058 A 
ATOM     74  C   UNL     1       9.394   7.279   5.773  1.00  0.00     0.135 A 
ATOM     75  C   UNL     1       7.519   6.178   4.803  1.00  0.00     0.135 A 
ATOM     76  F   UNL     1      10.210   7.562   6.801  1.00  0.00    -0.206 F 
ATOM     77  C   UNL     1       9.728   7.843   4.522  1.00  0.00     0.059 A 
ATOM     78  C   UNL     1       7.831   6.724   3.554  1.00  0.00     0.059 A 
ATOM     79  F   UNL     1       6.472   5.344   4.835  1.00  0.00    -0.206 F 
ATOM     80  C   UNL     1       8.954   7.529   3.407  1.00  0.00     0.060 A 
BRANCH  80  81
ATOM     81  S   UNL     1       9.473   8.041   1.742  1.00  0.00     0.124 S 
ATOM     82  O   UNL     1       9.258   9.483   1.778  1.00  0.00    -0.237 OA
ATOM     83  O   UNL     1      10.865   7.606   1.698  1.00  0.00    -0.237 OA
ATOM     84  O   UNL     1       8.569   7.300   0.865  1.00  0.00    -0.744 OA
ENDBRANCH  80  81
ENDBRANCH  48  73
BRANCH  60  85
ATOM     85  C   UNL     1       8.652   4.392  11.880  1.00  0.00     0.058 A 
ATOM     86  C   UNL     1       7.440   5.072  11.652  1.00  0.00     0.135 A 
ATOM     87  C   UNL     1       9.204   4.493  13.165  1.00  0.00     0.135 A 
ATOM     88  F   UNL     1       6.773   4.924  10.498  1.00  0.00    -0.206 F 
ATOM     89  C   UNL     1       6.855   5.881  12.632  1.00  0.00     0.059 A 
ATOM     90  C   UNL     1       8.624   5.261  14.165  1.00  0.00     0.059 A 
ATOM     91  F   UNL     1      10.315   3.804  13.475  1.00  0.00    -0.206 F 
ATOM     92  C   UNL     1       7.468   5.981  13.882  1.00  0.00     0.060 A 
BRANCH  92  93
ATOM     93  S   UNL     1       6.753   7.055  15.145  1.00  0.00     0.124 S 
ATOM     94  O   UNL     1       6.965   8.381  14.573  1.00  0.00    -0.237 OA
ATOM     95  O   UNL     1       5.367   6.601  15.201  1.00  0.00    -0.237 OA
ATOM     96  O   UNL     1       7.547   6.757  16.335  1.00  0.00    -0.744 OA
ENDBRANCH  92  93
ENDBRANCH  60  85
ENDBRANCH  34  35
ENDBRANCH  26  29
ENDBRANCH  24  25
ENDBRANCH   1  24
TORSDOF 16
