REMARK SMILES O=C(C[C@@H]1CN(C(=O)[C@H]2C[C@H](O)C[NH2+]2)CCO1)NCCCNC(=O)c1ccc(-c2c3nc(c(-c4c(F)cc(S(=O)(=O)[O-])cc4F)c4ccc([nH]4)c(-c4c(F)cc(S(=O)(=O)[O-])cc4F)c4nc(c(-c5c(F)cc(S(=O)(=O)[O-])cc5F)c5ccc2[nH]5)C=C4)C=C3)cc1
REMARK SMILES IDX 19 1 18 2 1 3 2 4 3 6 4 7 5 8 17 9 6 10 16 11 15 12 7 13
REMARK SMILES IDX 8 14 9 15 10 16 14 17 11 18 13 19 12 22 20 24 21 25 22 26
REMARK SMILES IDX 23 27 24 29 25 30 26 31 90 32 27 33 89 34 28 35 29 36 30 37
REMARK SMILES IDX 83 38 31 39 88 40 82 41 84 42 32 43 87 44 81 45 80 46 33 48
REMARK SMILES IDX 67 49 46 50 66 51 47 52 50 53 65 54 85 55 48 56 49 57 64 59
REMARK SMILES IDX 86 60 51 61 34 62 35 63 44 64 36 65 37 66 43 67 45 68 38 69
REMARK SMILES IDX 39 70 40 71 41 72 42 73 68 74 69 75 78 76 70 77 71 78 77 79
REMARK SMILES IDX 79 80 72 81 73 82 74 83 75 84 76 85 52 86 53 87 62 88 54 89
REMARK SMILES IDX 55 90 61 91 63 92 56 93 57 94 58 95 59 96 60 97
REMARK H PARENT 18 5 14 20 14 21 12 23 22 28 84 47 50 58
REMARK Flexibility Score: inf
ROOT
ATOM      1  C   UNL     1       1.928  -0.738   2.357  1.00  0.00     0.117 C 
ENDROOT
BRANCH   1   2
ATOM      2  N   UNL     1       2.509  -0.686   1.028  1.00  0.00    -0.356 N 
ATOM      3  O   UNL     1       0.874   0.667   0.151  1.00  0.00    -0.275 OA
ATOM      4  C   UNL     1       1.959   0.109   0.042  1.00  0.00     0.222 C 
ATOM      5  H   UNL     1       3.307  -1.226   0.827  1.00  0.00     0.163 HD
BRANCH   4   6
ATOM      6  C   UNL     1       2.847   0.282  -1.172  1.00  0.00     0.133 C 
BRANCH   6   7
ATOM      7  C   UNL     1       3.839   1.439  -1.010  1.00  0.00     0.147 C 
ATOM      8  C   UNL     1       4.671   1.353   0.282  1.00  0.00     0.152 C 
ATOM      9  O   UNL     1       3.150   2.700  -1.067  1.00  0.00    -0.374 OA
ATOM     10  N   UNL     1       5.617   2.458   0.359  1.00  0.00    -0.333 N 
ATOM     11  C   UNL     1       4.072   3.804  -1.013  1.00  0.00     0.182 C 
ATOM     12  C   UNL     1       4.953   3.762   0.245  1.00  0.00     0.148 C 
BRANCH  10  13
ATOM     13  C   UNL     1       6.977   2.404   0.625  1.00  0.00     0.281 C 
ATOM     14  O   UNL     1       7.604   3.437   0.889  1.00  0.00    -0.268 OA
BRANCH  13  15
ATOM     15  C   UNL     1       7.752   1.062   0.555  1.00  0.00     0.275 C 
ATOM     16  C   UNL     1       7.448   0.037   1.643  1.00  0.00     0.113 C 
ATOM     17  N   UNL     1       7.591   0.399  -0.765  1.00  0.00    -0.334 N 
ATOM     18  C   UNL     1       7.111  -1.248   0.900  1.00  0.00     0.175 C 
ATOM     19  C   UNL     1       7.671  -1.039  -0.504  1.00  0.00     0.293 C 
ATOM     20  H   UNL     1       8.336   0.687  -1.400  1.00  0.00     0.347 HD
ATOM     21  H   UNL     1       6.707   0.651  -1.206  1.00  0.00     0.347 HD
BRANCH  18  22
ATOM     22  O   UNL     1       7.635  -2.392   1.549  1.00  0.00    -0.387 OA
ATOM     23  H   UNL     1       8.598  -2.308   1.623  1.00  0.00     0.211 HD
ENDBRANCH  18  22
ENDBRANCH  13  15
ENDBRANCH  10  13
ENDBRANCH   6   7
ENDBRANCH   4   6
ENDBRANCH   1   2
BRANCH   1  24
ATOM     24  C   UNL     1       2.269  -2.013   3.116  1.00  0.00     0.042 C 
BRANCH  24  25
ATOM     25  C   UNL     1       3.751  -2.222   3.416  1.00  0.00     0.118 C 
BRANCH  25  26
ATOM     26  N   UNL     1       4.310  -1.246   4.338  1.00  0.00    -0.352 N 
ATOM     27  C   UNL     1       5.101  -1.453   5.447  1.00  0.00     0.251 C 
ATOM     28  H   UNL     1       4.092  -0.306   4.143  1.00  0.00     0.163 HD
ATOM     29  O   UNL     1       5.400  -0.497   6.160  1.00  0.00    -0.269 OA
BRANCH  27  30
ATOM     30  C   UNL     1       5.551  -2.818   5.810  1.00  0.00     0.039 A 
ATOM     31  C   UNL     1       5.429  -3.230   7.140  1.00  0.00     0.014 A 
ATOM     32  C   UNL     1       6.075  -3.694   4.856  1.00  0.00     0.014 A 
ATOM     33  C   UNL     1       5.756  -4.542   7.496  1.00  0.00     0.010 A 
ATOM     34  C   UNL     1       6.333  -5.023   5.199  1.00  0.00     0.010 A 
ATOM     35  C   UNL     1       6.168  -5.466   6.520  1.00  0.00    -0.014 A 
BRANCH  35  36
ATOM     36  C   UNL     1       6.390  -6.897   6.868  1.00  0.00     0.031 A 
ATOM     37  C   UNL     1       7.751  -7.524   6.726  1.00  0.00     0.074 A 
ATOM     38  C   UNL     1       5.346  -7.653   7.267  1.00  0.00     0.049 A 
ATOM     39  N   UNL     1       8.120  -8.759   6.957  1.00  0.00    -0.248 NA
ATOM     40  C   UNL     1       8.836  -6.658   6.240  1.00  0.00     0.031 C 
ATOM     41  C   UNL     1       3.963  -7.184   7.394  1.00  0.00     0.029 A 
ATOM     42  N   UNL     1       5.279  -8.974   7.635  1.00  0.00    -0.354 N 
ATOM     43  C   UNL     1       9.472  -8.821   6.640  1.00  0.00     0.074 A 
ATOM     44  C   UNL     1       9.846  -7.511   6.150  1.00  0.00     0.031 C 
ATOM     45  C   UNL     1       3.194  -8.192   7.835  1.00  0.00     0.029 A 
ATOM     46  C   UNL     1       4.015  -9.389   7.987  1.00  0.00     0.049 A 
ATOM     47  H   UNL     1       6.063  -9.570   7.645  1.00  0.00     0.167 HD
ATOM     48  C   UNL     1      10.329  -9.864   6.767  1.00  0.00     0.037 A 
ATOM     49  C   UNL     1       3.564 -10.595   8.385  1.00  0.00     0.037 A 
ATOM     50  C   UNL     1       9.957 -11.162   7.270  1.00  0.00     0.049 A 
ATOM     51  C   UNL     1       4.534 -11.737   8.518  1.00  0.00     0.074 A 
ATOM     52  C   UNL     1      10.766 -12.265   7.486  1.00  0.00     0.029 A 
ATOM     53  N   UNL     1       8.671 -11.537   7.631  1.00  0.00    -0.354 N 
ATOM     54  N   UNL     1       5.824 -11.756   8.277  1.00  0.00    -0.248 NA
ATOM     55  C   UNL     1       3.991 -13.019   8.987  1.00  0.00     0.031 C 
ATOM     56  C   UNL     1       9.962 -13.320   7.932  1.00  0.00     0.029 A 
ATOM     57  C   UNL     1       8.661 -12.860   8.047  1.00  0.00     0.049 A 
ATOM     58  H   UNL     1       7.881 -10.950   7.597  1.00  0.00     0.167 HD
ATOM     59  C   UNL     1       6.250 -13.042   8.592  1.00  0.00     0.074 A 
ATOM     60  C   UNL     1       5.084 -13.766   9.055  1.00  0.00     0.031 C 
ATOM     61  C   UNL     1       7.495 -13.573   8.507  1.00  0.00     0.037 A 
BRANCH  48  62
ATOM     62  C   UNL     1      11.761  -9.645   6.356  1.00  0.00     0.058 A 
ATOM     63  C   UNL     1      12.623  -8.820   7.096  1.00  0.00     0.135 A 
ATOM     64  C   UNL     1      12.291 -10.302   5.233  1.00  0.00     0.135 A 
ATOM     65  F   UNL     1      12.167  -8.157   8.171  1.00  0.00    -0.206 F 
ATOM     66  C   UNL     1      13.949  -8.629   6.721  1.00  0.00     0.059 A 
ATOM     67  C   UNL     1      13.623 -10.150   4.856  1.00  0.00     0.059 A 
ATOM     68  F   UNL     1      11.514 -11.105   4.489  1.00  0.00    -0.206 F 
ATOM     69  C   UNL     1      14.440  -9.298   5.598  1.00  0.00     0.060 A 
BRANCH  69  70
ATOM     70  S   UNL     1      16.163  -9.040   5.127  1.00  0.00     0.124 S 
ATOM     71  O   UNL     1      16.118  -7.681   4.597  1.00  0.00    -0.237 OA
ATOM     72  O   UNL     1      16.862  -9.203   6.397  1.00  0.00    -0.237 OA
ATOM     73  O   UNL     1      16.407 -10.089   4.141  1.00  0.00    -0.744 OA
ENDBRANCH  69  70
ENDBRANCH  48  62
BRANCH  49  74
ATOM     74  C   UNL     1       2.123 -10.779   8.709  1.00  0.00     0.058 A 
ATOM     75  C   UNL     1       1.700 -10.984  10.031  1.00  0.00     0.135 A 
ATOM     76  C   UNL     1       1.141 -10.743   7.708  1.00  0.00     0.135 A 
ATOM     77  F   UNL     1       2.602 -11.034  11.023  1.00  0.00    -0.206 F 
ATOM     78  C   UNL     1       0.358 -11.165  10.348  1.00  0.00     0.059 A 
ATOM     79  C   UNL     1      -0.211 -10.894   8.003  1.00  0.00     0.059 A 
ATOM     80  F   UNL     1       1.490 -10.533   6.429  1.00  0.00    -0.206 F 
ATOM     81  C   UNL     1      -0.591 -11.115   9.326  1.00  0.00     0.060 A 
BRANCH  81  82
ATOM     82  S   UNL     1      -2.336 -11.302   9.753  1.00  0.00     0.124 S 
ATOM     83  O   UNL     1      -2.415 -12.727  10.052  1.00  0.00    -0.237 OA
ATOM     84  O   UNL     1      -2.469 -10.401  10.894  1.00  0.00    -0.237 OA
ATOM     85  O   UNL     1      -3.026 -10.871   8.541  1.00  0.00    -0.744 OA
ENDBRANCH  81  82
ENDBRANCH  49  74
BRANCH  61  86
ATOM     86  C   UNL     1       7.670 -14.999   8.957  1.00  0.00     0.058 A 
ATOM     87  C   UNL     1       7.159 -16.078   8.218  1.00  0.00     0.135 A 
ATOM     88  C   UNL     1       8.382 -15.291  10.132  1.00  0.00     0.135 A 
ATOM     89  F   UNL     1       6.465 -15.857   7.090  1.00  0.00    -0.206 F 
ATOM     90  C   UNL     1       7.316 -17.393   8.647  1.00  0.00     0.059 A 
ATOM     91  C   UNL     1       8.578 -16.599  10.563  1.00  0.00     0.059 A 
ATOM     92  F   UNL     1       8.903 -14.299  10.871  1.00  0.00    -0.206 F 
ATOM     93  C   UNL     1       8.026 -17.643   9.822  1.00  0.00     0.060 A 
BRANCH  93  94
ATOM     94  S   UNL     1       8.233 -19.354  10.362  1.00  0.00     0.124 S 
ATOM     95  O   UNL     1       6.899 -19.666  10.864  1.00  0.00    -0.237 OA
ATOM     96  O   UNL     1       8.620 -20.027   9.127  1.00  0.00    -0.237 OA
ATOM     97  O   UNL     1       9.281 -19.266  11.375  1.00  0.00    -0.744 OA
ENDBRANCH  93  94
ENDBRANCH  61  86
ENDBRANCH  35  36
ENDBRANCH  27  30
ENDBRANCH  25  26
ENDBRANCH  24  25
ENDBRANCH   1  24
TORSDOF 17
