REMARK SMILES Cc1ccc(N2C(=O)[NH+]=C(NCCCNC(=O)c3ccc(-c4c5nc(c(-c6c(F)cc(S(=O)(=O)[O-])cc6F)c6ccc([nH]6)c(-c6c(F)cc(S(=O)(=O)[O-])cc6F)c6nc(c(-c7c(F)cc(S(=O)(=O)[O-])cc7F)c7ccc4[nH]7)C=C6)C=C5)cc3)/C(=C\c3ccccc3OCc3cccc(C(=O)[O-])c3)C2=O)cc1
REMARK SMILES IDX 12 1 11 2 6 3 7 4 103 5 8 6 9 7 84 8 104 9 10 10 85 12 5 14
REMARK SMILES IDX 1 15 2 16 3 17 106 18 4 19 105 20 86 21 87 22 91 23 88 24
REMARK SMILES IDX 90 25 89 26 92 27 93 28 94 29 95 30 102 31 96 32 98 33 97 34
REMARK SMILES IDX 99 35 100 36 101 37 13 38 14 39 15 40 16 41 17 43 18 44
REMARK SMILES IDX 19 45 83 46 20 47 82 48 21 49 22 50 23 51 76 52 24 53 81 54
REMARK SMILES IDX 75 55 77 56 25 57 80 58 74 59 73 60 26 62 60 63 39 64 59 65
REMARK SMILES IDX 40 66 43 67 58 68 78 69 41 70 42 71 57 73 79 74 44 75 27 76
REMARK SMILES IDX 28 77 37 78 29 79 30 80 36 81 38 82 31 83 32 84 33 85 34 86
REMARK SMILES IDX 35 87 61 88 62 89 71 90 63 91 64 92 70 93 72 94 65 95 66 96
REMARK SMILES IDX 67 97 68 98 69 99 45 100 46 101 55 102 47 103 48 104 54 105
REMARK SMILES IDX 56 106 49 107 50 108 51 109 52 110 53 111
REMARK H PARENT 9 11 11 13 15 42 77 61 43 72
REMARK Flexibility Score: inf
ROOT
ATOM      1  C   UNL     1      -7.832  -0.263   1.621  1.00  0.00     0.195 C 
ENDROOT
BRANCH   1   2
ATOM      2  N   UNL     1      -7.114   0.864   1.003  1.00  0.00    -0.305 N 
ATOM      3  N   UNL     1      -2.968   0.731   0.528  1.00  0.00    -0.155 N 
ATOM      4  C   UNL     1      -3.669   0.031   1.523  1.00  0.00     0.448 C 
ATOM      5  C   UNL     1      -3.597   1.591  -0.360  1.00  0.00     0.328 C 
ATOM      6  O   UNL     1      -3.099  -0.709   2.325  1.00  0.00    -0.212 OA
ATOM      7  N   UNL     1      -5.017   0.205   1.660  1.00  0.00    -0.209 N 
ATOM      8  C   UNL     1      -5.064   1.412  -0.415  1.00  0.00     0.129 C 
ATOM      9  O   UNL     1      -3.042   2.348  -1.158  1.00  0.00    -0.249 OA
ATOM     10  C   UNL     1      -5.745   0.818   0.776  1.00  0.00     0.236 C 
ATOM     11  H   UNL     1      -5.457  -0.151   2.465  1.00  0.00     0.270 HD
ATOM     12  C   UNL     1      -5.566   1.571  -1.656  1.00  0.00     0.034 C 
ATOM     13  H   UNL     1      -7.617   1.669   0.745  1.00  0.00     0.256 HD
BRANCH   3  14
ATOM     14  C   UNL     1      -1.552   0.534   0.396  1.00  0.00     0.111 A 
ATOM     15  C   UNL     1       2.698  -0.092  -0.071  1.00  0.00     0.044 C 
ATOM     16  C   UNL     1       1.225   0.129   0.081  1.00  0.00    -0.051 A 
ATOM     17  C   UNL     1       0.374  -0.955   0.313  1.00  0.00     0.007 A 
ATOM     18  C   UNL     1       0.681   1.410  -0.018  1.00  0.00     0.007 A 
ATOM     19  C   UNL     1      -0.998  -0.752   0.478  1.00  0.00     0.044 A 
ATOM     20  C   UNL     1      -0.692   1.609   0.133  1.00  0.00     0.044 A 
ENDBRANCH   3  14
BRANCH  12  21
ATOM     21  C   UNL     1      -6.925   1.250  -2.049  1.00  0.00     0.018 A 
ATOM     22  C   UNL     1      -7.684   2.367  -2.396  1.00  0.00     0.012 A 
ATOM     23  C   UNL     1      -7.536  -0.004  -1.884  1.00  0.00     0.127 A 
ATOM     24  C   UNL     1      -9.058   2.277  -2.359  1.00  0.00     0.001 A 
ATOM     25  C   UNL     1      -8.923  -0.085  -1.897  1.00  0.00     0.047 A 
ATOM     26  C   UNL     1      -9.672   1.064  -2.063  1.00  0.00     0.004 A 
BRANCH  23  27
ATOM     27  O   UNL     1      -6.956  -1.154  -1.447  1.00  0.00    -0.488 OA
BRANCH  27  28
ATOM     28  C   UNL     1      -5.670  -1.523  -1.911  1.00  0.00     0.265 C 
BRANCH  28  29
ATOM     29  C   UNL     1      -5.296  -2.813  -1.219  1.00  0.00    -0.010 A 
ATOM     30  C   UNL     1      -3.949  -3.131  -1.006  1.00  0.00     0.007 A 
ATOM     31  C   UNL     1      -6.284  -3.724  -0.810  1.00  0.00     0.017 A 
ATOM     32  C   UNL     1      -3.595  -4.335  -0.397  1.00  0.00     0.001 A 
ATOM     33  C   UNL     1      -5.934  -4.942  -0.221  1.00  0.00    -0.002 A 
ATOM     34  C   UNL     1      -4.583  -5.244  -0.016  1.00  0.00     0.010 A 
BRANCH  33  35
ATOM     35  C   UNL     1      -6.965  -5.939   0.140  1.00  0.00     0.071 C 
ATOM     36  O   UNL     1      -6.748  -7.109   0.446  1.00  0.00    -0.545 OA
ATOM     37  O   UNL     1      -8.205  -5.438   0.083  1.00  0.00    -0.545 OA
ENDBRANCH  33  35
ENDBRANCH  28  29
ENDBRANCH  27  28
ENDBRANCH  23  27
ENDBRANCH  12  21
ENDBRANCH   1   2
BRANCH   1  38
ATOM     38  C   UNL     1      -8.971   0.175   2.535  1.00  0.00     0.059 C 
BRANCH  38  39
ATOM     39  C   UNL     1     -10.158   0.792   1.810  1.00  0.00     0.119 C 
BRANCH  39  40
ATOM     40  N   UNL     1     -11.348  -0.043   1.714  1.00  0.00    -0.352 N 
ATOM     41  C   UNL     1     -12.659   0.410   1.600  1.00  0.00     0.251 C 
ATOM     42  H   UNL     1     -11.211  -1.018   1.732  1.00  0.00     0.163 HD
ATOM     43  O   UNL     1     -13.585  -0.136   2.189  1.00  0.00    -0.269 OA
BRANCH  41  44
ATOM     44  C   UNL     1     -12.931   1.452   0.578  1.00  0.00     0.039 A 
ATOM     45  C   UNL     1     -13.924   1.219  -0.389  1.00  0.00     0.014 A 
ATOM     46  C   UNL     1     -12.082   2.538   0.442  1.00  0.00     0.014 A 
ATOM     47  C   UNL     1     -13.914   1.928  -1.593  1.00  0.00     0.010 A 
ATOM     48  C   UNL     1     -12.008   3.169  -0.770  1.00  0.00     0.010 A 
ATOM     49  C   UNL     1     -12.888   2.832  -1.809  1.00  0.00    -0.014 A 
BRANCH  49  50
ATOM     50  C   UNL     1     -12.614   3.574  -3.028  1.00  0.00     0.031 A 
ATOM     51  C   UNL     1     -12.834   5.034  -2.970  1.00  0.00     0.074 A 
ATOM     52  C   UNL     1     -11.835   3.014  -3.980  1.00  0.00     0.049 A 
ATOM     53  N   UNL     1     -12.571   5.837  -3.932  1.00  0.00    -0.248 NA
ATOM     54  C   UNL     1     -13.354   5.717  -1.786  1.00  0.00     0.031 C 
ATOM     55  C   UNL     1     -10.888   3.686  -4.875  1.00  0.00     0.029 A 
ATOM     56  N   UNL     1     -11.677   1.695  -4.339  1.00  0.00    -0.354 N 
ATOM     57  C   UNL     1     -12.623   7.122  -3.446  1.00  0.00     0.074 A 
ATOM     58  C   UNL     1     -13.162   6.998  -2.114  1.00  0.00     0.031 C 
ATOM     59  C   UNL     1     -10.438   2.811  -5.795  1.00  0.00     0.029 A 
ATOM     60  C   UNL     1     -11.226   1.600  -5.655  1.00  0.00     0.049 A 
ATOM     61  H   UNL     1     -11.858   0.927  -3.750  1.00  0.00     0.167 HD
ATOM     62  C   UNL     1     -12.097   8.112  -4.220  1.00  0.00     0.037 A 
ATOM     63  C   UNL     1     -12.086   1.107  -6.605  1.00  0.00     0.037 A 
ATOM     64  C   UNL     1     -11.638   7.555  -5.497  1.00  0.00     0.049 A 
ATOM     65  C   UNL     1     -12.627   2.208  -7.508  1.00  0.00     0.074 A 
ATOM     66  C   UNL     1     -10.418   7.117  -5.985  1.00  0.00     0.029 A 
ATOM     67  N   UNL     1     -12.591   7.052  -6.359  1.00  0.00    -0.354 N 
ATOM     68  N   UNL     1     -12.329   3.471  -7.364  1.00  0.00    -0.248 NA
ATOM     69  C   UNL     1     -13.561   1.997  -8.611  1.00  0.00     0.031 C 
ATOM     70  C   UNL     1     -10.672   6.300  -7.131  1.00  0.00     0.029 A 
ATOM     71  C   UNL     1     -12.040   6.256  -7.341  1.00  0.00     0.049 A 
ATOM     72  H   UNL     1     -13.554   7.240  -6.281  1.00  0.00     0.167 HD
ATOM     73  C   UNL     1     -13.026   4.232  -8.251  1.00  0.00     0.074 A 
ATOM     74  C   UNL     1     -13.793   3.261  -9.015  1.00  0.00     0.031 C 
ATOM     75  C   UNL     1     -12.937   5.594  -8.280  1.00  0.00     0.037 A 
BRANCH  62  76
ATOM     76  C   UNL     1     -11.853   9.546  -3.817  1.00  0.00     0.058 A 
ATOM     77  C   UNL     1     -10.933  10.321  -4.557  1.00  0.00     0.135 A 
ATOM     78  C   UNL     1     -12.473  10.229  -2.751  1.00  0.00     0.135 A 
ATOM     79  F   UNL     1     -10.284   9.822  -5.617  1.00  0.00    -0.206 F 
ATOM     80  C   UNL     1     -10.624  11.643  -4.246  1.00  0.00     0.059 A 
ATOM     81  C   UNL     1     -12.152  11.545  -2.396  1.00  0.00     0.059 A 
ATOM     82  F   UNL     1     -13.454   9.677  -2.029  1.00  0.00    -0.206 F 
ATOM     83  C   UNL     1     -11.227  12.246  -3.155  1.00  0.00     0.060 A 
BRANCH  83  84
ATOM     84  S   UNL     1     -10.793  13.950  -2.775  1.00  0.00     0.124 S 
ATOM     85  O   UNL     1      -9.350  13.856  -2.576  1.00  0.00    -0.237 OA
ATOM     86  O   UNL     1     -11.224  14.648  -3.981  1.00  0.00    -0.237 OA
ATOM     87  O   UNL     1     -11.568  14.239  -1.572  1.00  0.00    -0.744 OA
ENDBRANCH  83  84
ENDBRANCH  62  76
BRANCH  63  88
ATOM     88  C   UNL     1     -12.853  -0.065  -6.050  1.00  0.00     0.058 A 
ATOM     89  C   UNL     1     -12.080  -1.192  -5.689  1.00  0.00     0.135 A 
ATOM     90  C   UNL     1     -14.045   0.152  -5.337  1.00  0.00     0.135 A 
ATOM     91  F   UNL     1     -10.945  -1.467  -6.352  1.00  0.00    -0.206 F 
ATOM     92  C   UNL     1     -12.335  -1.907  -4.521  1.00  0.00     0.059 A 
ATOM     93  C   UNL     1     -14.327  -0.569  -4.172  1.00  0.00     0.059 A 
ATOM     94  F   UNL     1     -14.832   1.194  -5.641  1.00  0.00    -0.206 F 
ATOM     95  C   UNL     1     -13.416  -1.531  -3.728  1.00  0.00     0.060 A 
BRANCH  95  96
ATOM     96  S   UNL     1     -13.489  -2.180  -2.038  1.00  0.00     0.124 S 
ATOM     97  O   UNL     1     -13.410  -3.619  -2.256  1.00  0.00    -0.237 OA
ATOM     98  O   UNL     1     -12.304  -1.566  -1.440  1.00  0.00    -0.237 OA
ATOM     99  O   UNL     1     -14.772  -1.687  -1.552  1.00  0.00    -0.744 OA
ENDBRANCH  95  96
ENDBRANCH  63  88
BRANCH  75 100
ATOM    100  C   UNL     1     -13.737   6.421  -9.236  1.00  0.00     0.058 A 
ATOM    101  C   UNL     1     -13.768   6.129 -10.605  1.00  0.00     0.135 A 
ATOM    102  C   UNL     1     -14.424   7.583  -8.821  1.00  0.00     0.135 A 
ATOM    103  F   UNL     1     -13.079   5.089 -11.101  1.00  0.00    -0.206 F 
ATOM    104  C   UNL     1     -14.513   6.891 -11.498  1.00  0.00     0.059 A 
ATOM    105  C   UNL     1     -15.108   8.402  -9.706  1.00  0.00     0.059 A 
ATOM    106  F   UNL     1     -14.495   7.940  -7.530  1.00  0.00    -0.206 F 
ATOM    107  C   UNL     1     -15.186   8.020 -11.036  1.00  0.00     0.060 A 
BRANCH 107 108
ATOM    108  S   UNL     1     -16.191   8.976 -12.178  1.00  0.00     0.124 S 
ATOM    109  O   UNL     1     -15.382   8.968 -13.393  1.00  0.00    -0.237 OA
ATOM    110  O   UNL     1     -17.409   8.173 -12.224  1.00  0.00    -0.237 OA
ATOM    111  O   UNL     1     -16.315  10.272 -11.521  1.00  0.00    -0.744 OA
ENDBRANCH 107 108
ENDBRANCH  75 100
ENDBRANCH  49  50
ENDBRANCH  41  44
ENDBRANCH  39  40
ENDBRANCH  38  39
ENDBRANCH   1  38
TORSDOF 18
