REMARK SMILES COc1ccc(-c2cnc(N)c(C(=O)NCCCNC(=O)c3ccc(-c4c5nc(c(-c6c(F)cc(S(=O)(=O)[O-])cc6F)c6ccc([nH]6)c(-c6c(F)cc(S(=O)(=O)[O-])cc6F)c6nc(c(-c7c(F)cc(S(=O)(=O)[O-])cc7F)c7ccc4[nH]7)C=C6)C=C5)cc3)c2)c(C)c1
REMARK SMILES IDX 17 1 16 2 15 3 13 4 14 5 12 7 7 8 8 9 88 10 9 11 10 12 6 13
REMARK SMILES IDX 3 14 4 15 91 16 5 17 89 18 90 19 2 20 1 21 11 22 18 25 19 26
REMARK SMILES IDX 20 27 21 29 22 30 23 31 87 32 24 33 86 34 25 35 26 36 27 37
REMARK SMILES IDX 80 38 28 39 85 40 79 41 81 42 29 43 84 44 78 45 77 46 30 48
REMARK SMILES IDX 64 49 43 50 63 51 44 52 47 53 62 54 82 55 45 56 46 57 61 59
REMARK SMILES IDX 83 60 48 61 31 62 32 63 41 64 33 65 34 66 40 67 42 68 35 69
REMARK SMILES IDX 36 70 37 71 38 72 39 73 65 74 66 75 75 76 67 77 68 78 74 79
REMARK SMILES IDX 76 80 69 81 70 82 71 83 72 84 73 85 49 86 50 87 59 88 51 89
REMARK SMILES IDX 52 90 58 91 60 92 53 93 54 94 55 95 56 96 57 97
REMARK H PARENT 15 6 11 23 11 24 19 28 81 47 47 58
REMARK Flexibility Score: inf
ROOT
ATOM      1  C   UNL     1       1.776   5.584 -10.851  1.00  0.00     0.042 C 
ENDROOT
BRANCH   1   2
ATOM      2  C   UNL     1       2.616   5.535  -9.587  1.00  0.00     0.118 C 
BRANCH   2   3
ATOM      3  N   UNL     1       1.963   6.119  -8.421  1.00  0.00    -0.352 N 
ATOM      4  C   UNL     1       1.911   5.654  -7.134  1.00  0.00     0.255 C 
ATOM      5  O   UNL     1       1.314   6.301  -6.275  1.00  0.00    -0.269 OA
ATOM      6  H   UNL     1       1.493   6.969  -8.582  1.00  0.00     0.163 HD
BRANCH   4   7
ATOM      7  C   UNL     1       2.475   4.339  -6.786  1.00  0.00     0.082 A 
ATOM      8  C   UNL     1       2.120   2.221  -5.682  1.00  0.00     0.001 A 
ATOM      9  C   UNL     1       3.297   1.812  -6.310  1.00  0.00     0.122 A 
ATOM     10  C   UNL     1       1.682   3.507  -5.986  1.00  0.00     0.028 A 
ATOM     11  N   UNL     1       4.122   2.620  -7.011  1.00  0.00    -0.238 NA
ATOM     12  C   UNL     1       3.747   3.903  -7.159  1.00  0.00     0.136 A 
BRANCH   8  13
ATOM     13  C   UNL     1       1.536   1.419  -4.598  1.00  0.00    -0.014 A 
ATOM     14  C   UNL     1       0.674   0.041  -2.289  1.00  0.00     0.119 A 
ATOM     15  C   UNL     1       2.018   0.337  -2.446  1.00  0.00     0.047 A 
ATOM     16  C   UNL     1      -0.232   0.377  -3.297  1.00  0.00     0.050 A 
ATOM     17  C   UNL     1       2.433   1.028  -3.576  1.00  0.00     0.013 A 
ATOM     18  C   UNL     1       0.179   1.071  -4.458  1.00  0.00    -0.040 A 
ATOM     19  C   UNL     1      -0.889   1.428  -5.458  1.00  0.00     0.045 C 
BRANCH  14  20
ATOM     20  O   UNL     1       0.173  -0.605  -1.191  1.00  0.00    -0.497 OA
ATOM     21  C   UNL     1       0.719  -0.124   0.037  1.00  0.00     0.278 C 
ENDBRANCH  14  20
ENDBRANCH   8  13
BRANCH  12  22
ATOM     22  N   UNL     1       4.707   4.706  -7.733  1.00  0.00    -0.383 N 
ATOM     23  H   UNL     1       5.585   4.331  -7.972  1.00  0.00     0.158 HD
ATOM     24  H   UNL     1       4.514   5.657  -7.905  1.00  0.00     0.158 HD
ENDBRANCH  12  22
ENDBRANCH   4   7
ENDBRANCH   2   3
ENDBRANCH   1   2
BRANCH   1  25
ATOM     25  C   UNL     1       1.272   6.981 -11.164  1.00  0.00     0.118 C 
BRANCH  25  26
ATOM     26  N   UNL     1       2.386   7.917 -11.255  1.00  0.00    -0.352 N 
ATOM     27  C   UNL     1       3.333   7.959 -12.280  1.00  0.00     0.251 C 
ATOM     28  H   UNL     1       2.480   8.576 -10.530  1.00  0.00     0.163 HD
ATOM     29  O   UNL     1       4.507   7.814 -12.012  1.00  0.00    -0.269 OA
BRANCH  27  30
ATOM     30  C   UNL     1       2.859   8.417 -13.633  1.00  0.00     0.039 A 
ATOM     31  C   UNL     1       3.024   9.800 -13.771  1.00  0.00     0.014 A 
ATOM     32  C   UNL     1       1.683   7.831 -14.077  1.00  0.00     0.014 A 
ATOM     33  C   UNL     1       1.901  10.604 -13.739  1.00  0.00     0.010 A 
ATOM     34  C   UNL     1       0.546   8.610 -13.995  1.00  0.00     0.010 A 
ATOM     35  C   UNL     1       0.676   9.964 -13.659  1.00  0.00    -0.014 A 
BRANCH  35  36
ATOM     36  C   UNL     1      -0.483  10.578 -13.032  1.00  0.00     0.031 A 
ATOM     37  C   UNL     1      -1.589  10.998 -13.893  1.00  0.00     0.074 A 
ATOM     38  C   UNL     1      -0.519  10.650 -11.683  1.00  0.00     0.049 A 
ATOM     39  N   UNL     1      -2.577  11.730 -13.528  1.00  0.00    -0.248 NA
ATOM     40  C   UNL     1      -1.597  10.667 -15.312  1.00  0.00     0.031 C 
ATOM     41  C   UNL     1      -1.643  10.953 -10.802  1.00  0.00     0.029 A 
ATOM     42  N   UNL     1       0.596  10.687 -10.839  1.00  0.00    -0.354 N 
ATOM     43  C   UNL     1      -3.472  11.768 -14.576  1.00  0.00     0.074 A 
ATOM     44  C   UNL     1      -2.767  11.182 -15.684  1.00  0.00     0.031 C 
ATOM     45  C   UNL     1      -1.163  11.388  -9.621  1.00  0.00     0.029 A 
ATOM     46  C   UNL     1       0.277  11.555  -9.787  1.00  0.00     0.049 A 
ATOM     47  H   UNL     1       1.442  10.197 -10.961  1.00  0.00     0.167 HD
ATOM     48  C   UNL     1      -4.748  12.168 -14.315  1.00  0.00     0.037 A 
ATOM     49  C   UNL     1       0.918  12.760  -9.696  1.00  0.00     0.037 A 
ATOM     50  C   UNL     1      -4.786  12.841 -13.010  1.00  0.00     0.049 A 
ATOM     51  C   UNL     1      -0.044  13.928  -9.854  1.00  0.00     0.074 A 
ATOM     52  C   UNL     1      -5.112  12.406 -11.736  1.00  0.00     0.029 A 
ATOM     53  N   UNL     1      -4.064  14.025 -12.845  1.00  0.00    -0.354 N 
ATOM     54  N   UNL     1      -1.142  13.896 -10.566  1.00  0.00    -0.248 NA
ATOM     55  C   UNL     1       0.143  15.204  -9.168  1.00  0.00     0.031 C 
ATOM     56  C   UNL     1      -4.454  13.258 -10.805  1.00  0.00     0.029 A 
ATOM     57  C   UNL     1      -3.771  14.238 -11.509  1.00  0.00     0.049 A 
ATOM     58  H   UNL     1      -3.800  14.626 -13.579  1.00  0.00     0.167 HD
ATOM     59  C   UNL     1      -1.794  15.099 -10.452  1.00  0.00     0.074 A 
ATOM     60  C   UNL     1      -0.953  15.878  -9.558  1.00  0.00     0.031 C 
ATOM     61  C   UNL     1      -2.973  15.383 -11.085  1.00  0.00     0.037 A 
BRANCH  48  62
ATOM     62  C   UNL     1      -5.968  11.668 -15.081  1.00  0.00     0.058 A 
ATOM     63  C   UNL     1      -7.246  11.701 -14.478  1.00  0.00     0.135 A 
ATOM     64  C   UNL     1      -5.954  11.032 -16.343  1.00  0.00     0.135 A 
ATOM     65  F   UNL     1      -7.444  12.311 -13.300  1.00  0.00    -0.206 F 
ATOM     66  C   UNL     1      -8.378  11.093 -15.039  1.00  0.00     0.059 A 
ATOM     67  C   UNL     1      -7.060  10.395 -16.910  1.00  0.00     0.059 A 
ATOM     68  F   UNL     1      -4.876  11.005 -17.126  1.00  0.00    -0.206 F 
ATOM     69  C   UNL     1      -8.271  10.420 -16.248  1.00  0.00     0.060 A 
BRANCH  69  70
ATOM     70  S   UNL     1      -9.712   9.603 -16.953  1.00  0.00     0.124 S 
ATOM     71  O   UNL     1     -10.049   8.630 -15.918  1.00  0.00    -0.237 OA
ATOM     72  O   UNL     1     -10.644  10.714 -17.113  1.00  0.00    -0.237 OA
ATOM     73  O   UNL     1      -9.206   9.030 -18.198  1.00  0.00    -0.744 OA
ENDBRANCH  69  70
ENDBRANCH  48  62
BRANCH  49  74
ATOM     74  C   UNL     1       2.341  12.738 -10.175  1.00  0.00     0.058 A 
ATOM     75  C   UNL     1       3.256  11.832  -9.589  1.00  0.00     0.135 A 
ATOM     76  C   UNL     1       2.762  13.370 -11.352  1.00  0.00     0.135 A 
ATOM     77  F   UNL     1       2.929  11.197  -8.449  1.00  0.00    -0.206 F 
ATOM     78  C   UNL     1       4.480  11.505 -10.180  1.00  0.00     0.059 A 
ATOM     79  C   UNL     1       3.993  13.068 -11.956  1.00  0.00     0.059 A 
ATOM     80  F   UNL     1       1.955  14.238 -11.979  1.00  0.00    -0.206 F 
ATOM     81  C   UNL     1       4.833  12.110 -11.383  1.00  0.00     0.060 A 
BRANCH  81  82
ATOM     82  S   UNL     1       6.432  11.709 -12.152  1.00  0.00     0.124 S 
ATOM     83  O   UNL     1       7.291  11.471 -10.996  1.00  0.00    -0.237 OA
ATOM     84  O   UNL     1       6.124  10.537 -12.959  1.00  0.00    -0.237 OA
ATOM     85  O   UNL     1       6.736  12.918 -12.912  1.00  0.00    -0.744 OA
ENDBRANCH  81  82
ENDBRANCH  49  74
BRANCH  61  86
ATOM     86  C   UNL     1      -3.527  16.780 -11.274  1.00  0.00     0.058 A 
ATOM     87  C   UNL     1      -2.724  17.934 -11.344  1.00  0.00     0.135 A 
ATOM     88  C   UNL     1      -4.901  16.983 -11.553  1.00  0.00     0.135 A 
ATOM     89  F   UNL     1      -1.390  17.866 -11.230  1.00  0.00    -0.206 F 
ATOM     90  C   UNL     1      -3.250  19.204 -11.580  1.00  0.00     0.059 A 
ATOM     91  C   UNL     1      -5.437  18.233 -11.856  1.00  0.00     0.059 A 
ATOM     92  F   UNL     1      -5.772  15.963 -11.561  1.00  0.00    -0.206 F 
ATOM     93  C   UNL     1      -4.609  19.345 -11.832  1.00  0.00     0.060 A 
BRANCH  93  94
ATOM     94  S   UNL     1      -5.282  20.979 -12.182  1.00  0.00     0.124 S 
ATOM     95  O   UNL     1      -5.565  21.469 -10.836  1.00  0.00    -0.237 OA
ATOM     96  O   UNL     1      -4.181  21.641 -12.876  1.00  0.00    -0.237 OA
ATOM     97  O   UNL     1      -6.450  20.691 -13.009  1.00  0.00    -0.744 OA
ENDBRANCH  93  94
ENDBRANCH  61  86
ENDBRANCH  35  36
ENDBRANCH  27  30
ENDBRANCH  25  26
ENDBRANCH   1  25
TORSDOF 16
