REMARK SMILES CCOc1ccc(-c2nc(C(=O)NCCCNC(=O)c3ccc(-c4c5nc(c(-c6c(F)cc(S(=O)(=O)[O-])cc6F)c6ccc([nH]6)c(-c6c(F)cc(S(=O)(=O)[O-])cc6F)c6nc(c(-c7c(F)cc(S(=O)(=O)[O-])cc7F)c7ccc4[nH]7)C=C6)C=C5)cc3)cc(=O)[nH]2)cc1
REMARK SMILES IDX 15 1 14 2 13 3 11 4 12 5 10 7 8 8 9 9 89 10 87 11 86 13
REMARK SMILES IDX 88 14 7 15 4 16 5 17 91 18 6 19 90 20 3 21 2 22 1 23 16 24
REMARK SMILES IDX 17 25 18 26 19 28 20 29 21 30 85 31 22 32 84 33 23 34 24 35
REMARK SMILES IDX 25 36 78 37 26 38 83 39 77 40 79 41 27 42 82 43 76 44 75 45
REMARK SMILES IDX 28 47 62 48 41 49 61 50 42 51 45 52 60 53 80 54 43 55 44 56
REMARK SMILES IDX 59 58 81 59 46 60 29 61 30 62 39 63 31 64 32 65 38 66 40 67
REMARK SMILES IDX 33 68 34 69 35 70 36 71 37 72 63 73 64 74 73 75 65 76 66 77
REMARK SMILES IDX 72 78 74 79 67 80 68 81 69 82 70 83 71 84 47 85 48 86 57 87
REMARK SMILES IDX 49 88 50 89 56 90 58 91 51 92 52 93 53 94 54 95 55 96
REMARK H PARENT 13 6 89 12 17 27 79 46 45 57
REMARK Flexibility Score: inf
ROOT
ATOM      1  C   UNL     1      12.563  -0.868   3.630  1.00  0.00     0.042 C 
ENDROOT
BRANCH   1   2
ATOM      2  C   UNL     1      11.530  -1.214   4.700  1.00  0.00     0.118 C 
BRANCH   2   3
ATOM      3  N   UNL     1      10.443  -0.255   4.697  1.00  0.00    -0.351 N 
ATOM      4  C   UNL     1       9.183  -0.225   4.194  1.00  0.00     0.270 C 
ATOM      5  O   UNL     1       8.567   0.828   4.405  1.00  0.00    -0.268 OA
ATOM      6  H   UNL     1      10.675   0.574   5.174  1.00  0.00     0.163 HD
BRANCH   4   7
ATOM      7  C   UNL     1       8.489  -1.369   3.471  1.00  0.00     0.136 A 
ATOM      8  C   UNL     1       6.447  -2.105   2.699  1.00  0.00     0.141 A 
ATOM      9  N   UNL     1       7.125  -1.191   3.307  1.00  0.00    -0.225 NA
ATOM     10  N   UNL     1       7.006  -3.260   2.232  1.00  0.00    -0.306 N 
ATOM     11  C   UNL     1       8.336  -3.506   2.353  1.00  0.00     0.251 A 
ATOM     12  H   UNL     1       6.431  -3.931   1.799  1.00  0.00     0.171 HD
ATOM     13  C   UNL     1       9.129  -2.434   2.971  1.00  0.00     0.105 A 
ATOM     14  O   UNL     1       8.852  -4.550   1.983  1.00  0.00    -0.269 OA
BRANCH   8  15
ATOM     15  C   UNL     1       5.008  -1.926   2.433  1.00  0.00     0.018 A 
ATOM     16  C   UNL     1       2.316  -1.541   1.859  1.00  0.00     0.119 A 
ATOM     17  C   UNL     1       2.736  -2.741   2.434  1.00  0.00     0.047 A 
ATOM     18  C   UNL     1       3.228  -0.515   1.617  1.00  0.00     0.047 A 
ATOM     19  C   UNL     1       4.089  -2.942   2.714  1.00  0.00     0.016 A 
ATOM     20  C   UNL     1       4.579  -0.708   1.898  1.00  0.00     0.016 A 
BRANCH  16  21
ATOM     21  O   UNL     1       0.978  -1.350   1.655  1.00  0.00    -0.494 OA
BRANCH  21  22
ATOM     22  C   UNL     1       0.618  -1.379   0.268  1.00  0.00     0.226 C 
ATOM     23  C   UNL     1       0.657   0.008  -0.354  1.00  0.00     0.049 C 
ENDBRANCH  21  22
ENDBRANCH  16  21
ENDBRANCH   8  15
ENDBRANCH   4   7
ENDBRANCH   2   3
ENDBRANCH   1   2
BRANCH   1  24
ATOM     24  C   UNL     1      13.473   0.289   4.046  1.00  0.00     0.118 C 
BRANCH  24  25
ATOM     25  N   UNL     1      14.287  -0.054   5.208  1.00  0.00    -0.352 N 
ATOM     26  C   UNL     1      15.638  -0.274   5.310  1.00  0.00     0.251 C 
ATOM     27  H   UNL     1      13.788  -0.143   6.053  1.00  0.00     0.163 HD
ATOM     28  O   UNL     1      16.087  -0.840   6.303  1.00  0.00    -0.269 OA
BRANCH  26  29
ATOM     29  C   UNL     1      16.544   0.175   4.235  1.00  0.00     0.039 A 
ATOM     30  C   UNL     1      17.618  -0.635   3.858  1.00  0.00     0.014 A 
ATOM     31  C   UNL     1      16.349   1.415   3.623  1.00  0.00     0.014 A 
ATOM     32  C   UNL     1      18.459  -0.227   2.821  1.00  0.00     0.010 A 
ATOM     33  C   UNL     1      17.129   1.776   2.533  1.00  0.00     0.010 A 
ATOM     34  C   UNL     1      18.198   0.965   2.126  1.00  0.00    -0.014 A 
BRANCH  34  35
ATOM     35  C   UNL     1      19.027   1.397   0.973  1.00  0.00     0.031 A 
ATOM     36  C   UNL     1      19.768   2.704   1.032  1.00  0.00     0.074 A 
ATOM     37  C   UNL     1      19.022   0.668  -0.160  1.00  0.00     0.049 A 
ATOM     38  N   UNL     1      20.435   3.320   0.092  1.00  0.00    -0.248 NA
ATOM     39  C   UNL     1      19.719   3.433   2.310  1.00  0.00     0.031 C 
ATOM     40  C   UNL     1      18.290  -0.586  -0.354  1.00  0.00     0.029 A 
ATOM     41  N   UNL     1      19.628   0.890  -1.371  1.00  0.00    -0.354 N 
ATOM     42  C   UNL     1      20.858   4.519   0.653  1.00  0.00     0.074 A 
ATOM     43  C   UNL     1      20.323   4.569   1.996  1.00  0.00     0.031 C 
ATOM     44  C   UNL     1      18.493  -1.023  -1.606  1.00  0.00     0.029 A 
ATOM     45  C   UNL     1      19.328  -0.060  -2.318  1.00  0.00     0.049 A 
ATOM     46  H   UNL     1      20.220   1.657  -1.545  1.00  0.00     0.167 HD
ATOM     47  C   UNL     1      21.638   5.482   0.105  1.00  0.00     0.037 A 
ATOM     48  C   UNL     1      19.666  -0.137  -3.620  1.00  0.00     0.037 A 
ATOM     49  C   UNL     1      22.177   5.408  -1.228  1.00  0.00     0.049 A 
ATOM     50  C   UNL     1      20.541   0.933  -4.211  1.00  0.00     0.074 A 
ATOM     51  C   UNL     1      23.040   6.286  -1.857  1.00  0.00     0.029 A 
ATOM     52  N   UNL     1      21.892   4.402  -2.143  1.00  0.00    -0.354 N 
ATOM     53  N   UNL     1      21.006   2.021  -3.642  1.00  0.00    -0.248 NA
ATOM     54  C   UNL     1      20.947   0.765  -5.612  1.00  0.00     0.031 C 
ATOM     55  C   UNL     1      23.228   5.846  -3.171  1.00  0.00     0.029 A 
ATOM     56  C   UNL     1      22.537   4.656  -3.342  1.00  0.00     0.049 A 
ATOM     57  H   UNL     1      21.315   3.624  -1.965  1.00  0.00     0.167 HD
ATOM     58  C   UNL     1      21.778   2.656  -4.608  1.00  0.00     0.074 A 
ATOM     59  C   UNL     1      21.723   1.827  -5.795  1.00  0.00     0.031 C 
ATOM     60  C   UNL     1      22.473   3.817  -4.516  1.00  0.00     0.037 A 
BRANCH  47  61
ATOM     61  C   UNL     1      21.932   6.698   0.943  1.00  0.00     0.058 A 
ATOM     62  C   UNL     1      22.706   6.627   2.114  1.00  0.00     0.135 A 
ATOM     63  C   UNL     1      21.423   7.955   0.576  1.00  0.00     0.135 A 
ATOM     64  F   UNL     1      23.212   5.451   2.520  1.00  0.00    -0.206 F 
ATOM     65  C   UNL     1      22.914   7.741   2.920  1.00  0.00     0.059 A 
ATOM     66  C   UNL     1      21.650   9.091   1.348  1.00  0.00     0.059 A 
ATOM     67  F   UNL     1      20.683   8.087  -0.535  1.00  0.00    -0.206 F 
ATOM     68  C   UNL     1      22.374   8.968   2.533  1.00  0.00     0.060 A 
BRANCH  68  69
ATOM     69  S   UNL     1      22.616  10.395   3.611  1.00  0.00     0.124 S 
ATOM     70  O   UNL     1      21.722  10.076   4.720  1.00  0.00    -0.237 OA
ATOM     71  O   UNL     1      24.044  10.323   3.908  1.00  0.00    -0.237 OA
ATOM     72  O   UNL     1      22.208  11.523   2.780  1.00  0.00    -0.744 OA
ENDBRANCH  68  69
ENDBRANCH  47  61
BRANCH  48  73
ATOM     73  C   UNL     1      19.172  -1.281  -4.432  1.00  0.00     0.058 A 
ATOM     74  C   UNL     1      20.033  -2.313  -4.831  1.00  0.00     0.135 A 
ATOM     75  C   UNL     1      17.811  -1.401  -4.758  1.00  0.00     0.135 A 
ATOM     76  F   UNL     1      21.343  -2.240  -4.549  1.00  0.00    -0.206 F 
ATOM     77  C   UNL     1      19.564  -3.427  -5.519  1.00  0.00     0.059 A 
ATOM     78  C   UNL     1      17.314  -2.518  -5.422  1.00  0.00     0.059 A 
ATOM     79  F   UNL     1      16.943  -0.449  -4.382  1.00  0.00    -0.206 F 
ATOM     80  C   UNL     1      18.199  -3.526  -5.799  1.00  0.00     0.060 A 
BRANCH  80  81
ATOM     81  S   UNL     1      17.588  -5.022  -6.607  1.00  0.00     0.124 S 
ATOM     82  O   UNL     1      18.115  -4.865  -7.957  1.00  0.00    -0.237 OA
ATOM     83  O   UNL     1      18.199  -6.074  -5.801  1.00  0.00    -0.237 OA
ATOM     84  O   UNL     1      16.139  -4.906  -6.477  1.00  0.00    -0.744 OA
ENDBRANCH  80  81
ENDBRANCH  48  73
BRANCH  60  85
ATOM     85  C   UNL     1      23.265   4.256  -5.718  1.00  0.00     0.058 A 
ATOM     86  C   UNL     1      22.645   4.770  -6.867  1.00  0.00     0.135 A 
ATOM     87  C   UNL     1      24.669   4.247  -5.679  1.00  0.00     0.135 A 
ATOM     88  F   UNL     1      21.306   4.793  -6.960  1.00  0.00    -0.206 F 
ATOM     89  C   UNL     1      23.389   5.253  -7.938  1.00  0.00     0.059 A 
ATOM     90  C   UNL     1      25.433   4.752  -6.725  1.00  0.00     0.059 A 
ATOM     91  F   UNL     1      25.312   3.773  -4.600  1.00  0.00    -0.206 F 
ATOM     92  C   UNL     1      24.783   5.249  -7.854  1.00  0.00     0.060 A 
BRANCH  92  93
ATOM     93  S   UNL     1      25.735   5.941  -9.223  1.00  0.00     0.124 S 
ATOM     94  O   UNL     1      25.545   4.928 -10.255  1.00  0.00    -0.237 OA
ATOM     95  O   UNL     1      25.063   7.216  -9.455  1.00  0.00    -0.237 OA
ATOM     96  O   UNL     1      27.087   6.041  -8.682  1.00  0.00    -0.744 OA
ENDBRANCH  92  93
ENDBRANCH  60  85
ENDBRANCH  34  35
ENDBRANCH  26  29
ENDBRANCH  24  25
ENDBRANCH   1  24
TORSDOF 16
