REMARK SMILES CC[C@@](C)(NC(=O)c1cnc(Cl)c(Cl)c1)C(=O)NCCCNC(=O)c1ccc(-c2c3nc(c(-c4c(F)cc(S(=O)(=O)[O-])cc4F)c4ccc([nH]4)c(-c4c(F)cc(S(=O)(=O)[O-])cc4F)c4nc(c(-c5c(F)cc(S(=O)(=O)[O-])cc5F)c5ccc2[nH]5)C=C4)C=C3)cc1
REMARK SMILES IDX 20 1 19 2 18 3 16 4 17 5 3 7 4 8 2 9 1 10 5 11 6 12 7 14
REMARK SMILES IDX 8 15 9 16 15 17 10 18 13 19 11 20 14 21 12 22 21 23 22 24
REMARK SMILES IDX 23 25 24 27 25 28 26 29 90 30 27 31 89 32 28 33 29 34 30 35
REMARK SMILES IDX 83 36 31 37 88 38 82 39 84 40 32 41 87 42 81 43 80 44 33 46
REMARK SMILES IDX 67 47 46 48 66 49 47 50 50 51 65 52 85 53 48 54 49 55 64 57
REMARK SMILES IDX 86 58 51 59 34 60 35 61 44 62 36 63 37 64 43 65 45 66 38 67
REMARK SMILES IDX 39 68 40 69 41 70 42 71 68 72 69 73 78 74 70 75 71 76 77 77
REMARK SMILES IDX 79 78 72 79 73 80 74 81 75 82 76 83 52 84 53 85 62 86 54 87
REMARK SMILES IDX 55 88 61 89 63 90 56 91 57 92 58 93 59 94 60 95
REMARK H PARENT 18 6 5 13 22 26 84 45 50 56
REMARK Flexibility Score: inf
ROOT
ATOM      1  C   UNL     1       2.613   4.337  -4.368  1.00  0.00     0.042 C 
ENDROOT
BRANCH   1   2
ATOM      2  C   UNL     1       2.238   2.859  -4.480  1.00  0.00     0.117 C 
BRANCH   2   3
ATOM      3  N   UNL     1       2.778   1.954  -3.475  1.00  0.00    -0.354 N 
ATOM      4  C   UNL     1       2.369   1.537  -2.238  1.00  0.00     0.245 C 
ATOM      5  O   UNL     1       3.045   0.628  -1.745  1.00  0.00    -0.272 OA
ATOM      6  H   UNL     1       3.632   1.548  -3.749  1.00  0.00     0.163 HD
BRANCH   4   7
ATOM      7  C   UNL     1       1.130   2.116  -1.491  1.00  0.00     0.116 C 
ATOM      8  C   UNL     1      -0.115   1.634  -2.279  1.00  0.00     0.045 C 
BRANCH   7   9
ATOM      9  C   UNL     1       0.989   1.590  -0.026  1.00  0.00     0.035 C 
ATOM     10  C   UNL     1       0.950   0.078   0.186  1.00  0.00     0.007 C 
ENDBRANCH   7   9
BRANCH   7  11
ATOM     11  N   UNL     1       1.086   3.609  -1.423  1.00  0.00    -0.338 N 
ATOM     12  C   UNL     1       1.782   4.545  -0.685  1.00  0.00     0.253 C 
ATOM     13  H   UNL     1       0.421   4.007  -2.031  1.00  0.00     0.164 HD
ATOM     14  O   UNL     1       1.138   5.530  -0.318  1.00  0.00    -0.269 OA
BRANCH  12  15
ATOM     15  C   UNL     1       3.237   4.527  -0.368  1.00  0.00     0.059 A 
ATOM     16  C   UNL     1       4.174   3.802  -1.072  1.00  0.00     0.126 A 
ATOM     17  C   UNL     1       3.761   5.447   0.553  1.00  0.00     0.039 A 
ATOM     18  N   UNL     1       5.521   3.887  -0.943  1.00  0.00    -0.242 NA
ATOM     19  C   UNL     1       5.149   5.582   0.718  1.00  0.00     0.079 A 
ATOM     20  C   UNL     1       5.982   4.782  -0.051  1.00  0.00     0.147 A 
ATOM     21  Cl  UNL     1       5.751   6.749   1.830  1.00  0.00    -0.081 Cl
ATOM     22  Cl  UNL     1       7.698   4.841  -0.009  1.00  0.00    -0.061 Cl
ENDBRANCH  12  15
ENDBRANCH   7  11
ENDBRANCH   4   7
ENDBRANCH   2   3
ENDBRANCH   1   2
BRANCH   1  23
ATOM     23  C   UNL     1       4.093   4.712  -4.449  1.00  0.00     0.118 C 
BRANCH  23  24
ATOM     24  N   UNL     1       4.752   4.303  -5.671  1.00  0.00    -0.352 N 
ATOM     25  C   UNL     1       5.527   5.030  -6.539  1.00  0.00     0.251 C 
ATOM     26  H   UNL     1       4.624   3.359  -5.918  1.00  0.00     0.163 HD
ATOM     27  O   UNL     1       5.962   4.474  -7.551  1.00  0.00    -0.269 OA
BRANCH  25  28
ATOM     28  C   UNL     1       5.815   6.466  -6.314  1.00  0.00     0.039 A 
ATOM     29  C   UNL     1       5.674   7.338  -7.398  1.00  0.00     0.014 A 
ATOM     30  C   UNL     1       6.268   6.959  -5.085  1.00  0.00     0.014 A 
ATOM     31  C   UNL     1       5.939   8.702  -7.243  1.00  0.00     0.010 A 
ATOM     32  C   UNL     1       6.480   8.333  -4.917  1.00  0.00     0.010 A 
ATOM     33  C   UNL     1       6.322   9.220  -5.995  1.00  0.00    -0.014 A 
BRANCH  33  34
ATOM     34  C   UNL     1       6.557  10.683  -5.828  1.00  0.00     0.031 A 
ATOM     35  C   UNL     1       7.935  11.211  -5.526  1.00  0.00     0.074 A 
ATOM     36  C   UNL     1       5.523  11.543  -5.938  1.00  0.00     0.049 A 
ATOM     37  N   UNL     1       8.326  12.449  -5.355  1.00  0.00    -0.248 NA
ATOM     38  C   UNL     1       9.012  10.219  -5.385  1.00  0.00     0.031 C 
ATOM     39  C   UNL     1       4.133  11.161  -6.197  1.00  0.00     0.029 A 
ATOM     40  N   UNL     1       5.477  12.913  -5.847  1.00  0.00    -0.354 N 
ATOM     41  C   UNL     1       9.688  12.386  -5.081  1.00  0.00     0.074 A 
ATOM     42  C   UNL     1      10.046  10.984  -5.061  1.00  0.00     0.031 C 
ATOM     43  C   UNL     1       3.378  12.269  -6.266  1.00  0.00     0.029 A 
ATOM     44  C   UNL     1       4.217  13.438  -6.021  1.00  0.00     0.049 A 
ATOM     45  H   UNL     1       6.272  13.467  -5.673  1.00  0.00     0.167 HD
ATOM     46  C   UNL     1      10.565  13.402  -4.886  1.00  0.00     0.037 A 
ATOM     47  C   UNL     1       3.783  14.714  -5.982  1.00  0.00     0.037 A 
ATOM     48  C   UNL     1      10.209  14.798  -4.919  1.00  0.00     0.049 A 
ATOM     49  C   UNL     1       4.771  15.823  -5.741  1.00  0.00     0.074 A 
ATOM     50  C   UNL     1      11.037  15.900  -4.782  1.00  0.00     0.029 A 
ATOM     51  N   UNL     1       8.923  15.287  -5.093  1.00  0.00    -0.354 N 
ATOM     52  N   UNL     1       6.067  15.746  -5.551  1.00  0.00    -0.248 NA
ATOM     53  C   UNL     1       4.242  17.195  -5.715  1.00  0.00     0.031 C 
ATOM     54  C   UNL     1      10.245  17.052  -4.821  1.00  0.00     0.029 A 
ATOM     55  C   UNL     1       8.931  16.673  -5.040  1.00  0.00     0.049 A 
ATOM     56  H   UNL     1       8.122  14.732  -5.233  1.00  0.00     0.167 HD
ATOM     57  C   UNL     1       6.510  17.058  -5.411  1.00  0.00     0.074 A 
ATOM     58  C   UNL     1       5.347  17.909  -5.552  1.00  0.00     0.031 C 
ATOM     59  C   UNL     1       7.768  17.514  -5.187  1.00  0.00     0.037 A 
BRANCH  46  60
ATOM     60  C   UNL     1      12.003  13.043  -4.615  1.00  0.00     0.058 A 
ATOM     61  C   UNL     1      12.828  12.498  -5.611  1.00  0.00     0.135 A 
ATOM     62  C   UNL     1      12.576  13.288  -3.356  1.00  0.00     0.135 A 
ATOM     63  F   UNL     1      12.332  12.233  -6.830  1.00  0.00    -0.206 F 
ATOM     64  C   UNL     1      14.159  12.179  -5.362  1.00  0.00     0.059 A 
ATOM     65  C   UNL     1      13.914  13.005  -3.092  1.00  0.00     0.059 A 
ATOM     66  F   UNL     1      11.836  13.812  -2.366  1.00  0.00    -0.206 F 
ATOM     67  C   UNL     1      14.693  12.436  -4.098  1.00  0.00     0.060 A 
BRANCH  67  68
ATOM     68  S   UNL     1      16.424  12.021  -3.793  1.00  0.00     0.124 S 
ATOM     69  O   UNL     1      16.370  10.562  -3.753  1.00  0.00    -0.237 OA
ATOM     70  O   UNL     1      17.093  12.598  -4.955  1.00  0.00    -0.237 OA
ATOM     71  O   UNL     1      16.712  12.673  -2.519  1.00  0.00    -0.744 OA
ENDBRANCH  67  68
ENDBRANCH  46  60
BRANCH  47  72
ATOM     72  C   UNL     1       2.339  15.014  -6.188  1.00  0.00     0.058 A 
ATOM     73  C   UNL     1       1.893  15.673  -7.344  1.00  0.00     0.135 A 
ATOM     74  C   UNL     1       1.375  14.643  -5.237  1.00  0.00     0.135 A 
ATOM     75  F   UNL     1       2.775  16.057  -8.279  1.00  0.00    -0.206 F 
ATOM     76  C   UNL     1       0.548  15.968  -7.543  1.00  0.00     0.059 A 
ATOM     77  C   UNL     1       0.021  14.902  -5.426  1.00  0.00     0.059 A 
ATOM     78  F   UNL     1       1.747  13.998  -4.120  1.00  0.00    -0.206 F 
ATOM     79  C   UNL     1      -0.382  15.574  -6.579  1.00  0.00     0.060 A 
BRANCH  79  80
ATOM     80  S   UNL     1      -2.131  15.917  -6.870  1.00  0.00     0.124 S 
ATOM     81  O   UNL     1      -2.185  17.360  -6.671  1.00  0.00    -0.237 OA
ATOM     82  O   UNL     1      -2.308  15.454  -8.243  1.00  0.00    -0.237 OA
ATOM     83  O   UNL     1      -2.804  15.113  -5.854  1.00  0.00    -0.744 OA
ENDBRANCH  79  80
ENDBRANCH  47  72
BRANCH  59  84
ATOM     84  C   UNL     1       7.966  19.004  -5.111  1.00  0.00     0.058 A 
ATOM     85  C   UNL     1       7.516  19.757  -4.015  1.00  0.00     0.135 A 
ATOM     86  C   UNL     1       8.664  19.681  -6.126  1.00  0.00     0.135 A 
ATOM     87  F   UNL     1       6.837  19.163  -3.021  1.00  0.00    -0.206 F 
ATOM     88  C   UNL     1       7.733  21.129  -3.937  1.00  0.00     0.059 A 
ATOM     89  C   UNL     1       8.918  21.047  -6.054  1.00  0.00     0.059 A 
ATOM     90  F   UNL     1       9.124  19.009  -7.193  1.00  0.00    -0.206 F 
ATOM     91  C   UNL     1       8.438  21.765  -4.960  1.00  0.00     0.060 A 
BRANCH  91  92
ATOM     92  S   UNL     1       8.744  23.540  -4.827  1.00  0.00     0.124 S 
ATOM     93  O   UNL     1       7.418  24.088  -5.092  1.00  0.00    -0.237 OA
ATOM     94  O   UNL     1       9.222  23.672  -3.454  1.00  0.00    -0.237 OA
ATOM     95  O   UNL     1       9.745  23.791  -5.859  1.00  0.00    -0.744 OA
ENDBRANCH  91  92
ENDBRANCH  59  84
ENDBRANCH  33  34
ENDBRANCH  25  28
ENDBRANCH  23  24
ENDBRANCH   1  23
TORSDOF 16
