REMARK SMILES Cc1ccccc1C(=O)Nc1cc(NC(=O)c2ccccc2C)cc(C(=O)NCCCNC(=O)c2ccc(-c3c4nc(c(-c5c(F)cc(S(=O)(=O)[O-])cc5F)c5ccc([nH]5)c(-c5c(F)cc(S(=O)(=O)[O-])cc5F)c5nc(c(-c6c(F)cc(S(=O)(=O)[O-])cc6F)c6ccc3[nH]6)C=C5)C=C4)cc2)c1
REMARK SMILES IDX 30 1 29 2 28 3 26 4 27 5 25 7 11 8 12 9 101 10 13 11 24 12
REMARK SMILES IDX 10 13 8 14 9 15 7 17 1 18 2 19 3 20 4 21 6 22 5 23 14 24
REMARK SMILES IDX 15 25 16 27 17 28 18 29 22 30 19 31 21 32 23 33 20 34 31 35
REMARK SMILES IDX 32 36 33 37 34 39 35 40 36 41 100 42 37 43 99 44 38 45 39 46
REMARK SMILES IDX 40 47 93 48 41 49 98 50 92 51 94 52 42 53 97 54 91 55 90 56
REMARK SMILES IDX 43 58 77 59 56 60 76 61 57 62 60 63 75 64 95 65 58 66 59 67
REMARK SMILES IDX 74 69 96 70 61 71 44 72 45 73 54 74 46 75 47 76 53 77 55 78
REMARK SMILES IDX 48 79 49 80 50 81 51 82 52 83 78 84 79 85 88 86 80 87 81 88
REMARK SMILES IDX 87 89 89 90 82 91 83 92 84 93 85 94 86 95 62 96 63 97 72 98
REMARK SMILES IDX 64 99 65 100 71 101 73 102 66 103 67 104 68 105 69 106
REMARK SMILES IDX 70 107
REMARK H PARENT 28 6 10 16 14 26 32 38 94 57 60 68
REMARK Flexibility Score: inf
ROOT
ATOM      1  C   UNL     1       6.994  -3.331   0.110  1.00  0.00     0.042 C 
ENDROOT
BRANCH   1   2
ATOM      2  C   UNL     1       6.391  -2.919   1.453  1.00  0.00     0.118 C 
BRANCH   2   3
ATOM      3  N   UNL     1       6.745  -1.552   1.813  1.00  0.00    -0.352 N 
ATOM      4  C   UNL     1       6.176  -0.336   1.530  1.00  0.00     0.251 C 
ATOM      5  O   UNL     1       6.653   0.661   2.075  1.00  0.00    -0.269 OA
ATOM      6  H   UNL     1       7.554  -1.488   2.371  1.00  0.00     0.163 HD
BRANCH   4   7
ATOM      7  C   UNL     1       4.996  -0.144   0.634  1.00  0.00     0.043 A 
ATOM      8  C   UNL     1       3.072   1.236   0.084  1.00  0.00     0.044 A 
ATOM      9  C   UNL     1       2.706   0.352  -0.934  1.00  0.00     0.052 A 
ATOM     10  C   UNL     1       4.259   1.035   0.797  1.00  0.00     0.040 A 
ATOM     11  C   UNL     1       3.464  -0.793  -1.155  1.00  0.00     0.044 A 
ATOM     12  C   UNL     1       4.573  -1.045  -0.342  1.00  0.00     0.040 A 
BRANCH   8  13
ATOM     13  N   UNL     1       2.250   2.284   0.521  1.00  0.00    -0.322 N 
ATOM     14  C   UNL     1       0.876   2.346   0.618  1.00  0.00     0.255 C 
ATOM     15  O   UNL     1       0.338   3.417   0.903  1.00  0.00    -0.269 OA
ATOM     16  H   UNL     1       2.725   3.099   0.802  1.00  0.00     0.170 HD
BRANCH  14  17
ATOM     17  C   UNL     1       0.011   1.145   0.443  1.00  0.00     0.043 A 
ATOM     18  C   UNL     1       1.282  -0.391   2.089  1.00  0.00     0.045 C 
ATOM     19  C   UNL     1       0.211  -0.102   1.073  1.00  0.00    -0.038 A 
ATOM     20  C   UNL     1      -0.652  -1.166   0.748  1.00  0.00     0.004 A 
ATOM     21  C   UNL     1      -1.743  -0.976  -0.099  1.00  0.00     0.000 A 
ATOM     22  C   UNL     1      -1.116   1.333  -0.376  1.00  0.00     0.014 A 
ATOM     23  C   UNL     1      -1.992   0.281  -0.639  1.00  0.00     0.001 A 
ENDBRANCH  14  17
ENDBRANCH   8  13
BRANCH  11  24
ATOM     24  N   UNL     1       3.159  -1.778  -2.110  1.00  0.00    -0.322 N 
ATOM     25  C   UNL     1       2.442  -1.725  -3.279  1.00  0.00     0.255 C 
ATOM     26  H   UNL     1       3.526  -2.668  -1.902  1.00  0.00     0.170 HD
ATOM     27  O   UNL     1       2.069  -2.765  -3.820  1.00  0.00    -0.269 OA
BRANCH  25  28
ATOM     28  C   UNL     1       2.177  -0.441  -3.962  1.00  0.00     0.043 A 
ATOM     29  C   UNL     1       0.845  -0.206  -4.337  1.00  0.00     0.014 A 
ATOM     30  C   UNL     1       3.189   0.476  -4.312  1.00  0.00    -0.038 A 
ATOM     31  C   UNL     1       0.499   0.968  -5.000  1.00  0.00     0.001 A 
ATOM     32  C   UNL     1       2.812   1.668  -4.952  1.00  0.00     0.004 A 
ATOM     33  C   UNL     1       4.651   0.257  -4.036  1.00  0.00     0.045 C 
ATOM     34  C   UNL     1       1.480   1.911  -5.293  1.00  0.00     0.000 A 
ENDBRANCH  25  28
ENDBRANCH  11  24
ENDBRANCH   4   7
ENDBRANCH   2   3
ENDBRANCH   1   2
BRANCH   1  35
ATOM     35  C   UNL     1       8.369  -3.963   0.228  1.00  0.00     0.118 C 
BRANCH  35  36
ATOM     36  N   UNL     1       8.421  -5.285  -0.382  1.00  0.00    -0.352 N 
ATOM     37  C   UNL     1       9.547  -6.058  -0.634  1.00  0.00     0.251 C 
ATOM     38  H   UNL     1       7.557  -5.677  -0.647  1.00  0.00     0.163 HD
ATOM     39  O   UNL     1       9.517  -7.076  -1.271  1.00  0.00    -0.269 OA
BRANCH  37  40
ATOM     40  C   UNL     1      10.784  -5.604   0.039  1.00  0.00     0.039 A 
ATOM     41  C   UNL     1      11.151  -6.298   1.197  1.00  0.00     0.014 A 
ATOM     42  C   UNL     1      11.311  -4.353  -0.265  1.00  0.00     0.014 A 
ATOM     43  C   UNL     1      11.922  -5.653   2.156  1.00  0.00     0.010 A 
ATOM     44  C   UNL     1      12.012  -3.688   0.722  1.00  0.00     0.010 A 
ATOM     45  C   UNL     1      12.268  -4.320   1.951  1.00  0.00    -0.014 A 
BRANCH  45  46
ATOM     46  C   UNL     1      12.834  -3.472   2.993  1.00  0.00     0.031 A 
ATOM     47  C   UNL     1      14.261  -3.083   2.923  1.00  0.00     0.074 A 
ATOM     48  C   UNL     1      12.044  -2.980   3.973  1.00  0.00     0.049 A 
ATOM     49  N   UNL     1      14.908  -2.525   3.889  1.00  0.00    -0.248 NA
ATOM     50  C   UNL     1      15.109  -3.381   1.768  1.00  0.00     0.031 C 
ATOM     51  C   UNL     1      12.329  -1.846   4.847  1.00  0.00     0.029 A 
ATOM     52  N   UNL     1      10.899  -3.563   4.525  1.00  0.00    -0.354 N 
ATOM     53  C   UNL     1      16.122  -2.118   3.394  1.00  0.00     0.074 A 
ATOM     54  C   UNL     1      16.256  -2.799   2.134  1.00  0.00     0.031 C 
ATOM     55  C   UNL     1      11.560  -1.931   5.942  1.00  0.00     0.029 A 
ATOM     56  C   UNL     1      10.873  -3.209   5.890  1.00  0.00     0.049 A 
ATOM     57  H   UNL     1      10.237  -4.116   4.051  1.00  0.00     0.167 HD
ATOM     58  C   UNL     1      16.797  -1.132   4.047  1.00  0.00     0.037 A 
ATOM     59  C   UNL     1      10.937  -4.156   6.873  1.00  0.00     0.037 A 
ATOM     60  C   UNL     1      16.277  -0.966   5.405  1.00  0.00     0.049 A 
ATOM     61  C   UNL     1      12.150  -4.044   7.769  1.00  0.00     0.074 A 
ATOM     62  C   UNL     1      15.492  -0.009   6.022  1.00  0.00     0.029 A 
ATOM     63  N   UNL     1      16.349  -2.043   6.287  1.00  0.00    -0.354 N 
ATOM     64  N   UNL     1      13.189  -3.301   7.501  1.00  0.00    -0.248 NA
ATOM     65  C   UNL     1      12.302  -4.773   9.026  1.00  0.00     0.031 C 
ATOM     66  C   UNL     1      14.987  -0.574   7.227  1.00  0.00     0.029 A 
ATOM     67  C   UNL     1      15.511  -1.849   7.367  1.00  0.00     0.049 A 
ATOM     68  H   UNL     1      16.919  -2.835   6.157  1.00  0.00     0.167 HD
ATOM     69  C   UNL     1      14.145  -3.475   8.467  1.00  0.00     0.074 A 
ATOM     70  C   UNL     1      13.526  -4.378   9.421  1.00  0.00     0.031 C 
ATOM     71  C   UNL     1      15.373  -2.881   8.389  1.00  0.00     0.037 A 
BRANCH  58  72
ATOM     72  C   UNL     1      17.782  -0.174   3.395  1.00  0.00     0.058 A 
ATOM     73  C   UNL     1      18.420   0.826   4.165  1.00  0.00     0.135 A 
ATOM     74  C   UNL     1      18.028  -0.077   2.005  1.00  0.00     0.135 A 
ATOM     75  F   UNL     1      18.269   0.874   5.497  1.00  0.00    -0.206 F 
ATOM     76  C   UNL     1      19.206   1.842   3.602  1.00  0.00     0.059 A 
ATOM     77  C   UNL     1      18.846   0.895   1.428  1.00  0.00     0.059 A 
ATOM     78  F   UNL     1      17.432  -0.872   1.110  1.00  0.00    -0.206 F 
ATOM     79  C   UNL     1      19.409   1.872   2.228  1.00  0.00     0.060 A 
BRANCH  79  80
ATOM     80  S   UNL     1      20.373   3.201   1.485  1.00  0.00     0.124 S 
ATOM     81  O   UNL     1      19.469   4.339   1.623  1.00  0.00    -0.237 OA
ATOM     82  O   UNL     1      21.568   3.230   2.321  1.00  0.00    -0.237 OA
ATOM     83  O   UNL     1      20.587   2.740   0.115  1.00  0.00    -0.744 OA
ENDBRANCH  79  80
ENDBRANCH  58  72
BRANCH  59  84
ATOM     84  C   UNL     1      10.222  -5.412   6.516  1.00  0.00     0.058 A 
ATOM     85  C   UNL     1       8.819  -5.345   6.423  1.00  0.00     0.135 A 
ATOM     86  C   UNL     1      10.871  -6.448   5.829  1.00  0.00     0.135 A 
ATOM     87  F   UNL     1       8.148  -4.386   7.081  1.00  0.00    -0.206 F 
ATOM     88  C   UNL     1       8.108  -6.146   5.538  1.00  0.00     0.059 A 
ATOM     89  C   UNL     1      10.174  -7.269   4.939  1.00  0.00     0.059 A 
ATOM     90  F   UNL     1      12.206  -6.567   5.890  1.00  0.00    -0.206 F 
ATOM     91  C   UNL     1       8.809  -7.051   4.744  1.00  0.00     0.060 A 
BRANCH  91  92
ATOM     92  S   UNL     1       7.940  -7.765   3.326  1.00  0.00     0.124 S 
ATOM     93  O   UNL     1       6.834  -8.466   3.968  1.00  0.00    -0.237 OA
ATOM     94  O   UNL     1       7.572  -6.566   2.571  1.00  0.00    -0.237 OA
ATOM     95  O   UNL     1       8.951  -8.612   2.705  1.00  0.00    -0.744 OA
ENDBRANCH  91  92
ENDBRANCH  59  84
BRANCH  71  96
ATOM     96  C   UNL     1      16.543  -3.171   9.302  1.00  0.00     0.058 A 
ATOM     97  C   UNL     1      16.801  -4.426   9.879  1.00  0.00     0.135 A 
ATOM     98  C   UNL     1      17.539  -2.188   9.511  1.00  0.00     0.135 A 
ATOM     99  F   UNL     1      15.990  -5.472   9.662  1.00  0.00    -0.206 F 
ATOM    100  C   UNL     1      17.929  -4.672  10.666  1.00  0.00     0.059 A 
ATOM    101  C   UNL     1      18.698  -2.427  10.247  1.00  0.00     0.059 A 
ATOM    102  F   UNL     1      17.421  -0.955   8.994  1.00  0.00    -0.206 F 
ATOM    103  C   UNL     1      18.872  -3.666  10.847  1.00  0.00     0.060 A 
BRANCH 103 104
ATOM    104  S   UNL     1      20.361  -3.984  11.813  1.00  0.00     0.124 S 
ATOM    105  O   UNL     1      19.955  -3.519  13.135  1.00  0.00    -0.237 OA
ATOM    106  O   UNL     1      20.535  -5.428  11.681  1.00  0.00    -0.237 OA
ATOM    107  O   UNL     1      21.371  -3.176  11.139  1.00  0.00    -0.744 OA
ENDBRANCH 103 104
ENDBRANCH  71  96
ENDBRANCH  45  46
ENDBRANCH  37  40
ENDBRANCH  35  36
ENDBRANCH   1  35
TORSDOF 17
