REMARK SMILES C[NH2+][C@@H](C)c1ccc(SCc2ccc(C(=O)NCCCNC(=O)c3ccc(-c4c5nc(c(-c6c(F)cc(S(=O)(=O)[O-])cc6F)c6ccc([nH]6)c(-c6c(F)cc(S(=O)(=O)[O-])cc6F)c6nc(c(-c7c(F)cc(S(=O)(=O)[O-])cc7F)c7ccc4[nH]7)C=C6)C=C5)cc3)cc2)cc1
REMARK SMILES IDX 18 1 17 2 15 3 16 4 14 6 11 7 12 8 91 9 13 10 90 11 10 12
REMARK SMILES IDX 9 13 8 14 5 15 6 16 93 17 7 18 92 19 3 20 4 21 2 22 1 23
REMARK SMILES IDX 19 26 20 27 21 28 22 29 23 31 24 32 25 33 89 34 26 35 88 36
REMARK SMILES IDX 27 37 28 38 29 39 82 40 30 41 87 42 81 43 83 44 31 45 86 46
REMARK SMILES IDX 80 47 79 48 32 50 66 51 45 52 65 53 46 54 49 55 64 56 84 57
REMARK SMILES IDX 47 58 48 59 63 61 85 62 50 63 33 64 34 65 43 66 35 67 36 68
REMARK SMILES IDX 42 69 44 70 37 71 38 72 39 73 40 74 41 75 67 76 68 77 77 78
REMARK SMILES IDX 69 79 70 80 76 81 78 82 71 83 72 84 73 85 74 86 75 87 51 88
REMARK SMILES IDX 52 89 61 90 53 91 54 92 60 93 62 94 55 95 56 96 57 97 58 98
REMARK SMILES IDX 59 99
REMARK H PARENT 17 5 2 24 2 25 21 30 83 49 49 60
REMARK Flexibility Score: inf
ROOT
ATOM      1  C   UNL     1       2.788  -2.232  -8.080  1.00  0.00     0.118 C 
ENDROOT
BRANCH   1   2
ATOM      2  N   UNL     1       2.159  -3.489  -7.721  1.00  0.00    -0.352 N 
ATOM      3  C   UNL     1       0.845  -3.841  -7.543  1.00  0.00     0.251 C 
ATOM      4  O   UNL     1       0.601  -5.032  -7.337  1.00  0.00    -0.269 OA
ATOM      5  H   UNL     1       2.793  -4.228  -7.578  1.00  0.00     0.163 HD
BRANCH   3   6
ATOM      6  C   UNL     1      -0.288  -2.877  -7.624  1.00  0.00     0.039 A 
ATOM      7  C   UNL     1      -2.577  -1.200  -7.685  1.00  0.00    -0.038 A 
ATOM      8  C   UNL     1      -2.684  -2.575  -7.942  1.00  0.00     0.005 A 
ATOM      9  C   UNL     1      -1.302  -0.674  -7.458  1.00  0.00     0.005 A 
ATOM     10  C   UNL     1      -1.555  -3.400  -7.916  1.00  0.00     0.014 A 
ATOM     11  C   UNL     1      -0.186  -1.510  -7.370  1.00  0.00     0.014 A 
BRANCH   7  12
ATOM     12  C   UNL     1      -3.843  -0.372  -7.647  1.00  0.00     0.110 C 
BRANCH  12  13
ATOM     13  S   UNL     1      -3.815   1.234  -6.779  1.00  0.00    -0.121 SA
BRANCH  13  14
ATOM     14  C   UNL     1      -3.048   0.884  -5.198  1.00  0.00     0.008 A 
ATOM     15  C   UNL     1      -1.736   0.511  -2.711  1.00  0.00     0.009 A 
ATOM     16  C   UNL     1      -1.707   1.754  -3.359  1.00  0.00     0.011 A 
ATOM     17  C   UNL     1      -2.411  -0.546  -3.339  1.00  0.00     0.011 A 
ATOM     18  C   UNL     1      -2.360   1.937  -4.583  1.00  0.00     0.015 A 
ATOM     19  C   UNL     1      -3.076  -0.356  -4.558  1.00  0.00     0.015 A 
BRANCH  15  20
ATOM     20  C   UNL     1      -1.080   0.297  -1.350  1.00  0.00     0.210 C 
ATOM     21  C   UNL     1      -1.599   1.329  -0.337  1.00  0.00     0.081 C 
BRANCH  20  22
ATOM     22  N   UNL     1       0.382   0.299  -1.487  1.00  0.00    -0.343 N 
ATOM     23  C   UNL     1       1.070  -0.077  -0.257  1.00  0.00     0.331 C 
ATOM     24  H   UNL     1       0.640  -0.363  -2.219  1.00  0.00     0.346 HD
ATOM     25  H   UNL     1       0.666   1.251  -1.718  1.00  0.00     0.346 HD
ENDBRANCH  20  22
ENDBRANCH  15  20
ENDBRANCH  13  14
ENDBRANCH  12  13
ENDBRANCH   7  12
ENDBRANCH   3   6
ENDBRANCH   1   2
BRANCH   1  26
ATOM     26  C   UNL     1       3.352  -1.516  -6.852  1.00  0.00     0.042 C 
BRANCH  26  27
ATOM     27  C   UNL     1       4.676  -2.099  -6.366  1.00  0.00     0.118 C 
BRANCH  27  28
ATOM     28  N   UNL     1       5.753  -1.846  -7.312  1.00  0.00    -0.352 N 
ATOM     29  C   UNL     1       6.974  -1.252  -7.122  1.00  0.00     0.251 C 
ATOM     30  H   UNL     1       5.577  -2.148  -8.232  1.00  0.00     0.163 HD
ATOM     31  O   UNL     1       7.636  -0.925  -8.103  1.00  0.00    -0.269 OA
BRANCH  29  32
ATOM     32  C   UNL     1       7.495  -1.000  -5.760  1.00  0.00     0.039 A 
ATOM     33  C   UNL     1       8.213   0.178  -5.527  1.00  0.00     0.014 A 
ATOM     34  C   UNL     1       7.345  -1.939  -4.734  1.00  0.00     0.014 A 
ATOM     35  C   UNL     1       8.748   0.429  -4.261  1.00  0.00     0.010 A 
ATOM     36  C   UNL     1       7.824  -1.658  -3.456  1.00  0.00     0.010 A 
ATOM     37  C   UNL     1       8.541  -0.478  -3.210  1.00  0.00    -0.014 A 
BRANCH  37  38
ATOM     38  C   UNL     1       9.083  -0.213  -1.854  1.00  0.00     0.031 A 
ATOM     39  C   UNL     1      10.153  -1.101  -1.279  1.00  0.00     0.074 A 
ATOM     40  C   UNL     1       8.572   0.796  -1.121  1.00  0.00     0.049 A 
ATOM     41  N   UNL     1      10.706  -1.067  -0.094  1.00  0.00    -0.248 NA
ATOM     42  C   UNL     1      10.649  -2.186  -2.141  1.00  0.00     0.031 C 
ATOM     43  C   UNL     1       7.501   1.696  -1.554  1.00  0.00     0.029 A 
ATOM     44  N   UNL     1       8.877   1.228   0.144  1.00  0.00    -0.354 N 
ATOM     45  C   UNL     1      11.600  -2.131  -0.061  1.00  0.00     0.074 A 
ATOM     46  C   UNL     1      11.484  -2.819  -1.329  1.00  0.00     0.031 C 
ATOM     47  C   UNL     1       7.251   2.583  -0.578  1.00  0.00     0.029 A 
ATOM     48  C   UNL     1       8.119   2.296   0.560  1.00  0.00     0.049 A 
ATOM     49  H   UNL     1       9.574   0.812   0.702  1.00  0.00     0.167 HD
ATOM     50  C   UNL     1      12.454  -2.490   0.928  1.00  0.00     0.037 A 
ATOM     51  C   UNL     1       8.119   2.965   1.729  1.00  0.00     0.037 A 
ATOM     52  C   UNL     1      12.584  -1.783   2.176  1.00  0.00     0.049 A 
ATOM     53  C   UNL     1       9.090   2.561   2.804  1.00  0.00     0.074 A 
ATOM     54  C   UNL     1      13.457  -2.033   3.220  1.00  0.00     0.029 A 
ATOM     55  N   UNL     1      11.821  -0.686   2.547  1.00  0.00    -0.354 N 
ATOM     56  N   UNL     1       9.966   1.585   2.797  1.00  0.00    -0.248 NA
ATOM     57  C   UNL     1       9.079   3.353   4.041  1.00  0.00     0.031 C 
ATOM     58  C   UNL     1      13.199  -1.106   4.237  1.00  0.00     0.029 A 
ATOM     59  C   UNL     1      12.194  -0.254   3.809  1.00  0.00     0.049 A 
ATOM     60  H   UNL     1      11.117  -0.274   1.995  1.00  0.00     0.167 HD
ATOM     61  C   UNL     1      10.628   1.661   4.018  1.00  0.00     0.074 A 
ATOM     62  C   UNL     1      10.058   2.785   4.732  1.00  0.00     0.031 C 
ATOM     63  C   UNL     1      11.618   0.871   4.503  1.00  0.00     0.037 A 
BRANCH  50  64
ATOM     64  C   UNL     1      13.318  -3.700   0.697  1.00  0.00     0.058 A 
ATOM     65  C   UNL     1      14.382  -3.680  -0.219  1.00  0.00     0.135 A 
ATOM     66  C   UNL     1      13.099  -4.884   1.419  1.00  0.00     0.135 A 
ATOM     67  F   UNL     1      14.627  -2.579  -0.947  1.00  0.00    -0.206 F 
ATOM     68  C   UNL     1      15.179  -4.801  -0.433  1.00  0.00     0.059 A 
ATOM     69  C   UNL     1      13.900  -6.009   1.240  1.00  0.00     0.059 A 
ATOM     70  F   UNL     1      12.096  -4.958   2.308  1.00  0.00    -0.206 F 
ATOM     71  C   UNL     1      14.928  -5.962   0.299  1.00  0.00     0.060 A 
BRANCH  71  72
ATOM     72  S   UNL     1      15.970  -7.408   0.009  1.00  0.00     0.124 S 
ATOM     73  O   UNL     1      15.461  -7.879  -1.275  1.00  0.00    -0.237 OA
ATOM     74  O   UNL     1      17.309  -6.830  -0.014  1.00  0.00    -0.237 OA
ATOM     75  O   UNL     1      15.682  -8.268   1.152  1.00  0.00    -0.744 OA
ENDBRANCH  71  72
ENDBRANCH  50  64
BRANCH  51  76
ATOM     76  C   UNL     1       7.185   4.104   1.929  1.00  0.00     0.058 A 
ATOM     77  C   UNL     1       7.654   5.425   1.950  1.00  0.00     0.135 A 
ATOM     78  C   UNL     1       5.805   3.896   2.078  1.00  0.00     0.135 A 
ATOM     79  F   UNL     1       8.966   5.673   1.816  1.00  0.00    -0.206 F 
ATOM     80  C   UNL     1       6.791   6.502   2.126  1.00  0.00     0.059 A 
ATOM     81  C   UNL     1       4.920   4.958   2.233  1.00  0.00     0.059 A 
ATOM     82  F   UNL     1       5.304   2.651   2.045  1.00  0.00    -0.206 F 
ATOM     83  C   UNL     1       5.424   6.257   2.264  1.00  0.00     0.060 A 
BRANCH  83  84
ATOM     84  S   UNL     1       4.303   7.663   2.435  1.00  0.00     0.124 S 
ATOM     85  O   UNL     1       4.539   8.060   3.817  1.00  0.00    -0.237 OA
ATOM     86  O   UNL     1       4.798   8.578   1.412  1.00  0.00    -0.237 OA
ATOM     87  O   UNL     1       2.993   7.079   2.159  1.00  0.00    -0.744 OA
ENDBRANCH  83  84
ENDBRANCH  51  76
BRANCH  63  88
ATOM     88  C   UNL     1      12.170   1.215   5.857  1.00  0.00     0.058 A 
ATOM     89  C   UNL     1      11.450   0.956   7.033  1.00  0.00     0.135 A 
ATOM     90  C   UNL     1      13.453   1.773   5.980  1.00  0.00     0.135 A 
ATOM     91  F   UNL     1      10.217   0.430   6.969  1.00  0.00    -0.206 F 
ATOM     92  C   UNL     1      11.973   1.262   8.286  1.00  0.00     0.059 A 
ATOM     93  C   UNL     1      14.005   2.064   7.223  1.00  0.00     0.059 A 
ATOM     94  F   UNL     1      14.186   2.031   4.886  1.00  0.00    -0.206 F 
ATOM     95  C   UNL     1      13.252   1.816   8.370  1.00  0.00     0.060 A 
BRANCH  95  96
ATOM     96  S   UNL     1      13.931   2.185  10.002  1.00  0.00     0.124 S 
ATOM     97  O   UNL     1      13.209   3.404  10.351  1.00  0.00    -0.237 OA
ATOM     98  O   UNL     1      13.573   0.995  10.768  1.00  0.00    -0.237 OA
ATOM     99  O   UNL     1      15.358   2.351   9.745  1.00  0.00    -0.744 OA
ENDBRANCH  95  96
ENDBRANCH  63  88
ENDBRANCH  37  38
ENDBRANCH  29  32
ENDBRANCH  27  28
ENDBRANCH  26  27
ENDBRANCH   1  26
TORSDOF 18
