REMARK SMILES C=CCN(CC(=O)NCCCNC(=O)c1ccc(-c2c3nc(c(-c4c(F)cc(S(=O)(=O)[O-])cc4F)c4ccc([nH]4)c(-c4c(F)cc(S(=O)(=O)[O-])cc4F)c4nc(c(-c5c(F)cc(S(=O)(=O)[O-])cc5F)c5ccc2[nH]5)C=C4)C=C3)cc1)C(=O)N1CC[N@H+](C)C(C)(C)C1
REMARK SMILES IDX 10 1 9 2 8 3 6 4 7 5 5 7 4 8 3 9 2 10 1 11 81 12 82 13 83 14
REMARK SMILES IDX 84 15 91 16 85 17 88 18 86 19 89 20 90 21 87 22 11 24 12 25
REMARK SMILES IDX 13 26 14 28 15 29 16 30 80 31 17 32 79 33 18 34 19 35 20 36
REMARK SMILES IDX 73 37 21 38 78 39 72 40 74 41 22 42 77 43 71 44 70 45 23 47
REMARK SMILES IDX 57 48 36 49 56 50 37 51 40 52 55 53 75 54 38 55 39 56 54 58
REMARK SMILES IDX 76 59 41 60 24 61 25 62 34 63 26 64 27 65 33 66 35 67 28 68
REMARK SMILES IDX 29 69 30 70 31 71 32 72 58 73 59 74 68 75 60 76 61 77 67 78
REMARK SMILES IDX 69 79 62 80 63 81 64 82 65 83 66 84 42 85 43 86 52 87 44 88
REMARK SMILES IDX 45 89 51 90 53 91 46 92 47 93 48 94 49 95 50 96
REMARK H PARENT 8 6 86 23 12 27 74 46 40 57
REMARK Flexibility Score: inf
ROOT
ATOM      1  C   UNL     1      -4.318   0.502  -0.221  1.00  0.00     0.042 C 
ENDROOT
BRANCH   1   2
ATOM      2  C   UNL     1      -4.444  -0.844   0.474  1.00  0.00     0.117 C 
BRANCH   2   3
ATOM      3  N   UNL     1      -4.780  -1.929  -0.417  1.00  0.00    -0.354 N 
ATOM      4  C   UNL     1      -4.009  -2.961  -0.849  1.00  0.00     0.239 C 
ATOM      5  O   UNL     1      -4.616  -3.981  -1.196  1.00  0.00    -0.273 OA
ATOM      6  H   UNL     1      -5.702  -1.920  -0.762  1.00  0.00     0.163 HD
BRANCH   4   7
ATOM      7  C   UNL     1      -2.467  -2.944  -0.803  1.00  0.00     0.221 C 
BRANCH   7   8
ATOM      8  N   UNL     1      -1.776  -1.723  -1.236  1.00  0.00    -0.312 N 
BRANCH   8   9
ATOM      9  C   UNL     1      -1.145  -0.923  -0.184  1.00  0.00     0.149 C 
BRANCH   9  10
ATOM     10  C   UNL     1       0.331  -1.189  -0.109  1.00  0.00    -0.013 C 
ATOM     11  C   UNL     1       1.237  -0.207   0.001  1.00  0.00     0.006 C 
ENDBRANCH   9  10
ENDBRANCH   8   9
BRANCH   8  12
ATOM     12  C   UNL     1      -1.474  -1.360  -2.546  1.00  0.00     0.321 C 
ATOM     13  O   UNL     1      -0.850  -0.325  -2.792  1.00  0.00    -0.248 OA
BRANCH  12  14
ATOM     14  N   UNL     1      -1.747  -2.250  -3.567  1.00  0.00    -0.313 N 
ATOM     15  C   UNL     1      -0.836  -2.234  -4.713  1.00  0.00     0.183 C 
ATOM     16  C   UNL     1      -3.093  -2.657  -3.952  1.00  0.00     0.189 C 
ATOM     17  C   UNL     1      -0.849  -3.573  -5.478  1.00  0.00     0.284 C 
ATOM     18  C   UNL     1      -3.122  -4.050  -4.658  1.00  0.00     0.110 C 
ATOM     19  N   UNL     1      -2.192  -4.106  -5.833  1.00  0.00    -0.330 N 
ATOM     20  C   UNL     1      -2.681  -5.178  -3.695  1.00  0.00     0.080 C 
ATOM     21  C   UNL     1      -4.590  -4.359  -5.033  1.00  0.00     0.080 C 
ATOM     22  C   UNL     1      -2.696  -3.445  -7.037  1.00  0.00     0.333 C 
ATOM     23  H   UNL     1      -2.118  -5.096  -6.067  1.00  0.00     0.348 HD
ENDBRANCH  12  14
ENDBRANCH   8  12
ENDBRANCH   7   8
ENDBRANCH   4   7
ENDBRANCH   2   3
ENDBRANCH   1   2
BRANCH   1  24
ATOM     24  C   UNL     1      -5.610   0.992  -0.865  1.00  0.00     0.118 C 
BRANCH  24  25
ATOM     25  N   UNL     1      -6.717   1.068   0.083  1.00  0.00    -0.352 N 
ATOM     26  C   UNL     1      -7.365   2.161   0.600  1.00  0.00     0.251 C 
ATOM     27  H   UNL     1      -7.051   0.199   0.401  1.00  0.00     0.163 HD
ATOM     28  O   UNL     1      -8.115   2.024   1.564  1.00  0.00    -0.269 OA
BRANCH  26  29
ATOM     29  C   UNL     1      -7.155   3.494   0.003  1.00  0.00     0.039 A 
ATOM     30  C   UNL     1      -6.982   4.603   0.836  1.00  0.00     0.014 A 
ATOM     31  C   UNL     1      -7.143   3.648  -1.384  1.00  0.00     0.014 A 
ATOM     32  C   UNL     1      -6.721   5.856   0.274  1.00  0.00     0.010 A 
ATOM     33  C   UNL     1      -6.798   4.873  -1.938  1.00  0.00     0.010 A 
ATOM     34  C   UNL     1      -6.590   5.992  -1.116  1.00  0.00    -0.014 A 
BRANCH  34  35
ATOM     35  C   UNL     1      -6.263   7.288  -1.761  1.00  0.00     0.031 A 
ATOM     36  C   UNL     1      -7.242   7.895  -2.729  1.00  0.00     0.074 A 
ATOM     37  C   UNL     1      -5.055   7.853  -1.566  1.00  0.00     0.049 A 
ATOM     38  N   UNL     1      -7.082   8.905  -3.543  1.00  0.00    -0.248 NA
ATOM     39  C   UNL     1      -8.565   7.254  -2.818  1.00  0.00     0.031 C 
ATOM     40  C   UNL     1      -4.013   7.341  -0.674  1.00  0.00     0.029 A 
ATOM     41  N   UNL     1      -4.488   8.968  -2.131  1.00  0.00    -0.354 N 
ATOM     42  C   UNL     1      -8.269   9.001  -4.261  1.00  0.00     0.074 A 
ATOM     43  C   UNL     1      -9.121   7.918  -3.821  1.00  0.00     0.031 C 
ATOM     44  C   UNL     1      -2.938   8.142  -0.747  1.00  0.00     0.029 A 
ATOM     45  C   UNL     1      -3.192   9.192  -1.728  1.00  0.00     0.049 A 
ATOM     46  H   UNL     1      -4.963   9.552  -2.765  1.00  0.00     0.167 HD
ATOM     47  C   UNL     1      -8.622   9.920  -5.190  1.00  0.00     0.037 A 
ATOM     48  C   UNL     1      -2.301  10.123  -2.124  1.00  0.00     0.037 A 
ATOM     49  C   UNL     1      -7.775  11.011  -5.596  1.00  0.00     0.049 A 
ATOM     50  C   UNL     1      -2.711  11.130  -3.167  1.00  0.00     0.074 A 
ATOM     51  C   UNL     1      -8.055  12.028  -6.491  1.00  0.00     0.029 A 
ATOM     52  N   UNL     1      -6.486  11.227  -5.131  1.00  0.00    -0.354 N 
ATOM     53  N   UNL     1      -3.852  11.234  -3.807  1.00  0.00    -0.248 NA
ATOM     54  C   UNL     1      -1.718  12.147  -3.542  1.00  0.00     0.031 C 
ATOM     55  C   UNL     1      -6.918  12.833  -6.603  1.00  0.00     0.029 A 
ATOM     56  C   UNL     1      -5.952  12.354  -5.732  1.00  0.00     0.049 A 
ATOM     57  H   UNL     1      -6.020  10.664  -4.472  1.00  0.00     0.167 HD
ATOM     58  C   UNL     1      -3.730  12.352  -4.624  1.00  0.00     0.074 A 
ATOM     59  C   UNL     1      -2.402  12.887  -4.405  1.00  0.00     0.031 C 
ATOM     60  C   UNL     1      -4.639  12.892  -5.473  1.00  0.00     0.037 A 
BRANCH  47  61
ATOM     61  C   UNL     1      -9.977   9.787  -5.830  1.00  0.00     0.058 A 
ATOM     62  C   UNL     1     -11.160  10.013  -5.109  1.00  0.00     0.135 A 
ATOM     63  C   UNL     1     -10.093   9.462  -7.191  1.00  0.00     0.135 A 
ATOM     64  F   UNL     1     -11.110  10.311  -3.800  1.00  0.00    -0.206 F 
ATOM     65  C   UNL     1     -12.411   9.890  -5.705  1.00  0.00     0.059 A 
ATOM     66  C   UNL     1     -11.333   9.366  -7.817  1.00  0.00     0.059 A 
ATOM     67  F   UNL     1      -8.995   9.235  -7.929  1.00  0.00    -0.206 F 
ATOM     68  C   UNL     1     -12.487   9.566  -7.061  1.00  0.00     0.060 A 
BRANCH  68  69
ATOM     69  S   UNL     1     -14.117   9.415  -7.819  1.00  0.00     0.124 S 
ATOM     70  O   UNL     1     -14.593   8.163  -7.237  1.00  0.00    -0.237 OA
ATOM     71  O   UNL     1     -14.790  10.624  -7.355  1.00  0.00    -0.237 OA
ATOM     72  O   UNL     1     -13.826   9.372  -9.248  1.00  0.00    -0.744 OA
ENDBRANCH  68  69
ENDBRANCH  47  61
BRANCH  48  73
ATOM     73  C   UNL     1      -0.941  10.157  -1.521  1.00  0.00     0.058 A 
ATOM     74  C   UNL     1      -0.562  11.196  -0.660  1.00  0.00     0.135 A 
ATOM     75  C   UNL     1       0.000   9.148  -1.779  1.00  0.00     0.135 A 
ATOM     76  F   UNL     1      -1.424  12.188  -0.386  1.00  0.00    -0.206 F 
ATOM     77  C   UNL     1       0.706  11.246  -0.089  1.00  0.00     0.059 A 
ATOM     78  C   UNL     1       1.265   9.161  -1.199  1.00  0.00     0.059 A 
ATOM     79  F   UNL     1      -0.317   8.120  -2.582  1.00  0.00    -0.206 F 
ATOM     80  C   UNL     1       1.612  10.221  -0.363  1.00  0.00     0.060 A 
BRANCH  80  81
ATOM     81  S   UNL     1       3.240  10.275   0.419  1.00  0.00     0.124 S 
ATOM     82  O   UNL     1       3.877  11.368  -0.305  1.00  0.00    -0.237 OA
ATOM     83  O   UNL     1       2.900  10.545   1.813  1.00  0.00    -0.237 OA
ATOM     84  O   UNL     1       3.781   8.944   0.161  1.00  0.00    -0.744 OA
ENDBRANCH  80  81
ENDBRANCH  48  73
BRANCH  60  85
ATOM     85  C   UNL     1      -4.274  14.166  -6.181  1.00  0.00     0.058 A 
ATOM     86  C   UNL     1      -3.380  14.188  -7.261  1.00  0.00     0.135 A 
ATOM     87  C   UNL     1      -4.921  15.366  -5.839  1.00  0.00     0.135 A 
ATOM     88  F   UNL     1      -2.729  13.071  -7.623  1.00  0.00    -0.206 F 
ATOM     89  C   UNL     1      -3.141  15.355  -7.979  1.00  0.00     0.059 A 
ATOM     90  C   UNL     1      -4.718  16.537  -6.559  1.00  0.00     0.059 A 
ATOM     91  F   UNL     1      -5.793  15.395  -4.817  1.00  0.00    -0.206 F 
ATOM     92  C   UNL     1      -3.825  16.522  -7.629  1.00  0.00     0.060 A 
BRANCH  92  93
ATOM     93  S   UNL     1      -3.570  18.007  -8.623  1.00  0.00     0.124 S 
ATOM     94  O   UNL     1      -2.223  18.402  -8.224  1.00  0.00    -0.237 OA
ATOM     95  O   UNL     1      -3.704  17.496  -9.984  1.00  0.00    -0.237 OA
ATOM     96  O   UNL     1      -4.641  18.898  -8.186  1.00  0.00    -0.744 OA
ENDBRANCH  92  93
ENDBRANCH  60  85
ENDBRANCH  34  35
ENDBRANCH  26  29
ENDBRANCH  24  25
ENDBRANCH   1  24
TORSDOF 18
