REMARK SMILES O=C(NCCCNC(=O)c1ccc(-c2c3nc(c(-c4c(F)cc(S(=O)(=O)[O-])cc4F)c4ccc([nH]4)c(-c4c(F)cc(S(=O)(=O)[O-])cc4F)c4nc(c(-c5c(F)cc(S(=O)(=O)[O-])cc5F)c5ccc2[nH]5)C=C4)C=C3)cc1)/C(=C/c1ccsc1)c1ccccc1
REMARK SMILES IDX 6 1 5 2 4 3 3 4 1 5 2 6 76 8 77 9 83 10 84 11 88 12 85 13
REMARK SMILES IDX 87 14 86 15 78 16 79 17 82 18 80 19 81 20 7 21 8 22 9 24
REMARK SMILES IDX 10 25 11 26 75 27 12 28 74 29 13 30 14 31 15 32 68 33 16 34
REMARK SMILES IDX 73 35 67 36 69 37 17 38 72 39 66 40 65 41 18 43 52 44 31 45
REMARK SMILES IDX 51 46 32 47 35 48 50 49 70 50 33 51 34 52 49 54 71 55 36 56
REMARK SMILES IDX 19 57 20 58 29 59 21 60 22 61 28 62 30 63 23 64 24 65 25 66
REMARK SMILES IDX 26 67 27 68 53 69 54 70 63 71 55 72 56 73 62 74 64 75 57 76
REMARK SMILES IDX 58 77 59 78 60 79 61 80 37 81 38 82 47 83 39 84 40 85 46 86
REMARK SMILES IDX 48 87 41 88 42 89 43 90 44 91 45 92
REMARK H PARENT 3 7 7 23 69 42 35 53
REMARK Flexibility Score: inf
ROOT
ATOM      1  C   UNL     1       4.186  -2.472   3.002  1.00  0.00     0.118 C 
ENDROOT
BRANCH   1   2
ATOM      2  C   UNL     1       4.790  -1.193   2.462  1.00  0.00     0.042 C 
BRANCH   2   3
ATOM      3  C   UNL     1       4.522  -0.955   0.990  1.00  0.00     0.118 C 
BRANCH   3   4
ATOM      4  N   UNL     1       3.128  -0.680   0.678  1.00  0.00    -0.352 N 
ATOM      5  O   UNL     1       1.292   0.172  -0.207  1.00  0.00    -0.269 OA
ATOM      6  C   UNL     1       2.522   0.247  -0.117  1.00  0.00     0.251 C 
ATOM      7  H   UNL     1       2.496  -1.284   1.131  1.00  0.00     0.163 HD
BRANCH   6   8
ATOM      8  C   UNL     1       3.278   1.328  -0.848  1.00  0.00     0.047 C 
ATOM      9  C   UNL     1       2.528   2.340  -1.349  1.00  0.00     0.023 C 
BRANCH   8  10
ATOM     10  C   UNL     1       4.744   1.352  -0.991  1.00  0.00    -0.013 A 
ATOM     11  C   UNL     1       5.500   2.320  -0.305  1.00  0.00     0.009 A 
ATOM     12  C   UNL     1       5.404   0.382  -1.760  1.00  0.00     0.009 A 
ATOM     13  C   UNL     1       6.891   2.300  -0.365  1.00  0.00     0.001 A 
ATOM     14  C   UNL     1       6.799   0.351  -1.795  1.00  0.00     0.001 A 
ATOM     15  C   UNL     1       7.539   1.307  -1.097  1.00  0.00     0.000 A 
ENDBRANCH   8  10
BRANCH   9  16
ATOM     16  C   UNL     1       3.021   3.501  -2.035  1.00  0.00    -0.014 A 
ATOM     17  C   UNL     1       3.963   3.508  -3.109  1.00  0.00     0.020 A 
ATOM     18  C   UNL     1       2.654   4.779  -1.671  1.00  0.00     0.073 A 
ATOM     19  C   UNL     1       4.364   4.782  -3.440  1.00  0.00     0.065 A 
ATOM     20  S   UNL     1       3.527   5.971  -2.540  1.00  0.00    -0.152 S 
ENDBRANCH   9  16
ENDBRANCH   6   8
ENDBRANCH   3   4
ENDBRANCH   2   3
ENDBRANCH   1   2
BRANCH   1  21
ATOM     21  N   UNL     1       4.770  -3.671   2.412  1.00  0.00    -0.352 N 
ATOM     22  C   UNL     1       5.657  -4.591   2.924  1.00  0.00     0.251 C 
ATOM     23  H   UNL     1       4.480  -3.853   1.489  1.00  0.00     0.163 HD
ATOM     24  O   UNL     1       6.155  -5.423   2.174  1.00  0.00    -0.269 OA
BRANCH  22  25
ATOM     25  C   UNL     1       6.033  -4.563   4.356  1.00  0.00     0.039 A 
ATOM     26  C   UNL     1       7.350  -4.856   4.722  1.00  0.00     0.014 A 
ATOM     27  C   UNL     1       5.097  -4.257   5.343  1.00  0.00     0.014 A 
ATOM     28  C   UNL     1       7.737  -4.759   6.062  1.00  0.00     0.010 A 
ATOM     29  C   UNL     1       5.512  -4.026   6.648  1.00  0.00     0.010 A 
ATOM     30  C   UNL     1       6.832  -4.294   7.031  1.00  0.00    -0.014 A 
BRANCH  30  31
ATOM     31  C   UNL     1       7.231  -4.105   8.451  1.00  0.00     0.031 A 
ATOM     32  C   UNL     1       6.501  -4.846   9.543  1.00  0.00     0.074 A 
ATOM     33  C   UNL     1       8.193  -3.214   8.764  1.00  0.00     0.049 A 
ATOM     34  N   UNL     1       6.645  -4.757  10.840  1.00  0.00    -0.248 NA
ATOM     35  C   UNL     1       5.443  -5.782   9.125  1.00  0.00     0.031 C 
ATOM     36  C   UNL     1       8.926  -2.385   7.804  1.00  0.00     0.029 A 
ATOM     37  N   UNL     1       8.714  -2.847   9.979  1.00  0.00    -0.354 N 
ATOM     38  C   UNL     1       5.685  -5.602  11.387  1.00  0.00     0.074 A 
ATOM     39  C   UNL     1       4.920  -6.143  10.287  1.00  0.00     0.031 C 
ATOM     40  C   UNL     1       9.821  -1.632   8.462  1.00  0.00     0.029 A 
ATOM     41  C   UNL     1       9.697  -1.888   9.894  1.00  0.00     0.049 A 
ATOM     42  H   UNL     1       8.413  -3.233  10.833  1.00  0.00     0.167 HD
ATOM     43  C   UNL     1       5.478  -5.924  12.686  1.00  0.00     0.037 A 
ATOM     44  C   UNL     1      10.413  -1.278  10.858  1.00  0.00     0.037 A 
ATOM     45  C   UNL     1       6.269  -5.410  13.773  1.00  0.00     0.049 A 
ATOM     46  C   UNL     1      10.179  -1.664  12.294  1.00  0.00     0.074 A 
ATOM     47  C   UNL     1       6.194  -5.729  15.117  1.00  0.00     0.029 A 
ATOM     48  N   UNL     1       7.279  -4.468  13.641  1.00  0.00    -0.354 N 
ATOM     49  N   UNL     1       9.320  -2.526  12.786  1.00  0.00    -0.248 NA
ATOM     50  C   UNL     1      11.016  -1.004  13.305  1.00  0.00     0.031 C 
ATOM     51  C   UNL     1       7.120  -4.939  15.805  1.00  0.00     0.029 A 
ATOM     52  C   UNL     1       7.816  -4.174  14.883  1.00  0.00     0.049 A 
ATOM     53  H   UNL     1       7.570  -4.067  12.790  1.00  0.00     0.167 HD
ATOM     54  C   UNL     1       9.532  -2.531  14.161  1.00  0.00     0.074 A 
ATOM     55  C   UNL     1      10.610  -1.599  14.419  1.00  0.00     0.031 C 
ATOM     56  C   UNL     1       8.894  -3.245  15.122  1.00  0.00     0.037 A 
BRANCH  43  57
ATOM     57  C   UNL     1       4.358  -6.880  13.002  1.00  0.00     0.058 A 
ATOM     58  C   UNL     1       4.407  -8.232  12.625  1.00  0.00     0.135 A 
ATOM     59  C   UNL     1       3.231  -6.444  13.719  1.00  0.00     0.135 A 
ATOM     60  F   UNL     1       5.452  -8.702  11.924  1.00  0.00    -0.206 F 
ATOM     61  C   UNL     1       3.367  -9.109  12.916  1.00  0.00     0.059 A 
ATOM     62  C   UNL     1       2.194  -7.312  14.051  1.00  0.00     0.059 A 
ATOM     63  F   UNL     1       3.129  -5.163  14.105  1.00  0.00    -0.206 F 
ATOM     64  C   UNL     1       2.265  -8.639  13.631  1.00  0.00     0.060 A 
BRANCH  64  65
ATOM     65  S   UNL     1       0.928  -9.793  14.007  1.00  0.00     0.124 S 
ATOM     66  O   UNL     1       0.324  -9.976  12.690  1.00  0.00    -0.237 OA
ATOM     67  O   UNL     1       1.651 -10.944  14.537  1.00  0.00    -0.237 OA
ATOM     68  O   UNL     1       0.113  -9.066  14.975  1.00  0.00    -0.744 OA
ENDBRANCH  64  65
ENDBRANCH  43  57
BRANCH  44  69
ATOM     69  C   UNL     1      11.433  -0.257  10.494  1.00  0.00     0.058 A 
ATOM     70  C   UNL     1      12.803  -0.516  10.645  1.00  0.00     0.135 A 
ATOM     71  C   UNL     1      11.059   0.989   9.966  1.00  0.00     0.135 A 
ATOM     72  F   UNL     1      13.212  -1.690  11.150  1.00  0.00    -0.206 F 
ATOM     73  C   UNL     1      13.767   0.428  10.303  1.00  0.00     0.059 A 
ATOM     74  C   UNL     1      12.005   1.938   9.590  1.00  0.00     0.059 A 
ATOM     75  F   UNL     1       9.762   1.281   9.784  1.00  0.00    -0.206 F 
ATOM     76  C   UNL     1      13.357   1.652   9.771  1.00  0.00     0.060 A 
BRANCH  76  77
ATOM     77  S   UNL     1      14.618   2.848   9.280  1.00  0.00     0.124 S 
ATOM     78  O   UNL     1      15.118   3.296  10.573  1.00  0.00    -0.237 OA
ATOM     79  O   UNL     1      15.529   2.024   8.492  1.00  0.00    -0.237 OA
ATOM     80  O   UNL     1      13.862   3.838   8.517  1.00  0.00    -0.744 OA
ENDBRANCH  76  77
ENDBRANCH  44  69
BRANCH  56  81
ATOM     81  C   UNL     1       9.366  -3.075  16.540  1.00  0.00     0.058 A 
ATOM     82  C   UNL     1       9.128  -1.897  17.265  1.00  0.00     0.135 A 
ATOM     83  C   UNL     1      10.020  -4.130  17.199  1.00  0.00     0.135 A 
ATOM     84  F   UNL     1       8.512  -0.857  16.682  1.00  0.00    -0.206 F 
ATOM     85  C   UNL     1       9.547  -1.760  18.584  1.00  0.00     0.059 A 
ATOM     86  C   UNL     1      10.418  -4.027  18.528  1.00  0.00     0.059 A 
ATOM     87  F   UNL     1      10.261  -5.284  16.556  1.00  0.00    -0.206 F 
ATOM     88  C   UNL     1      10.189  -2.832  19.208  1.00  0.00     0.060 A 
BRANCH  88  89
ATOM     89  S   UNL     1      10.701  -2.650  20.929  1.00  0.00     0.124 S 
ATOM     90  O   UNL     1      11.834  -1.740  20.804  1.00  0.00    -0.237 OA
ATOM     91  O   UNL     1       9.505  -2.093  21.553  1.00  0.00    -0.237 OA
ATOM     92  O   UNL     1      11.033  -4.014  21.331  1.00  0.00    -0.744 OA
ENDBRANCH  88  89
ENDBRANCH  56  81
ENDBRANCH  30  31
ENDBRANCH  22  25
ENDBRANCH   1  21
TORSDOF 15
