REMARK SMILES O=C(NCCCNC(=O)[C@@H]1C=C[C@H](Nc2ncccn2)C1)c1ccc(-c2c3nc(c(-c4c(F)cc(S(=O)(=O)[O-])cc4F)c4ccc([nH]4)c(-c4c(F)cc(S(=O)(=O)[O-])cc4F)c4nc(c(-c5c(F)cc(S(=O)(=O)[O-])cc5F)c5ccc2[nH]5)C=C4)C=C3)cc1
REMARK SMILES IDX 4 1 3 2 1 3 2 4 22 6 23 7 87 8 24 9 86 10 25 11 26 12 27 13
REMARK SMILES IDX 80 14 28 15 85 16 79 17 81 18 29 19 84 20 78 21 77 22 30 24
REMARK SMILES IDX 64 25 43 26 63 27 44 28 47 29 62 30 82 31 45 32 46 33 61 35
REMARK SMILES IDX 83 36 48 37 31 38 32 39 41 40 33 41 34 42 40 43 42 44 35 45
REMARK SMILES IDX 36 46 37 47 38 48 39 49 65 50 66 51 75 52 67 53 68 54 74 55
REMARK SMILES IDX 76 56 69 57 70 58 71 59 72 60 73 61 49 62 50 63 59 64 51 65
REMARK SMILES IDX 52 66 58 67 60 68 53 69 54 70 55 71 56 72 57 73 5 74 6 75
REMARK SMILES IDX 7 76 8 77 9 79 10 80 11 81 21 82 12 83 13 84 14 85 15 87
REMARK SMILES IDX 16 88 20 89 17 90 19 91 18 92
REMARK H PARENT 3 5 81 23 47 34 7 78 14 86
REMARK Flexibility Score: inf
ROOT
ATOM      1  C   UNL     1       5.399  -3.306   1.243  1.00  0.00     0.118 C 
ENDROOT
BRANCH   1   2
ATOM      2  N   UNL     1       5.420  -1.891   1.590  1.00  0.00    -0.352 N 
ATOM      3  O   UNL     1       4.848   0.005   2.651  1.00  0.00    -0.269 OA
ATOM      4  C   UNL     1       4.845  -1.224   2.647  1.00  0.00     0.251 C 
ATOM      5  H   UNL     1       5.927  -1.321   0.969  1.00  0.00     0.163 HD
BRANCH   4   6
ATOM      6  C   UNL     1       4.203  -1.966   3.756  1.00  0.00     0.039 A 
ATOM      7  C   UNL     1       4.781  -3.122   4.283  1.00  0.00     0.014 A 
ATOM      8  C   UNL     1       3.007  -1.482   4.298  1.00  0.00     0.014 A 
ATOM      9  C   UNL     1       4.084  -3.883   5.217  1.00  0.00     0.010 A 
ATOM     10  C   UNL     1       2.355  -2.199   5.308  1.00  0.00     0.010 A 
ATOM     11  C   UNL     1       2.863  -3.432   5.744  1.00  0.00    -0.014 A 
BRANCH  11  12
ATOM     12  C   UNL     1       2.160  -4.260   6.762  1.00  0.00     0.031 A 
ATOM     13  C   UNL     1       0.805  -4.855   6.481  1.00  0.00     0.074 A 
ATOM     14  C   UNL     1       2.777  -4.518   7.933  1.00  0.00     0.049 A 
ATOM     15  N   UNL     1       0.085  -5.654   7.229  1.00  0.00    -0.248 NA
ATOM     16  C   UNL     1       0.168  -4.504   5.202  1.00  0.00     0.031 C 
ATOM     17  C   UNL     1       4.082  -3.983   8.332  1.00  0.00     0.029 A 
ATOM     18  N   UNL     1       2.409  -5.312   8.989  1.00  0.00    -0.354 N 
ATOM     19  C   UNL     1      -1.094  -5.881   6.527  1.00  0.00     0.074 A 
ATOM     20  C   UNL     1      -1.005  -5.114   5.303  1.00  0.00     0.031 C 
ATOM     21  C   UNL     1       4.431  -4.510   9.515  1.00  0.00     0.029 A 
ATOM     22  C   UNL     1       3.355  -5.376   9.985  1.00  0.00     0.049 A 
ATOM     23  H   UNL     1       1.550  -5.791   9.030  1.00  0.00     0.167 HD
ATOM     24  C   UNL     1      -2.148  -6.663   6.867  1.00  0.00     0.037 A 
ATOM     25  C   UNL     1       3.360  -6.053  11.149  1.00  0.00     0.037 A 
ATOM     26  C   UNL     1      -2.220  -7.447   8.074  1.00  0.00     0.049 A 
ATOM     27  C   UNL     1       2.184  -6.920  11.496  1.00  0.00     0.074 A 
ATOM     28  C   UNL     1      -3.225  -8.306   8.485  1.00  0.00     0.029 A 
ATOM     29  N   UNL     1      -1.250  -7.469   9.066  1.00  0.00    -0.354 N 
ATOM     30  N   UNL     1       1.097  -7.151  10.799  1.00  0.00    -0.248 NA
ATOM     31  C   UNL     1       2.236  -7.620  12.786  1.00  0.00     0.031 C 
ATOM     32  C   UNL     1      -2.882  -8.816   9.742  1.00  0.00     0.029 A 
ATOM     33  C   UNL     1      -1.641  -8.311  10.095  1.00  0.00     0.049 A 
ATOM     34  H   UNL     1      -0.407  -6.960   9.042  1.00  0.00     0.167 HD
ATOM     35  C   UNL     1       0.344  -8.041  11.557  1.00  0.00     0.074 A 
ATOM     36  C   UNL     1       1.108  -8.316  12.757  1.00  0.00     0.031 C 
ATOM     37  C   UNL     1      -0.869  -8.580  11.282  1.00  0.00     0.037 A 
BRANCH  24  38
ATOM     38  C   UNL     1      -3.324  -6.700   5.928  1.00  0.00     0.058 A 
ATOM     39  C   UNL     1      -3.265  -7.361   4.691  1.00  0.00     0.135 A 
ATOM     40  C   UNL     1      -4.541  -6.097   6.289  1.00  0.00     0.135 A 
ATOM     41  F   UNL     1      -2.124  -7.943   4.289  1.00  0.00    -0.206 F 
ATOM     42  C   UNL     1      -4.361  -7.400   3.833  1.00  0.00     0.059 A 
ATOM     43  C   UNL     1      -5.657  -6.144   5.457  1.00  0.00     0.059 A 
ATOM     44  F   UNL     1      -4.654  -5.453   7.461  1.00  0.00    -0.206 F 
ATOM     45  C   UNL     1      -5.552  -6.785   4.224  1.00  0.00     0.060 A 
BRANCH  45  46
ATOM     46  S   UNL     1      -6.963  -6.838   3.099  1.00  0.00     0.124 S 
ATOM     47  O   UNL     1      -6.561  -5.869   2.084  1.00  0.00    -0.237 OA
ATOM     48  O   UNL     1      -6.971  -8.234   2.672  1.00  0.00    -0.237 OA
ATOM     49  O   UNL     1      -8.085  -6.437   3.941  1.00  0.00    -0.744 OA
ENDBRANCH  45  46
ENDBRANCH  24  38
BRANCH  25  50
ATOM     50  C   UNL     1       4.530  -5.947  12.059  1.00  0.00     0.058 A 
ATOM     51  C   UNL     1       5.402  -7.030  12.244  1.00  0.00     0.135 A 
ATOM     52  C   UNL     1       4.813  -4.754  12.742  1.00  0.00     0.135 A 
ATOM     53  F   UNL     1       5.170  -8.193  11.616  1.00  0.00    -0.206 F 
ATOM     54  C   UNL     1       6.506  -6.940  13.084  1.00  0.00     0.059 A 
ATOM     55  C   UNL     1       5.926  -4.631  13.567  1.00  0.00     0.059 A 
ATOM     56  F   UNL     1       4.019  -3.684  12.584  1.00  0.00    -0.206 F 
ATOM     57  C   UNL     1       6.761  -5.733  13.740  1.00  0.00     0.060 A 
BRANCH  57  58
ATOM     58  S   UNL     1       8.227  -5.607  14.787  1.00  0.00     0.124 S 
ATOM     59  O   UNL     1       7.807  -6.351  15.969  1.00  0.00    -0.237 OA
ATOM     60  O   UNL     1       9.251  -6.242  13.963  1.00  0.00    -0.237 OA
ATOM     61  O   UNL     1       8.384  -4.167  14.969  1.00  0.00    -0.744 OA
ENDBRANCH  57  58
ENDBRANCH  25  50
BRANCH  37  62
ATOM     62  C   UNL     1      -1.428  -9.553  12.282  1.00  0.00     0.058 A 
ATOM     63  C   UNL     1      -1.929  -9.131  13.524  1.00  0.00     0.135 A 
ATOM     64  C   UNL     1      -1.482 -10.924  11.984  1.00  0.00     0.135 A 
ATOM     65  F   UNL     1      -1.894  -7.832  13.860  1.00  0.00    -0.206 F 
ATOM     66  C   UNL     1      -2.435 -10.038  14.449  1.00  0.00     0.059 A 
ATOM     67  C   UNL     1      -2.007 -11.846  12.884  1.00  0.00     0.059 A 
ATOM     68  F   UNL     1      -1.025 -11.379  10.806  1.00  0.00    -0.206 F 
ATOM     69  C   UNL     1      -2.466 -11.395  14.121  1.00  0.00     0.060 A 
BRANCH  69  70
ATOM     70  S   UNL     1      -3.135 -12.565  15.322  1.00  0.00     0.124 S 
ATOM     71  O   UNL     1      -2.034 -12.670  16.273  1.00  0.00    -0.237 OA
ATOM     72  O   UNL     1      -4.326 -11.873  15.806  1.00  0.00    -0.237 OA
ATOM     73  O   UNL     1      -3.393 -13.759  14.524  1.00  0.00    -0.744 OA
ENDBRANCH  69  70
ENDBRANCH  37  62
ENDBRANCH  11  12
ENDBRANCH   4   6
ENDBRANCH   1   2
BRANCH   1  74
ATOM     74  C   UNL     1       4.695  -3.581  -0.082  1.00  0.00     0.042 C 
BRANCH  74  75
ATOM     75  C   UNL     1       5.453  -3.073  -1.304  1.00  0.00     0.117 C 
BRANCH  75  76
ATOM     76  N   UNL     1       6.709  -3.780  -1.489  1.00  0.00    -0.356 N 
ATOM     77  C   UNL     1       7.013  -4.797  -2.351  1.00  0.00     0.227 C 
ATOM     78  H   UNL     1       7.447  -3.485  -0.909  1.00  0.00     0.163 HD
ATOM     79  O   UNL     1       8.109  -5.346  -2.231  1.00  0.00    -0.274 OA
BRANCH  77  80
ATOM     80  C   UNL     1       6.004  -5.181  -3.437  1.00  0.00     0.103 C 
ATOM     81  C   UNL     1       4.912  -6.054  -2.899  1.00  0.00    -0.016 C 
ATOM     82  C   UNL     1       6.632  -6.074  -4.527  1.00  0.00     0.047 C 
ATOM     83  C   UNL     1       5.031  -7.316  -3.322  1.00  0.00    -0.006 C 
ATOM     84  C   UNL     1       6.227  -7.520  -4.200  1.00  0.00     0.106 C 
BRANCH  84  85
ATOM     85  N   UNL     1       7.246  -8.194  -3.441  1.00  0.00    -0.348 N 
ATOM     86  H   UNL     1       8.034  -7.708  -3.105  1.00  0.00     0.164 HD
BRANCH  85  87
ATOM     87  C   UNL     1       7.087  -9.539  -3.200  1.00  0.00     0.223 A 
ATOM     88  N   UNL     1       7.489  -9.977  -2.001  1.00  0.00    -0.222 NA
ATOM     89  N   UNL     1       6.489 -10.319  -4.116  1.00  0.00    -0.222 NA
ATOM     90  C   UNL     1       7.221 -11.261  -1.697  1.00  0.00     0.117 A 
ATOM     91  C   UNL     1       6.271 -11.603  -3.779  1.00  0.00     0.117 A 
ATOM     92  C   UNL     1       6.606 -12.133  -2.559  1.00  0.00     0.040 A 
ENDBRANCH  85  87
ENDBRANCH  84  85
ENDBRANCH  77  80
ENDBRANCH  75  76
ENDBRANCH  74  75
ENDBRANCH   1  74
TORSDOF 15
