REMARK SMILES Cc1oc2ccc(NS(=O)(=O)c3ccc(C(C)C)cc3)cc2c1C(=O)NCCCNC(=O)c1ccc(-c2c3nc(c(-c4c(F)cc(S(=O)(=O)[O-])cc4F)c4ccc([nH]4)c(-c4c(F)cc(S(=O)(=O)[O-])cc4F)c4nc(c(-c5c(F)cc(S(=O)(=O)[O-])cc5F)c5ccc2[nH]5)C=C4)C=C3)cc1
REMARK SMILES IDX 27 1 26 2 24 3 25 4 23 6 1 7 2 8 3 9 4 10 22 11 5 12 21 13
REMARK SMILES IDX 6 14 7 15 8 16 9 18 10 19 11 20 12 21 13 22 20 23 14 24
REMARK SMILES IDX 19 25 15 26 16 27 17 28 18 29 28 30 29 31 30 32 31 33 32 35
REMARK SMILES IDX 33 36 34 37 98 38 35 39 97 40 36 41 37 42 38 43 91 44 39 45
REMARK SMILES IDX 96 46 90 47 92 48 40 49 95 50 89 51 88 52 41 54 75 55 54 56
REMARK SMILES IDX 74 57 55 58 58 59 73 60 93 61 56 62 57 63 72 65 94 66 59 67
REMARK SMILES IDX 42 68 43 69 52 70 44 71 45 72 51 73 53 74 46 75 47 76 48 77
REMARK SMILES IDX 49 78 50 79 76 80 77 81 86 82 78 83 79 84 85 85 87 86 80 87
REMARK SMILES IDX 81 88 82 89 83 90 84 91 60 92 61 93 70 94 62 95 63 96 69 97
REMARK SMILES IDX 71 98 64 99 65 100 66 101 67 102 68 103
REMARK H PARENT 26 5 8 17 30 34 92 53 58 64
REMARK Flexibility Score: inf
ROOT
ATOM      1  C   UNL     1       4.131  -1.623   0.372  1.00  0.00     0.118 C 
ENDROOT
BRANCH   1   2
ATOM      2  N   UNL     1       3.179  -2.352  -0.443  1.00  0.00    -0.352 N 
ATOM      3  C   UNL     1       1.987  -1.971  -1.016  1.00  0.00     0.255 C 
ATOM      4  O   UNL     1       1.424  -2.805  -1.726  1.00  0.00    -0.269 OA
ATOM      5  H   UNL     1       3.429  -3.288  -0.618  1.00  0.00     0.163 HD
BRANCH   3   6
ATOM      6  C   UNL     1       1.366  -0.684  -0.734  1.00  0.00     0.088 A 
ATOM      7  C   UNL     1       3.267   1.169  -0.860  1.00  0.00     0.088 C 
ATOM      8  C   UNL     1       1.927   0.583  -0.629  1.00  0.00     0.114 A 
ATOM      9  O   UNL     1       0.984   1.492  -0.243  1.00  0.00    -0.461 OA
ATOM     10  C   UNL     1      -0.209   0.852  -0.203  1.00  0.00     0.135 A 
ATOM     11  C   UNL     1      -0.053  -0.468  -0.589  1.00  0.00     0.035 A 
ATOM     12  C   UNL     1      -1.429   1.430   0.142  1.00  0.00     0.050 A 
ATOM     13  C   UNL     1      -1.219  -1.252  -0.734  1.00  0.00     0.039 A 
ATOM     14  C   UNL     1      -2.560   0.601   0.074  1.00  0.00     0.030 A 
ATOM     15  C   UNL     1      -2.466  -0.728  -0.359  1.00  0.00     0.050 A 
BRANCH  15  16
ATOM     16  N   UNL     1      -3.671  -1.486  -0.569  1.00  0.00    -0.280 N 
ATOM     17  H   UNL     1      -4.306  -1.188  -1.260  1.00  0.00     0.180 HD
BRANCH  16  18
ATOM     18  S   UNL     1      -4.036  -2.882   0.342  1.00  0.00     0.261 S 
ATOM     19  O   UNL     1      -4.444  -2.431   1.652  1.00  0.00    -0.201 OA
ATOM     20  O   UNL     1      -4.968  -3.637  -0.483  1.00  0.00    -0.201 OA
BRANCH  18  21
ATOM     21  C   UNL     1      -2.565  -3.846   0.528  1.00  0.00     0.087 A 
ATOM     22  C   UNL     1      -2.409  -5.036  -0.185  1.00  0.00     0.022 A 
ATOM     23  C   UNL     1      -1.568  -3.416   1.405  1.00  0.00     0.022 A 
ATOM     24  C   UNL     1      -1.193  -5.721  -0.123  1.00  0.00     0.005 A 
ATOM     25  C   UNL     1      -0.338  -4.075   1.421  1.00  0.00     0.005 A 
ATOM     26  C   UNL     1      -0.118  -5.208   0.619  1.00  0.00    -0.045 A 
BRANCH  26  27
ATOM     27  C   UNL     1       1.279  -5.804   0.553  1.00  0.00     0.013 C 
ATOM     28  C   UNL     1       1.524  -6.776   1.705  1.00  0.00     0.012 C 
ATOM     29  C   UNL     1       1.607  -6.467  -0.790  1.00  0.00     0.012 C 
ENDBRANCH  26  27
ENDBRANCH  18  21
ENDBRANCH  16  18
ENDBRANCH  15  16
ENDBRANCH   3   6
ENDBRANCH   1   2
BRANCH   1  30
ATOM     30  C   UNL     1       4.732  -2.396   1.541  1.00  0.00     0.042 C 
BRANCH  30  31
ATOM     31  C   UNL     1       5.361  -3.746   1.226  1.00  0.00     0.118 C 
BRANCH  31  32
ATOM     32  N   UNL     1       6.450  -3.696   0.264  1.00  0.00    -0.352 N 
ATOM     33  C   UNL     1       7.818  -3.757   0.390  1.00  0.00     0.251 C 
ATOM     34  H   UNL     1       6.146  -3.600  -0.667  1.00  0.00     0.163 HD
ATOM     35  O   UNL     1       8.495  -3.609  -0.627  1.00  0.00    -0.269 OA
BRANCH  33  36
ATOM     36  C   UNL     1       8.502  -3.942   1.696  1.00  0.00     0.039 A 
ATOM     37  C   UNL     1       9.722  -3.281   1.902  1.00  0.00     0.014 A 
ATOM     38  C   UNL     1       8.014  -4.778   2.698  1.00  0.00     0.014 A 
ATOM     39  C   UNL     1      10.390  -3.388   3.128  1.00  0.00     0.010 A 
ATOM     40  C   UNL     1       8.626  -4.804   3.954  1.00  0.00     0.010 A 
ATOM     41  C   UNL     1       9.820  -4.108   4.188  1.00  0.00    -0.014 A 
BRANCH  41  42
ATOM     42  C   UNL     1      10.447  -4.141   5.540  1.00  0.00     0.031 A 
ATOM     43  C   UNL     1      10.862  -5.450   6.162  1.00  0.00     0.074 A 
ATOM     44  C   UNL     1      10.568  -2.999   6.249  1.00  0.00     0.049 A 
ATOM     45  N   UNL     1      11.316  -5.688   7.367  1.00  0.00    -0.248 NA
ATOM     46  C   UNL     1      10.719  -6.656   5.331  1.00  0.00     0.031 C 
ATOM     47  C   UNL     1      10.160  -1.669   5.790  1.00  0.00     0.029 A 
ATOM     48  N   UNL     1      11.058  -2.773   7.513  1.00  0.00    -0.354 N 
ATOM     49  C   UNL     1      11.483  -7.066   7.448  1.00  0.00     0.074 A 
ATOM     50  C   UNL     1      11.038  -7.617   6.186  1.00  0.00     0.031 C 
ATOM     51  C   UNL     1      10.437  -0.767   6.745  1.00  0.00     0.029 A 
ATOM     52  C   UNL     1      11.001  -1.455   7.902  1.00  0.00     0.049 A 
ATOM     53  H   UNL     1      11.416  -3.489   8.087  1.00  0.00     0.167 HD
ATOM     54  C   UNL     1      11.981  -7.804   8.470  1.00  0.00     0.037 A 
ATOM     55  C   UNL     1      11.352  -0.863   9.062  1.00  0.00     0.037 A 
ATOM     56  C   UNL     1      12.466  -7.250   9.707  1.00  0.00     0.049 A 
ATOM     57  C   UNL     1      11.923  -1.700  10.173  1.00  0.00     0.074 A 
ATOM     58  C   UNL     1      13.057  -7.910  10.771  1.00  0.00     0.029 A 
ATOM     59  N   UNL     1      12.423  -5.906  10.046  1.00  0.00    -0.354 N 
ATOM     60  N   UNL     1      12.124  -2.996  10.208  1.00  0.00    -0.248 NA
ATOM     61  C   UNL     1      12.320  -0.996  11.400  1.00  0.00     0.031 C 
ATOM     62  C   UNL     1      13.335  -6.970  11.770  1.00  0.00     0.029 A 
ATOM     63  C   UNL     1      12.960  -5.719  11.309  1.00  0.00     0.049 A 
ATOM     64  H   UNL     1      12.063  -5.191   9.473  1.00  0.00     0.167 HD
ATOM     65  C   UNL     1      12.694  -3.258  11.449  1.00  0.00     0.074 A 
ATOM     66  C   UNL     1      12.816  -1.986  12.130  1.00  0.00     0.031 C 
ATOM     67  C   UNL     1      13.083  -4.446  11.975  1.00  0.00     0.037 A 
BRANCH  54  68
ATOM     68  C   UNL     1      12.035  -9.298   8.291  1.00  0.00     0.058 A 
ATOM     69  C   UNL     1      12.936  -9.903   7.400  1.00  0.00     0.135 A 
ATOM     70  C   UNL     1      11.201 -10.138   9.047  1.00  0.00     0.135 A 
ATOM     71  F   UNL     1      13.748  -9.148   6.643  1.00  0.00    -0.206 F 
ATOM     72  C   UNL     1      12.986 -11.284   7.240  1.00  0.00     0.059 A 
ATOM     73  C   UNL     1      11.254 -11.524   8.924  1.00  0.00     0.059 A 
ATOM     74  F   UNL     1      10.322  -9.615   9.916  1.00  0.00    -0.206 F 
ATOM     75  C   UNL     1      12.139 -12.086   8.006  1.00  0.00     0.060 A 
BRANCH  75  76
ATOM     76  S   UNL     1      12.216 -13.877   7.785  1.00  0.00     0.124 S 
ATOM     77  O   UNL     1      11.550 -14.039   6.496  1.00  0.00    -0.237 OA
ATOM     78  O   UNL     1      13.653 -14.132   7.792  1.00  0.00    -0.237 OA
ATOM     79  O   UNL     1      11.485 -14.393   8.938  1.00  0.00    -0.744 OA
ENDBRANCH  75  76
ENDBRANCH  54  68
BRANCH  55  80
ATOM     80  C   UNL     1      11.196   0.608   9.219  1.00  0.00     0.058 A 
ATOM     81  C   UNL     1      12.317   1.450   9.242  1.00  0.00     0.135 A 
ATOM     82  C   UNL     1       9.929   1.202   9.328  1.00  0.00     0.135 A 
ATOM     83  F   UNL     1      13.550   0.928   9.149  1.00  0.00    -0.206 F 
ATOM     84  C   UNL     1      12.191   2.829   9.378  1.00  0.00     0.059 A 
ATOM     85  C   UNL     1       9.776   2.581   9.440  1.00  0.00     0.059 A 
ATOM     86  F   UNL     1       8.824   0.441   9.294  1.00  0.00    -0.206 F 
ATOM     87  C   UNL     1      10.915   3.385   9.472  1.00  0.00     0.060 A 
BRANCH  87  88
ATOM     88  S   UNL     1      10.759   5.181   9.586  1.00  0.00     0.124 S 
ATOM     89  O   UNL     1      11.181   5.426  10.960  1.00  0.00    -0.237 OA
ATOM     90  O   UNL     1      11.675   5.635   8.545  1.00  0.00    -0.237 OA
ATOM     91  O   UNL     1       9.344   5.412   9.308  1.00  0.00    -0.744 OA
ENDBRANCH  87  88
ENDBRANCH  55  80
BRANCH  67  92
ATOM     92  C   UNL     1      13.710  -4.427  13.341  1.00  0.00     0.058 A 
ATOM     93  C   UNL     1      12.948  -4.214  14.500  1.00  0.00     0.135 A 
ATOM     94  C   UNL     1      15.083  -4.679  13.495  1.00  0.00     0.135 A 
ATOM     95  F   UNL     1      11.633  -3.962  14.407  1.00  0.00    -0.206 F 
ATOM     96  C   UNL     1      13.529  -4.230  15.764  1.00  0.00     0.059 A 
ATOM     97  C   UNL     1      15.680  -4.726  14.751  1.00  0.00     0.059 A 
ATOM     98  F   UNL     1      15.855  -4.899  12.419  1.00  0.00    -0.206 F 
ATOM     99  C   UNL     1      14.896  -4.489  15.879  1.00  0.00     0.060 A 
BRANCH  99 100
ATOM    100  S   UNL     1      15.632  -4.542  17.527  1.00  0.00     0.124 S 
ATOM    101  O   UNL     1      15.685  -3.125  17.871  1.00  0.00    -0.237 OA
ATOM    102  O   UNL     1      14.667  -5.341  18.276  1.00  0.00    -0.237 OA
ATOM    103  O   UNL     1      16.924  -5.183  17.301  1.00  0.00    -0.744 OA
ENDBRANCH  99 100
ENDBRANCH  67  92
ENDBRANCH  41  42
ENDBRANCH  33  36
ENDBRANCH  31  32
ENDBRANCH  30  31
ENDBRANCH   1  30
TORSDOF 17
