REMARK SMILES O=C(NCCCNC(=O)[C@@H]1CN(c2ncnc3c2CCC3)CCO1)c1ccc(-c2c3nc(c(-c4c(F)cc(S(=O)(=O)[O-])cc4F)c4ccc([nH]4)c(-c4c(F)cc(S(=O)(=O)[O-])cc4F)c4nc(c(-c5c(F)cc(S(=O)(=O)[O-])cc5F)c5ccc2[nH]5)C=C4)C=C3)cc1
REMARK SMILES IDX 4 1 3 2 1 3 2 4 25 6 26 7 90 8 27 9 89 10 28 11 29 12 30 13
REMARK SMILES IDX 83 14 31 15 88 16 82 17 84 18 32 19 87 20 81 21 80 22 33 24
REMARK SMILES IDX 67 25 46 26 66 27 47 28 50 29 65 30 85 31 48 32 49 33 64 35
REMARK SMILES IDX 86 36 51 37 34 38 35 39 44 40 36 41 37 42 43 43 45 44 38 45
REMARK SMILES IDX 39 46 40 47 41 48 42 49 68 50 69 51 78 52 70 53 71 54 77 55
REMARK SMILES IDX 79 56 72 57 73 58 74 59 75 60 76 61 52 62 53 63 62 64 54 65
REMARK SMILES IDX 55 66 61 67 63 68 56 69 57 70 58 71 59 72 60 73 5 74 6 75
REMARK SMILES IDX 7 76 8 77 9 79 10 80 11 81 24 82 12 83 23 84 22 85 13 86
REMARK SMILES IDX 14 87 18 88 15 89 17 90 19 91 16 92 21 93 20 94
REMARK H PARENT 3 5 84 23 50 34 7 78
REMARK Flexibility Score: inf
ROOT
ATOM      1  C   UNL     1       4.431  -1.233  -0.492  1.00  0.00     0.118 C 
ENDROOT
BRANCH   1   2
ATOM      2  N   UNL     1       2.985  -1.046  -0.477  1.00  0.00    -0.352 N 
ATOM      3  O   UNL     1       1.026  -0.028  -0.023  1.00  0.00    -0.269 OA
ATOM      4  C   UNL     1       2.244   0.067  -0.158  1.00  0.00     0.251 C 
ATOM      5  H   UNL     1       2.459  -1.838  -0.736  1.00  0.00     0.163 HD
BRANCH   4   6
ATOM      6  C   UNL     1       2.917   1.368   0.048  1.00  0.00     0.039 A 
ATOM      7  C   UNL     1       3.939   1.776  -0.809  1.00  0.00     0.014 A 
ATOM      8  C   UNL     1       2.527   2.188   1.111  1.00  0.00     0.014 A 
ATOM      9  C   UNL     1       4.694   2.897  -0.496  1.00  0.00     0.010 A 
ATOM     10  C   UNL     1       3.215   3.380   1.357  1.00  0.00     0.010 A 
ATOM     11  C   UNL     1       4.330   3.725   0.578  1.00  0.00    -0.014 A 
BRANCH  11  12
ATOM     12  C   UNL     1       5.101   4.973   0.809  1.00  0.00     0.031 A 
ATOM     13  C   UNL     1       5.892   5.178   2.072  1.00  0.00     0.074 A 
ATOM     14  C   UNL     1       5.128   5.897  -0.172  1.00  0.00     0.049 A 
ATOM     15  N   UNL     1       6.643   6.194   2.411  1.00  0.00    -0.248 NA
ATOM     16  C   UNL     1       5.837   4.112   3.086  1.00  0.00     0.031 C 
ATOM     17  C   UNL     1       4.396   5.799  -1.440  1.00  0.00     0.029 A 
ATOM     18  N   UNL     1       5.814   7.078  -0.281  1.00  0.00    -0.354 N 
ATOM     19  C   UNL     1       7.138   5.901   3.676  1.00  0.00     0.074 A 
ATOM     20  C   UNL     1       6.584   4.621   4.059  1.00  0.00     0.031 C 
ATOM     21  C   UNL     1       4.721   6.838  -2.220  1.00  0.00     0.029 A 
ATOM     22  C   UNL     1       5.624   7.715  -1.485  1.00  0.00     0.049 A 
ATOM     23  H   UNL     1       6.388   7.436   0.434  1.00  0.00     0.167 HD
ATOM     24  C   UNL     1       7.986   6.632   4.439  1.00  0.00     0.037 A 
ATOM     25  C   UNL     1       6.107   8.884  -1.944  1.00  0.00     0.037 A 
ATOM     26  C   UNL     1       8.549   7.896   4.035  1.00  0.00     0.049 A 
ATOM     27  C   UNL     1       7.017   9.686  -1.061  1.00  0.00     0.074 A 
ATOM     28  C   UNL     1       9.434   8.703   4.730  1.00  0.00     0.029 A 
ATOM     29  N   UNL     1       8.290   8.534   2.831  1.00  0.00    -0.354 N 
ATOM     30  N   UNL     1       7.476   9.388   0.132  1.00  0.00    -0.248 NA
ATOM     31  C   UNL     1       7.464  10.987  -1.574  1.00  0.00     0.031 C 
ATOM     32  C   UNL     1       9.679   9.846   3.964  1.00  0.00     0.029 A 
ATOM     33  C   UNL     1       8.980   9.733   2.773  1.00  0.00     0.049 A 
ATOM     34  H   UNL     1       7.701   8.185   2.123  1.00  0.00     0.167 HD
ATOM     35  C   UNL     1       8.268  10.464   0.510  1.00  0.00     0.074 A 
ATOM     36  C   UNL     1       8.248  11.406  -0.591  1.00  0.00     0.031 C 
ATOM     37  C   UNL     1       8.944  10.658   1.669  1.00  0.00     0.037 A 
BRANCH  24  38
ATOM     38  C   UNL     1       8.368   6.097   5.791  1.00  0.00     0.058 A 
ATOM     39  C   UNL     1       9.283   5.043   5.931  1.00  0.00     0.135 A 
ATOM     40  C   UNL     1       7.889   6.709   6.962  1.00  0.00     0.135 A 
ATOM     41  F   UNL     1       9.759   4.412   4.846  1.00  0.00    -0.206 F 
ATOM     42  C   UNL     1       9.712   4.614   7.184  1.00  0.00     0.059 A 
ATOM     43  C   UNL     1       8.319   6.310   8.224  1.00  0.00     0.059 A 
ATOM     44  F   UNL     1       7.009   7.720   6.883  1.00  0.00    -0.206 F 
ATOM     45  C   UNL     1       9.230   5.260   8.325  1.00  0.00     0.060 A 
BRANCH  45  46
ATOM     46  S   UNL     1       9.832   4.717   9.939  1.00  0.00     0.124 S 
ATOM     47  O   UNL     1       9.197   3.409  10.063  1.00  0.00    -0.237 OA
ATOM     48  O   UNL     1      11.278   4.703   9.742  1.00  0.00    -0.237 OA
ATOM     49  O   UNL     1       9.336   5.743  10.851  1.00  0.00    -0.744 OA
ENDBRANCH  45  46
ENDBRANCH  24  38
BRANCH  25  50
ATOM     50  C   UNL     1       5.720   9.367  -3.295  1.00  0.00     0.058 A 
ATOM     51  C   UNL     1       6.653   9.422  -4.339  1.00  0.00     0.135 A 
ATOM     52  C   UNL     1       4.402   9.762  -3.572  1.00  0.00     0.135 A 
ATOM     53  F   UNL     1       7.926   9.057  -4.121  1.00  0.00    -0.206 F 
ATOM     54  C   UNL     1       6.298   9.866  -5.608  1.00  0.00     0.059 A 
ATOM     55  C   UNL     1       4.016  10.183  -4.840  1.00  0.00     0.059 A 
ATOM     56  F   UNL     1       3.467   9.710  -2.611  1.00  0.00    -0.206 F 
ATOM     57  C   UNL     1       4.975  10.242  -5.849  1.00  0.00     0.060 A 
BRANCH  57  58
ATOM     58  S   UNL     1       4.515  10.780  -7.510  1.00  0.00     0.124 S 
ATOM     59  O   UNL     1       5.119  12.105  -7.566  1.00  0.00    -0.237 OA
ATOM     60  O   UNL     1       5.136   9.758  -8.347  1.00  0.00    -0.237 OA
ATOM     61  O   UNL     1       3.055  10.750  -7.479  1.00  0.00    -0.744 OA
ENDBRANCH  57  58
ENDBRANCH  25  50
BRANCH  37  62
ATOM     62  C   UNL     1       9.719  11.936   1.803  1.00  0.00     0.058 A 
ATOM     63  C   UNL     1       9.073  13.159   2.040  1.00  0.00     0.135 A 
ATOM     64  C   UNL     1      11.122  11.929   1.753  1.00  0.00     0.135 A 
ATOM     65  F   UNL     1       7.732  13.217   2.086  1.00  0.00    -0.206 F 
ATOM     66  C   UNL     1       9.791  14.336   2.209  1.00  0.00     0.059 A 
ATOM     67  C   UNL     1      11.862  13.091   1.944  1.00  0.00     0.059 A 
ATOM     68  F   UNL     1      11.786  10.783   1.536  1.00  0.00    -0.206 F 
ATOM     69  C   UNL     1      11.187  14.292   2.163  1.00  0.00     0.060 A 
BRANCH  69  70
ATOM     70  S   UNL     1      12.107  15.822   2.428  1.00  0.00     0.124 S 
ATOM     71  O   UNL     1      11.866  16.530   1.176  1.00  0.00    -0.237 OA
ATOM     72  O   UNL     1      11.452  16.379   3.608  1.00  0.00    -0.237 OA
ATOM     73  O   UNL     1      13.477  15.363   2.637  1.00  0.00    -0.744 OA
ENDBRANCH  69  70
ENDBRANCH  37  62
ENDBRANCH  11  12
ENDBRANCH   4   6
ENDBRANCH   1   2
BRANCH   1  74
ATOM     74  C   UNL     1       4.919  -2.132   0.628  1.00  0.00     0.042 C 
BRANCH  74  75
ATOM     75  C   UNL     1       4.476  -3.576   0.496  1.00  0.00     0.117 C 
BRANCH  75  76
ATOM     76  N   UNL     1       4.989  -4.221  -0.703  1.00  0.00    -0.354 N 
ATOM     77  C   UNL     1       5.542  -5.469  -0.826  1.00  0.00     0.250 C 
ATOM     78  H   UNL     1       4.931  -3.694  -1.533  1.00  0.00     0.163 HD
ATOM     79  O   UNL     1       5.825  -5.868  -1.957  1.00  0.00    -0.272 OA
BRANCH  77  80
ATOM     80  C   UNL     1       5.853  -6.274   0.443  1.00  0.00     0.226 C 
ATOM     81  C   UNL     1       6.231  -7.725   0.083  1.00  0.00     0.160 C 
ATOM     82  O   UNL     1       4.724  -6.265   1.340  1.00  0.00    -0.365 OA
ATOM     83  N   UNL     1       6.329  -8.554   1.296  1.00  0.00    -0.351 N 
ATOM     84  C   UNL     1       5.085  -6.893   2.573  1.00  0.00     0.183 C 
ATOM     85  C   UNL     1       5.306  -8.382   2.322  1.00  0.00     0.146 C 
BRANCH  83  86
ATOM     86  C   UNL     1       7.158  -9.645   1.282  1.00  0.00     0.135 A 
ATOM     87  N   UNL     1       8.458  -9.416   1.018  1.00  0.00    -0.219 NA
ATOM     88  C   UNL     1       6.737 -10.921   1.576  1.00  0.00     0.016 A 
ATOM     89  C   UNL     1       9.312 -10.454   1.122  1.00  0.00     0.224 A 
ATOM     90  C   UNL     1       7.695 -11.910   1.641  1.00  0.00     0.049 A 
ATOM     91  C   UNL     1       5.374 -11.459   1.841  1.00  0.00     0.042 C 
ATOM     92  N   UNL     1       9.000 -11.719   1.437  1.00  0.00    -0.241 NA
ATOM     93  C   UNL     1       7.103 -13.230   2.030  1.00  0.00     0.057 C 
ATOM     94  C   UNL     1       5.598 -12.976   1.888  1.00  0.00     0.011 C 
ENDBRANCH  83  86
ENDBRANCH  77  80
ENDBRANCH  75  76
ENDBRANCH  74  75
ENDBRANCH   1  74
TORSDOF 14
