REMARK SMILES C[C@@H]1CCCN(c2ccc(NC(=O)Cc3cccs3)c(C(=O)NCCCNC(=O)c3ccc(-c4c5nc(c(-c6c(F)cc(S(=O)(=O)[O-])cc6F)c6ccc([nH]6)c(-c6c(F)cc(S(=O)(=O)[O-])cc6F)c6nc(c(-c7c(F)cc(S(=O)(=O)[O-])cc7F)c7ccc4[nH]7)C=C6)C=C5)cc3)c2)C1
REMARK SMILES IDX 25 1 24 2 23 3 21 4 22 5 20 7 7 8 8 9 96 10 9 11 10 12 6 13
REMARK SMILES IDX 1 14 2 15 3 16 97 17 4 18 5 19 11 20 12 21 13 23 14 24 15 25
REMARK SMILES IDX 16 26 19 27 17 28 18 29 26 30 27 31 28 32 29 34 30 35 31 36
REMARK SMILES IDX 95 37 32 38 94 39 33 40 34 41 35 42 88 43 36 44 93 45 87 46
REMARK SMILES IDX 89 47 37 48 92 49 86 50 85 51 38 53 72 54 51 55 71 56 52 57
REMARK SMILES IDX 55 58 70 59 90 60 53 61 54 62 69 64 91 65 56 66 39 67 40 68
REMARK SMILES IDX 49 69 41 70 42 71 48 72 50 73 43 74 44 75 45 76 46 77 47 78
REMARK SMILES IDX 73 79 74 80 83 81 75 82 76 83 82 84 84 85 77 86 78 87 79 88
REMARK SMILES IDX 80 89 81 90 57 91 58 92 67 93 59 94 60 95 66 96 68 97 61 98
REMARK SMILES IDX 62 99 63 100 64 101 65 102
REMARK H PARENT 23 6 11 22 27 33 89 52 55 63
REMARK Flexibility Score: inf
ROOT
ATOM      1  C   UNL     1       1.729  -0.869  -4.421  1.00  0.00     0.042 C 
ENDROOT
BRANCH   1   2
ATOM      2  C   UNL     1       3.092  -0.302  -4.020  1.00  0.00     0.118 C 
BRANCH   2   3
ATOM      3  N   UNL     1       3.303   1.006  -4.613  1.00  0.00    -0.352 N 
ATOM      4  C   UNL     1       3.251   2.286  -4.125  1.00  0.00     0.253 C 
ATOM      5  O   UNL     1       3.589   3.172  -4.913  1.00  0.00    -0.269 OA
ATOM      6  H   UNL     1       3.534   0.966  -5.569  1.00  0.00     0.163 HD
BRANCH   4   7
ATOM      7  C   UNL     1       2.884   2.650  -2.716  1.00  0.00     0.065 A 
ATOM      8  C   UNL     1       1.848   2.072  -0.574  1.00  0.00     0.038 A 
ATOM      9  C   UNL     1       2.324   3.264  -0.039  1.00  0.00     0.028 A 
ATOM     10  C   UNL     1       2.110   1.798  -1.917  1.00  0.00     0.042 A 
ATOM     11  C   UNL     1       3.011   4.181  -0.836  1.00  0.00     0.029 A 
ATOM     12  C   UNL     1       3.248   3.918  -2.188  1.00  0.00     0.054 A 
BRANCH   8  13
ATOM     13  N   UNL     1       1.174   1.174   0.223  1.00  0.00    -0.371 N 
ATOM     14  C   UNL     1      -2.491   0.166   0.066  1.00  0.00     0.009 C 
ATOM     15  C   UNL     1      -0.998   0.123  -0.249  1.00  0.00     0.005 C 
ATOM     16  C   UNL     1      -0.393  -1.216   0.203  1.00  0.00     0.007 C 
ATOM     17  C   UNL     1      -0.268   1.306   0.411  1.00  0.00     0.119 C 
ATOM     18  C   UNL     1       1.109  -1.256  -0.070  1.00  0.00     0.022 C 
ATOM     19  C   UNL     1       1.817  -0.080   0.595  1.00  0.00     0.116 C 
ENDBRANCH   8  13
BRANCH  12  20
ATOM     20  N   UNL     1       3.792   4.896  -3.051  1.00  0.00    -0.325 N 
ATOM     21  C   UNL     1       3.718   6.258  -3.092  1.00  0.00     0.229 C 
ATOM     22  H   UNL     1       4.340   4.514  -3.774  1.00  0.00     0.169 HD
ATOM     23  O   UNL     1       4.328   6.830  -4.006  1.00  0.00    -0.274 OA
BRANCH  21  24
ATOM     24  C   UNL     1       2.937   7.091  -2.096  1.00  0.00     0.147 C 
BRANCH  24  25
ATOM     25  C   UNL     1       1.438   6.936  -2.159  1.00  0.00     0.014 A 
ATOM     26  C   UNL     1       0.631   5.920  -2.639  1.00  0.00     0.016 A 
ATOM     27  S   UNL     1       0.473   8.204  -1.496  1.00  0.00    -0.148 S 
ATOM     28  C   UNL     1      -0.756   6.147  -2.400  1.00  0.00     0.012 A 
ATOM     29  C   UNL     1      -0.981   7.366  -1.806  1.00  0.00     0.065 A 
ENDBRANCH  24  25
ENDBRANCH  21  24
ENDBRANCH  12  20
ENDBRANCH   4   7
ENDBRANCH   2   3
ENDBRANCH   1   2
BRANCH   1  30
ATOM     30  C   UNL     1       1.730  -1.477  -5.823  1.00  0.00     0.118 C 
BRANCH  30  31
ATOM     31  N   UNL     1       2.559  -2.675  -5.883  1.00  0.00    -0.352 N 
ATOM     32  C   UNL     1       2.214  -3.981  -6.122  1.00  0.00     0.251 C 
ATOM     33  H   UNL     1       3.519  -2.522  -5.728  1.00  0.00     0.163 HD
ATOM     34  O   UNL     1       3.012  -4.870  -5.842  1.00  0.00    -0.269 OA
BRANCH  32  35
ATOM     35  C   UNL     1       0.901  -4.320  -6.712  1.00  0.00     0.039 A 
ATOM     36  C   UNL     1       0.238  -5.469  -6.272  1.00  0.00     0.014 A 
ATOM     37  C   UNL     1       0.352  -3.546  -7.737  1.00  0.00     0.014 A 
ATOM     38  C   UNL     1      -0.998  -5.813  -6.826  1.00  0.00     0.010 A 
ATOM     39  C   UNL     1      -0.913  -3.846  -8.234  1.00  0.00     0.010 A 
ATOM     40  C   UNL     1      -1.597  -4.988  -7.791  1.00  0.00    -0.014 A 
BRANCH  40  41
ATOM     41  C   UNL     1      -2.932  -5.303  -8.359  1.00  0.00     0.031 A 
ATOM     42  C   UNL     1      -3.077  -5.593  -9.829  1.00  0.00     0.074 A 
ATOM     43  C   UNL     1      -4.020  -5.254  -7.565  1.00  0.00     0.049 A 
ATOM     44  N   UNL     1      -4.165  -5.788 -10.530  1.00  0.00    -0.248 NA
ATOM     45  C   UNL     1      -1.838  -5.640 -10.623  1.00  0.00     0.031 C 
ATOM     46  C   UNL     1      -4.009  -4.938  -6.135  1.00  0.00     0.029 A 
ATOM     47  N   UNL     1      -5.347  -5.455  -7.848  1.00  0.00    -0.354 N 
ATOM     48  C   UNL     1      -3.744  -5.958 -11.844  1.00  0.00     0.074 A 
ATOM     49  C   UNL     1      -2.307  -5.795 -11.852  1.00  0.00     0.031 C 
ATOM     50  C   UNL     1      -5.266  -4.983  -5.664  1.00  0.00     0.029 A 
ATOM     51  C   UNL     1      -6.175  -5.291  -6.763  1.00  0.00     0.049 A 
ATOM     52  H   UNL     1      -5.676  -5.694  -8.745  1.00  0.00     0.167 HD
ATOM     53  C   UNL     1      -4.487  -6.248 -12.940  1.00  0.00     0.037 A 
ATOM     54  C   UNL     1      -7.516  -5.369  -6.666  1.00  0.00     0.037 A 
ATOM     55  C   UNL     1      -5.913  -6.442 -12.914  1.00  0.00     0.049 A 
ATOM     56  C   UNL     1      -8.318  -5.702  -7.895  1.00  0.00     0.074 A 
ATOM     57  C   UNL     1      -6.752  -6.797 -13.956  1.00  0.00     0.029 A 
ATOM     58  N   UNL     1      -6.711  -6.301 -11.788  1.00  0.00    -0.354 N 
ATOM     59  N   UNL     1      -7.898  -5.916  -9.119  1.00  0.00    -0.248 NA
ATOM     60  C   UNL     1      -9.774  -5.811  -7.730  1.00  0.00     0.031 C 
ATOM     61  C   UNL     1      -8.063  -6.832 -13.468  1.00  0.00     0.029 A 
ATOM     62  C   UNL     1      -8.035  -6.546 -12.112  1.00  0.00     0.049 A 
ATOM     63  H   UNL     1      -6.385  -6.061 -10.891  1.00  0.00     0.167 HD
ATOM     64  C   UNL     1      -9.034  -6.212  -9.864  1.00  0.00     0.074 A 
ATOM     65  C   UNL     1     -10.157  -6.161  -8.950  1.00  0.00     0.031 C 
ATOM     66  C   UNL     1      -9.138  -6.501 -11.185  1.00  0.00     0.037 A 
BRANCH  53  67
ATOM     67  C   UNL     1      -3.770  -6.382 -14.256  1.00  0.00     0.058 A 
ATOM     68  C   UNL     1      -2.919  -7.466 -14.525  1.00  0.00     0.135 A 
ATOM     69  C   UNL     1      -3.963  -5.436 -15.276  1.00  0.00     0.135 A 
ATOM     70  F   UNL     1      -2.685  -8.392 -13.581  1.00  0.00    -0.206 F 
ATOM     71  C   UNL     1      -2.263  -7.593 -15.745  1.00  0.00     0.059 A 
ATOM     72  C   UNL     1      -3.340  -5.558 -16.515  1.00  0.00     0.059 A 
ATOM     73  F   UNL     1      -4.766  -4.379 -15.075  1.00  0.00    -0.206 F 
ATOM     74  C   UNL     1      -2.480  -6.633 -16.735  1.00  0.00     0.060 A 
BRANCH  74  75
ATOM     75  S   UNL     1      -1.628  -6.818 -18.315  1.00  0.00     0.124 S 
ATOM     76  O   UNL     1      -0.260  -6.461 -17.951  1.00  0.00    -0.237 OA
ATOM     77  O   UNL     1      -1.852  -8.226 -18.628  1.00  0.00    -0.237 OA
ATOM     78  O   UNL     1      -2.313  -5.868 -19.185  1.00  0.00    -0.744 OA
ENDBRANCH  74  75
ENDBRANCH  53  67
BRANCH  54  79
ATOM     79  C   UNL     1      -8.181  -5.149  -5.354  1.00  0.00     0.058 A 
ATOM     80  C   UNL     1      -8.775  -6.213  -4.660  1.00  0.00     0.135 A 
ATOM     81  C   UNL     1      -8.223  -3.877  -4.761  1.00  0.00     0.135 A 
ATOM     82  F   UNL     1      -8.765  -7.446  -5.188  1.00  0.00    -0.206 F 
ATOM     83  C   UNL     1      -9.403  -6.024  -3.433  1.00  0.00     0.059 A 
ATOM     84  C   UNL     1      -8.822  -3.668  -3.522  1.00  0.00     0.059 A 
ATOM     85  F   UNL     1      -7.651  -2.829  -5.374  1.00  0.00    -0.206 F 
ATOM     86  C   UNL     1      -9.419  -4.746  -2.871  1.00  0.00     0.060 A 
BRANCH  86  87
ATOM     87  S   UNL     1     -10.194  -4.520  -1.255  1.00  0.00     0.124 S 
ATOM     88  O   UNL     1     -11.609  -4.609  -1.593  1.00  0.00    -0.237 OA
ATOM     89  O   UNL     1      -9.646  -5.638  -0.493  1.00  0.00    -0.237 OA
ATOM     90  O   UNL     1      -9.723  -3.201  -0.841  1.00  0.00    -0.744 OA
ENDBRANCH  86  87
ENDBRANCH  54  79
BRANCH  66  91
ATOM     91  C   UNL     1     -10.507  -6.822 -11.716  1.00  0.00     0.058 A 
ATOM     92  C   UNL     1     -11.479  -5.827 -11.899  1.00  0.00     0.135 A 
ATOM     93  C   UNL     1     -10.828  -8.134 -12.100  1.00  0.00     0.135 A 
ATOM     94  F   UNL     1     -11.225  -4.559 -11.540  1.00  0.00    -0.206 F 
ATOM     95  C   UNL     1     -12.732  -6.126 -12.425  1.00  0.00     0.059 A 
ATOM     96  C   UNL     1     -12.064  -8.450 -12.654  1.00  0.00     0.059 A 
ATOM     97  F   UNL     1      -9.929  -9.120 -11.955  1.00  0.00    -0.206 F 
ATOM     98  C   UNL     1     -13.014  -7.440 -12.802  1.00  0.00     0.060 A 
BRANCH  98  99
ATOM     99  S   UNL     1     -14.629  -7.807 -13.520  1.00  0.00     0.124 S 
ATOM    100  O   UNL     1     -15.491  -7.754 -12.344  1.00  0.00    -0.237 OA
ATOM    101  O   UNL     1     -14.798  -6.722 -14.481  1.00  0.00    -0.237 OA
ATOM    102  O   UNL     1     -14.447  -9.132 -14.106  1.00  0.00    -0.744 OA
ENDBRANCH  98  99
ENDBRANCH  66  91
ENDBRANCH  40  41
ENDBRANCH  32  35
ENDBRANCH  30  31
ENDBRANCH   1  30
TORSDOF 17
