REMARK SMILES C=Cc1cncc(-c2ccc([C@@H](C)C(=O)NCCCNC(=O)c3ccc(-c4c5nc(c(-c6c(F)cc(S(=O)(=O)[O-])cc6F)c6ccc([nH]6)c(-c6c(F)cc(S(=O)(=O)[O-])cc6F)c6nc(c(-c7c(F)cc(S(=O)(=O)[O-])cc7F)c7ccc4[nH]7)C=C6)C=C5)cc3)cc2)c1
REMARK SMILES IDX 18 1 17 2 16 3 14 4 15 5 12 7 13 8 11 9 8 10 9 11 90 12
REMARK SMILES IDX 10 13 89 14 7 15 3 16 4 17 91 18 5 19 6 20 2 21 1 22 19 23
REMARK SMILES IDX 20 24 21 25 22 27 23 28 24 29 88 30 25 31 87 32 26 33 27 34
REMARK SMILES IDX 28 35 81 36 29 37 86 38 80 39 82 40 30 41 85 42 79 43 78 44
REMARK SMILES IDX 31 46 65 47 44 48 64 49 45 50 48 51 63 52 83 53 46 54 47 55
REMARK SMILES IDX 62 57 84 58 49 59 32 60 33 61 42 62 34 63 35 64 41 65 43 66
REMARK SMILES IDX 36 67 37 68 38 69 39 70 40 71 66 72 67 73 76 74 68 75 69 76
REMARK SMILES IDX 75 77 77 78 70 79 71 80 72 81 73 82 74 83 50 84 51 85 60 86
REMARK SMILES IDX 52 87 53 88 59 89 61 90 54 91 55 92 56 93 57 94 58 95
REMARK H PARENT 16 6 20 26 82 45 48 56
REMARK Flexibility Score: inf
ROOT
ATOM      1  C   UNL     1      -6.686   3.111   2.912  1.00  0.00     0.042 C 
ENDROOT
BRANCH   1   2
ATOM      2  C   UNL     1      -7.572   4.218   2.348  1.00  0.00     0.117 C 
BRANCH   2   3
ATOM      3  N   UNL     1      -6.815   5.386   1.939  1.00  0.00    -0.356 N 
ATOM      4  C   UNL     1      -6.375   5.806   0.722  1.00  0.00     0.227 C 
ATOM      5  O   UNL     1      -5.708   6.849   0.712  1.00  0.00    -0.274 OA
ATOM      6  H   UNL     1      -6.575   5.987   2.681  1.00  0.00     0.163 HD
BRANCH   4   7
ATOM      7  C   UNL     1      -6.669   5.077  -0.599  1.00  0.00     0.105 C 
ATOM      8  C   UNL     1      -8.156   4.947  -0.929  1.00  0.00     0.023 C 
BRANCH   7   9
ATOM      9  C   UNL     1      -5.830   3.826  -0.800  1.00  0.00    -0.036 A 
ATOM     10  C   UNL     1      -4.119   1.551  -1.062  1.00  0.00    -0.017 A 
ATOM     11  C   UNL     1      -5.390   1.455  -0.474  1.00  0.00     0.009 A 
ATOM     12  C   UNL     1      -3.736   2.810  -1.546  1.00  0.00     0.009 A 
ATOM     13  C   UNL     1      -6.241   2.562  -0.374  1.00  0.00     0.005 A 
ATOM     14  C   UNL     1      -4.568   3.930  -1.403  1.00  0.00     0.005 A 
BRANCH  10  15
ATOM     15  C   UNL     1      -3.234   0.371  -1.152  1.00  0.00     0.001 A 
ATOM     16  C   UNL     1      -1.036  -0.695  -1.033  1.00  0.00    -0.007 A 
ATOM     17  C   UNL     1      -1.673  -1.906  -1.282  1.00  0.00     0.119 A 
ATOM     18  C   UNL     1      -1.841   0.452  -0.979  1.00  0.00     0.020 A 
ATOM     19  N   UNL     1      -3.003  -2.038  -1.476  1.00  0.00    -0.263 NA
ATOM     20  C   UNL     1      -3.740  -0.907  -1.401  1.00  0.00     0.119 A 
BRANCH  16  21
ATOM     21  C   UNL     1       0.424  -0.657  -0.899  1.00  0.00     0.002 C 
ATOM     22  C   UNL     1       1.085   0.125  -0.036  1.00  0.00     0.009 C 
ENDBRANCH  16  21
ENDBRANCH  10  15
ENDBRANCH   7   9
ENDBRANCH   4   7
ENDBRANCH   2   3
ENDBRANCH   1   2
BRANCH   1  23
ATOM     23  C   UNL     1      -6.281   3.318   4.367  1.00  0.00     0.118 C 
BRANCH  23  24
ATOM     24  N   UNL     1      -7.409   3.186   5.279  1.00  0.00    -0.352 N 
ATOM     25  C   UNL     1      -7.653   2.283   6.285  1.00  0.00     0.251 C 
ATOM     26  H   UNL     1      -8.117   3.858   5.153  1.00  0.00     0.163 HD
ATOM     27  O   UNL     1      -8.779   2.242   6.777  1.00  0.00    -0.269 OA
BRANCH  25  28
ATOM     28  C   UNL     1      -6.602   1.360   6.776  1.00  0.00     0.039 A 
ATOM     29  C   UNL     1      -6.977   0.074   7.181  1.00  0.00     0.014 A 
ATOM     30  C   UNL     1      -5.269   1.760   6.905  1.00  0.00     0.014 A 
ATOM     31  C   UNL     1      -6.014  -0.819   7.662  1.00  0.00     0.010 A 
ATOM     32  C   UNL     1      -4.298   0.843   7.306  1.00  0.00     0.010 A 
ATOM     33  C   UNL     1      -4.660  -0.452   7.700  1.00  0.00    -0.014 A 
BRANCH  33  34
ATOM     34  C   UNL     1      -3.617  -1.412   8.148  1.00  0.00     0.031 A 
ATOM     35  C   UNL     1      -2.795  -1.133   9.377  1.00  0.00     0.074 A 
ATOM     36  C   UNL     1      -3.365  -2.509   7.407  1.00  0.00     0.049 A 
ATOM     37  N   UNL     1      -1.817  -1.833   9.895  1.00  0.00    -0.248 NA
ATOM     38  C   UNL     1      -3.091   0.111  10.103  1.00  0.00     0.031 C 
ATOM     39  C   UNL     1      -4.044  -2.857   6.157  1.00  0.00     0.029 A 
ATOM     40  N   UNL     1      -2.461  -3.526   7.588  1.00  0.00    -0.354 N 
ATOM     41  C   UNL     1      -1.371  -1.108  10.994  1.00  0.00     0.074 A 
ATOM     42  C   UNL     1      -2.149   0.112  11.035  1.00  0.00     0.031 C 
ATOM     43  C   UNL     1      -3.545  -4.013   5.693  1.00  0.00     0.029 A 
ATOM     44  C   UNL     1      -2.492  -4.473   6.593  1.00  0.00     0.049 A 
ATOM     45  H   UNL     1      -1.848  -3.572   8.357  1.00  0.00     0.167 HD
ATOM     46  C   UNL     1      -0.418  -1.437  11.901  1.00  0.00     0.037 A 
ATOM     47  C   UNL     1      -1.754  -5.587   6.419  1.00  0.00     0.037 A 
ATOM     48  C   UNL     1       0.341  -2.661  11.864  1.00  0.00     0.049 A 
ATOM     49  C   UNL     1      -0.723  -5.952   7.449  1.00  0.00     0.074 A 
ATOM     50  C   UNL     1       1.278  -3.123  12.771  1.00  0.00     0.029 A 
ATOM     51  N   UNL     1       0.255  -3.616  10.860  1.00  0.00    -0.354 N 
ATOM     52  N   UNL     1      -0.370  -5.296   8.529  1.00  0.00    -0.248 NA
ATOM     53  C   UNL     1       0.001  -7.214   7.246  1.00  0.00     0.031 C 
ATOM     54  C   UNL     1       1.789  -4.336  12.294  1.00  0.00     0.029 A 
ATOM     55  C   UNL     1       1.138  -4.654  11.113  1.00  0.00     0.049 A 
ATOM     56  H   UNL     1      -0.346  -3.563  10.082  1.00  0.00     0.167 HD
ATOM     57  C   UNL     1       0.611  -6.067   9.140  1.00  0.00     0.074 A 
ATOM     58  C   UNL     1       0.780  -7.251   8.319  1.00  0.00     0.031 C 
ATOM     59  C   UNL     1       1.308  -5.818  10.277  1.00  0.00     0.037 A 
BRANCH  46  60
ATOM     60  C   UNL     1      -0.146  -0.447  13.002  1.00  0.00     0.058 A 
ATOM     61  C   UNL     1      -1.089  -0.189  14.012  1.00  0.00     0.135 A 
ATOM     62  C   UNL     1       1.063   0.266  13.042  1.00  0.00     0.135 A 
ATOM     63  F   UNL     1      -2.266  -0.835  14.019  1.00  0.00    -0.206 F 
ATOM     64  C   UNL     1      -0.867   0.779  14.987  1.00  0.00     0.059 A 
ATOM     65  C   UNL     1       1.318   1.218  14.026  1.00  0.00     0.059 A 
ATOM     66  F   UNL     1       2.003   0.057  12.108  1.00  0.00    -0.206 F 
ATOM     67  C   UNL     1       0.336   1.486  14.978  1.00  0.00     0.060 A 
BRANCH  67  68
ATOM     68  S   UNL     1       0.591   2.773  16.218  1.00  0.00     0.124 S 
ATOM     69  O   UNL     1      -0.247   3.848  15.696  1.00  0.00    -0.237 OA
ATOM     70  O   UNL     1       0.112   2.134  17.439  1.00  0.00    -0.237 OA
ATOM     71  O   UNL     1       2.029   3.016  16.164  1.00  0.00    -0.744 OA
ENDBRANCH  67  68
ENDBRANCH  46  60
BRANCH  47  72
ATOM     72  C   UNL     1      -2.003  -6.443   5.230  1.00  0.00     0.058 A 
ATOM     73  C   UNL     1      -2.683  -7.663   5.350  1.00  0.00     0.135 A 
ATOM     74  C   UNL     1      -1.635  -6.020   3.943  1.00  0.00     0.135 A 
ATOM     75  F   UNL     1      -3.049  -8.110   6.561  1.00  0.00    -0.206 F 
ATOM     76  C   UNL     1      -2.996  -8.433   4.236  1.00  0.00     0.059 A 
ATOM     77  C   UNL     1      -1.958  -6.762   2.811  1.00  0.00     0.059 A 
ATOM     78  F   UNL     1      -0.997  -4.852   3.776  1.00  0.00    -0.206 F 
ATOM     79  C   UNL     1      -2.639  -7.969   2.968  1.00  0.00     0.060 A 
BRANCH  79  80
ATOM     80  S   UNL     1      -3.135  -8.934   1.524  1.00  0.00     0.124 S 
ATOM     81  O   UNL     1      -2.234 -10.077   1.610  1.00  0.00    -0.237 OA
ATOM     82  O   UNL     1      -4.541  -9.206   1.808  1.00  0.00    -0.237 OA
ATOM     83  O   UNL     1      -2.893  -8.022   0.410  1.00  0.00    -0.744 OA
ENDBRANCH  79  80
ENDBRANCH  47  72
BRANCH  59  84
ATOM     84  C   UNL     1       2.319  -6.848  10.702  1.00  0.00     0.058 A 
ATOM     85  C   UNL     1       3.535  -7.008  10.020  1.00  0.00     0.135 A 
ATOM     86  C   UNL     1       2.084  -7.658  11.824  1.00  0.00     0.135 A 
ATOM     87  F   UNL     1       3.806  -6.262   8.937  1.00  0.00    -0.206 F 
ATOM     88  C   UNL     1       4.473  -7.954  10.420  1.00  0.00     0.059 A 
ATOM     89  C   UNL     1       3.019  -8.593  12.257  1.00  0.00     0.059 A 
ATOM     90  F   UNL     1       0.942  -7.538  12.518  1.00  0.00    -0.206 F 
ATOM     91  C   UNL     1       4.206  -8.743  11.540  1.00  0.00     0.060 A 
BRANCH  91  92
ATOM     92  S   UNL     1       5.439  -9.954  12.063  1.00  0.00     0.124 S 
ATOM     93  O   UNL     1       5.262 -11.003  11.065  1.00  0.00    -0.237 OA
ATOM     94  O   UNL     1       6.683  -9.195  11.970  1.00  0.00    -0.237 OA
ATOM     95  O   UNL     1       5.023 -10.298  13.419  1.00  0.00    -0.744 OA
ENDBRANCH  91  92
ENDBRANCH  59  84
ENDBRANCH  33  34
ENDBRANCH  25  28
ENDBRANCH  23  24
ENDBRANCH   1  23
TORSDOF 16
