REMARK SMILES NC(=O)[C@@H]1CCCCN1c1cncc(C(=O)NCCCNC(=O)c2ccc(-c3c4nc(c(-c5c(F)cc(S(=O)(=O)[O-])cc5F)c5ccc([nH]5)c(-c5c(F)cc(S(=O)(=O)[O-])cc5F)c5nc(c(-c6c(F)cc(S(=O)(=O)[O-])cc6F)c6ccc3[nH]6)C=C5)C=C4)cc2)n1
REMARK SMILES IDX 19 1 18 2 17 3 15 4 16 5 14 7 10 8 11 9 90 10 12 11 13 12
REMARK SMILES IDX 9 13 4 14 5 15 6 16 8 17 7 18 2 19 1 20 3 23 20 24 21 25
REMARK SMILES IDX 22 26 23 28 24 29 25 30 89 31 26 32 88 33 27 34 28 35 29 36
REMARK SMILES IDX 82 37 30 38 87 39 81 40 83 41 31 42 86 43 80 44 79 45 32 47
REMARK SMILES IDX 66 48 45 49 65 50 46 51 49 52 64 53 84 54 47 55 48 56 63 58
REMARK SMILES IDX 85 59 50 60 33 61 34 62 43 63 35 64 36 65 42 66 44 67 37 68
REMARK SMILES IDX 38 69 39 70 40 71 41 72 67 73 68 74 77 75 69 76 70 77 76 78
REMARK SMILES IDX 78 79 71 80 72 81 73 82 74 83 75 84 51 85 52 86 61 87 53 88
REMARK SMILES IDX 54 89 60 90 62 91 55 92 56 93 57 94 58 95 59 96
REMARK H PARENT 17 6 1 21 1 22 21 27 83 46 49 57
REMARK Flexibility Score: inf
ROOT
ATOM      1  C   UNL     1      -1.922  -3.004   3.723  1.00  0.00     0.042 C 
ENDROOT
BRANCH   1   2
ATOM      2  C   UNL     1      -1.769  -1.605   3.137  1.00  0.00     0.118 C 
BRANCH   2   3
ATOM      3  N   UNL     1      -1.359  -0.634   4.136  1.00  0.00    -0.351 N 
ATOM      4  C   UNL     1      -0.126  -0.097   4.424  1.00  0.00     0.271 C 
ATOM      5  O   UNL     1      -0.069   0.728   5.340  1.00  0.00    -0.267 OA
ATOM      6  H   UNL     1      -2.090  -0.303   4.706  1.00  0.00     0.163 HD
BRANCH   4   7
ATOM      7  C   UNL     1       1.127  -0.453   3.693  1.00  0.00     0.148 A 
ATOM      8  C   UNL     1       2.260  -1.576   2.019  1.00  0.00     0.148 A 
ATOM      9  C   UNL     1       3.439  -0.965   2.476  1.00  0.00     0.157 A 
ATOM     10  N   UNL     1       1.095  -1.318   2.644  1.00  0.00    -0.222 NA
ATOM     11  N   UNL     1       3.499  -0.090   3.508  1.00  0.00    -0.258 NA
ATOM     12  C   UNL     1       2.308   0.152   4.104  1.00  0.00     0.145 A 
BRANCH   8  13
ATOM     13  N   UNL     1       2.282  -2.355   0.871  1.00  0.00    -0.343 N 
ATOM     14  C   UNL     1       1.135  -2.386  -0.078  1.00  0.00     0.172 C 
ATOM     15  C   UNL     1       0.246  -3.608   0.163  1.00  0.00     0.035 C 
ATOM     16  C   UNL     1       1.071  -4.893   0.168  1.00  0.00     0.004 C 
ATOM     17  C   UNL     1       3.084  -3.584   0.937  1.00  0.00     0.119 C 
ATOM     18  C   UNL     1       2.191  -4.799   1.199  1.00  0.00     0.022 C 
BRANCH  14  19
ATOM     19  C   UNL     1       0.316  -1.077  -0.169  1.00  0.00     0.240 C 
ATOM     20  N   UNL     1       1.049   0.072  -0.299  1.00  0.00    -0.368 N 
ATOM     21  H   UNL     1       0.593   0.943  -0.363  1.00  0.00     0.159 HD
ATOM     22  H   UNL     1       2.032   0.029  -0.329  1.00  0.00     0.159 HD
ATOM     23  O   UNL     1      -0.910  -1.026  -0.235  1.00  0.00    -0.273 OA
ENDBRANCH  14  19
ENDBRANCH   8  13
ENDBRANCH   4   7
ENDBRANCH   2   3
ENDBRANCH   1   2
BRANCH   1  24
ATOM     24  C   UNL     1      -3.131  -3.148   4.646  1.00  0.00     0.118 C 
BRANCH  24  25
ATOM     25  N   UNL     1      -4.391  -2.910   3.950  1.00  0.00    -0.352 N 
ATOM     26  C   UNL     1      -5.463  -3.734   3.732  1.00  0.00     0.251 C 
ATOM     27  H   UNL     1      -4.487  -2.006   3.574  1.00  0.00     0.163 HD
ATOM     28  O   UNL     1      -6.330  -3.386   2.927  1.00  0.00    -0.269 OA
BRANCH  26  29
ATOM     29  C   UNL     1      -5.596  -5.025   4.438  1.00  0.00     0.039 A 
ATOM     30  C   UNL     1      -6.112  -6.121   3.740  1.00  0.00     0.014 A 
ATOM     31  C   UNL     1      -5.275  -5.150   5.792  1.00  0.00     0.014 A 
ATOM     32  C   UNL     1      -6.257  -7.351   4.385  1.00  0.00     0.010 A 
ATOM     33  C   UNL     1      -5.351  -6.395   6.414  1.00  0.00     0.010 A 
ATOM     34  C   UNL     1      -5.850  -7.506   5.720  1.00  0.00    -0.014 A 
BRANCH  34  35
ATOM     35  C   UNL     1      -5.945  -8.823   6.400  1.00  0.00     0.031 A 
ATOM     36  C   UNL     1      -6.861  -9.009   7.579  1.00  0.00     0.074 A 
ATOM     37  C   UNL     1      -5.167  -9.841   5.981  1.00  0.00     0.049 A 
ATOM     38  N   UNL     1      -7.049 -10.071   8.320  1.00  0.00    -0.248 NA
ATOM     39  C   UNL     1      -7.648  -7.839   7.998  1.00  0.00     0.031 C 
ATOM     40  C   UNL     1      -4.204  -9.771   4.880  1.00  0.00     0.029 A 
ATOM     41  N   UNL     1      -5.060 -11.132   6.433  1.00  0.00    -0.354 N 
ATOM     42  C   UNL     1      -7.966  -9.697   9.296  1.00  0.00     0.074 A 
ATOM     43  C   UNL     1      -8.252  -8.293   9.087  1.00  0.00     0.031 C 
ATOM     44  C   UNL     1      -3.628 -10.973   4.722  1.00  0.00     0.029 A 
ATOM     45  C   UNL     1      -4.153 -11.888   5.730  1.00  0.00     0.049 A 
ATOM     46  H   UNL     1      -5.584 -11.483   7.189  1.00  0.00     0.167 HD
ATOM     47  C   UNL     1      -8.536 -10.457  10.262  1.00  0.00     0.037 A 
ATOM     48  C   UNL     1      -3.786 -13.175   5.880  1.00  0.00     0.037 A 
ATOM     49  C   UNL     1      -8.261 -11.858  10.453  1.00  0.00     0.049 A 
ATOM     50  C   UNL     1      -4.434 -14.001   6.956  1.00  0.00     0.074 A 
ATOM     51  C   UNL     1      -8.823 -12.731  11.368  1.00  0.00     0.029 A 
ATOM     52  N   UNL     1      -7.342 -12.592   9.715  1.00  0.00    -0.354 N 
ATOM     53  N   UNL     1      -5.341 -13.646   7.834  1.00  0.00    -0.248 NA
ATOM     54  C   UNL     1      -4.013 -15.405   7.057  1.00  0.00     0.031 C 
ATOM     55  C   UNL     1      -8.217 -13.983  11.209  1.00  0.00     0.029 A 
ATOM     56  C   UNL     1      -7.308 -13.902  10.166  1.00  0.00     0.049 A 
ATOM     57  H   UNL     1      -6.795 -12.234   8.979  1.00  0.00     0.167 HD
ATOM     58  C   UNL     1      -5.616 -14.787   8.580  1.00  0.00     0.074 A 
ATOM     59  C   UNL     1      -4.790 -15.847   8.036  1.00  0.00     0.031 C 
ATOM     60  C   UNL     1      -6.474 -14.944   9.619  1.00  0.00     0.037 A 
BRANCH  47  61
ATOM     61  C   UNL     1      -9.516  -9.782  11.184  1.00  0.00     0.058 A 
ATOM     62  C   UNL     1     -10.775  -9.352  10.733  1.00  0.00     0.135 A 
ATOM     63  C   UNL     1      -9.199  -9.567  12.535  1.00  0.00     0.135 A 
ATOM     64  F   UNL     1     -11.126  -9.519   9.448  1.00  0.00    -0.206 F 
ATOM     65  C   UNL     1     -11.666  -8.695  11.576  1.00  0.00     0.059 A 
ATOM     66  C   UNL     1     -10.087  -8.938  13.404  1.00  0.00     0.059 A 
ATOM     67  F   UNL     1      -8.011  -9.960  13.022  1.00  0.00    -0.206 F 
ATOM     68  C   UNL     1     -11.310  -8.488  12.909  1.00  0.00     0.060 A 
BRANCH  68  69
ATOM     69  S   UNL     1     -12.468  -7.617  13.987  1.00  0.00     0.124 S 
ATOM     70  O   UNL     1     -12.315  -6.241  13.525  1.00  0.00    -0.237 OA
ATOM     71  O   UNL     1     -13.740  -8.256  13.662  1.00  0.00    -0.237 OA
ATOM     72  O   UNL     1     -11.957  -7.891  15.326  1.00  0.00    -0.744 OA
ENDBRANCH  68  69
ENDBRANCH  47  61
BRANCH  48  73
ATOM     73  C   UNL     1      -2.780 -13.768   4.960  1.00  0.00     0.058 A 
ATOM     74  C   UNL     1      -3.163 -14.695   3.979  1.00  0.00     0.135 A 
ATOM     75  C   UNL     1      -1.428 -13.399   5.019  1.00  0.00     0.135 A 
ATOM     76  F   UNL     1      -4.444 -15.082   3.887  1.00  0.00    -0.206 F 
ATOM     77  C   UNL     1      -2.240 -15.243   3.095  1.00  0.00     0.059 A 
ATOM     78  C   UNL     1      -0.490 -13.916   4.131  1.00  0.00     0.059 A 
ATOM     79  F   UNL     1      -1.014 -12.503   5.929  1.00  0.00    -0.206 F 
ATOM     80  C   UNL     1      -0.905 -14.843   3.176  1.00  0.00     0.060 A 
BRANCH  80  81
ATOM     81  S   UNL     1       0.273 -15.511   1.980  1.00  0.00     0.124 S 
ATOM     82  O   UNL     1       0.446 -16.874   2.467  1.00  0.00    -0.237 OA
ATOM     83  O   UNL     1      -0.453 -15.368   0.722  1.00  0.00    -0.237 OA
ATOM     84  O   UNL     1       1.431 -14.634   2.127  1.00  0.00    -0.744 OA
ENDBRANCH  80  81
ENDBRANCH  48  73
BRANCH  60  85
ATOM     85  C   UNL     1      -6.573 -16.318  10.222  1.00  0.00     0.058 A 
ATOM     86  C   UNL     1      -5.540 -16.854  11.007  1.00  0.00     0.135 A 
ATOM     87  C   UNL     1      -7.722 -17.100  10.027  1.00  0.00     0.135 A 
ATOM     88  F   UNL     1      -4.417 -16.149  11.219  1.00  0.00    -0.206 F 
ATOM     89  C   UNL     1      -5.629 -18.132  11.549  1.00  0.00     0.059 A 
ATOM     90  C   UNL     1      -7.844 -18.370  10.582  1.00  0.00     0.059 A 
ATOM     91  F   UNL     1      -8.744 -16.631   9.293  1.00  0.00    -0.206 F 
ATOM     92  C   UNL     1      -6.784 -18.884  11.328  1.00  0.00     0.060 A 
BRANCH  92  93
ATOM     93  S   UNL     1      -6.891 -20.539  12.041  1.00  0.00     0.124 S 
ATOM     94  O   UNL     1      -6.023 -21.300  11.149  1.00  0.00    -0.237 OA
ATOM     95  O   UNL     1      -6.383 -20.331  13.394  1.00  0.00    -0.237 OA
ATOM     96  O   UNL     1      -8.314 -20.854  11.955  1.00  0.00    -0.744 OA
ENDBRANCH  92  93
ENDBRANCH  60  85
ENDBRANCH  34  35
ENDBRANCH  26  29
ENDBRANCH  24  25
ENDBRANCH   1  24
TORSDOF 15
