REMARK SMILES CC[C@@](O)(C(=O)NCCCNC(=O)c1ccc(-c2c3nc(c(-c4c(F)cc(S(=O)(=O)[O-])cc4F)c4ccc([nH]4)c(-c4c(F)cc(S(=O)(=O)[O-])cc4F)c4nc(c(-c5c(F)cc(S(=O)(=O)[O-])cc5F)c5ccc2[nH]5)C=C4)C=C3)cc1)[C@@H](C)c1ccc(OC)c(OC)c1
REMARK SMILES IDX 9 1 8 2 7 3 5 4 6 5 3 7 2 8 1 9 4 10 80 12 81 13 82 14 83 15
REMARK SMILES IDX 91 16 84 17 88 18 85 19 89 20 90 21 86 22 87 23 10 24 11 25
REMARK SMILES IDX 12 26 13 28 14 29 15 30 79 31 16 32 78 33 17 34 18 35 19 36
REMARK SMILES IDX 72 37 20 38 77 39 71 40 73 41 21 42 76 43 70 44 69 45 22 47
REMARK SMILES IDX 56 48 35 49 55 50 36 51 39 52 54 53 74 54 37 55 38 56 53 58
REMARK SMILES IDX 75 59 40 60 23 61 24 62 33 63 25 64 26 65 32 66 34 67 27 68
REMARK SMILES IDX 28 69 29 70 30 71 31 72 57 73 58 74 67 75 59 76 60 77 66 78
REMARK SMILES IDX 68 79 61 80 62 81 63 82 64 83 65 84 41 85 42 86 51 87 43 88
REMARK SMILES IDX 44 89 50 90 52 91 45 92 46 93 47 94 48 95 49 96
REMARK H PARENT 7 6 4 11 11 27 73 46 39 57
REMARK Flexibility Score: inf
ROOT
ATOM      1  C   UNL     1      -2.864   2.821   0.485  1.00  0.00     0.042 C 
ENDROOT
BRANCH   1   2
ATOM      2  C   UNL     1      -1.975   3.062  -0.730  1.00  0.00     0.117 C 
BRANCH   2   3
ATOM      3  N   UNL     1      -0.807   3.890  -0.447  1.00  0.00    -0.354 N 
ATOM      4  C   UNL     1       0.528   3.580  -0.415  1.00  0.00     0.252 C 
ATOM      5  O   UNL     1       1.310   4.532  -0.336  1.00  0.00    -0.272 OA
ATOM      6  H   UNL     1      -1.013   4.832  -0.244  1.00  0.00     0.163 HD
BRANCH   4   7
ATOM      7  C   UNL     1       1.024   2.089  -0.479  1.00  0.00     0.149 C 
BRANCH   7   8
ATOM      8  C   UNL     1       0.511   1.393   0.811  1.00  0.00     0.043 C 
ATOM      9  C   UNL     1       0.765  -0.090   1.016  1.00  0.00     0.007 C 
ENDBRANCH   7   8
BRANCH   7  10
ATOM     10  O   UNL     1       0.390   1.554  -1.653  1.00  0.00    -0.379 OA
ATOM     11  H   UNL     1      -0.573   1.579  -1.540  1.00  0.00     0.212 HD
ENDBRANCH   7  10
BRANCH   7  12
ATOM     12  C   UNL     1       2.597   2.042  -0.677  1.00  0.00     0.058 C 
ATOM     13  C   UNL     1       3.326   2.442   0.628  1.00  0.00     0.016 C 
BRANCH  12  14
ATOM     14  C   UNL     1       3.230   0.751  -1.244  1.00  0.00    -0.038 A 
ATOM     15  C   UNL     1       2.494  -0.387  -1.581  1.00  0.00     0.008 A 
ATOM     16  C   UNL     1       4.627   0.669  -1.424  1.00  0.00     0.054 A 
ATOM     17  C   UNL     1       3.116  -1.592  -1.903  1.00  0.00     0.051 A 
ATOM     18  C   UNL     1       5.268  -0.528  -1.809  1.00  0.00     0.160 A 
ATOM     19  C   UNL     1       4.501  -1.685  -1.993  1.00  0.00     0.160 A 
BRANCH  18  20
ATOM     20  O   UNL     1       6.631  -0.611  -1.925  1.00  0.00    -0.493 OA
ATOM     21  C   UNL     1       7.281   0.561  -2.407  1.00  0.00     0.278 C 
ENDBRANCH  18  20
BRANCH  19  22
ATOM     22  O   UNL     1       4.916  -2.965  -2.234  1.00  0.00    -0.493 OA
ATOM     23  C   UNL     1       6.186  -3.151  -2.828  1.00  0.00     0.278 C 
ENDBRANCH  19  22
ENDBRANCH  12  14
ENDBRANCH   7  12
ENDBRANCH   4   7
ENDBRANCH   2   3
ENDBRANCH   1   2
BRANCH   1  24
ATOM     24  C   UNL     1      -3.527   4.072   1.034  1.00  0.00     0.118 C 
BRANCH  24  25
ATOM     25  N   UNL     1      -4.515   4.621   0.120  1.00  0.00    -0.352 N 
ATOM     26  C   UNL     1      -5.878   4.703   0.242  1.00  0.00     0.251 C 
ATOM     27  H   UNL     1      -4.149   4.992  -0.715  1.00  0.00     0.163 HD
ATOM     28  O   UNL     1      -6.550   5.001  -0.750  1.00  0.00    -0.269 OA
BRANCH  26  29
ATOM     29  C   UNL     1      -6.548   4.426   1.532  1.00  0.00     0.039 A 
ATOM     30  C   UNL     1      -7.775   3.754   1.526  1.00  0.00     0.014 A 
ATOM     31  C   UNL     1      -6.001   4.855   2.744  1.00  0.00     0.014 A 
ATOM     32  C   UNL     1      -8.421   3.473   2.733  1.00  0.00     0.010 A 
ATOM     33  C   UNL     1      -6.596   4.490   3.948  1.00  0.00     0.010 A 
ATOM     34  C   UNL     1      -7.823   3.813   3.957  1.00  0.00    -0.014 A 
BRANCH  34  35
ATOM     35  C   UNL     1      -8.479   3.497   5.252  1.00  0.00     0.031 A 
ATOM     36  C   UNL     1      -8.892   4.610   6.180  1.00  0.00     0.074 A 
ATOM     37  C   UNL     1      -8.652   2.212   5.618  1.00  0.00     0.049 A 
ATOM     38  N   UNL     1      -9.426   4.538   7.372  1.00  0.00    -0.248 NA
ATOM     39  C   UNL     1      -8.645   5.987   5.719  1.00  0.00     0.031 C 
ATOM     40  C   UNL     1      -8.248   1.045   4.830  1.00  0.00     0.029 A 
ATOM     41  N   UNL     1      -9.208   1.669   6.750  1.00  0.00    -0.354 N 
ATOM     42  C   UNL     1      -9.558   5.851   7.810  1.00  0.00     0.074 A 
ATOM     43  C   UNL     1      -8.999   6.697   6.780  1.00  0.00     0.031 C 
ATOM     44  C   UNL     1      -8.597  -0.073   5.488  1.00  0.00     0.029 A 
ATOM     45  C   UNL     1      -9.214   0.294   6.758  1.00  0.00     0.049 A 
ATOM     46  H   UNL     1      -9.569   2.214   7.486  1.00  0.00     0.167 HD
ATOM     47  C   UNL     1     -10.117   6.311   8.954  1.00  0.00     0.037 A 
ATOM     48  C   UNL     1      -9.663  -0.573   7.687  1.00  0.00     0.037 A 
ATOM     49  C   UNL     1     -10.705   5.464   9.959  1.00  0.00     0.049 A 
ATOM     50  C   UNL     1     -10.292  -0.037   8.944  1.00  0.00     0.074 A 
ATOM     51  C   UNL     1     -11.359   5.834  11.121  1.00  0.00     0.029 A 
ATOM     52  N   UNL     1     -10.711   4.077   9.921  1.00  0.00    -0.354 N 
ATOM     53  N   UNL     1     -10.470   1.210   9.311  1.00  0.00    -0.248 NA
ATOM     54  C   UNL     1     -10.789  -1.025   9.911  1.00  0.00     0.031 C 
ATOM     55  C   UNL     1     -11.722   4.670  11.807  1.00  0.00     0.029 A 
ATOM     56  C   UNL     1     -11.338   3.575  11.049  1.00  0.00     0.049 A 
ATOM     57  H   UNL     1     -10.325   3.531   9.199  1.00  0.00     0.167 HD
ATOM     58  C   UNL     1     -11.126   1.156  10.536  1.00  0.00     0.074 A 
ATOM     59  C   UNL     1     -11.321  -0.246  10.842  1.00  0.00     0.031 C 
ATOM     60  C   UNL     1     -11.531   2.175  11.334  1.00  0.00     0.037 A 
BRANCH  47  61
ATOM     61  C   UNL     1     -10.123   7.800   9.179  1.00  0.00     0.058 A 
ATOM     62  C   UNL     1     -10.926   8.660   8.412  1.00  0.00     0.135 A 
ATOM     63  C   UNL     1      -9.335   8.372  10.190  1.00  0.00     0.135 A 
ATOM     64  F   UNL     1     -11.688   8.170   7.421  1.00  0.00    -0.206 F 
ATOM     65  C   UNL     1     -10.921  10.036   8.615  1.00  0.00     0.059 A 
ATOM     66  C   UNL     1      -9.337   9.744  10.432  1.00  0.00     0.059 A 
ATOM     67  F   UNL     1      -8.549   7.598  10.955  1.00  0.00    -0.206 F 
ATOM     68  C   UNL     1     -10.121  10.569   9.627  1.00  0.00     0.060 A 
BRANCH  68  69
ATOM     69  S   UNL     1     -10.124  12.357   9.877  1.00  0.00     0.124 S 
ATOM     70  O   UNL     1      -9.349  12.812   8.727  1.00  0.00    -0.237 OA
ATOM     71  O   UNL     1     -11.548  12.675   9.847  1.00  0.00    -0.237 OA
ATOM     72  O   UNL     1      -9.475  12.520  11.175  1.00  0.00    -0.744 OA
ENDBRANCH  68  69
ENDBRANCH  47  61
BRANCH  48  73
ATOM     73  C   UNL     1      -9.567  -2.037   7.445  1.00  0.00     0.058 A 
ATOM     74  C   UNL     1     -10.716  -2.800   7.190  1.00  0.00     0.135 A 
ATOM     75  C   UNL     1      -8.330  -2.700   7.451  1.00  0.00     0.135 A 
ATOM     76  F   UNL     1     -11.922  -2.213   7.179  1.00  0.00    -0.206 F 
ATOM     77  C   UNL     1     -10.646  -4.171   6.966  1.00  0.00     0.059 A 
ATOM     78  C   UNL     1      -8.231  -4.066   7.205  1.00  0.00     0.059 A 
ATOM     79  F   UNL     1      -7.199  -2.011   7.672  1.00  0.00    -0.206 F 
ATOM     80  C   UNL     1      -9.397  -4.795   6.974  1.00  0.00     0.060 A 
BRANCH  80  81
ATOM     81  S   UNL     1      -9.313  -6.567   6.636  1.00  0.00     0.124 S 
ATOM     82  O   UNL     1      -9.834  -7.128   7.878  1.00  0.00    -0.237 OA
ATOM     83  O   UNL     1     -10.174  -6.698   5.465  1.00  0.00    -0.237 OA
ATOM     84  O   UNL     1      -7.892  -6.794   6.388  1.00  0.00    -0.744 OA
ENDBRANCH  80  81
ENDBRANCH  48  73
BRANCH  60  85
ATOM     85  C   UNL     1     -12.262   1.813  12.598  1.00  0.00     0.058 A 
ATOM     86  C   UNL     1     -11.599   1.250  13.699  1.00  0.00     0.135 A 
ATOM     87  C   UNL     1     -13.636   2.076  12.722  1.00  0.00     0.135 A 
ATOM     88  F   UNL     1     -10.287   0.975  13.630  1.00  0.00    -0.206 F 
ATOM     89  C   UNL     1     -12.279   0.934  14.871  1.00  0.00     0.059 A 
ATOM     90  C   UNL     1     -14.330   1.794  13.894  1.00  0.00     0.059 A 
ATOM     91  F   UNL     1     -14.315   2.624  11.702  1.00  0.00    -0.206 F 
ATOM     92  C   UNL     1     -13.645   1.210  14.959  1.00  0.00     0.060 A 
BRANCH  92  93
ATOM     93  S   UNL     1     -14.511   0.821  16.494  1.00  0.00     0.124 S 
ATOM     94  O   UNL     1     -14.621  -0.632  16.409  1.00  0.00    -0.237 OA
ATOM     95  O   UNL     1     -13.593   1.329  17.509  1.00  0.00    -0.237 OA
ATOM     96  O   UNL     1     -15.767   1.554  16.371  1.00  0.00    -0.744 OA
ENDBRANCH  92  93
ENDBRANCH  60  85
ENDBRANCH  34  35
ENDBRANCH  26  29
ENDBRANCH  24  25
ENDBRANCH   1  24
TORSDOF 19
