REMARK SMILES CCOC(=O)c1cccc(Nc2c(-c3ccc(C(=O)NCCCNC(=O)c4ccc(-c5c6nc(c(-c7c(F)cc(S(=O)(=O)[O-])cc7F)c7ccc([nH]7)c(-c7c(F)cc(S(=O)(=O)[O-])cc7F)c7nc(c(-c8c(F)cc(S(=O)(=O)[O-])cc8F)c8ccc5[nH]8)C=C7)C=C6)cc4)cc3)nc3cnccn23)c1
REMARK SMILES IDX 18 1 19 2 20 3 17 5 14 6 15 7 94 8 16 9 93 10 13 11 12 12
REMARK SMILES IDX 101 13 95 14 96 15 100 16 97 17 99 18 98 19 11 20 10 22 6 23
REMARK SMILES IDX 7 24 102 25 8 26 9 27 4 28 5 29 3 30 2 31 1 32 21 33 22 34
REMARK SMILES IDX 23 35 24 36 25 37 26 39 27 40 28 41 92 42 29 43 91 44 30 45
REMARK SMILES IDX 31 46 32 47 85 48 33 49 90 50 84 51 86 52 34 53 89 54 83 55
REMARK SMILES IDX 82 56 35 58 69 59 48 60 68 61 49 62 52 63 67 64 87 65 50 66
REMARK SMILES IDX 51 67 66 69 88 70 53 71 36 72 37 73 46 74 38 75 39 76 45 77
REMARK SMILES IDX 47 78 40 79 41 80 42 81 43 82 44 83 70 84 71 85 80 86 72 87
REMARK SMILES IDX 73 88 79 89 81 90 74 91 75 92 76 93 77 94 78 95 54 96 55 97
REMARK SMILES IDX 64 98 56 99 57 100 63 101 65 102 58 103 59 104 60 105 61 106
REMARK SMILES IDX 62 107
REMARK H PARENT 20 4 11 21 24 38 86 57 52 68
REMARK Flexibility Score: inf
ROOT
ATOM      1  C   UNL     1       3.034  -1.869  10.252  1.00  0.00     0.251 C 
ATOM      2  O   UNL     1       3.208  -2.682   9.344  1.00  0.00    -0.269 OA
ATOM      3  N   UNL     1       2.840  -2.354  11.520  1.00  0.00    -0.352 N 
ATOM      4  H   UNL     1       2.773  -3.336  11.568  1.00  0.00     0.163 HD
ENDROOT
BRANCH   1   5
ATOM      5  C   UNL     1       3.087  -0.416   9.937  1.00  0.00     0.039 A 
ATOM      6  C   UNL     1       3.260   2.288   9.181  1.00  0.00     0.004 A 
ATOM      7  C   UNL     1       3.981   1.317   8.479  1.00  0.00     0.011 A 
ATOM      8  C   UNL     1       2.445   1.906  10.247  1.00  0.00     0.011 A 
ATOM      9  C   UNL     1       3.896  -0.025   8.858  1.00  0.00     0.014 A 
ATOM     10  C   UNL     1       2.336   0.558  10.601  1.00  0.00     0.014 A 
BRANCH   6  11
ATOM     11  C   UNL     1       3.312   3.678   8.793  1.00  0.00     0.114 A 
ATOM     12  C   UNL     1       2.838   4.180   7.588  1.00  0.00     0.143 A 
ATOM     13  N   UNL     1       3.030   5.541   7.692  1.00  0.00    -0.283 N 
ATOM     14  N   UNL     1       3.844   4.665   9.590  1.00  0.00    -0.225 NA
ATOM     15  C   UNL     1       3.672   5.761   8.886  1.00  0.00     0.157 A 
ATOM     16  C   UNL     1       2.697   6.614   6.883  1.00  0.00     0.115 A 
ATOM     17  C   UNL     1       4.040   7.106   9.227  1.00  0.00     0.158 A 
ATOM     18  C   UNL     1       3.058   7.848   7.280  1.00  0.00     0.129 A 
ATOM     19  N   UNL     1       3.754   8.118   8.449  1.00  0.00    -0.259 NA
BRANCH  12  20
ATOM     20  N   UNL     1       2.233   3.569   6.532  1.00  0.00    -0.339 N 
ATOM     21  H   UNL     1       1.295   3.288   6.637  1.00  0.00     0.168 HD
BRANCH  20  22
ATOM     22  C   UNL     1       2.870   3.313   5.290  1.00  0.00     0.040 A 
ATOM     23  C   UNL     1       2.941   2.039   3.215  1.00  0.00     0.062 A 
ATOM     24  C   UNL     1       4.130   2.675   2.850  1.00  0.00     0.016 A 
ATOM     25  C   UNL     1       2.298   2.374   4.415  1.00  0.00     0.041 A 
ATOM     26  C   UNL     1       4.673   3.650   3.680  1.00  0.00     0.003 A 
ATOM     27  C   UNL     1       4.049   3.961   4.890  1.00  0.00     0.026 A 
BRANCH  23  28
ATOM     28  C   UNL     1       2.447   0.946   2.349  1.00  0.00     0.338 C 
ATOM     29  O   UNL     1       3.192   0.184   1.756  1.00  0.00    -0.246 OA
BRANCH  28  30
ATOM     30  O   UNL     1       1.093   0.966   2.295  1.00  0.00    -0.462 OA
BRANCH  30  31
ATOM     31  C   UNL     1       0.496  -0.082   1.514  1.00  0.00     0.230 C 
ATOM     32  C   UNL     1       0.639   0.169   0.022  1.00  0.00     0.049 C 
ENDBRANCH  30  31
ENDBRANCH  28  30
ENDBRANCH  23  28
ENDBRANCH  20  22
ENDBRANCH  12  20
ENDBRANCH   6  11
ENDBRANCH   1   5
BRANCH   3  33
ATOM     33  C   UNL     1       2.715  -1.688  12.804  1.00  0.00     0.118 C 
BRANCH  33  34
ATOM     34  C   UNL     1       1.259  -1.636  13.268  1.00  0.00     0.042 C 
BRANCH  34  35
ATOM     35  C   UNL     1       0.723  -2.981  13.750  1.00  0.00     0.118 C 
BRANCH  35  36
ATOM     36  N   UNL     1       1.315  -3.381  15.016  1.00  0.00    -0.352 N 
ATOM     37  C   UNL     1       0.712  -3.708  16.205  1.00  0.00     0.251 C 
ATOM     38  H   UNL     1       2.299  -3.424  15.022  1.00  0.00     0.163 HD
ATOM     39  O   UNL     1       1.400  -3.804  17.218  1.00  0.00    -0.269 OA
BRANCH  37  40
ATOM     40  C   UNL     1      -0.750  -3.935  16.279  1.00  0.00     0.039 A 
ATOM     41  C   UNL     1      -1.448  -3.452  17.391  1.00  0.00     0.014 A 
ATOM     42  C   UNL     1      -1.425  -4.665  15.296  1.00  0.00     0.014 A 
ATOM     43  C   UNL     1      -2.825  -3.662  17.495  1.00  0.00     0.010 A 
ATOM     44  C   UNL     1      -2.808  -4.822  15.371  1.00  0.00     0.010 A 
ATOM     45  C   UNL     1      -3.521  -4.329  16.475  1.00  0.00    -0.014 A 
BRANCH  45  46
ATOM     46  C   UNL     1      -4.991  -4.528  16.549  1.00  0.00     0.031 A 
ATOM     47  C   UNL     1      -5.562  -5.914  16.678  1.00  0.00     0.074 A 
ATOM     48  C   UNL     1      -5.812  -3.466  16.439  1.00  0.00     0.049 A 
ATOM     49  N   UNL     1      -6.814  -6.295  16.677  1.00  0.00    -0.248 NA
ATOM     50  C   UNL     1      -4.598  -7.020  16.800  1.00  0.00     0.031 C 
ATOM     51  C   UNL     1      -5.379  -2.077  16.266  1.00  0.00     0.029 A 
ATOM     52  N   UNL     1      -7.182  -3.388  16.440  1.00  0.00    -0.354 N 
ATOM     53  C   UNL     1      -6.789  -7.681  16.778  1.00  0.00     0.074 A 
ATOM     54  C   UNL     1      -5.397  -8.077  16.799  1.00  0.00     0.031 C 
ATOM     55  C   UNL     1      -6.461  -1.286  16.189  1.00  0.00     0.029 A 
ATOM     56  C   UNL     1      -7.662  -2.110  16.275  1.00  0.00     0.049 A 
ATOM     57  H   UNL     1      -7.766  -4.173  16.549  1.00  0.00     0.167 HD
ATOM     58  C   UNL     1      -7.831  -8.543  16.863  1.00  0.00     0.037 A 
ATOM     59  C   UNL     1      -8.928  -1.655  16.193  1.00  0.00     0.037 A 
ATOM     60  C   UNL     1      -9.213  -8.141  16.874  1.00  0.00     0.049 A 
ATOM     61  C   UNL     1     -10.068  -2.628  16.312  1.00  0.00     0.074 A 
ATOM     62  C   UNL     1     -10.340  -8.932  17.015  1.00  0.00     0.029 A 
ATOM     63  N   UNL     1      -9.658  -6.834  16.741  1.00  0.00    -0.354 N 
ATOM     64  N   UNL     1     -10.025  -3.931  16.459  1.00  0.00    -0.248 NA
ATOM     65  C   UNL     1     -11.426  -2.071  16.262  1.00  0.00     0.031 C 
ATOM     66  C   UNL     1     -11.467  -8.107  16.937  1.00  0.00     0.029 A 
ATOM     67  C   UNL     1     -11.042  -6.797  16.785  1.00  0.00     0.049 A 
ATOM     68  H   UNL     1      -9.076  -6.047  16.632  1.00  0.00     0.167 HD
ATOM     69  C   UNL     1     -11.349  -4.347  16.540  1.00  0.00     0.074 A 
ATOM     70  C   UNL     1     -12.168  -3.156  16.437  1.00  0.00     0.031 C 
ATOM     71  C   UNL     1     -11.841  -5.602  16.686  1.00  0.00     0.037 A 
BRANCH  58  72
ATOM     72  C   UNL     1      -7.514 -10.010  16.957  1.00  0.00     0.058 A 
ATOM     73  C   UNL     1      -6.971 -10.571  18.124  1.00  0.00     0.135 A 
ATOM     74  C   UNL     1      -7.783 -10.871  15.881  1.00  0.00     0.135 A 
ATOM     75  F   UNL     1      -6.680  -9.791  19.177  1.00  0.00    -0.206 F 
ATOM     76  C   UNL     1      -6.678 -11.928  18.210  1.00  0.00     0.059 A 
ATOM     77  C   UNL     1      -7.521 -12.236  15.954  1.00  0.00     0.059 A 
ATOM     78  F   UNL     1      -8.303 -10.387  14.742  1.00  0.00    -0.206 F 
ATOM     79  C   UNL     1      -6.953 -12.752  17.118  1.00  0.00     0.060 A 
BRANCH  79  80
ATOM     80  S   UNL     1      -6.567 -14.512  17.244  1.00  0.00     0.124 S 
ATOM     81  O   UNL     1      -5.115 -14.501  17.089  1.00  0.00    -0.237 OA
ATOM     82  O   UNL     1      -7.059 -14.848  18.576  1.00  0.00    -0.237 OA
ATOM     83  O   UNL     1      -7.312 -15.102  16.137  1.00  0.00    -0.744 OA
ENDBRANCH  79  80
ENDBRANCH  58  72
BRANCH  59  84
ATOM     84  C   UNL     1      -9.178  -0.202  16.010  1.00  0.00     0.058 A 
ATOM     85  C   UNL     1      -9.666   0.583  17.064  1.00  0.00     0.135 A 
ATOM     86  C   UNL     1      -8.912   0.433  14.788  1.00  0.00     0.135 A 
ATOM     87  F   UNL     1      -9.941   0.017  18.250  1.00  0.00    -0.206 F 
ATOM     88  C   UNL     1      -9.891   1.947  16.913  1.00  0.00     0.059 A 
ATOM     89  C   UNL     1      -9.108   1.800  14.618  1.00  0.00     0.059 A 
ATOM     90  F   UNL     1      -8.427  -0.272  13.754  1.00  0.00    -0.206 F 
ATOM     91  C   UNL     1      -9.606   2.547  15.685  1.00  0.00     0.060 A 
BRANCH  91  92
ATOM     92  S   UNL     1      -9.843   4.330  15.514  1.00  0.00     0.124 S 
ATOM     93  O   UNL     1     -11.293   4.423  15.391  1.00  0.00    -0.237 OA
ATOM     94  O   UNL     1      -9.273   4.838  16.758  1.00  0.00    -0.237 OA
ATOM     95  O   UNL     1      -9.083   4.653  14.310  1.00  0.00    -0.744 OA
ENDBRANCH  91  92
ENDBRANCH  59  84
BRANCH  71  96
ATOM     96  C   UNL     1     -13.334  -5.750  16.771  1.00  0.00     0.058 A 
ATOM     97  C   UNL     1     -14.149  -5.636  15.635  1.00  0.00     0.135 A 
ATOM     98  C   UNL     1     -13.949  -6.060  17.995  1.00  0.00     0.135 A 
ATOM     99  F   UNL     1     -13.609  -5.334  14.444  1.00  0.00    -0.206 F 
ATOM    100  C   UNL     1     -15.527  -5.804  15.712  1.00  0.00     0.059 A 
ATOM    101  C   UNL     1     -15.323  -6.255  18.091  1.00  0.00     0.059 A 
ATOM    102  F   UNL     1     -13.211  -6.189  19.109  1.00  0.00    -0.206 F 
ATOM    103  C   UNL     1     -16.105  -6.114  16.945  1.00  0.00     0.060 A 
BRANCH 103 104
ATOM    104  S   UNL     1     -17.891  -6.365  17.028  1.00  0.00     0.124 S 
ATOM    105  O   UNL     1     -18.383  -4.992  16.983  1.00  0.00    -0.237 OA
ATOM    106  O   UNL     1     -18.152  -7.171  15.839  1.00  0.00    -0.237 OA
ATOM    107  O   UNL     1     -18.077  -7.059  18.299  1.00  0.00    -0.744 OA
ENDBRANCH 103 104
ENDBRANCH  71  96
ENDBRANCH  45  46
ENDBRANCH  37  40
ENDBRANCH  35  36
ENDBRANCH  34  35
ENDBRANCH  33  34
ENDBRANCH   3  33
TORSDOF 19
