REMARK SMILES O=C(Cc1ccc(F)c(F)c1)NC1(C(=O)NCCCNC(=O)c2ccc(-c3c4nc(c(-c5c(F)cc(S(=O)(=O)[O-])cc5F)c5ccc([nH]5)c(-c5c(F)cc(S(=O)(=O)[O-])cc5F)c5nc(c(-c6c(F)cc(S(=O)(=O)[O-])cc6F)c6ccc3[nH]6)C=C5)C=C4)cc2)CCCC1
REMARK SMILES IDX 18 1 17 2 16 3 14 4 15 5 13 7 89 8 92 9 90 10 91 11 12 12
REMARK SMILES IDX 1 13 2 14 3 16 4 17 5 18 11 19 6 20 9 21 7 22 10 23 8 24
REMARK SMILES IDX 19 25 20 26 21 27 22 29 23 30 24 31 88 32 25 33 87 34 26 35
REMARK SMILES IDX 27 36 28 37 81 38 29 39 86 40 80 41 82 42 30 43 85 44 79 45
REMARK SMILES IDX 78 46 31 48 65 49 44 50 64 51 45 52 48 53 63 54 83 55 46 56
REMARK SMILES IDX 47 57 62 59 84 60 49 61 32 62 33 63 42 64 34 65 35 66 41 67
REMARK SMILES IDX 43 68 36 69 37 70 38 71 39 72 40 73 66 74 67 75 76 76 68 77
REMARK SMILES IDX 69 78 75 79 77 80 70 81 71 82 72 83 73 84 74 85 50 86 51 87
REMARK SMILES IDX 60 88 52 89 53 90 59 91 61 92 54 93 55 94 56 95 57 96 58 97
REMARK H PARENT 16 6 12 15 20 28 82 47 48 58
REMARK Flexibility Score: inf
ROOT
ATOM      1  C   UNL     1      -0.712   3.527  -3.805  1.00  0.00     0.042 C 
ENDROOT
BRANCH   1   2
ATOM      2  C   UNL     1      -0.072   3.902  -2.482  1.00  0.00     0.117 C 
BRANCH   2   3
ATOM      3  N   UNL     1      -0.154   2.875  -1.472  1.00  0.00    -0.354 N 
ATOM      4  C   UNL     1       0.833   2.301  -0.733  1.00  0.00     0.245 C 
ATOM      5  O   UNL     1       0.492   1.926   0.399  1.00  0.00    -0.272 OA
ATOM      6  H   UNL     1      -1.062   2.539  -1.290  1.00  0.00     0.163 HD
BRANCH   4   7
ATOM      7  C   UNL     1       2.330   2.198  -1.206  1.00  0.00     0.119 C 
ATOM      8  C   UNL     1       3.093   3.509  -0.946  1.00  0.00     0.038 C 
ATOM      9  C   UNL     1       2.573   1.868  -2.687  1.00  0.00     0.038 C 
ATOM     10  C   UNL     1       3.415   4.149  -2.288  1.00  0.00     0.003 C 
ATOM     11  C   UNL     1       3.169   3.101  -3.361  1.00  0.00     0.003 C 
BRANCH   7  12
ATOM     12  N   UNL     1       2.930   1.138  -0.361  1.00  0.00    -0.341 N 
ATOM     13  O   UNL     1       1.583  -0.562  -1.127  1.00  0.00    -0.275 OA
ATOM     14  C   UNL     1       2.485  -0.169  -0.393  1.00  0.00     0.225 C 
ATOM     15  H   UNL     1       3.671   1.374   0.243  1.00  0.00     0.164 HD
BRANCH  14  16
ATOM     16  C   UNL     1       3.274  -1.108   0.505  1.00  0.00     0.135 C 
BRANCH  16  17
ATOM     17  C   UNL     1       4.106  -2.053  -0.328  1.00  0.00    -0.036 A 
ATOM     18  C   UNL     1       3.832  -3.428  -0.335  1.00  0.00     0.007 A 
ATOM     19  C   UNL     1       5.112  -1.547  -1.168  1.00  0.00     0.046 A 
ATOM     20  C   UNL     1       4.532  -4.280  -1.193  1.00  0.00     0.043 A 
ATOM     21  C   UNL     1       5.796  -2.402  -2.024  1.00  0.00     0.159 A 
ATOM     22  C   UNL     1       5.505  -3.759  -2.040  1.00  0.00     0.158 A 
ATOM     23  F   UNL     1       6.730  -1.898  -2.842  1.00  0.00    -0.204 F 
ATOM     24  F   UNL     1       6.156  -4.579  -2.876  1.00  0.00    -0.204 F 
ENDBRANCH  16  17
ENDBRANCH  14  16
ENDBRANCH   7  12
ENDBRANCH   4   7
ENDBRANCH   2   3
ENDBRANCH   1   2
BRANCH   1  25
ATOM     25  C   UNL     1      -2.229   3.438  -3.736  1.00  0.00     0.118 C 
BRANCH  25  26
ATOM     26  N   UNL     1      -2.843   4.700  -3.330  1.00  0.00    -0.352 N 
ATOM     27  C   UNL     1      -3.613   5.586  -4.048  1.00  0.00     0.251 C 
ATOM     28  H   UNL     1      -2.680   4.958  -2.394  1.00  0.00     0.163 HD
ATOM     29  O   UNL     1      -3.835   6.703  -3.603  1.00  0.00    -0.269 OA
BRANCH  27  30
ATOM     30  C   UNL     1      -4.157   5.179  -5.360  1.00  0.00     0.039 A 
ATOM     31  C   UNL     1      -4.132   6.078  -6.429  1.00  0.00     0.014 A 
ATOM     32  C   UNL     1      -4.683   3.898  -5.529  1.00  0.00     0.014 A 
ATOM     33  C   UNL     1      -4.555   5.656  -7.692  1.00  0.00     0.010 A 
ATOM     34  C   UNL     1      -5.001   3.449  -6.801  1.00  0.00     0.010 A 
ATOM     35  C   UNL     1      -4.948   4.324  -7.896  1.00  0.00    -0.014 A 
BRANCH  35  36
ATOM     36  C   UNL     1      -5.333   3.803  -9.231  1.00  0.00     0.031 A 
ATOM     37  C   UNL     1      -6.710   3.228  -9.426  1.00  0.00     0.074 A 
ATOM     38  C   UNL     1      -4.418   3.740 -10.218  1.00  0.00     0.049 A 
ATOM     39  N   UNL     1      -7.191   2.558 -10.440  1.00  0.00    -0.248 NA
ATOM     40  C   UNL     1      -7.660   3.391  -8.311  1.00  0.00     0.031 C 
ATOM     41  C   UNL     1      -3.039   4.226 -10.131  1.00  0.00     0.029 A 
ATOM     42  N   UNL     1      -4.502   3.215 -11.484  1.00  0.00    -0.354 N 
ATOM     43  C   UNL     1      -8.481   2.195 -10.073  1.00  0.00     0.074 A 
ATOM     44  C   UNL     1      -8.689   2.668  -8.724  1.00  0.00     0.031 C 
ATOM     45  C   UNL     1      -2.413   3.990 -11.295  1.00  0.00     0.029 A 
ATOM     46  C   UNL     1      -3.326   3.290 -12.193  1.00  0.00     0.049 A 
ATOM     47  H   UNL     1      -5.327   2.822 -11.850  1.00  0.00     0.167 HD
ATOM     48  C   UNL     1      -9.416   1.546 -10.806  1.00  0.00     0.037 A 
ATOM     49  C   UNL     1      -3.013   2.827 -13.419  1.00  0.00     0.037 A 
ATOM     50  C   UNL     1      -9.207   1.116 -12.162  1.00  0.00     0.049 A 
ATOM     51  C   UNL     1      -4.067   2.107 -14.217  1.00  0.00     0.074 A 
ATOM     52  C   UNL     1     -10.107   0.508 -13.019  1.00  0.00     0.029 A 
ATOM     53  N   UNL     1      -8.014   1.250 -12.860  1.00  0.00    -0.354 N 
ATOM     54  N   UNL     1      -5.303   1.821 -13.878  1.00  0.00    -0.248 NA
ATOM     55  C   UNL     1      -3.692   1.647 -15.561  1.00  0.00     0.031 C 
ATOM     56  C   UNL     1      -9.445   0.231 -14.218  1.00  0.00     0.029 A 
ATOM     57  C   UNL     1      -8.150   0.719 -14.130  1.00  0.00     0.049 A 
ATOM     58  H   UNL     1      -7.194   1.661 -12.503  1.00  0.00     0.167 HD
ATOM     59  C   UNL     1      -5.862   1.182 -14.979  1.00  0.00     0.074 A 
ATOM     60  C   UNL     1      -4.831   1.122 -15.994  1.00  0.00     0.031 C 
ATOM     61  C   UNL     1      -7.117   0.695 -15.136  1.00  0.00     0.037 A 
BRANCH  48  62
ATOM     62  C   UNL     1     -10.745   1.269 -10.160  1.00  0.00     0.058 A 
ATOM     63  C   UNL     1     -11.647   2.301  -9.851  1.00  0.00     0.135 A 
ATOM     64  C   UNL     1     -11.139  -0.048  -9.872  1.00  0.00     0.135 A 
ATOM     65  F   UNL     1     -11.317   3.581 -10.089  1.00  0.00    -0.206 F 
ATOM     66  C   UNL     1     -12.874   2.042  -9.251  1.00  0.00     0.059 A 
ATOM     67  C   UNL     1     -12.375  -0.334  -9.301  1.00  0.00     0.059 A 
ATOM     68  F   UNL     1     -10.317  -1.074 -10.144  1.00  0.00    -0.206 F 
ATOM     69  C   UNL     1     -13.229   0.720  -8.980  1.00  0.00     0.060 A 
BRANCH  69  70
ATOM     70  S   UNL     1     -14.828   0.401  -8.206  1.00  0.00     0.124 S 
ATOM     71  O   UNL     1     -14.593   0.878  -6.846  1.00  0.00    -0.237 OA
ATOM     72  O   UNL     1     -15.733   1.214  -9.013  1.00  0.00    -0.237 OA
ATOM     73  O   UNL     1     -14.993  -1.042  -8.345  1.00  0.00    -0.744 OA
ENDBRANCH  69  70
ENDBRANCH  48  62
BRANCH  49  74
ATOM     74  C   UNL     1      -1.649   3.048 -13.973  1.00  0.00     0.058 A 
ATOM     75  C   UNL     1      -1.440   3.938 -15.036  1.00  0.00     0.135 A 
ATOM     76  C   UNL     1      -0.527   2.393 -13.439  1.00  0.00     0.135 A 
ATOM     77  F   UNL     1      -2.480   4.584 -15.584  1.00  0.00    -0.206 F 
ATOM     78  C   UNL     1      -0.171   4.162 -15.562  1.00  0.00     0.059 A 
ATOM     79  C   UNL     1       0.755   2.621 -13.931  1.00  0.00     0.059 A 
ATOM     80  F   UNL     1      -0.669   1.545 -12.409  1.00  0.00    -0.206 F 
ATOM     81  C   UNL     1       0.922   3.500 -15.000  1.00  0.00     0.060 A 
BRANCH  81  82
ATOM     82  S   UNL     1       2.569   3.837 -15.659  1.00  0.00     0.124 S 
ATOM     83  O   UNL     1       2.513   3.162 -16.950  1.00  0.00    -0.237 OA
ATOM     84  O   UNL     1       2.589   5.296 -15.701  1.00  0.00    -0.237 OA
ATOM     85  O   UNL     1       3.457   3.235 -14.669  1.00  0.00    -0.744 OA
ENDBRANCH  81  82
ENDBRANCH  49  74
BRANCH  61  86
ATOM     86  C   UNL     1      -7.479   0.101 -16.468  1.00  0.00     0.058 A 
ATOM     87  C   UNL     1      -7.027  -1.167 -16.861  1.00  0.00     0.135 A 
ATOM     88  C   UNL     1      -8.386   0.768 -17.310  1.00  0.00     0.135 A 
ATOM     89  F   UNL     1      -6.153  -1.840 -16.097  1.00  0.00    -0.206 F 
ATOM     90  C   UNL     1      -7.465  -1.757 -18.042  1.00  0.00     0.059 A 
ATOM     91  C   UNL     1      -8.857   0.185 -18.481  1.00  0.00     0.059 A 
ATOM     92  F   UNL     1      -8.854   1.980 -16.974  1.00  0.00    -0.206 F 
ATOM     93  C   UNL     1      -8.390  -1.078 -18.839  1.00  0.00     0.060 A 
BRANCH  93  94
ATOM     94  S   UNL     1      -9.015  -1.894 -20.323  1.00  0.00     0.124 S 
ATOM     95  O   UNL     1      -7.855  -1.829 -21.206  1.00  0.00    -0.237 OA
ATOM     96  O   UNL     1      -9.360  -3.222 -19.826  1.00  0.00    -0.237 OA
ATOM     97  O   UNL     1     -10.150  -1.064 -20.716  1.00  0.00    -0.744 OA
ENDBRANCH  93  94
ENDBRANCH  61  86
ENDBRANCH  35  36
ENDBRANCH  27  30
ENDBRANCH  25  26
ENDBRANCH   1  25
TORSDOF 16
