REMARK SMILES O=C(COc1ccccc1/C=C1/SC(=O)N(c2ccc(F)cc2)C1=O)NCCCNC(=O)c1ccc(-c2c3nc(c(-c4c(F)cc(S(=O)(=O)[O-])cc4F)c4ccc([nH]4)c(-c4c(F)cc(S(=O)(=O)[O-])cc4F)c4nc(c(-c5c(F)cc(S(=O)(=O)[O-])cc5F)c5ccc2[nH]5)C=C4)C=C3)cc1
REMARK SMILES IDX 27 1 26 2 1 3 2 4 3 6 4 7 5 8 6 9 10 10 7 11 9 12 8 13 11 14
REMARK SMILES IDX 12 15 13 16 24 17 14 18 16 19 25 20 15 21 17 22 18 23 23 24
REMARK SMILES IDX 19 25 22 26 20 27 21 28 28 29 29 30 30 31 31 32 32 34 33 35
REMARK SMILES IDX 34 36 98 37 35 38 97 39 36 40 37 41 38 42 91 43 39 44 96 45
REMARK SMILES IDX 90 46 92 47 40 48 95 49 89 50 88 51 41 53 75 54 54 55 74 56
REMARK SMILES IDX 55 57 58 58 73 59 93 60 56 61 57 62 72 64 94 65 59 66 42 67
REMARK SMILES IDX 43 68 52 69 44 70 45 71 51 72 53 73 46 74 47 75 48 76 49 77
REMARK SMILES IDX 50 78 76 79 77 80 86 81 78 82 79 83 85 84 87 85 80 86 81 87
REMARK SMILES IDX 82 88 83 89 84 90 60 91 61 92 70 93 62 94 63 95 69 96 71 97
REMARK SMILES IDX 64 98 65 99 66 100 67 101 68 102
REMARK H PARENT 26 5 30 33 92 52 58 63
REMARK Flexibility Score: inf
ROOT
ATOM      1  C   UNL     1       2.772  -1.567  -2.080  1.00  0.00     0.117 C 
ENDROOT
BRANCH   1   2
ATOM      2  N   UNL     1       3.155  -0.236  -0.488  1.00  0.00    -0.353 N 
ATOM      3  O   UNL     1       1.971   1.791   0.229  1.00  0.00    -0.271 OA
ATOM      4  C   UNL     1       2.738   0.854   0.425  1.00  0.00     0.257 C 
ATOM      5  H   UNL     1       4.077  -0.444  -0.213  1.00  0.00     0.163 HD
BRANCH   4   6
ATOM      6  C   UNL     1       3.378   0.711   1.814  1.00  0.00     0.329 C 
BRANCH   6   7
ATOM      7  O   UNL     1       3.939  -0.558   2.084  1.00  0.00    -0.483 OA
BRANCH   7   8
ATOM      8  C   UNL     1       3.142  -1.498   2.700  1.00  0.00     0.127 A 
ATOM      9  C   UNL     1       3.781  -2.105   3.787  1.00  0.00     0.047 A 
ATOM     10  C   UNL     1       1.931  -2.043   2.201  1.00  0.00     0.018 A 
ATOM     11  C   UNL     1       3.258  -3.257   4.367  1.00  0.00     0.004 A 
ATOM     12  C   UNL     1       1.423  -3.208   2.797  1.00  0.00     0.012 A 
ATOM     13  C   UNL     1       2.090  -3.818   3.861  1.00  0.00     0.001 A 
BRANCH  10  14
ATOM     14  C   UNL     1       1.212  -1.573   1.010  1.00  0.00     0.033 C 
ATOM     15  C   UNL     1       1.835  -1.622  -0.179  1.00  0.00     0.084 C 
ATOM     16  S   UNL     1       1.323   0.047  -1.651  1.00  0.00    -0.022 SA
ATOM     17  C   UNL     1       3.740  -2.112  -0.308  1.00  0.00     0.272 C 
ATOM     18  C   UNL     1       3.579   0.339  -2.225  1.00  0.00     0.298 C 
ATOM     19  N   UNL     1       4.569  -0.973  -1.458  1.00  0.00    -0.236 N 
ATOM     20  O   UNL     1       4.239  -3.078   0.249  1.00  0.00    -0.268 OA
ATOM     21  O   UNL     1       3.909   1.266  -2.946  1.00  0.00    -0.260 OA
BRANCH  19  22
ATOM     22  C   UNL     1       5.978  -1.093  -1.663  1.00  0.00     0.053 A 
ATOM     23  C   UNL     1       6.625  -2.306  -1.378  1.00  0.00     0.030 A 
ATOM     24  C   UNL     1       6.744  -0.021  -2.133  1.00  0.00     0.030 A 
ATOM     25  C   UNL     1       8.005  -2.446  -1.541  1.00  0.00     0.041 A 
ATOM     26  C   UNL     1       8.132  -0.157  -2.279  1.00  0.00     0.041 A 
ATOM     27  C   UNL     1       8.749  -1.366  -1.980  1.00  0.00     0.123 A 
ATOM     28  F   UNL     1      10.075  -1.490  -2.115  1.00  0.00    -0.207 F 
ENDBRANCH  19  22
ENDBRANCH  10  14
ENDBRANCH   7   8
ENDBRANCH   6   7
ENDBRANCH   4   6
ENDBRANCH   1   2
BRANCH   1  29
ATOM     29  C   UNL     1       2.695  -1.315  -3.752  1.00  0.00     0.042 C 
BRANCH  29  30
ATOM     30  C   UNL     1       3.979  -1.519  -4.548  1.00  0.00     0.118 C 
BRANCH  30  31
ATOM     31  N   UNL     1       4.580  -2.841  -4.446  1.00  0.00    -0.352 N 
ATOM     32  C   UNL     1       5.524  -3.359  -5.312  1.00  0.00     0.251 C 
ATOM     33  H   UNL     1       4.290  -3.413  -3.699  1.00  0.00     0.163 HD
ATOM     34  O   UNL     1       5.952  -4.498  -5.183  1.00  0.00    -0.269 OA
BRANCH  32  35
ATOM     35  C   UNL     1       5.934  -2.503  -6.443  1.00  0.00     0.039 A 
ATOM     36  C   UNL     1       5.556  -2.871  -7.734  1.00  0.00     0.014 A 
ATOM     37  C   UNL     1       6.492  -1.250  -6.185  1.00  0.00     0.014 A 
ATOM     38  C   UNL     1       5.672  -1.942  -8.768  1.00  0.00     0.010 A 
ATOM     39  C   UNL     1       6.522  -0.300  -7.197  1.00  0.00     0.010 A 
ATOM     40  C   UNL     1       6.115  -0.636  -8.500  1.00  0.00    -0.014 A 
BRANCH  40  41
ATOM     41  C   UNL     1       6.198   0.389  -9.571  1.00  0.00     0.031 A 
ATOM     42  C   UNL     1       7.542   0.959  -9.935  1.00  0.00     0.074 A 
ATOM     43  C   UNL     1       5.079   0.848 -10.168  1.00  0.00     0.049 A 
ATOM     44  N   UNL     1       7.834   1.920 -10.771  1.00  0.00    -0.248 NA
ATOM     45  C   UNL     1       8.710   0.393  -9.239  1.00  0.00     0.031 C 
ATOM     46  C   UNL     1       3.715   0.405  -9.871  1.00  0.00     0.029 A 
ATOM     47  N   UNL     1       4.910   1.801 -11.143  1.00  0.00    -0.354 N 
ATOM     48  C   UNL     1       9.211   2.085 -10.686  1.00  0.00     0.074 A 
ATOM     49  C   UNL     1       9.688   1.171  -9.674  1.00  0.00     0.031 C 
ATOM     50  C   UNL     1       2.854   1.067 -10.662  1.00  0.00     0.029 A 
ATOM     51  C   UNL     1       3.596   2.010 -11.493  1.00  0.00     0.049 A 
ATOM     52  H   UNL     1       5.660   2.289 -11.553  1.00  0.00     0.167 HD
ATOM     53  C   UNL     1      10.010   2.904 -11.408  1.00  0.00     0.037 A 
ATOM     54  C   UNL     1       3.054   2.870 -12.379  1.00  0.00     0.037 A 
ATOM     55  C   UNL     1       9.531   3.785 -12.438  1.00  0.00     0.049 A 
ATOM     56  C   UNL     1       3.963   3.775 -13.171  1.00  0.00     0.074 A 
ATOM     57  C   UNL     1      10.263   4.618 -13.264  1.00  0.00     0.029 A 
ATOM     58  N   UNL     1       8.197   3.946 -12.783  1.00  0.00    -0.354 N 
ATOM     59  N   UNL     1       5.270   3.877 -13.121  1.00  0.00    -0.248 NA
ATOM     60  C   UNL     1       3.329   4.677 -14.143  1.00  0.00     0.031 C 
ATOM     61  C   UNL     1       9.368   5.315 -14.081  1.00  0.00     0.029 A 
ATOM     62  C   UNL     1       8.083   4.876 -13.802  1.00  0.00     0.049 A 
ATOM     63  H   UNL     1       7.444   3.469 -12.366  1.00  0.00     0.167 HD
ATOM     64  C   UNL     1       5.617   4.823 -14.079  1.00  0.00     0.074 A 
ATOM     65  C   UNL     1       4.383   5.265 -14.694  1.00  0.00     0.031 C 
ATOM     66  C   UNL     1       6.846   5.280 -14.422  1.00  0.00     0.037 A 
BRANCH  53  67
ATOM     67  C   UNL     1      11.483   2.877 -11.110  1.00  0.00     0.058 A 
ATOM     68  C   UNL     1      12.279   1.764 -11.428  1.00  0.00     0.135 A 
ATOM     69  C   UNL     1      12.112   3.984 -10.519  1.00  0.00     0.135 A 
ATOM     70  F   UNL     1      11.726   0.671 -11.976  1.00  0.00    -0.206 F 
ATOM     71  C   UNL     1      13.639   1.737 -11.140  1.00  0.00     0.059 A 
ATOM     72  C   UNL     1      13.478   3.991 -10.251  1.00  0.00     0.059 A 
ATOM     73  F   UNL     1      11.399   5.073 -10.192  1.00  0.00    -0.206 F 
ATOM     74  C   UNL     1      14.229   2.856 -10.551  1.00  0.00     0.060 A 
BRANCH  74  75
ATOM     75  S   UNL     1      15.996   2.805 -10.188  1.00  0.00     0.124 S 
ATOM     76  O   UNL     1      16.033   1.895  -9.048  1.00  0.00    -0.237 OA
ATOM     77  O   UNL     1      16.555   2.285 -11.432  1.00  0.00    -0.237 OA
ATOM     78  O   UNL     1      16.323   4.196  -9.891  1.00  0.00    -0.744 OA
ENDBRANCH  74  75
ENDBRANCH  53  67
BRANCH  54  79
ATOM     79  C   UNL     1       1.579   2.902 -12.586  1.00  0.00     0.058 A 
ATOM     80  C   UNL     1       1.006   2.441 -13.780  1.00  0.00     0.135 A 
ATOM     81  C   UNL     1       0.712   3.389 -11.595  1.00  0.00     0.135 A 
ATOM     82  F   UNL     1       1.791   1.972 -14.763  1.00  0.00    -0.206 F 
ATOM     83  C   UNL     1      -0.369   2.476 -13.994  1.00  0.00     0.059 A 
ATOM     84  C   UNL     1      -0.668   3.411 -11.774  1.00  0.00     0.059 A 
ATOM     85  F   UNL     1       1.206   3.830 -10.427  1.00  0.00    -0.206 F 
ATOM     86  C   UNL     1      -1.199   2.961 -12.982  1.00  0.00     0.060 A 
BRANCH  86  87
ATOM     87  S   UNL     1      -2.985   2.960 -13.253  1.00  0.00     0.124 S 
ATOM     88  O   UNL     1      -3.137   4.042 -14.218  1.00  0.00    -0.237 OA
ATOM     89  O   UNL     1      -3.216   1.612 -13.764  1.00  0.00    -0.237 OA
ATOM     90  O   UNL     1      -3.526   3.219 -11.922  1.00  0.00    -0.744 OA
ENDBRANCH  86  87
ENDBRANCH  54  79
BRANCH  66  91
ATOM     91  C   UNL     1       6.940   6.268 -15.552  1.00  0.00     0.058 A 
ATOM     92  C   UNL     1       6.569   7.611 -15.395  1.00  0.00     0.135 A 
ATOM     93  C   UNL     1       7.511   5.881 -16.776  1.00  0.00     0.135 A 
ATOM     94  F   UNL     1       6.014   8.030 -14.246  1.00  0.00    -0.206 F 
ATOM     95  C   UNL     1       6.757   8.538 -16.415  1.00  0.00     0.059 A 
ATOM     96  C   UNL     1       7.732   6.796 -17.799  1.00  0.00     0.059 A 
ATOM     97  F   UNL     1       7.892   4.609 -16.973  1.00  0.00    -0.206 F 
ATOM     98  C   UNL     1       7.348   8.123 -17.610  1.00  0.00     0.060 A 
BRANCH  98  99
ATOM     99  S   UNL     1       7.654   9.352 -18.897  1.00  0.00     0.124 S 
ATOM    100  O   UNL     1       6.306   9.597 -19.397  1.00  0.00    -0.237 OA
ATOM    101  O   UNL     1       8.261  10.446 -18.145  1.00  0.00    -0.237 OA
ATOM    102  O   UNL     1       8.550   8.662 -19.821  1.00  0.00    -0.744 OA
ENDBRANCH  98  99
ENDBRANCH  66  91
ENDBRANCH  40  41
ENDBRANCH  32  35
ENDBRANCH  30  31
ENDBRANCH  29  30
ENDBRANCH   1  29
TORSDOF 17
