REMARK SMILES O=C(NCCCNC(=O)c1cc(/C=C/c2cc(O)cc(O)c2)ccc1O)c1ccc(-c2c3nc(c(-c4c(F)cc(S(=O)(=O)[O-])cc4F)c4ccc([nH]4)c(-c4c(F)cc(S(=O)(=O)[O-])cc4F)c4nc(c(-c5c(F)cc(S(=O)(=O)[O-])cc5F)c5ccc2[nH]5)C=C4)C=C3)cc1
REMARK SMILES IDX 5 1 4 2 3 3 1 4 2 5 27 7 28 8 92 9 29 10 91 11 30 12 31 13
REMARK SMILES IDX 32 14 85 15 33 16 90 17 84 18 86 19 34 20 89 21 83 22 82 23
REMARK SMILES IDX 35 25 69 26 48 27 68 28 49 29 52 30 67 31 87 32 50 33 51 34
REMARK SMILES IDX 66 36 88 37 53 38 36 39 37 40 46 41 38 42 39 43 45 44 47 45
REMARK SMILES IDX 40 46 41 47 42 48 43 49 44 50 70 51 71 52 80 53 72 54 73 55
REMARK SMILES IDX 79 56 81 57 74 58 75 59 76 60 77 61 78 62 54 63 55 64 64 65
REMARK SMILES IDX 56 66 57 67 63 68 65 69 58 70 59 71 60 72 61 73 62 74 6 75
REMARK SMILES IDX 7 76 8 77 9 79 10 80 11 81 25 82 12 83 24 84 23 85 26 86
REMARK SMILES IDX 13 88 14 89 15 90 16 91 22 92 17 93 20 94 19 95 18 96 21 98
REMARK H PARENT 3 6 86 24 52 35 7 78 26 87 18 97 21 99
REMARK Flexibility Score: inf
ROOT
ATOM      1  C   UNL     1       4.941  -0.378   2.288  1.00  0.00     0.042 C 
ENDROOT
BRANCH   1   2
ATOM      2  C   UNL     1       4.507  -0.917   0.934  1.00  0.00     0.118 C 
BRANCH   2   3
ATOM      3  N   UNL     1       3.061  -0.908   0.758  1.00  0.00    -0.352 N 
ATOM      4  O   UNL     1       1.051  -0.157   0.088  1.00  0.00    -0.269 OA
ATOM      5  C   UNL     1       2.272  -0.137  -0.058  1.00  0.00     0.251 C 
ATOM      6  H   UNL     1       2.573  -1.558   1.313  1.00  0.00     0.163 HD
BRANCH   5   7
ATOM      7  C   UNL     1       2.879   0.733  -1.088  1.00  0.00     0.039 A 
ATOM      8  C   UNL     1       3.935   0.281  -1.884  1.00  0.00     0.014 A 
ATOM      9  C   UNL     1       2.359   2.015  -1.283  1.00  0.00     0.014 A 
ATOM     10  C   UNL     1       4.567   1.155  -2.764  1.00  0.00     0.010 A 
ATOM     11  C   UNL     1       2.936   2.861  -2.233  1.00  0.00     0.010 A 
ATOM     12  C   UNL     1       4.064   2.449  -2.960  1.00  0.00    -0.014 A 
BRANCH  12  13
ATOM     13  C   UNL     1       4.679   3.346  -3.969  1.00  0.00     0.031 A 
ATOM     14  C   UNL     1       5.308   4.646  -3.559  1.00  0.00     0.074 A 
ATOM     15  C   UNL     1       4.628   2.997  -5.269  1.00  0.00     0.049 A 
ATOM     16  N   UNL     1       5.797   5.600  -4.310  1.00  0.00    -0.248 NA
ATOM     17  C   UNL     1       5.389   4.916  -2.116  1.00  0.00     0.031 C 
ATOM     18  C   UNL     1       4.040   1.759  -5.786  1.00  0.00     0.029 A 
ATOM     19  N   UNL     1       5.058   3.655  -6.393  1.00  0.00    -0.354 N 
ATOM     20  C   UNL     1       6.216   6.596  -3.436  1.00  0.00     0.074 A 
ATOM     21  C   UNL     1       5.904   6.138  -2.098  1.00  0.00     0.031 C 
ATOM     22  C   UNL     1       4.145   1.746  -7.121  1.00  0.00     0.029 A 
ATOM     23  C   UNL     1       4.744   3.002  -7.561  1.00  0.00     0.049 A 
ATOM     24  H   UNL     1       5.543   4.511  -6.367  1.00  0.00     0.167 HD
ATOM     25  C   UNL     1       6.807   7.781  -3.727  1.00  0.00     0.037 A 
ATOM     26  C   UNL     1       4.877   3.384  -8.845  1.00  0.00     0.037 A 
ATOM     27  C   UNL     1       7.109   8.219  -5.066  1.00  0.00     0.049 A 
ATOM     28  C   UNL     1       5.498   4.715  -9.150  1.00  0.00     0.074 A 
ATOM     29  C   UNL     1       7.742   9.382  -5.468  1.00  0.00     0.029 A 
ATOM     30  N   UNL     1       6.782   7.523  -6.223  1.00  0.00    -0.354 N 
ATOM     31  N   UNL     1       5.926   5.630  -8.314  1.00  0.00    -0.248 NA
ATOM     32  C   UNL     1       5.658   5.069 -10.566  1.00  0.00     0.031 C 
ATOM     33  C   UNL     1       7.745   9.418  -6.866  1.00  0.00     0.029 A 
ATOM     34  C   UNL     1       7.174   8.245  -7.338  1.00  0.00     0.049 A 
ATOM     35  H   UNL     1       6.338   6.645  -6.247  1.00  0.00     0.167 HD
ATOM     36  C   UNL     1       6.432   6.658  -9.100  1.00  0.00     0.074 A 
ATOM     37  C   UNL     1       6.254   6.252 -10.480  1.00  0.00     0.031 C 
ATOM     38  C   UNL     1       7.001   7.825  -8.710  1.00  0.00     0.037 A 
BRANCH  25  39
ATOM     39  C   UNL     1       7.121   8.703  -2.578  1.00  0.00     0.058 A 
ATOM     40  C   UNL     1       8.108   8.400  -1.625  1.00  0.00     0.135 A 
ATOM     41  C   UNL     1       6.417   9.909  -2.424  1.00  0.00     0.135 A 
ATOM     42  F   UNL     1       8.808   7.258  -1.716  1.00  0.00    -0.206 F 
ATOM     43  C   UNL     1       8.345   9.230  -0.533  1.00  0.00     0.059 A 
ATOM     44  C   UNL     1       6.661  10.771  -1.358  1.00  0.00     0.059 A 
ATOM     45  F   UNL     1       5.469  10.257  -3.309  1.00  0.00    -0.206 F 
ATOM     46  C   UNL     1       7.608  10.408  -0.402  1.00  0.00     0.060 A 
BRANCH  46  47
ATOM     47  S   UNL     1       7.885  11.443   1.050  1.00  0.00     0.124 S 
ATOM     48  O   UNL     1       7.248  10.649   2.097  1.00  0.00    -0.237 OA
ATOM     49  O   UNL     1       9.341  11.517   1.110  1.00  0.00    -0.237 OA
ATOM     50  O   UNL     1       7.209  12.692   0.713  1.00  0.00    -0.744 OA
ENDBRANCH  46  47
ENDBRANCH  25  39
BRANCH  26  51
ATOM     51  C   UNL     1       4.387   2.479  -9.917  1.00  0.00     0.058 A 
ATOM     52  C   UNL     1       5.280   1.758 -10.720  1.00  0.00     0.135 A 
ATOM     53  C   UNL     1       3.013   2.243 -10.088  1.00  0.00     0.135 A 
ATOM     54  F   UNL     1       6.602   1.952 -10.596  1.00  0.00    -0.206 F 
ATOM     55  C   UNL     1       4.830   0.824 -11.648  1.00  0.00     0.059 A 
ATOM     56  C   UNL     1       2.540   1.296 -10.989  1.00  0.00     0.059 A 
ATOM     57  F   UNL     1       2.119   2.895  -9.327  1.00  0.00    -0.206 F 
ATOM     58  C   UNL     1       3.458   0.590 -11.765  1.00  0.00     0.060 A 
BRANCH  58  59
ATOM     59  S   UNL     1       2.894  -0.699 -12.897  1.00  0.00     0.124 S 
ATOM     60  O   UNL     1       3.147  -0.082 -14.194  1.00  0.00    -0.237 OA
ATOM     61  O   UNL     1       3.761  -1.817 -12.541  1.00  0.00    -0.237 OA
ATOM     62  O   UNL     1       1.488  -0.868 -12.541  1.00  0.00    -0.744 OA
ENDBRANCH  58  59
ENDBRANCH  26  51
BRANCH  38  63
ATOM     63  C   UNL     1       7.524   8.743  -9.779  1.00  0.00     0.058 A 
ATOM     64  C   UNL     1       6.670   9.523 -10.571  1.00  0.00     0.135 A 
ATOM     65  C   UNL     1       8.910   8.923  -9.932  1.00  0.00     0.135 A 
ATOM     66  F   UNL     1       5.339   9.380 -10.474  1.00  0.00    -0.206 F 
ATOM     67  C   UNL     1       7.170  10.457 -11.474  1.00  0.00     0.059 A 
ATOM     68  C   UNL     1       9.431   9.867 -10.809  1.00  0.00     0.059 A 
ATOM     69  F   UNL     1       9.770   8.202  -9.194  1.00  0.00    -0.206 F 
ATOM     70  C   UNL     1       8.553  10.631 -11.575  1.00  0.00     0.060 A 
BRANCH  70  71
ATOM     71  S   UNL     1       9.186  11.910 -12.682  1.00  0.00     0.124 S 
ATOM     72  O   UNL     1       8.930  11.321 -13.992  1.00  0.00    -0.237 OA
ATOM     73  O   UNL     1       8.359  13.061 -12.331  1.00  0.00    -0.237 OA
ATOM     74  O   UNL     1      10.592  12.019 -12.307  1.00  0.00    -0.744 OA
ENDBRANCH  70  71
ENDBRANCH  38  63
ENDBRANCH  12  13
ENDBRANCH   5   7
ENDBRANCH   2   3
ENDBRANCH   1   2
BRANCH   1  75
ATOM     75  C   UNL     1       4.447  -1.190   3.475  1.00  0.00     0.118 C 
BRANCH  75  76
ATOM     76  N   UNL     1       4.908  -2.569   3.447  1.00  0.00    -0.352 N 
ATOM     77  C   UNL     1       5.557  -3.288   4.417  1.00  0.00     0.255 C 
ATOM     78  H   UNL     1       4.729  -3.056   2.610  1.00  0.00     0.163 HD
ATOM     79  O   UNL     1       5.933  -4.434   4.177  1.00  0.00    -0.269 OA
BRANCH  77  80
ATOM     80  C   UNL     1       5.885  -2.679   5.723  1.00  0.00     0.082 A 
ATOM     81  C   UNL     1       7.222  -2.772   6.142  1.00  0.00     0.025 A 
ATOM     82  C   UNL     1       4.935  -2.075   6.551  1.00  0.00     0.128 A 
ATOM     83  C   UNL     1       7.633  -2.223   7.362  1.00  0.00    -0.025 A 
ATOM     84  C   UNL     1       5.333  -1.494   7.752  1.00  0.00     0.047 A 
ATOM     85  C   UNL     1       6.674  -1.565   8.148  1.00  0.00     0.012 A 
BRANCH  82  86
ATOM     86  O   UNL     1       3.615  -2.052   6.200  1.00  0.00    -0.507 OA
ATOM     87  H   UNL     1       3.338  -2.440   5.394  1.00  0.00     0.293 HD
ENDBRANCH  82  86
BRANCH  83  88
ATOM     88  C   UNL     1       9.011  -2.324   7.879  1.00  0.00     0.009 C 
ATOM     89  C   UNL     1      10.034  -2.961   7.284  1.00  0.00     0.009 C 
BRANCH  89  90
ATOM     90  C   UNL     1      11.368  -3.068   7.890  1.00  0.00    -0.018 A 
ATOM     91  C   UNL     1      11.535  -3.475   9.222  1.00  0.00     0.054 A 
ATOM     92  C   UNL     1      12.499  -2.828   7.098  1.00  0.00     0.054 A 
ATOM     93  C   UNL     1      12.818  -3.616   9.748  1.00  0.00     0.119 A 
ATOM     94  C   UNL     1      13.772  -2.973   7.647  1.00  0.00     0.119 A 
ATOM     95  C   UNL     1      13.940  -3.365   8.969  1.00  0.00     0.092 A 
BRANCH  93  96
ATOM     96  O   UNL     1      13.012  -4.014  11.040  1.00  0.00    -0.508 OA
ATOM     97  H   UNL     1      12.276  -4.191  11.591  1.00  0.00     0.293 HD
ENDBRANCH  93  96
BRANCH  94  98
ATOM     98  O   UNL     1      14.894  -2.742   6.905  1.00  0.00    -0.508 OA
ATOM     99  H   UNL     1      15.741  -2.845   7.292  1.00  0.00     0.293 HD
ENDBRANCH  94  98
ENDBRANCH  89  90
ENDBRANCH  83  88
ENDBRANCH  77  80
ENDBRANCH  75  76
ENDBRANCH   1  75
TORSDOF 18
