REMARK SMILES CC[N@@H+]1CCO[C@H](C[NH2+][C@@H]2CCC[C@H](C(=O)NCCCNC(=O)c3ccc(-c4c5nc(c(-c6c(F)cc(S(=O)(=O)[O-])cc6F)c6ccc([nH]6)c(-c6c(F)cc(S(=O)(=O)[O-])cc6F)c6nc(c(-c7c(F)cc(S(=O)(=O)[O-])cc7F)c7ccc4[nH]7)C=C6)C=C5)cc3)C2)C1
REMARK SMILES IDX 18 1 17 2 15 3 16 4 14 6 10 7 11 8 90 9 12 10 13 11 9 12
REMARK SMILES IDX 8 15 7 16 3 17 4 18 91 19 5 21 6 22 2 23 1 24 19 25 20 26
REMARK SMILES IDX 21 27 22 28 23 30 24 31 25 32 89 33 26 34 88 35 27 36 28 37
REMARK SMILES IDX 29 38 82 39 30 40 87 41 81 42 83 43 31 44 86 45 80 46 79 47
REMARK SMILES IDX 32 49 66 50 45 51 65 52 46 53 49 54 64 55 84 56 47 57 48 58
REMARK SMILES IDX 63 60 85 61 50 62 33 63 34 64 43 65 35 66 36 67 42 68 44 69
REMARK SMILES IDX 37 70 38 71 39 72 40 73 41 74 67 75 68 76 77 77 69 78 70 79
REMARK SMILES IDX 76 80 78 81 71 82 72 83 73 84 74 85 75 86 51 87 52 88 61 89
REMARK SMILES IDX 53 90 54 91 60 92 62 93 55 94 56 95 57 96 58 97 59 98
REMARK H PARENT 17 5 9 13 9 14 3 20 21 29 83 48 49 59
REMARK Flexibility Score: inf
ROOT
ATOM      1  C   UNL     1       3.002  -1.156   4.358  1.00  0.00     0.117 C 
ENDROOT
BRANCH   1   2
ATOM      2  N   UNL     1       2.318  -1.812   5.461  1.00  0.00    -0.356 N 
ATOM      3  C   UNL     1       1.002  -2.086   5.667  1.00  0.00     0.223 C 
ATOM      4  O   UNL     1       0.692  -2.669   6.709  1.00  0.00    -0.275 OA
ATOM      5  H   UNL     1       2.913  -2.111   6.186  1.00  0.00     0.163 HD
BRANCH   3   6
ATOM      6  C   UNL     1      -0.069  -1.686   4.661  1.00  0.00     0.084 C 
ATOM      7  C   UNL     1      -0.793  -1.884   2.196  1.00  0.00     0.183 C 
ATOM      8  C   UNL     1      -0.764  -0.340   2.161  1.00  0.00     0.065 C 
ATOM      9  C   UNL     1       0.101  -2.427   3.322  1.00  0.00     0.078 C 
ATOM     10  C   UNL     1      -1.154   0.281   3.490  1.00  0.00     0.007 C 
ATOM     11  C   UNL     1      -0.197  -0.161   4.582  1.00  0.00     0.014 C 
BRANCH   7  12
ATOM     12  N   UNL     1      -0.433  -2.568   0.925  1.00  0.00    -0.341 N 
ATOM     13  H   UNL     1       0.068  -3.428   1.148  1.00  0.00     0.346 HD
ATOM     14  H   UNL     1      -1.300  -2.755   0.421  1.00  0.00     0.346 HD
BRANCH  12  15
ATOM     15  C   UNL     1       0.416  -1.743   0.056  1.00  0.00     0.299 C 
BRANCH  15  16
ATOM     16  C   UNL     1       0.772  -2.272  -1.345  1.00  0.00     0.227 C 
ATOM     17  N   UNL     1       1.084  -0.050  -2.627  1.00  0.00    -0.331 N 
ATOM     18  C   UNL     1      -0.080  -0.474  -3.432  1.00  0.00     0.291 C 
ATOM     19  C   UNL     1       1.713  -1.264  -2.067  1.00  0.00     0.300 C 
ATOM     20  H   UNL     1       1.819   0.392  -3.179  1.00  0.00     0.348 HD
ATOM     21  C   UNL     1      -1.039  -1.416  -2.679  1.00  0.00     0.222 C 
ATOM     22  O   UNL     1      -0.385  -2.575  -2.149  1.00  0.00    -0.361 OA
BRANCH  17  23
ATOM     23  C   UNL     1       0.721   1.042  -1.712  1.00  0.00     0.258 C 
ATOM     24  C   UNL     1       1.733   1.402  -0.628  1.00  0.00     0.071 C 
ENDBRANCH  17  23
ENDBRANCH  15  16
ENDBRANCH  12  15
ENDBRANCH   7  12
ENDBRANCH   3   6
ENDBRANCH   1   2
BRANCH   1  25
ATOM     25  C   UNL     1       3.675   0.142   4.777  1.00  0.00     0.042 C 
BRANCH  25  26
ATOM     26  C   UNL     1       4.796  -0.040   5.788  1.00  0.00     0.118 C 
BRANCH  26  27
ATOM     27  N   UNL     1       5.902  -0.829   5.263  1.00  0.00    -0.352 N 
ATOM     28  C   UNL     1       7.221  -0.490   5.092  1.00  0.00     0.251 C 
ATOM     29  H   UNL     1       5.668  -1.745   4.989  1.00  0.00     0.163 HD
ATOM     30  O   UNL     1       7.956  -1.237   4.445  1.00  0.00    -0.269 OA
BRANCH  28  31
ATOM     31  C   UNL     1       7.754   0.766   5.661  1.00  0.00     0.039 A 
ATOM     32  C   UNL     1       8.669   1.514   4.917  1.00  0.00     0.014 A 
ATOM     33  C   UNL     1       7.371   1.199   6.934  1.00  0.00     0.014 A 
ATOM     34  C   UNL     1       9.157   2.720   5.427  1.00  0.00     0.010 A 
ATOM     35  C   UNL     1       7.777   2.446   7.395  1.00  0.00     0.010 A 
ATOM     36  C   UNL     1       8.692   3.211   6.658  1.00  0.00    -0.014 A 
BRANCH  36  37
ATOM     37  C   UNL     1       9.176   4.502   7.211  1.00  0.00     0.031 A 
ATOM     38  C   UNL     1       9.913   4.526   8.525  1.00  0.00     0.074 A 
ATOM     39  C   UNL     1       8.904   5.654   6.566  1.00  0.00     0.049 A 
ATOM     40  N   UNL     1      10.356   5.551   9.206  1.00  0.00    -0.248 NA
ATOM     41  C   UNL     1      10.156   3.228   9.175  1.00  0.00     0.031 C 
ATOM     42  C   UNL     1       8.156   5.766   5.312  1.00  0.00     0.029 A 
ATOM     43  N   UNL     1       9.217   6.952   6.881  1.00  0.00    -0.354 N 
ATOM     44  C   UNL     1      10.911   5.024  10.367  1.00  0.00     0.074 A 
ATOM     45  C   UNL     1      10.690   3.595  10.329  1.00  0.00     0.031 C 
ATOM     46  C   UNL     1       8.091   7.057   4.952  1.00  0.00     0.029 A 
ATOM     47  C   UNL     1       8.756   7.870   5.967  1.00  0.00     0.049 A 
ATOM     48  H   UNL     1       9.725   7.203   7.686  1.00  0.00     0.167 HD
ATOM     49  C   UNL     1      11.569   5.666  11.362  1.00  0.00     0.037 A 
ATOM     50  C   UNL     1       8.851   9.214   5.951  1.00  0.00     0.037 A 
ATOM     51  C   UNL     1      11.805   7.086  11.380  1.00  0.00     0.049 A 
ATOM     52  C   UNL     1       9.590   9.907   7.064  1.00  0.00     0.074 A 
ATOM     53  C   UNL     1      12.506   7.830  12.312  1.00  0.00     0.029 A 
ATOM     54  N   UNL     1      11.344   7.978  10.422  1.00  0.00    -0.354 N 
ATOM     55  N   UNL     1      10.161   9.387   8.125  1.00  0.00    -0.248 NA
ATOM     56  C   UNL     1       9.709  11.368   6.972  1.00  0.00     0.031 C 
ATOM     57  C   UNL     1      12.425   9.178  11.946  1.00  0.00     0.029 A 
ATOM     58  C   UNL     1      11.729   9.267  10.751  1.00  0.00     0.049 A 
ATOM     59  H   UNL     1      10.821   7.731   9.625  1.00  0.00     0.167 HD
ATOM     60  C   UNL     1      10.738  10.453   8.808  1.00  0.00     0.074 A 
ATOM     61  C   UNL     1      10.453  11.644   8.035  1.00  0.00     0.031 C 
ATOM     62  C   UNL     1      11.446  10.444   9.965  1.00  0.00     0.037 A 
BRANCH  49  63
ATOM     63  C   UNL     1      12.076   4.835  12.512  1.00  0.00     0.058 A 
ATOM     64  C   UNL     1      13.114   3.902  12.351  1.00  0.00     0.135 A 
ATOM     65  C   UNL     1      11.529   4.986  13.797  1.00  0.00     0.135 A 
ATOM     66  F   UNL     1      13.665   3.704  11.143  1.00  0.00    -0.206 F 
ATOM     67  C   UNL     1      13.562   3.120  13.411  1.00  0.00     0.059 A 
ATOM     68  C   UNL     1      11.986   4.239  14.879  1.00  0.00     0.059 A 
ATOM     69  F   UNL     1      10.536   5.863  14.011  1.00  0.00    -0.206 F 
ATOM     70  C   UNL     1      12.990   3.295  14.671  1.00  0.00     0.060 A 
BRANCH  70  71
ATOM     71  S   UNL     1      13.578   2.267  16.034  1.00  0.00     0.124 S 
ATOM     72  O   UNL     1      13.017   0.967  15.681  1.00  0.00    -0.237 OA
ATOM     73  O   UNL     1      15.027   2.386  15.910  1.00  0.00    -0.237 OA
ATOM     74  O   UNL     1      12.998   2.901  17.214  1.00  0.00    -0.744 OA
ENDBRANCH  70  71
ENDBRANCH  49  63
BRANCH  50  75
ATOM     75  C   UNL     1       8.259   9.985   4.825  1.00  0.00     0.058 A 
ATOM     76  C   UNL     1       9.073  10.628   3.881  1.00  0.00     0.135 A 
ATOM     77  C   UNL     1       6.868  10.076   4.656  1.00  0.00     0.135 A 
ATOM     78  F   UNL     1      10.409  10.576   4.001  1.00  0.00    -0.206 F 
ATOM     79  C   UNL     1       8.533  11.346   2.818  1.00  0.00     0.059 A 
ATOM     80  C   UNL     1       6.304  10.764   3.586  1.00  0.00     0.059 A 
ATOM     81  F   UNL     1       6.044   9.464   5.521  1.00  0.00    -0.206 F 
ATOM     82  C   UNL     1       7.146  11.403   2.677  1.00  0.00     0.060 A 
BRANCH  82  83
ATOM     83  S   UNL     1       6.457  12.288   1.261  1.00  0.00     0.124 S 
ATOM     84  O   UNL     1       6.730  13.675   1.619  1.00  0.00    -0.237 OA
ATOM     85  O   UNL     1       7.238  11.748   0.154  1.00  0.00    -0.237 OA
ATOM     86  O   UNL     1       5.050  11.898   1.274  1.00  0.00    -0.744 OA
ENDBRANCH  82  83
ENDBRANCH  50  75
BRANCH  62  87
ATOM     87  C   UNL     1      12.011  11.755  10.443  1.00  0.00     0.058 A 
ATOM     88  C   UNL     1      11.196  12.778  10.951  1.00  0.00     0.135 A 
ATOM     89  C   UNL     1      13.399  11.970  10.429  1.00  0.00     0.135 A 
ATOM     90  F   UNL     1       9.862  12.627  10.984  1.00  0.00    -0.206 F 
ATOM     91  C   UNL     1      11.734  13.981  11.398  1.00  0.00     0.059 A 
ATOM     92  C   UNL     1      13.961  13.151  10.902  1.00  0.00     0.059 A 
ATOM     93  F   UNL     1      14.227  11.020   9.965  1.00  0.00    -0.206 F 
ATOM     94  C   UNL     1      13.119  14.158  11.370  1.00  0.00     0.060 A 
BRANCH  94  95
ATOM     95  S   UNL     1      13.806  15.715  11.970  1.00  0.00     0.124 S 
ATOM     96  O   UNL     1      13.438  16.632  10.896  1.00  0.00    -0.237 OA
ATOM     97  O   UNL     1      13.098  15.902  13.233  1.00  0.00    -0.237 OA
ATOM     98  O   UNL     1      15.233  15.433  12.094  1.00  0.00    -0.744 OA
ENDBRANCH  94  95
ENDBRANCH  62  87
ENDBRANCH  36  37
ENDBRANCH  28  31
ENDBRANCH  26  27
ENDBRANCH  25  26
ENDBRANCH   1  25
TORSDOF 17
