REMARK SMILES O=C(C[C@@H](NS(=O)(=O)c1ccc(Cl)cc1)c1ccc(F)cc1)NCCCNC(=O)c1ccc(-c2c3nc(c(-c4c(F)cc(S(=O)(=O)[O-])cc4F)c4ccc([nH]4)c(-c4c(F)cc(S(=O)(=O)[O-])cc4F)c4nc(c(-c5c(F)cc(S(=O)(=O)[O-])cc5F)c5ccc2[nH]5)C=C4)C=C3)cc1
REMARK SMILES IDX 24 1 23 2 1 3 2 4 3 6 4 7 5 8 6 10 7 11 8 12 9 13 10 14
REMARK SMILES IDX 15 15 11 16 14 17 12 18 13 19 16 20 17 21 22 22 18 23 21 24
REMARK SMILES IDX 19 25 20 26 25 27 26 28 27 29 28 30 29 32 30 33 31 34 95 35
REMARK SMILES IDX 32 36 94 37 33 38 34 39 35 40 88 41 36 42 93 43 87 44 89 45
REMARK SMILES IDX 37 46 92 47 86 48 85 49 38 51 72 52 51 53 71 54 52 55 55 56
REMARK SMILES IDX 70 57 90 58 53 59 54 60 69 62 91 63 56 64 39 65 40 66 49 67
REMARK SMILES IDX 41 68 42 69 48 70 50 71 43 72 44 73 45 74 46 75 47 76 73 77
REMARK SMILES IDX 74 78 83 79 75 80 76 81 82 82 84 83 77 84 78 85 79 86 80 87
REMARK SMILES IDX 81 88 57 89 58 90 67 91 59 92 60 93 66 94 68 95 61 96 62 97
REMARK SMILES IDX 63 98 64 99 65 100
REMARK H PARENT 23 5 5 9 27 31 89 50 55 61
REMARK Flexibility Score: inf
ROOT
ATOM      1  C   UNL     1       2.233  -0.603   2.392  1.00  0.00     0.117 C 
ENDROOT
BRANCH   1   2
ATOM      2  N   UNL     1       2.819  -0.520   1.067  1.00  0.00    -0.356 N 
ATOM      3  O   UNL     1       1.282   0.983   0.246  1.00  0.00    -0.275 OA
ATOM      4  C   UNL     1       2.292   0.305   0.097  1.00  0.00     0.221 C 
ATOM      5  H   UNL     1       3.611  -1.066   0.856  1.00  0.00     0.163 HD
BRANCH   4   6
ATOM      6  C   UNL     1       3.112   0.361  -1.167  1.00  0.00     0.124 C 
BRANCH   6   7
ATOM      7  C   UNL     1       3.981   1.630  -1.155  1.00  0.00     0.109 C 
BRANCH   7   8
ATOM      8  N   UNL     1       5.118   1.446  -0.217  1.00  0.00    -0.203 NA
ATOM      9  H   UNL     1       5.803   0.854  -0.687  1.00  0.00     0.142 HD
BRANCH   8  10
ATOM     10  S   UNL     1       5.940   2.816   0.336  1.00  0.00     0.241 S 
ATOM     11  O   UNL     1       4.981   3.892   0.443  1.00  0.00    -0.207 OA
ATOM     12  O   UNL     1       6.712   2.370   1.474  1.00  0.00    -0.207 OA
BRANCH  10  13
ATOM     13  C   UNL     1       7.091   3.198  -0.954  1.00  0.00     0.082 A 
ATOM     14  C   UNL     1       7.870   2.182  -1.516  1.00  0.00     0.023 A 
ATOM     15  C   UNL     1       7.163   4.508  -1.439  1.00  0.00     0.023 A 
ATOM     16  C   UNL     1       8.697   2.475  -2.603  1.00  0.00     0.022 A 
ATOM     17  C   UNL     1       7.997   4.796  -2.520  1.00  0.00     0.022 A 
ATOM     18  C   UNL     1       8.749   3.777  -3.106  1.00  0.00     0.041 A 
ATOM     19  Cl  UNL     1       9.737   4.127  -4.470  1.00  0.00    -0.084 Cl
ENDBRANCH  10  13
ENDBRANCH   8  10
ENDBRANCH   7   8
BRANCH   7  20
ATOM     20  C   UNL     1       4.482   1.931  -2.561  1.00  0.00    -0.029 A 
ATOM     21  C   UNL     1       4.313   3.218  -3.099  1.00  0.00     0.008 A 
ATOM     22  C   UNL     1       5.170   0.965  -3.319  1.00  0.00     0.008 A 
ATOM     23  C   UNL     1       4.828   3.532  -4.359  1.00  0.00     0.039 A 
ATOM     24  C   UNL     1       5.675   1.279  -4.581  1.00  0.00     0.039 A 
ATOM     25  C   UNL     1       5.504   2.561  -5.087  1.00  0.00     0.123 A 
ATOM     26  F   UNL     1       6.007   2.868  -6.289  1.00  0.00    -0.207 F 
ENDBRANCH   7  20
ENDBRANCH   6   7
ENDBRANCH   4   6
ENDBRANCH   1   2
BRANCH   1  27
ATOM     27  C   UNL     1       2.449  -1.960   3.051  1.00  0.00     0.042 C 
BRANCH  27  28
ATOM     28  C   UNL     1       3.904  -2.313   3.346  1.00  0.00     0.118 C 
BRANCH  28  29
ATOM     29  N   UNL     1       4.529  -1.438   4.324  1.00  0.00    -0.352 N 
ATOM     30  C   UNL     1       5.307  -1.764   5.411  1.00  0.00     0.251 C 
ATOM     31  H   UNL     1       4.374  -0.475   4.189  1.00  0.00     0.163 HD
ATOM     32  O   UNL     1       5.645  -0.885   6.199  1.00  0.00    -0.269 OA
BRANCH  30  33
ATOM     33  C   UNL     1       5.706  -3.169   5.656  1.00  0.00     0.039 A 
ATOM     34  C   UNL     1       5.584  -3.680   6.951  1.00  0.00     0.014 A 
ATOM     35  C   UNL     1       6.196  -3.980   4.628  1.00  0.00     0.014 A 
ATOM     36  C   UNL     1       5.879  -5.023   7.199  1.00  0.00     0.010 A 
ATOM     37  C   UNL     1       6.433  -5.335   4.864  1.00  0.00     0.010 A 
ATOM     38  C   UNL     1       6.266  -5.872   6.149  1.00  0.00    -0.014 A 
BRANCH  38  39
ATOM     39  C   UNL     1       6.464  -7.327   6.377  1.00  0.00     0.031 A 
ATOM     40  C   UNL     1       7.823  -7.950   6.222  1.00  0.00     0.074 A 
ATOM     41  C   UNL     1       5.400  -8.100   6.674  1.00  0.00     0.049 A 
ATOM     42  N   UNL     1       8.168  -9.208   6.322  1.00  0.00    -0.248 NA
ATOM     43  C   UNL     1       8.936  -7.046   5.894  1.00  0.00     0.031 C 
ATOM     44  C   UNL     1       4.021  -7.624   6.813  1.00  0.00     0.029 A 
ATOM     45  N   UNL     1       5.308  -9.450   6.909  1.00  0.00    -0.354 N 
ATOM     46  C   UNL     1       9.532  -9.250   6.061  1.00  0.00     0.074 A 
ATOM     47  C   UNL     1       9.944  -7.896   5.756  1.00  0.00     0.031 C 
ATOM     48  C   UNL     1       3.229  -8.657   7.138  1.00  0.00     0.029 A 
ATOM     49  C   UNL     1       4.032  -9.875   7.195  1.00  0.00     0.049 A 
ATOM     50  H   UNL     1       6.083 -10.056   6.876  1.00  0.00     0.167 HD
ATOM     51  C   UNL     1      10.368 -10.315   6.095  1.00  0.00     0.037 A 
ATOM     52  C   UNL     1       3.559 -11.106   7.470  1.00  0.00     0.037 A 
ATOM     53  C   UNL     1       9.963 -11.656   6.428  1.00  0.00     0.049 A 
ATOM     54  C   UNL     1       4.505 -12.272   7.500  1.00  0.00     0.074 A 
ATOM     55  C   UNL     1      10.750 -12.790   6.537  1.00  0.00     0.029 A 
ATOM     56  N   UNL     1       8.662 -12.046   6.709  1.00  0.00    -0.354 N 
ATOM     57  N   UNL     1       5.798 -12.286   7.284  1.00  0.00    -0.248 NA
ATOM     58  C   UNL     1       3.931 -13.589   7.808  1.00  0.00     0.031 C 
ATOM     59  C   UNL     1       9.921 -13.871   6.854  1.00  0.00     0.029 A 
ATOM     60  C   UNL     1       8.622 -13.405   6.976  1.00  0.00     0.049 A 
ATOM     61  H   UNL     1       7.882 -11.446   6.717  1.00  0.00     0.167 HD
ATOM     62  C   UNL     1       6.195 -13.609   7.441  1.00  0.00     0.074 A 
ATOM     63  C   UNL     1       5.008 -14.364   7.785  1.00  0.00     0.031 C 
ATOM     64  C   UNL     1       7.432 -14.147   7.309  1.00  0.00     0.037 A 
BRANCH  51  65
ATOM     65  C   UNL     1      11.817 -10.074   5.779  1.00  0.00     0.058 A 
ATOM     66  C   UNL     1      12.375 -10.540   4.578  1.00  0.00     0.135 A 
ATOM     67  C   UNL     1      12.667  -9.428   6.691  1.00  0.00     0.135 A 
ATOM     68  F   UNL     1      11.606 -11.159   3.669  1.00  0.00    -0.206 F 
ATOM     69  C   UNL     1      13.728 -10.382   4.296  1.00  0.00     0.059 A 
ATOM     70  C   UNL     1      14.018  -9.239   6.420  1.00  0.00     0.059 A 
ATOM     71  F   UNL     1      12.177  -8.945   7.843  1.00  0.00    -0.206 F 
ATOM     72  C   UNL     1      14.543  -9.731   5.225  1.00  0.00     0.060 A 
BRANCH  72  73
ATOM     73  S   UNL     1      16.288  -9.492   4.827  1.00  0.00     0.124 S 
ATOM     74  O   UNL     1      16.821 -10.838   5.002  1.00  0.00    -0.237 OA
ATOM     75  O   UNL     1      16.227  -9.005   3.452  1.00  0.00    -0.237 OA
ATOM     76  O   UNL     1      16.725  -8.506   5.811  1.00  0.00    -0.744 OA
ENDBRANCH  72  73
ENDBRANCH  51  65
BRANCH  52  77
ATOM     77  C   UNL     1       2.115 -11.286   7.770  1.00  0.00     0.058 A 
ATOM     78  C   UNL     1       1.143 -11.185   6.763  1.00  0.00     0.135 A 
ATOM     79  C   UNL     1       1.680 -11.519   9.083  1.00  0.00     0.135 A 
ATOM     80  F   UNL     1       1.510 -10.954   5.493  1.00  0.00    -0.206 F 
ATOM     81  C   UNL     1      -0.213 -11.283   7.052  1.00  0.00     0.059 A 
ATOM     82  C   UNL     1       0.329 -11.640   9.393  1.00  0.00     0.059 A 
ATOM     83  F   UNL     1       2.576 -11.635  10.074  1.00  0.00    -0.206 F 
ATOM     84  C   UNL     1      -0.611 -11.502   8.372  1.00  0.00     0.060 A 
BRANCH  84  85
ATOM     85  S   UNL     1      -2.378 -11.600   8.732  1.00  0.00     0.124 S 
ATOM     86  O   UNL     1      -2.781 -10.205   8.582  1.00  0.00    -0.237 OA
ATOM     87  O   UNL     1      -2.852 -12.513   7.698  1.00  0.00    -0.237 OA
ATOM     88  O   UNL     1      -2.415 -12.123  10.094  1.00  0.00    -0.744 OA
ENDBRANCH  84  85
ENDBRANCH  52  77
BRANCH  64  89
ATOM     89  C   UNL     1       7.572 -15.624   7.539  1.00  0.00     0.058 A 
ATOM     90  C   UNL     1       8.190 -16.112   8.702  1.00  0.00     0.135 A 
ATOM     91  C   UNL     1       7.151 -16.556   6.578  1.00  0.00     0.135 A 
ATOM     92  F   UNL     1       8.612 -15.262   9.651  1.00  0.00    -0.206 F 
ATOM     93  C   UNL     1       8.397 -17.473   8.897  1.00  0.00     0.059 A 
ATOM     94  C   UNL     1       7.330 -17.924   6.762  1.00  0.00     0.059 A 
ATOM     95  F   UNL     1       6.543 -16.139   5.455  1.00  0.00    -0.206 F 
ATOM     96  C   UNL     1       7.969 -18.371   7.919  1.00  0.00     0.060 A 
BRANCH  96  97
ATOM     97  S   UNL     1       8.229 -20.137   8.193  1.00  0.00     0.124 S 
ATOM     98  O   UNL     1       9.661 -20.268   7.950  1.00  0.00    -0.237 OA
ATOM     99  O   UNL     1       7.802 -20.303   9.579  1.00  0.00    -0.237 OA
ATOM    100  O   UNL     1       7.362 -20.764   7.199  1.00  0.00    -0.744 OA
ENDBRANCH  96  97
ENDBRANCH  64  89
ENDBRANCH  38  39
ENDBRANCH  30  33
ENDBRANCH  28  29
ENDBRANCH  27  28
ENDBRANCH   1  27
TORSDOF 18
