REMARK SMILES Cc1cc(C)c2c(c1)C=C(C(=O)NCCCNC(=O)c1ccc(-c3c4nc(c(-c5c(F)cc(S(=O)(=O)[O-])cc5F)c5ccc([nH]5)c(-c5c(F)cc(S(=O)(=O)[O-])cc5F)c5nc(c(-c6c(F)cc(S(=O)(=O)[O-])cc6F)c6ccc3[nH]6)C=C5)C=C4)cc1)[C@@H](C(F)(F)F)O2
REMARK SMILES IDX 16 1 15 2 14 3 13 4 11 5 12 6 10 8 1 9 2 10 3 11 8 12 4 13
REMARK SMILES IDX 7 14 5 15 6 16 9 17 91 18 86 19 87 20 88 21 89 22 90 23
REMARK SMILES IDX 17 24 18 25 19 27 20 28 21 29 85 30 22 31 84 32 23 33 24 34
REMARK SMILES IDX 25 35 78 36 26 37 83 38 77 39 79 40 27 41 82 42 76 43 75 44
REMARK SMILES IDX 28 46 62 47 41 48 61 49 42 50 45 51 60 52 80 53 43 54 44 55
REMARK SMILES IDX 59 57 81 58 46 59 29 60 30 61 39 62 31 63 32 64 38 65 40 66
REMARK SMILES IDX 33 67 34 68 35 69 36 70 37 71 63 72 64 73 73 74 65 75 66 76
REMARK SMILES IDX 72 77 74 78 67 79 68 80 69 81 70 82 71 83 47 84 48 85 57 86
REMARK SMILES IDX 49 87 50 88 56 89 58 90 51 91 52 92 53 93 54 94 55 95
REMARK H PARENT 13 7 17 26 79 45 45 56
REMARK Flexibility Score: inf
ROOT
ATOM      1  C   UNL     1       1.113  11.238   1.227  1.00  0.00     0.118 C 
ENDROOT
BRANCH   1   2
ATOM      2  C   UNL     1       0.244   9.998   1.062  1.00  0.00     0.042 C 
BRANCH   2   3
ATOM      3  C   UNL     1       0.499   9.289  -0.260  1.00  0.00     0.118 C 
BRANCH   3   4
ATOM      4  N   UNL     1       1.731   8.513  -0.232  1.00  0.00    -0.352 N 
ATOM      5  C   UNL     1       2.082   7.207  -0.171  1.00  0.00     0.251 C 
ATOM      6  O   UNL     1       3.298   6.991  -0.174  1.00  0.00    -0.270 OA
ATOM      7  H   UNL     1       2.523   9.096  -0.268  1.00  0.00     0.163 HD
BRANCH   5   8
ATOM      8  C   UNL     1       1.128   6.063  -0.112  1.00  0.00     0.067 C 
ATOM      9  C   UNL     1       1.022  -0.124  -0.036  1.00  0.00     0.044 C 
ATOM     10  C   UNL     1       0.477   1.271   0.049  1.00  0.00    -0.050 A 
ATOM     11  C   UNL     1      -0.904   1.470   0.181  1.00  0.00     0.010 A 
ATOM     12  C   UNL     1       1.329   2.382  -0.010  1.00  0.00     0.015 A 
ATOM     13  C   UNL     1      -1.440   2.760   0.265  1.00  0.00    -0.008 A 
ATOM     14  C   UNL     1       0.807   3.677   0.064  1.00  0.00     0.018 A 
ATOM     15  C   UNL     1      -2.921   2.968   0.410  1.00  0.00     0.048 C 
ATOM     16  C   UNL     1      -0.572   3.856   0.199  1.00  0.00     0.130 A 
ATOM     17  C   UNL     1       1.681   4.844   0.035  1.00  0.00     0.025 C 
ATOM     18  O   UNL     1      -1.127   5.100   0.317  1.00  0.00    -0.475 OA
ATOM     19  C   UNL     1      -0.362   6.198  -0.242  1.00  0.00     0.314 C 
BRANCH  19  20
ATOM     20  C   UNL     1      -0.810   6.443  -1.696  1.00  0.00     0.429 C 
ATOM     21  F   UNL     1      -2.080   6.918  -1.728  1.00  0.00    -0.167 F 
ATOM     22  F   UNL     1      -0.043   7.361  -2.331  1.00  0.00    -0.167 F 
ATOM     23  F   UNL     1      -0.778   5.323  -2.452  1.00  0.00    -0.167 F 
ENDBRANCH  19  20
ENDBRANCH   5   8
ENDBRANCH   3   4
ENDBRANCH   2   3
ENDBRANCH   1   2
BRANCH   1  24
ATOM     24  N   UNL     1       0.784  12.265   0.241  1.00  0.00    -0.352 N 
ATOM     25  C   UNL     1       0.066  13.426   0.379  1.00  0.00     0.251 C 
ATOM     26  H   UNL     1       1.132  12.097  -0.665  1.00  0.00     0.163 HD
ATOM     27  O   UNL     1      -0.346  14.008  -0.622  1.00  0.00    -0.269 OA
BRANCH  25  28
ATOM     28  C   UNL     1      -0.212  13.969   1.723  1.00  0.00     0.039 A 
ATOM     29  C   UNL     1      -1.465  14.521   1.996  1.00  0.00     0.014 A 
ATOM     30  C   UNL     1       0.779  13.954   2.708  1.00  0.00     0.014 A 
ATOM     31  C   UNL     1      -1.742  14.997   3.279  1.00  0.00     0.010 A 
ATOM     32  C   UNL     1       0.471  14.334   4.007  1.00  0.00     0.010 A 
ATOM     33  C   UNL     1      -0.787  14.875   4.303  1.00  0.00    -0.014 A 
BRANCH  33  34
ATOM     34  C   UNL     1      -1.074  15.336   5.683  1.00  0.00     0.031 A 
ATOM     35  C   UNL     1      -0.262  16.451   6.284  1.00  0.00     0.074 A 
ATOM     36  C   UNL     1      -2.029  14.719   6.405  1.00  0.00     0.049 A 
ATOM     37  N   UNL     1      -0.336  16.971   7.481  1.00  0.00    -0.248 NA
ATOM     38  C   UNL     1       0.794  17.041   5.441  1.00  0.00     0.031 C 
ATOM     39  C   UNL     1      -2.840  13.588   5.944  1.00  0.00     0.029 A 
ATOM     40  N   UNL     1      -2.485  14.954   7.677  1.00  0.00    -0.354 N 
ATOM     41  C   UNL     1       0.659  17.939   7.535  1.00  0.00     0.074 A 
ATOM     42  C   UNL     1       1.374  17.886   6.280  1.00  0.00     0.031 C 
ATOM     43  C   UNL     1      -3.724  13.261   6.900  1.00  0.00     0.029 A 
ATOM     44  C   UNL     1      -3.521  14.132   8.054  1.00  0.00     0.049 A 
ATOM     45  H   UNL     1      -2.106  15.647   8.265  1.00  0.00     0.167 HD
ATOM     46  C   UNL     1       0.928  18.821   8.525  1.00  0.00     0.037 A 
ATOM     47  C   UNL     1      -4.232  14.093   9.197  1.00  0.00     0.037 A 
ATOM     48  C   UNL     1       0.186  18.891   9.754  1.00  0.00     0.049 A 
ATOM     49  C   UNL     1      -3.913  15.079  10.287  1.00  0.00     0.074 A 
ATOM     50  C   UNL     1       0.341  19.781  10.801  1.00  0.00     0.029 A 
ATOM     51  N   UNL     1      -0.856  18.043  10.097  1.00  0.00    -0.354 N 
ATOM     52  N   UNL     1      -3.007  16.028  10.296  1.00  0.00    -0.248 NA
ATOM     53  C   UNL     1      -4.708  14.993  11.520  1.00  0.00     0.031 C 
ATOM     54  C   UNL     1      -0.585  19.448  11.793  1.00  0.00     0.029 A 
ATOM     55  C   UNL     1      -1.344  18.377  11.347  1.00  0.00     0.049 A 
ATOM     56  H   UNL     1      -1.198  17.311   9.533  1.00  0.00     0.167 HD
ATOM     57  C   UNL     1      -3.137  16.666  11.524  1.00  0.00     0.074 A 
ATOM     58  C   UNL     1      -4.214  16.001  12.229  1.00  0.00     0.031 C 
ATOM     59  C   UNL     1      -2.427  17.707  12.023  1.00  0.00     0.037 A 
BRANCH  46  60
ATOM     60  C   UNL     1       2.048  19.799   8.305  1.00  0.00     0.058 A 
ATOM     61  C   UNL     1       1.927  20.850   7.382  1.00  0.00     0.135 A 
ATOM     62  C   UNL     1       3.236  19.713   9.048  1.00  0.00     0.135 A 
ATOM     63  F   UNL     1       0.819  20.968   6.633  1.00  0.00    -0.206 F 
ATOM     64  C   UNL     1       2.954  21.766   7.183  1.00  0.00     0.059 A 
ATOM     65  C   UNL     1       4.267  20.635   8.885  1.00  0.00     0.059 A 
ATOM     66  F   UNL     1       3.405  18.726   9.941  1.00  0.00    -0.206 F 
ATOM     67  C   UNL     1       4.120  21.651   7.941  1.00  0.00     0.060 A 
BRANCH  67  68
ATOM     68  S   UNL     1       5.436  22.857   7.676  1.00  0.00     0.124 S 
ATOM     69  O   UNL     1       5.932  22.463   6.361  1.00  0.00    -0.237 OA
ATOM     70  O   UNL     1       4.712  24.123   7.726  1.00  0.00    -0.237 OA
ATOM     71  O   UNL     1       6.350  22.615   8.789  1.00  0.00    -0.744 OA
ENDBRANCH  67  68
ENDBRANCH  46  60
BRANCH  47  72
ATOM     72  C   UNL     1      -5.347  13.119   9.342  1.00  0.00     0.058 A 
ATOM     73  C   UNL     1      -6.681  13.550   9.313  1.00  0.00     0.135 A 
ATOM     74  C   UNL     1      -5.108  11.742   9.470  1.00  0.00     0.135 A 
ATOM     75  F   UNL     1      -6.961  14.857   9.196  1.00  0.00    -0.206 F 
ATOM     76  C   UNL     1      -7.740  12.654   9.413  1.00  0.00     0.059 A 
ATOM     77  C   UNL     1      -6.150  10.823   9.550  1.00  0.00     0.059 A 
ATOM     78  F   UNL     1      -3.849  11.277   9.485  1.00  0.00    -0.206 F 
ATOM     79  C   UNL     1      -7.464  11.290   9.525  1.00  0.00     0.060 A 
BRANCH  79  80
ATOM     80  S   UNL     1      -8.848  10.132   9.593  1.00  0.00     0.124 S 
ATOM     81  O   UNL     1      -9.393  10.401  10.919  1.00  0.00    -0.237 OA
ATOM     82  O   UNL     1      -9.666  10.569   8.466  1.00  0.00    -0.237 OA
ATOM     83  O   UNL     1      -8.207   8.831   9.425  1.00  0.00    -0.744 OA
ENDBRANCH  79  80
ENDBRANCH  47  72
BRANCH  59  84
ATOM     84  C   UNL     1      -2.787  18.211  13.390  1.00  0.00     0.058 A 
ATOM     85  C   UNL     1      -2.392  17.523  14.546  1.00  0.00     0.135 A 
ATOM     86  C   UNL     1      -3.417  19.457  13.545  1.00  0.00     0.135 A 
ATOM     87  F   UNL     1      -1.795  16.325  14.449  1.00  0.00    -0.206 F 
ATOM     88  C   UNL     1      -2.600  18.058  15.812  1.00  0.00     0.059 A 
ATOM     89  C   UNL     1      -3.614  20.022  14.800  1.00  0.00     0.059 A 
ATOM     90  F   UNL     1      -3.805  20.157  12.466  1.00  0.00    -0.206 F 
ATOM     91  C   UNL     1      -3.198  19.315  15.928  1.00  0.00     0.060 A 
BRANCH  91  92
ATOM     92  S   UNL     1      -3.371  20.036  17.574  1.00  0.00     0.124 S 
ATOM     93  O   UNL     1      -4.419  19.202  18.153  1.00  0.00    -0.237 OA
ATOM     94  O   UNL     1      -2.035  19.856  18.134  1.00  0.00    -0.237 OA
ATOM     95  O   UNL     1      -3.750  21.420  17.302  1.00  0.00    -0.744 OA
ENDBRANCH  91  92
ENDBRANCH  59  84
ENDBRANCH  33  34
ENDBRANCH  25  28
ENDBRANCH   1  24
TORSDOF 14
