REMARK SMILES C[C@@H](C(=O)NCCCNC(=O)c1ccc(-c2c3nc(c(-c4c(F)cc(S(=O)(=O)[O-])cc4F)c4ccc([nH]4)c(-c4c(F)cc(S(=O)(=O)[O-])cc4F)c4nc(c(-c5c(F)cc(S(=O)(=O)[O-])cc5F)c5ccc2[nH]5)C=C4)C=C3)cc1)c1cccn(C(F)F)c1=O
REMARK SMILES IDX 7 1 6 2 5 3 3 4 4 5 2 7 1 8 78 9 79 10 86 11 80 12 82 13
REMARK SMILES IDX 87 14 81 15 83 16 84 17 85 18 8 19 9 20 10 21 11 23 12 24
REMARK SMILES IDX 13 25 77 26 14 27 76 28 15 29 16 30 17 31 70 32 18 33 75 34
REMARK SMILES IDX 69 35 71 36 19 37 74 38 68 39 67 40 20 42 54 43 33 44 53 45
REMARK SMILES IDX 34 46 37 47 52 48 72 49 35 50 36 51 51 53 73 54 38 55 21 56
REMARK SMILES IDX 22 57 31 58 23 59 24 60 30 61 32 62 25 63 26 64 27 65 28 66
REMARK SMILES IDX 29 67 55 68 56 69 65 70 57 71 58 72 64 73 66 74 59 75 60 76
REMARK SMILES IDX 61 77 62 78 63 79 39 80 40 81 49 82 41 83 42 84 48 85 50 86
REMARK SMILES IDX 43 87 44 88 45 89 46 90 47 91
REMARK H PARENT 5 6 9 22 71 41 37 52
REMARK Flexibility Score: inf
ROOT
ATOM      1  C   UNL     1       4.286  -1.161  -0.185  1.00  0.00     0.042 C 
ENDROOT
BRANCH   1   2
ATOM      2  C   UNL     1       3.356  -1.403  -1.376  1.00  0.00     0.117 C 
BRANCH   2   3
ATOM      3  N   UNL     1       2.344  -2.399  -1.077  1.00  0.00    -0.356 N 
ATOM      4  C   UNL     1       1.035  -2.265  -0.716  1.00  0.00     0.227 C 
ATOM      5  O   UNL     1       0.511  -3.275  -0.242  1.00  0.00    -0.274 OA
ATOM      6  H   UNL     1       2.655  -3.330  -1.147  1.00  0.00     0.163 HD
BRANCH   4   7
ATOM      7  C   UNL     1       0.306  -0.910  -0.878  1.00  0.00     0.111 C 
ATOM      8  C   UNL     1       0.668  -0.044   0.337  1.00  0.00     0.023 C 
BRANCH   7   9
ATOM      9  C   UNL     1      -1.214  -0.984  -1.045  1.00  0.00     0.030 A 
ATOM     10  C   UNL     1      -1.993  -2.083  -1.010  1.00  0.00     0.012 A 
ATOM     11  C   UNL     1      -1.921   0.338  -1.261  1.00  0.00     0.258 A 
ATOM     12  C   UNL     1      -3.431  -2.015  -1.033  1.00  0.00     0.019 A 
ATOM     13  N   UNL     1      -3.301   0.333  -1.148  1.00  0.00    -0.258 N 
ATOM     14  O   UNL     1      -1.275   1.354  -1.511  1.00  0.00    -0.269 OA
ATOM     15  C   UNL     1      -4.038  -0.828  -1.056  1.00  0.00     0.095 A 
BRANCH  13  16
ATOM     16  C   UNL     1      -3.983   1.601  -1.186  1.00  0.00     0.451 C 
ATOM     17  F   UNL     1      -4.779   1.657  -2.288  1.00  0.00    -0.185 F 
ATOM     18  F   UNL     1      -4.819   1.700  -0.116  1.00  0.00    -0.185 F 
ENDBRANCH  13  16
ENDBRANCH   7   9
ENDBRANCH   4   7
ENDBRANCH   2   3
ENDBRANCH   1   2
BRANCH   1  19
ATOM     19  C   UNL     1       5.013  -2.401   0.331  1.00  0.00     0.118 C 
BRANCH  19  20
ATOM     20  N   UNL     1       5.968  -2.937  -0.625  1.00  0.00    -0.352 N 
ATOM     21  C   UNL     1       7.315  -3.160  -0.489  1.00  0.00     0.251 C 
ATOM     22  H   UNL     1       5.591  -3.174  -1.503  1.00  0.00     0.163 HD
ATOM     23  O   UNL     1       7.975  -3.459  -1.485  1.00  0.00    -0.269 OA
BRANCH  21  24
ATOM     24  C   UNL     1       7.984  -3.026   0.826  1.00  0.00     0.039 A 
ATOM     25  C   UNL     1       9.233  -2.398   0.881  1.00  0.00     0.014 A 
ATOM     26  C   UNL     1       7.414  -3.540   1.994  1.00  0.00     0.014 A 
ATOM     27  C   UNL     1       9.879  -2.236   2.110  1.00  0.00     0.010 A 
ATOM     28  C   UNL     1       8.028  -3.317   3.227  1.00  0.00     0.010 A 
ATOM     29  C   UNL     1       9.269  -2.666   3.299  1.00  0.00    -0.014 A 
BRANCH  29  30
ATOM     30  C   UNL     1       9.916  -2.442   4.620  1.00  0.00     0.031 A 
ATOM     31  C   UNL     1      10.352  -3.610   5.464  1.00  0.00     0.074 A 
ATOM     32  C   UNL     1      10.063  -1.185   5.085  1.00  0.00     0.049 A 
ATOM     33  N   UNL     1      10.878  -3.613   6.662  1.00  0.00    -0.248 NA
ATOM     34  C   UNL     1      10.147  -4.952   4.897  1.00  0.00     0.031 C 
ATOM     35  C   UNL     1       9.642   0.031   4.385  1.00  0.00     0.029 A 
ATOM     36  N   UNL     1      10.598  -0.719   6.261  1.00  0.00    -0.354 N 
ATOM     37  C   UNL     1      11.055  -4.951   6.998  1.00  0.00     0.074 A 
ATOM     38  C   UNL     1      10.534  -5.732   5.896  1.00  0.00     0.031 C 
ATOM     39  C   UNL     1       9.952   1.101   5.134  1.00  0.00     0.029 A 
ATOM     40  C   UNL     1      10.560   0.650   6.382  1.00  0.00     0.049 A 
ATOM     41  H   UNL     1      10.974  -1.311   6.952  1.00  0.00     0.167 HD
ATOM     42  C   UNL     1      11.618  -5.480   8.111  1.00  0.00     0.037 A 
ATOM     43  C   UNL     1      10.963   1.454   7.386  1.00  0.00     0.037 A 
ATOM     44  C   UNL     1      12.159  -4.698   9.194  1.00  0.00     0.049 A 
ATOM     45  C   UNL     1      11.588   0.843   8.611  1.00  0.00     0.074 A 
ATOM     46  C   UNL     1      12.801  -5.141  10.337  1.00  0.00     0.029 A 
ATOM     47  N   UNL     1      12.120  -3.314   9.269  1.00  0.00    -0.354 N 
ATOM     48  N   UNL     1      11.801  -0.422   8.884  1.00  0.00    -0.248 NA
ATOM     49  C   UNL     1      12.035   1.768   9.661  1.00  0.00     0.031 C 
ATOM     50  C   UNL     1      13.114  -4.026  11.123  1.00  0.00     0.029 A 
ATOM     51  C   UNL     1      12.710  -2.886  10.447  1.00  0.00     0.049 A 
ATOM     52  H   UNL     1      11.730  -2.722   8.585  1.00  0.00     0.167 HD
ATOM     53  C   UNL     1      12.431  -0.443  10.124  1.00  0.00     0.074 A 
ATOM     54  C   UNL     1      12.574   0.936  10.542  1.00  0.00     0.031 C 
ATOM     55  C   UNL     1      12.853  -1.508  10.849  1.00  0.00     0.037 A 
BRANCH  42  56
ATOM     56  C   UNL     1      11.684  -6.980   8.213  1.00  0.00     0.058 A 
ATOM     57  C   UNL     1      12.546  -7.737   7.403  1.00  0.00     0.135 A 
ATOM     58  C   UNL     1      10.903  -7.668   9.156  1.00  0.00     0.135 A 
ATOM     59  F   UNL     1      13.306  -7.133   6.475  1.00  0.00    -0.206 F 
ATOM     60  C   UNL     1      12.609  -9.123   7.502  1.00  0.00     0.059 A 
ATOM     61  C   UNL     1      10.970  -9.052   9.292  1.00  0.00     0.059 A 
ATOM     62  F   UNL     1      10.063  -6.995   9.959  1.00  0.00    -0.206 F 
ATOM     63  C   UNL     1      11.815  -9.772   8.448  1.00  0.00     0.060 A 
BRANCH  63  64
ATOM     64  S   UNL     1      11.907 -11.572   8.563  1.00  0.00     0.124 S 
ATOM     65  O   UNL     1      11.186 -11.977   7.361  1.00  0.00    -0.237 OA
ATOM     66  O   UNL     1      13.347 -11.812   8.549  1.00  0.00    -0.237 OA
ATOM     67  O   UNL     1      11.238 -11.867   9.826  1.00  0.00    -0.744 OA
ENDBRANCH  63  64
ENDBRANCH  42  56
BRANCH  43  68
ATOM     68  C   UNL     1      10.808   2.928   7.265  1.00  0.00     0.058 A 
ATOM     69  C   UNL     1      11.925   3.758   7.089  1.00  0.00     0.135 A 
ATOM     70  C   UNL     1       9.543   3.534   7.308  1.00  0.00     0.135 A 
ATOM     71  F   UNL     1      13.156   3.226   7.048  1.00  0.00    -0.206 F 
ATOM     72  C   UNL     1      11.796   5.139   6.976  1.00  0.00     0.059 A 
ATOM     73  C   UNL     1       9.386   4.910   7.171  1.00  0.00     0.059 A 
ATOM     74  F   UNL     1       8.441   2.782   7.457  1.00  0.00    -0.206 F 
ATOM     75  C   UNL     1      10.521   5.705   7.016  1.00  0.00     0.060 A 
BRANCH  75  76
ATOM     76  S   UNL     1      10.360   7.493   6.816  1.00  0.00     0.124 S 
ATOM     77  O   UNL     1      10.832   7.976   8.109  1.00  0.00    -0.237 OA
ATOM     78  O   UNL     1      11.236   7.755   5.678  1.00  0.00    -0.237 OA
ATOM     79  O   UNL     1       8.935   7.674   6.555  1.00  0.00    -0.744 OA
ENDBRANCH  75  76
ENDBRANCH  43  68
BRANCH  55  80
ATOM     80  C   UNL     1      13.543  -1.227  12.155  1.00  0.00     0.058 A 
ATOM     81  C   UNL     1      12.837  -0.782  13.283  1.00  0.00     0.135 A 
ATOM     82  C   UNL     1      14.923  -1.450  12.290  1.00  0.00     0.135 A 
ATOM     83  F   UNL     1      11.518  -0.547  13.205  1.00  0.00    -0.206 F 
ATOM     84  C   UNL     1      13.479  -0.544  14.494  1.00  0.00     0.059 A 
ATOM     85  C   UNL     1      15.581  -1.244  13.499  1.00  0.00     0.059 A 
ATOM     86  F   UNL     1      15.644  -1.885  11.245  1.00  0.00    -0.206 F 
ATOM     87  C   UNL     1      14.852  -0.779  14.593  1.00  0.00     0.060 A 
BRANCH  87  88
ATOM     88  S   UNL     1      15.668  -0.496  16.178  1.00  0.00     0.124 S 
ATOM     89  O   UNL     1      15.728   0.961  16.222  1.00  0.00    -0.237 OA
ATOM     90  O   UNL     1      14.746  -1.122  17.121  1.00  0.00    -0.237 OA
ATOM     91  O   UNL     1      16.952  -1.173  16.024  1.00  0.00    -0.744 OA
ENDBRANCH  87  88
ENDBRANCH  55  80
ENDBRANCH  29  30
ENDBRANCH  21  24
ENDBRANCH  19  20
ENDBRANCH   1  19
TORSDOF 15
