REMARK SMILES CC(C)CSc1cc2c(cc1Cl)C=C(C(=O)NCCCNC(=O)c1ccc(-c3c4nc(c(-c5c(F)cc(S(=O)(=O)[O-])cc5F)c5ccc([nH]5)c(-c5c(F)cc(S(=O)(=O)[O-])cc5F)c5nc(c(-c6c(F)cc(S(=O)(=O)[O-])cc6F)c6ccc3[nH]6)C=C5)C=C4)cc1)[C@@H](C(F)(F)F)O2
REMARK SMILES IDX 19 1 18 2 17 3 15 4 16 5 14 7 6 8 7 9 11 10 8 11 10 12 12 13
REMARK SMILES IDX 9 14 95 15 13 16 90 17 5 18 4 19 2 20 1 21 3 22 91 23 92 24
REMARK SMILES IDX 93 25 94 26 20 27 21 28 22 29 23 31 24 32 25 33 89 34 26 35
REMARK SMILES IDX 88 36 27 37 28 38 29 39 82 40 30 41 87 42 81 43 83 44 31 45
REMARK SMILES IDX 86 46 80 47 79 48 32 50 66 51 45 52 65 53 46 54 49 55 64 56
REMARK SMILES IDX 84 57 47 58 48 59 63 61 85 62 50 63 33 64 34 65 43 66 35 67
REMARK SMILES IDX 36 68 42 69 44 70 37 71 38 72 39 73 40 74 41 75 67 76 68 77
REMARK SMILES IDX 77 78 69 79 70 80 76 81 78 82 71 83 72 84 73 85 74 86 75 87
REMARK SMILES IDX 51 88 52 89 61 90 53 91 54 92 60 93 62 94 55 95 56 96 57 97
REMARK SMILES IDX 58 98 59 99
REMARK H PARENT 17 6 21 30 83 49 49 60
REMARK Flexibility Score: inf
ROOT
ATOM      1  C   UNL     1       0.005   6.601  -5.671  1.00  0.00     0.042 C 
ENDROOT
BRANCH   1   2
ATOM      2  C   UNL     1      -1.001   5.575  -6.169  1.00  0.00     0.118 C 
BRANCH   2   3
ATOM      3  N   UNL     1      -0.354   4.445  -6.820  1.00  0.00    -0.352 N 
ATOM      4  C   UNL     1      -0.126   3.139  -6.552  1.00  0.00     0.251 C 
ATOM      5  O   UNL     1       0.479   2.521  -7.434  1.00  0.00    -0.270 OA
ATOM      6  H   UNL     1       0.020   4.701  -7.694  1.00  0.00     0.163 HD
BRANCH   4   7
ATOM      7  C   UNL     1      -0.550   2.425  -5.313  1.00  0.00     0.067 C 
ATOM      8  C   UNL     1      -1.211  -1.023  -1.679  1.00  0.00     0.030 A 
ATOM      9  C   UNL     1      -1.464   0.348  -1.798  1.00  0.00     0.063 A 
ATOM     10  C   UNL     1      -0.669  -1.699  -2.790  1.00  0.00     0.055 A 
ATOM     11  C   UNL     1      -1.115   1.036  -2.957  1.00  0.00     0.129 A 
ATOM     12  C   UNL     1      -0.334  -1.003  -3.960  1.00  0.00     0.033 A 
ATOM     13  Cl  UNL     1      -0.352  -3.403  -2.779  1.00  0.00    -0.083 Cl
ATOM     14  C   UNL     1      -0.544   0.374  -4.040  1.00  0.00     0.019 A 
ATOM     15  O   UNL     1      -1.308   2.386  -2.937  1.00  0.00    -0.475 OA
ATOM     16  C   UNL     1      -0.148   1.143  -5.212  1.00  0.00     0.025 C 
ATOM     17  C   UNL     1      -1.396   3.038  -4.232  1.00  0.00     0.314 C 
BRANCH   8  18
ATOM     18  S   UNL     1      -1.567  -1.858  -0.133  1.00  0.00    -0.124 SA
BRANCH  18  19
ATOM     19  C   UNL     1      -0.930  -0.685   1.130  1.00  0.00     0.078 C 
BRANCH  19  20
ATOM     20  C   UNL     1       0.600  -0.659   1.303  1.00  0.00    -0.007 C 
ATOM     21  C   UNL     1       1.344   0.026   0.155  1.00  0.00     0.008 C 
ATOM     22  C   UNL     1       0.940   0.071   2.609  1.00  0.00     0.008 C 
ENDBRANCH  19  20
ENDBRANCH  18  19
ENDBRANCH   8  18
BRANCH  17  23
ATOM     23  C   UNL     1      -2.882   3.143  -4.627  1.00  0.00     0.429 C 
ATOM     24  F   UNL     1      -3.528   4.014  -3.812  1.00  0.00    -0.167 F 
ATOM     25  F   UNL     1      -3.058   3.594  -5.891  1.00  0.00    -0.167 F 
ATOM     26  F   UNL     1      -3.526   1.957  -4.543  1.00  0.00    -0.167 F 
ENDBRANCH  17  23
ENDBRANCH   4   7
ENDBRANCH   2   3
ENDBRANCH   1   2
BRANCH   1  27
ATOM     27  C   UNL     1       0.536   7.487  -6.791  1.00  0.00     0.118 C 
BRANCH  27  28
ATOM     28  N   UNL     1      -0.496   8.368  -7.336  1.00  0.00    -0.352 N 
ATOM     29  C   UNL     1      -0.623   9.736  -7.274  1.00  0.00     0.251 C 
ATOM     30  H   UNL     1      -1.216   7.908  -7.825  1.00  0.00     0.163 HD
ATOM     31  O   UNL     1      -1.679  10.264  -7.613  1.00  0.00    -0.269 OA
BRANCH  29  32
ATOM     32  C   UNL     1       0.499  10.562  -6.782  1.00  0.00     0.039 A 
ATOM     33  C   UNL     1       1.807  10.266  -7.162  1.00  0.00     0.014 A 
ATOM     34  C   UNL     1       0.246  11.633  -5.920  1.00  0.00     0.014 A 
ATOM     35  C   UNL     1       2.866  10.895  -6.523  1.00  0.00     0.010 A 
ATOM     36  C   UNL     1       1.315  12.341  -5.361  1.00  0.00     0.010 A 
ATOM     37  C   UNL     1       2.636  11.939  -5.612  1.00  0.00    -0.014 A 
BRANCH  37  38
ATOM     38  C   UNL     1       3.798  12.566  -4.929  1.00  0.00     0.031 A 
ATOM     39  C   UNL     1       3.953  12.473  -3.433  1.00  0.00     0.074 A 
ATOM     40  C   UNL     1       4.766  13.136  -5.676  1.00  0.00     0.049 A 
ATOM     41  N   UNL     1       4.919  12.930  -2.677  1.00  0.00    -0.248 NA
ATOM     42  C   UNL     1       2.889  11.783  -2.685  1.00  0.00     0.031 C 
ATOM     43  C   UNL     1       4.735  13.268  -7.136  1.00  0.00     0.029 A 
ATOM     44  N   UNL     1       5.979  13.669  -5.323  1.00  0.00    -0.354 N 
ATOM     45  C   UNL     1       4.571  12.604  -1.371  1.00  0.00     0.074 A 
ATOM     46  C   UNL     1       3.292  11.933  -1.430  1.00  0.00     0.031 C 
ATOM     47  C   UNL     1       5.905  13.770  -7.558  1.00  0.00     0.029 A 
ATOM     48  C   UNL     1       6.739  14.066  -6.399  1.00  0.00     0.049 A 
ATOM     49  H   UNL     1       6.277  13.760  -4.389  1.00  0.00     0.167 HD
ATOM     50  C   UNL     1       5.264  12.829  -0.229  1.00  0.00     0.037 A 
ATOM     51  C   UNL     1       7.966  14.618  -6.450  1.00  0.00     0.037 A 
ATOM     52  C   UNL     1       6.555  13.464  -0.180  1.00  0.00     0.049 A 
ATOM     53  C   UNL     1       8.694  14.890  -5.165  1.00  0.00     0.074 A 
ATOM     54  C   UNL     1       7.340  13.733   0.929  1.00  0.00     0.029 A 
ATOM     55  N   UNL     1       7.257  13.918  -1.286  1.00  0.00    -0.354 N 
ATOM     56  N   UNL     1       8.334  14.598  -3.939  1.00  0.00    -0.248 NA
ATOM     57  C   UNL     1       9.983  15.586  -5.268  1.00  0.00     0.031 C 
ATOM     58  C   UNL     1       8.503  14.377   0.496  1.00  0.00     0.029 A 
ATOM     59  C   UNL     1       8.459  14.477  -0.886  1.00  0.00     0.049 A 
ATOM     60  H   UNL     1       6.947  13.853  -2.218  1.00  0.00     0.167 HD
ATOM     61  C   UNL     1       9.351  15.075  -3.123  1.00  0.00     0.074 A 
ATOM     62  C   UNL     1      10.354  15.651  -3.996  1.00  0.00     0.031 C 
ATOM     63  C   UNL     1       9.441  15.049  -1.771  1.00  0.00     0.037 A 
BRANCH  50  64
ATOM     64  C   UNL     1       4.647  12.387   1.069  1.00  0.00     0.058 A 
ATOM     65  C   UNL     1       4.612  11.035   1.443  1.00  0.00     0.135 A 
ATOM     66  C   UNL     1       4.150  13.333   1.982  1.00  0.00     0.135 A 
ATOM     67  F   UNL     1       5.056  10.089   0.600  1.00  0.00    -0.206 F 
ATOM     68  C   UNL     1       4.098  10.634   2.672  1.00  0.00     0.059 A 
ATOM     69  C   UNL     1       3.650  12.956   3.225  1.00  0.00     0.059 A 
ATOM     70  F   UNL     1       4.158  14.639   1.672  1.00  0.00    -0.206 F 
ATOM     71  C   UNL     1       3.623  11.603   3.558  1.00  0.00     0.060 A 
BRANCH  71  72
ATOM     72  S   UNL     1       2.982  11.063   5.158  1.00  0.00     0.124 S 
ATOM     73  O   UNL     1       1.730  10.422   4.769  1.00  0.00    -0.237 OA
ATOM     74  O   UNL     1       4.033  10.166   5.628  1.00  0.00    -0.237 OA
ATOM     75  O   UNL     1       2.842  12.308   5.907  1.00  0.00    -0.744 OA
ENDBRANCH  71  72
ENDBRANCH  50  64
BRANCH  51  76
ATOM     76  C   UNL     1       8.570  14.962  -7.763  1.00  0.00     0.058 A 
ATOM     77  C   UNL     1       9.670  14.248  -8.260  1.00  0.00     0.135 A 
ATOM     78  C   UNL     1       8.045  15.993  -8.557  1.00  0.00     0.135 A 
ATOM     79  F   UNL     1      10.212  13.258  -7.534  1.00  0.00    -0.206 F 
ATOM     80  C   UNL     1      10.233  14.549  -9.496  1.00  0.00     0.059 A 
ATOM     81  C   UNL     1       8.574  16.295  -9.807  1.00  0.00     0.059 A 
ATOM     82  F   UNL     1       6.983  16.695  -8.132  1.00  0.00    -0.206 F 
ATOM     83  C   UNL     1       9.675  15.572 -10.264  1.00  0.00     0.060 A 
BRANCH  83  84
ATOM     84  S   UNL     1      10.377  15.919 -11.891  1.00  0.00     0.124 S 
ATOM     85  O   UNL     1      11.614  16.605 -11.535  1.00  0.00    -0.237 OA
ATOM     86  O   UNL     1      10.527  14.581 -12.453  1.00  0.00    -0.237 OA
ATOM     87  O   UNL     1       9.355  16.746 -12.527  1.00  0.00    -0.744 OA
ENDBRANCH  83  84
ENDBRANCH  51  76
BRANCH  63  88
ATOM     88  C   UNL     1      10.664  15.661  -1.151  1.00  0.00     0.058 A 
ATOM     89  C   UNL     1      10.811  17.052  -1.058  1.00  0.00     0.135 A 
ATOM     90  C   UNL     1      11.662  14.851  -0.588  1.00  0.00     0.135 A 
ATOM     91  F   UNL     1       9.886  17.867  -1.590  1.00  0.00    -0.206 F 
ATOM     92  C   UNL     1      11.914  17.623  -0.433  1.00  0.00     0.059 A 
ATOM     93  C   UNL     1      12.762  15.400   0.061  1.00  0.00     0.059 A 
ATOM     94  F   UNL     1      11.560  13.513  -0.646  1.00  0.00    -0.206 F 
ATOM     95  C   UNL     1      12.882  16.788   0.128  1.00  0.00     0.060 A 
BRANCH  95  96
ATOM     96  S   UNL     1      14.283  17.543   0.980  1.00  0.00     0.124 S 
ATOM     97  O   UNL     1      15.066  18.057  -0.139  1.00  0.00    -0.237 OA
ATOM     98  O   UNL     1      13.634  18.550   1.815  1.00  0.00    -0.237 OA
ATOM     99  O   UNL     1      14.881  16.427   1.705  1.00  0.00    -0.744 OA
ENDBRANCH  95  96
ENDBRANCH  63  88
ENDBRANCH  37  38
ENDBRANCH  29  32
ENDBRANCH  27  28
ENDBRANCH   1  27
TORSDOF 17
