REMARK SMILES CCOc1ccc(-n2ncc(C(=O)NCCCNC(=O)c3ccc(-c4c5nc(c(-c6c(F)cc(S(=O)(=O)[O-])cc6F)c6ccc([nH]6)c(-c6c(F)cc(S(=O)(=O)[O-])cc6F)c6nc(c(-c7c(F)cc(S(=O)(=O)[O-])cc7F)c7ccc4[nH]7)C=C6)C=C5)cc3)c2C)nn1
REMARK SMILES IDX 16 1 15 2 14 3 12 4 13 5 11 7 8 8 9 9 87 10 10 11 88 12 7 13
REMARK SMILES IDX 4 14 5 15 90 16 6 17 89 18 3 19 2 20 1 21 17 22 18 23 19 24
REMARK SMILES IDX 20 26 21 27 22 28 86 29 23 30 85 31 24 32 25 33 26 34 79 35
REMARK SMILES IDX 27 36 84 37 78 38 80 39 28 40 83 41 77 42 76 43 29 45 63 46
REMARK SMILES IDX 42 47 62 48 43 49 46 50 61 51 81 52 44 53 45 54 60 56 82 57
REMARK SMILES IDX 47 58 30 59 31 60 40 61 32 62 33 63 39 64 41 65 34 66 35 67
REMARK SMILES IDX 36 68 37 69 38 70 64 71 65 72 74 73 66 74 67 75 73 76 75 77
REMARK SMILES IDX 68 78 69 79 70 80 71 81 72 82 48 83 49 84 58 85 50 86 51 87
REMARK SMILES IDX 57 88 59 89 52 90 53 91 54 92 55 93 56 94
REMARK H PARENT 14 6 18 25 80 44 46 55
REMARK Flexibility Score: inf
ROOT
ATOM      1  C   UNL     1      11.396   4.518  -2.572  1.00  0.00     0.042 C 
ENDROOT
BRANCH   1   2
ATOM      2  C   UNL     1      11.215   3.641  -1.328  1.00  0.00     0.118 C 
BRANCH   2   3
ATOM      3  N   UNL     1      10.721   4.402  -0.194  1.00  0.00    -0.352 N 
ATOM      4  C   UNL     1       9.463   4.620   0.308  1.00  0.00     0.254 C 
ATOM      5  O   UNL     1       9.396   5.273   1.349  1.00  0.00    -0.269 OA
ATOM      6  H   UNL     1      11.432   4.851   0.317  1.00  0.00     0.163 HD
BRANCH   4   7
ATOM      7  C   UNL     1       8.269   4.066  -0.324  1.00  0.00     0.081 A 
ATOM      8  N   UNL     1       6.174   3.335  -0.627  1.00  0.00    -0.217 N 
ATOM      9  N   UNL     1       6.865   2.942  -1.734  1.00  0.00    -0.174 NA
ATOM     10  C   UNL     1       6.993   4.030   0.252  1.00  0.00     0.056 A 
ATOM     11  C   UNL     1       8.071   3.476  -1.582  1.00  0.00     0.149 A 
ATOM     12  C   UNL     1       6.567   4.537   1.591  1.00  0.00     0.068 C 
BRANCH   8  13
ATOM     13  C   UNL     1       4.795   2.990  -0.531  1.00  0.00     0.176 A 
ATOM     14  C   UNL     1       2.162   2.368  -0.466  1.00  0.00     0.233 A 
ATOM     15  C   UNL     1       2.994   1.572  -1.223  1.00  0.00     0.074 A 
ATOM     16  N   UNL     1       2.607   3.427   0.239  1.00  0.00    -0.110 NA
ATOM     17  C   UNL     1       4.342   1.890  -1.257  1.00  0.00     0.057 A 
ATOM     18  N   UNL     1       3.947   3.730   0.221  1.00  0.00    -0.127 NA
BRANCH  14  19
ATOM     19  O   UNL     1       0.812   2.130  -0.502  1.00  0.00    -0.477 OA
BRANCH  19  20
ATOM     20  C   UNL     1       0.404   1.383   0.645  1.00  0.00     0.228 C 
ATOM     21  C   UNL     1       0.551  -0.110   0.384  1.00  0.00     0.049 C 
ENDBRANCH  19  20
ENDBRANCH  14  19
ENDBRANCH   8  13
ENDBRANCH   4   7
ENDBRANCH   2   3
ENDBRANCH   1   2
BRANCH   1  22
ATOM     22  C   UNL     1      12.755   5.208  -2.585  1.00  0.00     0.118 C 
BRANCH  22  23
ATOM     23  N   UNL     1      13.847   4.254  -2.801  1.00  0.00    -0.352 N 
ATOM     24  C   UNL     1      15.213   4.457  -2.705  1.00  0.00     0.251 C 
ATOM     25  H   UNL     1      13.571   3.343  -3.049  1.00  0.00     0.163 HD
ATOM     26  O   UNL     1      15.995   3.678  -3.215  1.00  0.00    -0.269 OA
BRANCH  24  27
ATOM     27  C   UNL     1      15.693   5.641  -1.973  1.00  0.00     0.039 A 
ATOM     28  C   UNL     1      16.709   6.450  -2.494  1.00  0.00     0.014 A 
ATOM     29  C   UNL     1      15.064   5.958  -0.775  1.00  0.00     0.014 A 
ATOM     30  C   UNL     1      17.022   7.641  -1.842  1.00  0.00     0.010 A 
ATOM     31  C   UNL     1      15.269   7.193  -0.219  1.00  0.00     0.010 A 
ATOM     32  C   UNL     1      16.281   8.015  -0.715  1.00  0.00    -0.014 A 
BRANCH  32  33
ATOM     33  C   UNL     1      16.462   9.319  -0.084  1.00  0.00     0.031 A 
ATOM     34  C   UNL     1      16.138  10.496  -0.945  1.00  0.00     0.074 A 
ATOM     35  C   UNL     1      16.578   9.425   1.258  1.00  0.00     0.049 A 
ATOM     36  N   UNL     1      16.911  11.465  -1.317  1.00  0.00    -0.248 NA
ATOM     37  C   UNL     1      14.805  10.538  -1.572  1.00  0.00     0.031 C 
ATOM     38  C   UNL     1      16.528   8.343   2.252  1.00  0.00     0.029 A 
ATOM     39  N   UNL     1      16.596  10.537   2.038  1.00  0.00    -0.354 N 
ATOM     40  C   UNL     1      16.100  12.354  -2.025  1.00  0.00     0.074 A 
ATOM     41  C   UNL     1      14.893  11.633  -2.329  1.00  0.00     0.031 C 
ATOM     42  C   UNL     1      16.247   8.860   3.467  1.00  0.00     0.029 A 
ATOM     43  C   UNL     1      16.275  10.307   3.371  1.00  0.00     0.049 A 
ATOM     44  H   UNL     1      16.817  11.430   1.688  1.00  0.00     0.167 HD
ATOM     45  C   UNL     1      16.375  13.690  -2.083  1.00  0.00     0.037 A 
ATOM     46  C   UNL     1      15.998  11.242   4.313  1.00  0.00     0.037 A 
ATOM     47  C   UNL     1      17.726  13.958  -1.657  1.00  0.00     0.049 A 
ATOM     48  C   UNL     1      16.528  12.536   3.805  1.00  0.00     0.074 A 
ATOM     49  C   UNL     1      18.977  13.537  -2.064  1.00  0.00     0.029 A 
ATOM     50  N   UNL     1      17.905  14.491  -0.402  1.00  0.00    -0.354 N 
ATOM     51  N   UNL     1      17.797  12.780   3.615  1.00  0.00    -0.248 NA
ATOM     52  C   UNL     1      15.614  13.399   3.071  1.00  0.00     0.031 C 
ATOM     53  C   UNL     1      19.718  13.371  -0.857  1.00  0.00     0.029 A 
ATOM     54  C   UNL     1      18.903  13.771   0.204  1.00  0.00     0.049 A 
ATOM     55  H   UNL     1      17.410  15.247  -0.011  1.00  0.00     0.167 HD
ATOM     56  C   UNL     1      17.848  13.520   2.442  1.00  0.00     0.074 A 
ATOM     57  C   UNL     1      16.471  13.950   2.207  1.00  0.00     0.031 C 
ATOM     58  C   UNL     1      18.939  13.472   1.619  1.00  0.00     0.037 A 
BRANCH  45  59
ATOM     59  C   UNL     1      15.332  14.791  -2.157  1.00  0.00     0.058 A 
ATOM     60  C   UNL     1      15.755  16.127  -2.334  1.00  0.00     0.135 A 
ATOM     61  C   UNL     1      13.981  14.635  -1.776  1.00  0.00     0.135 A 
ATOM     62  F   UNL     1      17.017  16.403  -2.702  1.00  0.00    -0.206 F 
ATOM     63  C   UNL     1      14.930  17.220  -2.060  1.00  0.00     0.059 A 
ATOM     64  C   UNL     1      13.124  15.709  -1.554  1.00  0.00     0.059 A 
ATOM     65  F   UNL     1      13.444  13.442  -1.500  1.00  0.00    -0.206 F 
ATOM     66  C   UNL     1      13.620  16.998  -1.648  1.00  0.00     0.060 A 
BRANCH  66  67
ATOM     67  S   UNL     1      12.591  18.394  -1.167  1.00  0.00     0.124 S 
ATOM     68  O   UNL     1      13.223  18.800   0.083  1.00  0.00    -0.237 OA
ATOM     69  O   UNL     1      12.762  19.302  -2.296  1.00  0.00    -0.237 OA
ATOM     70  O   UNL     1      11.262  17.803  -1.042  1.00  0.00    -0.744 OA
ENDBRANCH  66  67
ENDBRANCH  45  59
BRANCH  46  71
ATOM     71  C   UNL     1      15.035  11.146   5.442  1.00  0.00     0.058 A 
ATOM     72  C   UNL     1      15.055  12.075   6.497  1.00  0.00     0.135 A 
ATOM     73  C   UNL     1      13.905  10.302   5.382  1.00  0.00     0.135 A 
ATOM     74  F   UNL     1      16.081  12.930   6.620  1.00  0.00    -0.206 F 
ATOM     75  C   UNL     1      13.999  12.193   7.408  1.00  0.00     0.059 A 
ATOM     76  C   UNL     1      12.847  10.393   6.286  1.00  0.00     0.059 A 
ATOM     77  F   UNL     1      13.752   9.419   4.383  1.00  0.00    -0.206 F 
ATOM     78  C   UNL     1      12.889  11.360   7.282  1.00  0.00     0.060 A 
BRANCH  78  79
ATOM     79  S   UNL     1      11.450  11.628   8.346  1.00  0.00     0.124 S 
ATOM     80  O   UNL     1      11.953  11.200   9.647  1.00  0.00    -0.237 OA
ATOM     81  O   UNL     1      11.216  13.059   8.192  1.00  0.00    -0.237 OA
ATOM     82  O   UNL     1      10.428  10.766   7.758  1.00  0.00    -0.744 OA
ENDBRANCH  78  79
ENDBRANCH  46  71
BRANCH  58  83
ATOM     83  C   UNL     1      20.207  12.843   2.139  1.00  0.00     0.058 A 
ATOM     84  C   UNL     1      20.341  11.487   2.486  1.00  0.00     0.135 A 
ATOM     85  C   UNL     1      21.380  13.613   2.120  1.00  0.00     0.135 A 
ATOM     86  F   UNL     1      19.296  10.653   2.426  1.00  0.00    -0.206 F 
ATOM     87  C   UNL     1      21.574  10.932   2.835  1.00  0.00     0.059 A 
ATOM     88  C   UNL     1      22.625  13.074   2.433  1.00  0.00     0.059 A 
ATOM     89  F   UNL     1      21.333  14.899   1.734  1.00  0.00    -0.206 F 
ATOM     90  C   UNL     1      22.713  11.734   2.803  1.00  0.00     0.060 A 
BRANCH  90  91
ATOM     91  S   UNL     1      24.318  10.995   3.173  1.00  0.00     0.124 S 
ATOM     92  O   UNL     1      24.230  10.776   4.613  1.00  0.00    -0.237 OA
ATOM     93  O   UNL     1      24.313   9.791   2.347  1.00  0.00    -0.237 OA
ATOM     94  O   UNL     1      25.271  12.021   2.755  1.00  0.00    -0.744 OA
ENDBRANCH  90  91
ENDBRANCH  58  83
ENDBRANCH  32  33
ENDBRANCH  24  27
ENDBRANCH  22  23
ENDBRANCH   1  22
TORSDOF 16
