REMARK SMILES O=C(CCCc1nc(-c2cccc(Cl)c2)no1)NCCCNC(=O)c1ccc(-c2c3nc(c(-c4c(F)cc(S(=O)(=O)[O-])cc4F)c4ccc([nH]4)c(-c4c(F)cc(S(=O)(=O)[O-])cc4F)c4nc(c(-c5c(F)cc(S(=O)(=O)[O-])cc5F)c5ccc2[nH]5)C=C4)C=C3)cc1
REMARK SMILES IDX 19 1 18 2 1 3 2 4 3 6 4 7 5 8 6 9 7 10 17 11 8 12 16 13 9 14
REMARK SMILES IDX 10 15 15 16 11 17 13 18 12 19 14 20 20 21 21 22 22 23 23 24
REMARK SMILES IDX 24 26 25 27 26 28 90 29 27 30 89 31 28 32 29 33 30 34 83 35
REMARK SMILES IDX 31 36 88 37 82 38 84 39 32 40 87 41 81 42 80 43 33 45 67 46
REMARK SMILES IDX 46 47 66 48 47 49 50 50 65 51 85 52 48 53 49 54 64 56 86 57
REMARK SMILES IDX 51 58 34 59 35 60 44 61 36 62 37 63 43 64 45 65 38 66 39 67
REMARK SMILES IDX 40 68 41 69 42 70 68 71 69 72 78 73 70 74 71 75 77 76 79 77
REMARK SMILES IDX 72 78 73 79 74 80 75 81 76 82 52 83 53 84 62 85 54 86 55 87
REMARK SMILES IDX 61 88 63 89 56 90 57 91 58 92 59 93 60 94
REMARK H PARENT 18 5 22 25 84 44 50 55
REMARK Flexibility Score: inf
ROOT
ATOM      1  C   UNL     1       2.143   1.910   1.625  1.00  0.00     0.117 C 
ENDROOT
BRANCH   1   2
ATOM      2  N   UNL     1       2.754   0.814   0.899  1.00  0.00    -0.356 N 
ATOM      3  O   UNL     1       1.020   0.520  -0.581  1.00  0.00    -0.275 OA
ATOM      4  C   UNL     1       2.140   0.223  -0.180  1.00  0.00     0.220 C 
ATOM      5  H   UNL     1       3.635   0.483   1.187  1.00  0.00     0.163 HD
BRANCH   4   6
ATOM      6  C   UNL     1       2.990  -0.817  -0.874  1.00  0.00     0.100 C 
BRANCH   6   7
ATOM      7  C   UNL     1       3.972  -0.191  -1.875  1.00  0.00     0.020 C 
BRANCH   7   8
ATOM      8  C   UNL     1       5.190   0.523  -1.269  1.00  0.00     0.101 C 
BRANCH   8   9
ATOM      9  C   UNL     1       5.939  -0.347  -0.331  1.00  0.00     0.226 A 
ATOM     10  N   UNL     1       6.178  -1.635  -0.409  1.00  0.00    -0.191 NA
ATOM     11  O   UNL     1       6.269   0.191   0.876  1.00  0.00    -0.339 OA
ATOM     12  C   UNL     1       6.612  -1.934   0.864  1.00  0.00     0.202 A 
ATOM     13  N   UNL     1       6.698  -0.866   1.674  1.00  0.00    -0.057 NA
BRANCH  12  14
ATOM     14  C   UNL     1       6.791  -3.312   1.294  1.00  0.00     0.024 A 
ATOM     15  C   UNL     1       7.180  -4.292   0.368  1.00  0.00     0.012 A 
ATOM     16  C   UNL     1       6.491  -3.693   2.609  1.00  0.00     0.032 A 
ATOM     17  C   UNL     1       7.262  -5.634   0.747  1.00  0.00     0.002 A 
ATOM     18  C   UNL     1       6.557  -5.037   2.975  1.00  0.00     0.041 A 
ATOM     19  C   UNL     1       6.941  -6.008   2.051  1.00  0.00     0.020 A 
ATOM     20  Cl  UNL     1       6.123  -5.508   4.572  1.00  0.00    -0.084 Cl
ENDBRANCH  12  14
ENDBRANCH   8   9
ENDBRANCH   7   8
ENDBRANCH   6   7
ENDBRANCH   4   6
ENDBRANCH   1   2
BRANCH   1  21
ATOM     21  C   UNL     1       2.468   1.880   3.113  1.00  0.00     0.042 C 
BRANCH  21  22
ATOM     22  C   UNL     1       3.946   2.045   3.454  1.00  0.00     0.118 C 
BRANCH  22  23
ATOM     23  N   UNL     1       4.487   3.339   3.070  1.00  0.00    -0.352 N 
ATOM     24  C   UNL     1       5.221   4.236   3.807  1.00  0.00     0.251 C 
ATOM     25  H   UNL     1       4.299   3.613   2.143  1.00  0.00     0.163 HD
ATOM     26  O   UNL     1       5.474   5.340   3.325  1.00  0.00    -0.269 OA
BRANCH  24  27
ATOM     27  C   UNL     1       5.677   3.905   5.177  1.00  0.00     0.039 A 
ATOM     28  C   UNL     1       5.590   4.889   6.166  1.00  0.00     0.014 A 
ATOM     29  C   UNL     1       6.201   2.649   5.496  1.00  0.00     0.014 A 
ATOM     30  C   UNL     1       5.969   4.595   7.479  1.00  0.00     0.010 A 
ATOM     31  C   UNL     1       6.501   2.332   6.821  1.00  0.00     0.010 A 
ATOM     32  C   UNL     1       6.394   3.303   7.829  1.00  0.00    -0.014 A 
BRANCH  32  33
ATOM     33  C   UNL     1       6.719   2.963   9.242  1.00  0.00     0.031 A 
ATOM     34  C   UNL     1       8.112   2.540   9.629  1.00  0.00     0.074 A 
ATOM     35  C   UNL     1       5.747   3.004  10.176  1.00  0.00     0.049 A 
ATOM     36  N   UNL     1       8.575   2.205  10.807  1.00  0.00    -0.248 NA
ATOM     37  C   UNL     1       9.110   2.460   8.551  1.00  0.00     0.031 C 
ATOM     38  C   UNL     1       4.345   3.344   9.922  1.00  0.00     0.029 A 
ATOM     39  N   UNL     1       5.786   2.757  11.526  1.00  0.00    -0.354 N 
ATOM     40  C   UNL     1       9.911   1.870  10.611  1.00  0.00     0.074 A 
ATOM     41  C   UNL     1      10.168   1.984   9.192  1.00  0.00     0.031 C 
ATOM     42  C   UNL     1       3.667   3.317  11.081  1.00  0.00     0.029 A 
ATOM     43  C   UNL     1       4.573   2.921  12.155  1.00  0.00     0.049 A 
ATOM     44  H   UNL     1       6.606   2.488  12.001  1.00  0.00     0.167 HD
ATOM     45  C   UNL     1      10.844   1.523  11.531  1.00  0.00     0.037 A 
ATOM     46  C   UNL     1       4.226   2.768  13.448  1.00  0.00     0.037 A 
ATOM     47  C   UNL     1      10.587   1.425  12.945  1.00  0.00     0.049 A 
ATOM     48  C   UNL     1       5.279   2.379  14.450  1.00  0.00     0.074 A 
ATOM     49  C   UNL     1      11.480   1.135  13.963  1.00  0.00     0.029 A 
ATOM     50  N   UNL     1       9.348   1.607  13.543  1.00  0.00    -0.354 N 
ATOM     51  N   UNL     1       6.554   2.138  14.255  1.00  0.00    -0.248 NA
ATOM     52  C   UNL     1       4.850   2.252  15.849  1.00  0.00     0.031 C 
ATOM     53  C   UNL     1      10.771   1.090  15.169  1.00  0.00     0.029 A 
ATOM     54  C   UNL     1       9.449   1.413  14.912  1.00  0.00     0.049 A 
ATOM     55  H   UNL     1       8.520   1.841  13.066  1.00  0.00     0.167 HD
ATOM     56  C   UNL     1       7.085   1.860  15.511  1.00  0.00     0.074 A 
ATOM     57  C   UNL     1       5.996   1.979  16.459  1.00  0.00     0.031 C 
ATOM     58  C   UNL     1       8.358   1.536  15.848  1.00  0.00     0.037 A 
BRANCH  45  59
ATOM     59  C   UNL     1      12.236   1.227  11.038  1.00  0.00     0.058 A 
ATOM     60  C   UNL     1      13.068   2.236  10.524  1.00  0.00     0.135 A 
ATOM     61  C   UNL     1      12.764  -0.073  11.119  1.00  0.00     0.135 A 
ATOM     62  F   UNL     1      12.614   3.494  10.410  1.00  0.00    -0.206 F 
ATOM     63  C   UNL     1      14.358   1.962  10.081  1.00  0.00     0.059 A 
ATOM     64  C   UNL     1      14.063  -0.363  10.711  1.00  0.00     0.059 A 
ATOM     65  F   UNL     1      12.015  -1.077  11.604  1.00  0.00    -0.206 F 
ATOM     66  C   UNL     1      14.847   0.658  10.179  1.00  0.00     0.060 A 
BRANCH  66  67
ATOM     67  S   UNL     1      16.527   0.324   9.607  1.00  0.00     0.124 S 
ATOM     68  O   UNL     1      16.369   0.434   8.160  1.00  0.00    -0.237 OA
ATOM     69  O   UNL     1      17.291   1.391  10.244  1.00  0.00    -0.237 OA
ATOM     70  O   UNL     1      16.796  -1.021  10.107  1.00  0.00    -0.744 OA
ENDBRANCH  66  67
ENDBRANCH  45  59
BRANCH  46  71
ATOM     71  C   UNL     1       2.820   3.007  13.874  1.00  0.00     0.058 A 
ATOM     72  C   UNL     1       2.483   4.107  14.678  1.00  0.00     0.135 A 
ATOM     73  C   UNL     1       1.783   2.145  13.483  1.00  0.00     0.135 A 
ATOM     74  F   UNL     1       3.439   4.957  15.085  1.00  0.00    -0.206 F 
ATOM     75  C   UNL     1       1.176   4.335  15.094  1.00  0.00     0.059 A 
ATOM     76  C   UNL     1       0.463   2.368  13.862  1.00  0.00     0.059 A 
ATOM     77  F   UNL     1       2.047   1.087  12.701  1.00  0.00    -0.206 F 
ATOM     78  C   UNL     1       0.171   3.460  14.678  1.00  0.00     0.060 A 
BRANCH  78  79
ATOM     79  S   UNL     1      -1.530   3.790  15.188  1.00  0.00     0.124 S 
ATOM     80  O   UNL     1      -1.485   3.446  16.604  1.00  0.00    -0.237 OA
ATOM     81  O   UNL     1      -1.672   5.209  14.879  1.00  0.00    -0.237 OA
ATOM     82  O   UNL     1      -2.313   2.891  14.344  1.00  0.00    -0.744 OA
ENDBRANCH  78  79
ENDBRANCH  46  71
BRANCH  58  83
ATOM     83  C   UNL     1       8.655   1.325  17.309  1.00  0.00     0.058 A 
ATOM     84  C   UNL     1       8.176   0.207  18.011  1.00  0.00     0.135 A 
ATOM     85  C   UNL     1       9.459   2.240  18.009  1.00  0.00     0.135 A 
ATOM     86  F   UNL     1       7.400  -0.697  17.392  1.00  0.00    -0.206 F 
ATOM     87  C   UNL     1       8.453   0.022  19.362  1.00  0.00     0.059 A 
ATOM     88  C   UNL     1       9.776   2.058  19.352  1.00  0.00     0.059 A 
ATOM     89  F   UNL     1       9.955   3.321  17.386  1.00  0.00    -0.206 F 
ATOM     90  C   UNL     1       9.254   0.954  20.024  1.00  0.00     0.060 A 
BRANCH  90  91
ATOM     91  S   UNL     1       9.618   0.695  21.773  1.00  0.00     0.124 S 
ATOM     92  O   UNL     1       8.338   1.022  22.392  1.00  0.00    -0.237 OA
ATOM     93  O   UNL     1       9.998  -0.714  21.808  1.00  0.00    -0.237 OA
ATOM     94  O   UNL     1      10.702   1.637  22.039  1.00  0.00    -0.744 OA
ENDBRANCH  90  91
ENDBRANCH  58  83
ENDBRANCH  32  33
ENDBRANCH  24  27
ENDBRANCH  22  23
ENDBRANCH  21  22
ENDBRANCH   1  21
TORSDOF 17
