REMARK SMILES O=C(NCCCNC(=O)c1cc(NC(=O)c2cccc(Cl)c2)ccc1N1CC[NH+](CC(=O)N2CCOCC2)CC1)c1ccc(-c2c3nc(c(-c4c(F)cc(S(=O)(=O)[O-])cc4F)c4ccc([nH]4)c(-c4c(F)cc(S(=O)(=O)[O-])cc4F)c4nc(c(-c5c(F)cc(S(=O)(=O)[O-])cc5F)c5ccc2[nH]5)C=C4)C=C3)cc1
REMARK SMILES IDX 5 1 4 2 3 3 1 4 2 5 41 7 42 8 106 9 43 10 105 11 44 12 45 13
REMARK SMILES IDX 46 14 99 15 47 16 104 17 98 18 100 19 48 20 103 21 97 22
REMARK SMILES IDX 96 23 49 25 83 26 62 27 82 28 63 29 66 30 81 31 101 32 64 33
REMARK SMILES IDX 65 34 80 36 102 37 67 38 50 39 51 40 60 41 52 42 53 43 59 44
REMARK SMILES IDX 61 45 54 46 55 47 56 48 57 49 58 50 84 51 85 52 94 53 86 54
REMARK SMILES IDX 87 55 93 56 95 57 88 58 89 59 90 60 91 61 92 62 68 63 69 64
REMARK SMILES IDX 78 65 70 66 71 67 77 68 79 69 72 70 73 71 74 72 75 73 76 74
REMARK SMILES IDX 6 75 7 76 8 77 9 79 10 80 11 81 25 82 12 83 24 84 23 85
REMARK SMILES IDX 26 86 27 87 40 88 28 89 39 90 29 91 30 93 31 94 32 95 33 96
REMARK SMILES IDX 34 97 38 98 35 99 37 100 36 101 13 102 14 103 15 105 16 106
REMARK SMILES IDX 17 107 22 108 18 109 20 110 19 111 21 112
REMARK H PARENT 3 6 100 24 66 35 7 78 29 92 13 104
REMARK Flexibility Score: inf
ROOT
ATOM      1  C   UNL     1       5.678  -1.311  -0.393  1.00  0.00     0.042 C 
ENDROOT
BRANCH   1   2
ATOM      2  C   UNL     1       4.704  -0.401  -1.155  1.00  0.00     0.118 C 
BRANCH   2   3
ATOM      3  N   UNL     1       3.295  -0.494  -0.799  1.00  0.00    -0.352 N 
ATOM      4  O   UNL     1       1.309  -0.109   0.167  1.00  0.00    -0.269 OA
ATOM      5  C   UNL     1       2.509   0.123   0.146  1.00  0.00     0.251 C 
ATOM      6  H   UNL     1       2.797  -1.137  -1.354  1.00  0.00     0.163 HD
BRANCH   5   7
ATOM      7  C   UNL     1       3.103   0.996   1.179  1.00  0.00     0.039 A 
ATOM      8  C   UNL     1       4.148   1.863   0.898  1.00  0.00     0.014 A 
ATOM      9  C   UNL     1       2.602   0.920   2.484  1.00  0.00     0.014 A 
ATOM     10  C   UNL     1       4.865   2.431   1.937  1.00  0.00     0.010 A 
ATOM     11  C   UNL     1       3.230   1.623   3.515  1.00  0.00     0.010 A 
ATOM     12  C   UNL     1       4.415   2.324   3.261  1.00  0.00    -0.014 A 
BRANCH  12  13
ATOM     13  C   UNL     1       5.222   2.954   4.337  1.00  0.00     0.031 A 
ATOM     14  C   UNL     1       5.801   2.124   5.452  1.00  0.00     0.074 A 
ATOM     15  C   UNL     1       5.511   4.269   4.241  1.00  0.00     0.049 A 
ATOM     16  N   UNL     1       6.576   2.499   6.438  1.00  0.00    -0.248 NA
ATOM     17  C   UNL     1       5.456   0.693   5.481  1.00  0.00     0.031 C 
ATOM     18  C   UNL     1       4.994   5.170   3.205  1.00  0.00     0.029 A 
ATOM     19  N   UNL     1       6.347   5.064   4.979  1.00  0.00    -0.354 N 
ATOM     20  C   UNL     1       6.766   1.370   7.227  1.00  0.00     0.074 A 
ATOM     21  C   UNL     1       6.019   0.295   6.614  1.00  0.00     0.031 C 
ATOM     22  C   UNL     1       5.604   6.358   3.308  1.00  0.00     0.029 A 
ATOM     23  C   UNL     1       6.485   6.334   4.469  1.00  0.00     0.049 A 
ATOM     24  H   UNL     1       6.804   4.757   5.795  1.00  0.00     0.167 HD
ATOM     25  C   UNL     1       7.500   1.245   8.359  1.00  0.00     0.037 A 
ATOM     26  C   UNL     1       7.233   7.369   4.891  1.00  0.00     0.037 A 
ATOM     27  C   UNL     1       8.286   2.311   8.925  1.00  0.00     0.049 A 
ATOM     28  C   UNL     1       8.074   7.190   6.119  1.00  0.00     0.074 A 
ATOM     29  C   UNL     1       9.089   2.287  10.052  1.00  0.00     0.029 A 
ATOM     30  N   UNL     1       8.377   3.592   8.397  1.00  0.00    -0.354 N 
ATOM     31  N   UNL     1       8.228   6.118   6.860  1.00  0.00    -0.248 NA
ATOM     32  C   UNL     1       8.829   8.360   6.580  1.00  0.00     0.031 C 
ATOM     33  C   UNL     1       9.643   3.561  10.221  1.00  0.00     0.029 A 
ATOM     34  C   UNL     1       9.216   4.368   9.179  1.00  0.00     0.049 A 
ATOM     35  H   UNL     1       7.914   3.902   7.586  1.00  0.00     0.167 HD
ATOM     36  C   UNL     1       9.101   6.483   7.875  1.00  0.00     0.074 A 
ATOM     37  C   UNL     1       9.461   7.867   7.637  1.00  0.00     0.031 C 
ATOM     38  C   UNL     1       9.556   5.744   8.917  1.00  0.00     0.037 A 
BRANCH  25  39
ATOM     39  C   UNL     1       7.465  -0.078   9.075  1.00  0.00     0.058 A 
ATOM     40  C   UNL     1       8.120  -1.215   8.578  1.00  0.00     0.135 A 
ATOM     41  C   UNL     1       6.780  -0.200  10.296  1.00  0.00     0.135 A 
ATOM     42  F   UNL     1       8.772  -1.161   7.406  1.00  0.00    -0.206 F 
ATOM     43  C   UNL     1       8.077  -2.433   9.252  1.00  0.00     0.059 A 
ATOM     44  C   UNL     1       6.744  -1.401  10.999  1.00  0.00     0.059 A 
ATOM     45  F   UNL     1       6.134   0.855  10.817  1.00  0.00    -0.206 F 
ATOM     46  C   UNL     1       7.383  -2.517  10.461  1.00  0.00     0.060 A 
BRANCH  46  47
ATOM     47  S   UNL     1       7.332  -4.102  11.324  1.00  0.00     0.124 S 
ATOM     48  O   UNL     1       6.367  -4.842  10.516  1.00  0.00    -0.237 OA
ATOM     49  O   UNL     1       8.715  -4.557  11.230  1.00  0.00    -0.237 OA
ATOM     50  O   UNL     1       6.883  -3.744  12.666  1.00  0.00    -0.744 OA
ENDBRANCH  46  47
ENDBRANCH  25  39
BRANCH  26  51
ATOM     51  C   UNL     1       7.209   8.653   4.142  1.00  0.00     0.058 A 
ATOM     52  C   UNL     1       8.323   9.084   3.407  1.00  0.00     0.135 A 
ATOM     53  C   UNL     1       6.054   9.450   4.106  1.00  0.00     0.135 A 
ATOM     54  F   UNL     1       9.452   8.358   3.412  1.00  0.00    -0.206 F 
ATOM     55  C   UNL     1       8.295  10.261   2.666  1.00  0.00     0.059 A 
ATOM     56  C   UNL     1       5.992  10.614   3.349  1.00  0.00     0.059 A 
ATOM     57  F   UNL     1       4.954   9.070   4.776  1.00  0.00    -0.206 F 
ATOM     58  C   UNL     1       7.122  11.017   2.639  1.00  0.00     0.060 A 
BRANCH  58  59
ATOM     59  S   UNL     1       7.065  12.506   1.619  1.00  0.00     0.124 S 
ATOM     60  O   UNL     1       7.796  13.456   2.448  1.00  0.00    -0.237 OA
ATOM     61  O   UNL     1       7.738  12.071   0.398  1.00  0.00    -0.237 OA
ATOM     62  O   UNL     1       5.634  12.758   1.477  1.00  0.00    -0.744 OA
ENDBRANCH  58  59
ENDBRANCH  26  51
BRANCH  38  63
ATOM     63  C   UNL     1      10.510   6.421   9.855  1.00  0.00     0.058 A 
ATOM     64  C   UNL     1      10.071   7.376  10.785  1.00  0.00     0.135 A 
ATOM     65  C   UNL     1      11.876   6.099   9.833  1.00  0.00     0.135 A 
ATOM     66  F   UNL     1       8.774   7.722  10.837  1.00  0.00    -0.206 F 
ATOM     67  C   UNL     1      10.960   8.015  11.640  1.00  0.00     0.059 A 
ATOM     68  C   UNL     1      12.780   6.709  10.695  1.00  0.00     0.059 A 
ATOM     69  F   UNL     1      12.341   5.185   8.968  1.00  0.00    -0.206 F 
ATOM     70  C   UNL     1      12.314   7.679  11.584  1.00  0.00     0.060 A 
BRANCH  70  71
ATOM     71  S   UNL     1      13.463   8.508  12.701  1.00  0.00     0.124 S 
ATOM     72  O   UNL     1      13.633   9.798  12.040  1.00  0.00    -0.237 OA
ATOM     73  O   UNL     1      12.719   8.533  13.957  1.00  0.00    -0.237 OA
ATOM     74  O   UNL     1      14.633   7.636  12.691  1.00  0.00    -0.744 OA
ENDBRANCH  70  71
ENDBRANCH  38  63
ENDBRANCH  12  13
ENDBRANCH   5   7
ENDBRANCH   2   3
ENDBRANCH   1   2
BRANCH   1  75
ATOM     75  C   UNL     1       5.925  -2.681  -1.033  1.00  0.00     0.118 C 
BRANCH  75  76
ATOM     76  N   UNL     1       6.113  -2.594  -2.474  1.00  0.00    -0.352 N 
ATOM     77  C   UNL     1       6.156  -3.565  -3.433  1.00  0.00     0.253 C 
ATOM     78  H   UNL     1       6.230  -1.677  -2.816  1.00  0.00     0.163 HD
ATOM     79  O   UNL     1       6.189  -3.221  -4.616  1.00  0.00    -0.269 OA
BRANCH  77  80
ATOM     80  C   UNL     1       6.293  -5.003  -3.089  1.00  0.00     0.065 A 
ATOM     81  C   UNL     1       7.387  -5.595  -3.723  1.00  0.00     0.042 A 
ATOM     82  C   UNL     1       5.436  -5.761  -2.270  1.00  0.00     0.050 A 
ATOM     83  C   UNL     1       7.840  -6.852  -3.373  1.00  0.00     0.042 A 
ATOM     84  C   UNL     1       5.873  -7.056  -1.948  1.00  0.00     0.029 A 
ATOM     85  C   UNL     1       7.064  -7.591  -2.482  1.00  0.00     0.028 A 
BRANCH  82  86
ATOM     86  N   UNL     1       4.181  -5.301  -1.911  1.00  0.00    -0.360 N 
ATOM     87  C   UNL     1       3.339  -5.817  -0.815  1.00  0.00     0.178 C 
ATOM     88  C   UNL     1       3.389  -4.761  -3.014  1.00  0.00     0.178 C 
ATOM     89  C   UNL     1       2.225  -4.779  -0.420  1.00  0.00     0.284 C 
ATOM     90  C   UNL     1       2.594  -3.568  -2.494  1.00  0.00     0.284 C 
ATOM     91  N   UNL     1       1.618  -3.931  -1.474  1.00  0.00    -0.324 N 
ATOM     92  H   UNL     1       1.350  -3.078  -0.983  1.00  0.00     0.348 HD
BRANCH  91  93
ATOM     93  C   UNL     1       0.313  -4.352  -2.004  1.00  0.00     0.363 C 
BRANCH  93  94
ATOM     94  C   UNL     1       0.287  -5.676  -2.779  1.00  0.00     0.277 C 
ATOM     95  O   UNL     1       0.259  -6.743  -2.155  1.00  0.00    -0.268 OA
ATOM     96  N   UNL     1       0.259  -5.660  -4.180  1.00  0.00    -0.333 N 
ATOM     97  C   UNL     1       0.784  -4.581  -5.032  1.00  0.00     0.148 C 
ATOM     98  C   UNL     1       0.133  -6.956  -4.851  1.00  0.00     0.148 C 
ATOM     99  C   UNL     1       0.295  -4.604  -6.482  1.00  0.00     0.181 C 
ATOM    100  C   UNL     1      -0.442  -6.817  -6.260  1.00  0.00     0.181 C 
ATOM    101  O   UNL     1       0.352  -5.919  -7.044  1.00  0.00    -0.378 OA
ENDBRANCH  93  94
ENDBRANCH  91  93
ENDBRANCH  82  86
BRANCH  83 102
ATOM    102  N   UNL     1       9.032  -7.400  -3.889  1.00  0.00    -0.322 N 
ATOM    103  C   UNL     1      10.082  -6.805  -4.574  1.00  0.00     0.255 C 
ATOM    104  H   UNL     1       9.138  -8.367  -3.737  1.00  0.00     0.170 HD
ATOM    105  O   UNL     1      10.925  -7.499  -5.139  1.00  0.00    -0.269 OA
BRANCH 103 106
ATOM    106  C   UNL     1      10.235  -5.330  -4.622  1.00  0.00     0.041 A 
ATOM    107  C   UNL     1      10.253  -4.698  -5.873  1.00  0.00     0.014 A 
ATOM    108  C   UNL     1      10.234  -4.572  -3.444  1.00  0.00     0.034 A 
ATOM    109  C   UNL     1      10.181  -3.304  -5.945  1.00  0.00     0.002 A 
ATOM    110  C   UNL     1      10.137  -3.184  -3.530  1.00  0.00     0.041 A 
ATOM    111  C   UNL     1      10.102  -2.549  -4.772  1.00  0.00     0.020 A 
ATOM    112  Cl  UNL     1       9.970  -2.251  -2.094  1.00  0.00    -0.084 Cl
ENDBRANCH 103 106
ENDBRANCH  83 102
ENDBRANCH  77  80
ENDBRANCH  75  76
ENDBRANCH   1  75
TORSDOF 18
