REMARK SMILES O=C(NCCCNC(=O)c1ccc(-c2c3nc(c(-c4c(F)cc(S(=O)(=O)[O-])cc4F)c4ccc([nH]4)c(-c4c(F)cc(S(=O)(=O)[O-])cc4F)c4nc(c(-c5c(F)cc(S(=O)(=O)[O-])cc5F)c5ccc2[nH]5)C=C4)C=C3)cc1)C1=Cc2cc(S(F)(F)(F)(F)F)cc(Br)c2O[C@@H]1C(F)(F)F
REMARK SMILES IDX 6 1 5 2 4 3 3 4 1 5 2 6 76 8 77 9 92 10 78 11 91 12 79 13
REMARK SMILES IDX 90 14 80 15 88 16 87 17 89 18 93 19 94 20 95 21 96 22 81 23
REMARK SMILES IDX 82 24 83 25 84 26 85 27 86 28 7 29 8 30 9 32 10 33 11 34
REMARK SMILES IDX 75 35 12 36 74 37 13 38 14 39 15 40 68 41 16 42 73 43 67 44
REMARK SMILES IDX 69 45 17 46 72 47 66 48 65 49 18 51 52 52 31 53 51 54 32 55
REMARK SMILES IDX 35 56 50 57 70 58 33 59 34 60 49 62 71 63 36 64 19 65 20 66
REMARK SMILES IDX 29 67 21 68 22 69 28 70 30 71 23 72 24 73 25 74 26 75 27 76
REMARK SMILES IDX 53 77 54 78 63 79 55 80 56 81 62 82 64 83 57 84 58 85 59 86
REMARK SMILES IDX 60 87 61 88 37 89 38 90 47 91 39 92 40 93 46 94 48 95 41 96
REMARK SMILES IDX 42 97 43 98 44 99 45 100
REMARK H PARENT 3 7 7 31 69 50 35 61
REMARK Flexibility Score: inf
ROOT
ATOM      1  C   UNL     1       4.480   0.986  -3.474  1.00  0.00     0.118 C 
ENDROOT
BRANCH   1   2
ATOM      2  C   UNL     1       4.987   0.179  -2.290  1.00  0.00     0.042 C 
BRANCH   2   3
ATOM      3  C   UNL     1       4.480   0.801  -0.999  1.00  0.00     0.118 C 
BRANCH   3   4
ATOM      4  N   UNL     1       3.010   0.801  -0.999  1.00  0.00    -0.352 N 
ATOM      5  O   UNL     1       1.004   0.085   0.053  1.00  0.00    -0.270 OA
ATOM      6  C   UNL     1       2.275   0.085   0.053  1.00  0.00     0.251 C 
ATOM      7  H   UNL     1       2.518   1.281  -1.704  1.00  0.00     0.163 HD
BRANCH   6   8
ATOM      8  C   UNL     1       3.035  -0.656   1.141  1.00  0.00     0.067 C 
ATOM      9  C   UNL     1       4.396  -0.656   1.141  1.00  0.00     0.025 C 
ATOM     10  C   UNL     1       2.275  -1.398   2.229  1.00  0.00     0.314 C 
ATOM     11  C   UNL     1       5.155   0.085   0.053  1.00  0.00     0.020 A 
ATOM     12  O   UNL     1       3.578   1.824   0.416  1.00  0.00    -0.474 OA
ATOM     13  C   UNL     1       6.170  -0.515  -0.675  1.00  0.00     0.036 A 
ATOM     14  C   UNL     1       4.723   1.304  -0.244  1.00  0.00     0.142 A 
ATOM     15  C   UNL     1       6.868   0.375  -1.525  1.00  0.00     0.109 A 
ATOM     16  C   UNL     1       5.372   2.068  -1.183  1.00  0.00     0.062 A 
ATOM     17  C   UNL     1       6.421   1.560  -1.899  1.00  0.00     0.044 A 
ATOM     18  Br  UNL     1       4.788   3.911  -1.502  1.00  0.00    -0.047 Br
BRANCH  10  19
ATOM     19  C   UNL     1       2.642  -0.821   3.586  1.00  0.00     0.429 C 
ATOM     20  F   UNL     1       2.321   0.469   3.621  1.00  0.00    -0.167 F 
ATOM     21  F   UNL     1       1.977  -1.469   4.538  1.00  0.00    -0.167 F 
ATOM     22  F   UNL     1       3.950  -0.958   3.787  1.00  0.00    -0.167 F 
ENDBRANCH  10  19
BRANCH  15  23
ATOM     23  S   UNL     1       8.488  -0.146  -2.143  1.00  0.00     0.310 S 
ATOM     24  F   UNL     1       9.112  -0.200  -0.685  1.00  0.00    -0.094 F 
ATOM     25  F   UNL     1       8.933   1.364  -2.204  1.00  0.00    -0.094 F 
ATOM     26  F   UNL     1       9.871  -0.605  -2.685  1.00  0.00    -0.094 F 
ATOM     27  F   UNL     1       8.075  -1.657  -1.942  1.00  0.00    -0.094 F 
ATOM     28  F   UNL     1       7.122   0.300  -1.484  1.00  0.00    -0.094 F 
ENDBRANCH  15  23
ENDBRANCH   6   8
ENDBRANCH   3   4
ENDBRANCH   2   3
ENDBRANCH   1   2
BRANCH   1  29
ATOM     29  N   UNL     1       4.970   2.368  -3.371  1.00  0.00    -0.352 N 
ATOM     30  C   UNL     1       5.815   2.929  -4.435  1.00  0.00     0.251 C 
ATOM     31  H   UNL     1       4.732   2.918  -2.590  1.00  0.00     0.163 HD
ATOM     32  O   UNL     1       6.239   4.124  -4.346  1.00  0.00    -0.269 OA
BRANCH  30  33
ATOM     33  C   UNL     1       6.183   2.081  -5.641  1.00  0.00     0.039 A 
ATOM     34  C   UNL     1       7.534   2.017  -5.937  1.00  0.00     0.014 A 
ATOM     35  C   UNL     1       5.299   1.333  -6.292  1.00  0.00     0.014 A 
ATOM     36  C   UNL     1       7.826   1.338  -7.144  1.00  0.00     0.010 A 
ATOM     37  C   UNL     1       5.681   0.588  -7.381  1.00  0.00     0.010 A 
ATOM     38  C   UNL     1       6.992   0.526  -7.766  1.00  0.00    -0.014 A 
BRANCH  38  39
ATOM     39  C   UNL     1       7.463  -0.428  -8.852  1.00  0.00     0.031 A 
ATOM     40  C   UNL     1       6.944  -0.342 -10.145  1.00  0.00     0.074 A 
ATOM     41  C   UNL     1       8.284  -1.453  -8.414  1.00  0.00     0.049 A 
ATOM     42  N   UNL     1       7.160  -1.174 -11.165  1.00  0.00    -0.248 NA
ATOM     43  C   UNL     1       6.045   0.727 -10.603  1.00  0.00     0.031 C 
ATOM     44  C   UNL     1       8.819  -1.542  -7.114  1.00  0.00     0.029 A 
ATOM     45  N   UNL     1       8.725  -2.546  -9.127  1.00  0.00    -0.354 N 
ATOM     46  C   UNL     1       6.507  -0.752 -12.250  1.00  0.00     0.074 A 
ATOM     47  C   UNL     1       5.776   0.473 -11.902  1.00  0.00     0.031 C 
ATOM     48  C   UNL     1       9.561  -2.677  -7.040  1.00  0.00     0.029 A 
ATOM     49  C   UNL     1       9.505  -3.317  -8.293  1.00  0.00     0.049 A 
ATOM     50  H   UNL     1       8.519  -2.741 -10.069  1.00  0.00     0.167 HD
ATOM     51  C   UNL     1       6.495  -1.341 -13.516  1.00  0.00     0.037 A 
ATOM     52  C   UNL     1      10.137  -4.514  -8.589  1.00  0.00     0.037 A 
ATOM     53  C   UNL     1       7.162  -2.515 -13.824  1.00  0.00     0.049 A 
ATOM     54  C   UNL     1      10.077  -5.134  -9.840  1.00  0.00     0.074 A 
ATOM     55  C   UNL     1       7.167  -3.117 -15.097  1.00  0.00     0.029 A 
ATOM     56  N   UNL     1       7.921  -3.299 -12.983  1.00  0.00    -0.354 N 
ATOM     57  N   UNL     1       9.457  -4.691 -10.935  1.00  0.00    -0.248 NA
ATOM     58  C   UNL     1      10.716  -6.418 -10.156  1.00  0.00     0.031 C 
ATOM     59  C   UNL     1       7.910  -4.254 -15.023  1.00  0.00     0.029 A 
ATOM     60  C   UNL     1       8.382  -4.380 -13.702  1.00  0.00     0.049 A 
ATOM     61  H   UNL     1       8.104  -3.118 -12.033  1.00  0.00     0.167 HD
ATOM     62  C   UNL     1       9.639  -5.546 -11.943  1.00  0.00     0.074 A 
ATOM     63  C   UNL     1      10.445  -6.673 -11.455  1.00  0.00     0.031 C 
ATOM     64  C   UNL     1       9.168  -5.430 -13.252  1.00  0.00     0.037 A 
BRANCH  51  65
ATOM     65  C   UNL     1       5.705  -0.654 -14.618  1.00  0.00     0.058 A 
ATOM     66  C   UNL     1       6.151   0.596 -15.015  1.00  0.00     0.135 A 
ATOM     67  C   UNL     1       4.699  -1.257 -15.242  1.00  0.00     0.135 A 
ATOM     68  F   UNL     1       7.298   1.123 -14.596  1.00  0.00    -0.206 F 
ATOM     69  C   UNL     1       5.275   1.261 -15.905  1.00  0.00     0.059 A 
ATOM     70  C   UNL     1       3.972  -0.592 -16.200  1.00  0.00     0.059 A 
ATOM     71  F   UNL     1       4.393  -2.515 -14.937  1.00  0.00    -0.206 F 
ATOM     72  C   UNL     1       4.320   0.668 -16.599  1.00  0.00     0.060 A 
BRANCH  72  73
ATOM     73  S   UNL     1       3.515   1.482 -18.001  1.00  0.00     0.124 S 
ATOM     74  O   UNL     1       2.846   2.773 -17.526  1.00  0.00    -0.237 OA
ATOM     75  O   UNL     1       4.561   1.811 -19.069  1.00  0.00    -0.237 OA
ATOM     76  O   UNL     1       2.334   0.438 -18.664  1.00  0.00    -0.744 OA
ENDBRANCH  72  73
ENDBRANCH  51  65
BRANCH  52  77
ATOM     77  C   UNL     1      10.941  -5.191  -7.491  1.00  0.00     0.058 A 
ATOM     78  C   UNL     1      12.264  -5.501  -7.759  1.00  0.00     0.135 A 
ATOM     79  C   UNL     1      10.361  -5.567  -6.357  1.00  0.00     0.135 A 
ATOM     80  F   UNL     1      12.954  -4.940  -8.748  1.00  0.00    -0.206 F 
ATOM     81  C   UNL     1      12.814  -6.469  -6.886  1.00  0.00     0.059 A 
ATOM     82  C   UNL     1      11.011  -6.407  -5.484  1.00  0.00     0.059 A 
ATOM     83  F   UNL     1       9.141  -5.128  -6.063  1.00  0.00    -0.206 F 
ATOM     84  C   UNL     1      12.300  -6.801  -5.716  1.00  0.00     0.060 A 
BRANCH  84  85
ATOM     85  S   UNL     1      13.249  -7.728  -4.485  1.00  0.00     0.124 S 
ATOM     86  O   UNL     1      13.666  -9.078  -5.073  1.00  0.00    -0.237 OA
ATOM     87  O   UNL     1      14.498  -6.932  -4.099  1.00  0.00    -0.237 OA
ATOM     88  O   UNL     1      12.284  -7.985  -3.097  1.00  0.00    -0.744 OA
ENDBRANCH  84  85
ENDBRANCH  52  77
BRANCH  64  89
ATOM     89  C   UNL     1       9.540  -6.520 -14.244  1.00  0.00     0.058 A 
ATOM     90  C   UNL     1       8.988  -7.761 -13.972  1.00  0.00     0.135 A 
ATOM     91  C   UNL     1      10.224  -6.300 -15.360  1.00  0.00     0.135 A 
ATOM     92  F   UNL     1       8.093  -7.962 -13.008  1.00  0.00    -0.206 F 
ATOM     93  C   UNL     1       9.463  -8.796 -14.812  1.00  0.00     0.059 A 
ATOM     94  C   UNL     1      10.537  -7.338 -16.205  1.00  0.00     0.059 A 
ATOM     95  F   UNL     1      10.611  -5.064 -15.663  1.00  0.00    -0.206 F 
ATOM     96  C   UNL     1      10.075  -8.602 -15.966  1.00  0.00     0.060 A 
BRANCH  96  97
ATOM     97  S   UNL     1      10.291  -9.939 -17.167  1.00  0.00     0.124 S 
ATOM     98  O   UNL     1      11.103 -11.070 -16.532  1.00  0.00    -0.237 OA
ATOM     99  O   UNL     1       8.919 -10.472 -17.589  1.00  0.00    -0.237 OA
ATOM    100  O   UNL     1      11.119  -9.344 -18.540  1.00  0.00    -0.744 OA
ENDBRANCH  96  97
ENDBRANCH  64  89
ENDBRANCH  38  39
ENDBRANCH  30  33
ENDBRANCH   1  29
TORSDOF 15
