REMARK SMILES Cc1ccc(C(=O)NCCCNC(=O)c2ccc(-c3c4nc(c(-c5c(F)cc(S(=O)(=O)[O-])cc5F)c5ccc([nH]5)c(-c5c(F)cc(S(=O)(=O)[O-])cc5F)c5nc(c(-c6c(F)cc(S(=O)(=O)[O-])cc6F)c6ccc3[nH]6)C=C5)C=C4)cc2)cc1CNC(=O)C[N@@H+]1CCC[C@]2(CCOC2)C1
REMARK SMILES IDX 9 1 8 2 6 3 7 4 5 6 1 7 2 8 3 9 82 10 4 11 81 12 83 13 84 14
REMARK SMILES IDX 85 15 86 17 87 18 88 19 89 20 97 21 90 23 92 24 91 25 93 26
REMARK SMILES IDX 96 27 94 28 95 29 10 30 11 31 12 32 13 33 14 35 15 36 16 37
REMARK SMILES IDX 80 38 17 39 79 40 18 41 19 42 20 43 73 44 21 45 78 46 72 47
REMARK SMILES IDX 74 48 22 49 77 50 71 51 70 52 23 54 57 55 36 56 56 57 37 58
REMARK SMILES IDX 40 59 55 60 75 61 38 62 39 63 54 65 76 66 41 67 24 68 25 69
REMARK SMILES IDX 34 70 26 71 27 72 33 73 35 74 28 75 29 76 30 77 31 78 32 79
REMARK SMILES IDX 58 80 59 81 68 82 60 83 61 84 67 85 69 86 62 87 63 88 64 89
REMARK SMILES IDX 65 90 66 91 42 92 43 93 52 94 44 95 45 96 51 97 53 98 46 99
REMARK SMILES IDX 47 100 48 101 49 102 50 103
REMARK H PARENT 8 5 84 16 88 22 12 34 74 53 40 64
REMARK Flexibility Score: inf
ROOT
ATOM      1  C   UNL     1      -2.906   1.910   1.218  1.00  0.00     0.118 C 
ENDROOT
BRANCH   1   2
ATOM      2  N   UNL     1      -3.352   0.638   0.628  1.00  0.00    -0.352 N 
ATOM      3  C   UNL     1      -2.688  -0.427   0.049  1.00  0.00     0.251 C 
ATOM      4  O   UNL     1      -3.312  -1.448  -0.239  1.00  0.00    -0.269 OA
ATOM      5  H   UNL     1      -4.329   0.520   0.650  1.00  0.00     0.163 HD
BRANCH   3   6
ATOM      6  C   UNL     1      -1.214  -0.430  -0.137  1.00  0.00     0.040 A 
ATOM      7  C   UNL     1       3.099  -0.527   0.038  1.00  0.00     0.044 C 
ATOM      8  C   UNL     1       1.602  -0.418  -0.064  1.00  0.00    -0.046 A 
ATOM      9  C   UNL     1       0.880  -1.628   0.001  1.00  0.00     0.004 A 
ATOM     10  C   UNL     1       0.898   0.795  -0.234  1.00  0.00    -0.025 A 
ATOM     11  C   UNL     1      -0.516  -1.632  -0.001  1.00  0.00     0.014 A 
ATOM     12  C   UNL     1      -0.501   0.741  -0.374  1.00  0.00     0.019 A 
BRANCH  10  13
ATOM     13  C   UNL     1       1.493   2.176  -0.043  1.00  0.00     0.152 C 
BRANCH  13  14
ATOM     14  N   UNL     1       1.164   3.114  -1.092  1.00  0.00    -0.347 N 
ATOM     15  C   UNL     1       1.054   4.474  -1.007  1.00  0.00     0.275 C 
ATOM     16  H   UNL     1       0.997   2.724  -1.980  1.00  0.00     0.164 HD
ATOM     17  O   UNL     1       1.081   5.122  -2.059  1.00  0.00    -0.268 OA
BRANCH  15  18
ATOM     18  C   UNL     1       0.896   5.191   0.355  1.00  0.00     0.363 C 
BRANCH  18  19
ATOM     19  N   UNL     1      -0.490   5.138   0.826  1.00  0.00    -0.327 N 
ATOM     20  C   UNL     1      -1.452   5.754  -0.104  1.00  0.00     0.262 C 
ATOM     21  C   UNL     1      -0.736   5.506   2.225  1.00  0.00     0.272 C 
ATOM     22  H   UNL     1      -0.669   4.133   0.825  1.00  0.00     0.348 HD
ATOM     23  C   UNL     1      -1.710   7.228   0.052  1.00  0.00     0.062 C 
ATOM     24  C   UNL     1      -1.123   6.987   2.494  1.00  0.00     0.045 C 
ATOM     25  C   UNL     1      -2.157   7.488   1.485  1.00  0.00     0.021 C 
ATOM     26  C   UNL     1       0.099   7.899   2.488  1.00  0.00     0.043 C 
ATOM     27  C   UNL     1      -1.668   7.130   3.918  1.00  0.00     0.173 C 
ATOM     28  C   UNL     1       0.279   8.319   3.931  1.00  0.00     0.161 C 
ATOM     29  O   UNL     1      -0.534   7.455   4.726  1.00  0.00    -0.381 OA
ENDBRANCH  18  19
ENDBRANCH  15  18
ENDBRANCH  13  14
ENDBRANCH  10  13
ENDBRANCH   3   6
ENDBRANCH   1   2
BRANCH   1  30
ATOM     30  C   UNL     1      -3.092   3.186   0.305  1.00  0.00     0.042 C 
BRANCH  30  31
ATOM     31  C   UNL     1      -4.308   4.196   0.770  1.00  0.00     0.118 C 
BRANCH  31  32
ATOM     32  N   UNL     1      -4.961   5.693   0.522  1.00  0.00    -0.352 N 
ATOM     33  C   UNL     1      -6.055   6.590   0.029  1.00  0.00     0.251 C 
ATOM     34  H   UNL     1      -4.287   6.312   0.884  1.00  0.00     0.163 HD
ATOM     35  O   UNL     1      -6.133   7.587   0.785  1.00  0.00    -0.269 OA
BRANCH  33  36
ATOM     36  C   UNL     1      -7.306   6.598  -1.062  1.00  0.00     0.039 A 
ATOM     37  C   UNL     1      -8.667   6.823  -0.646  1.00  0.00     0.014 A 
ATOM     38  C   UNL     1      -7.274   6.254  -2.403  1.00  0.00     0.014 A 
ATOM     39  C   UNL     1      -9.757   6.037  -1.220  1.00  0.00     0.010 A 
ATOM     40  C   UNL     1      -8.368   5.562  -3.015  1.00  0.00     0.010 A 
ATOM     41  C   UNL     1      -9.513   5.195  -2.312  1.00  0.00    -0.014 A 
BRANCH  41  42
ATOM     42  C   UNL     1     -10.197   3.885  -2.684  1.00  0.00     0.031 A 
ATOM     43  C   UNL     1     -11.075   3.743  -3.850  1.00  0.00     0.074 A 
ATOM     44  C   UNL     1      -9.870   2.626  -2.262  1.00  0.00     0.049 A 
ATOM     45  N   UNL     1     -12.325   3.397  -3.833  1.00  0.00    -0.248 NA
ATOM     46  C   UNL     1     -10.452   3.753  -5.168  1.00  0.00     0.031 C 
ATOM     47  C   UNL     1     -10.364   1.285  -2.640  1.00  0.00     0.029 A 
ATOM     48  N   UNL     1      -8.963   2.257  -1.298  1.00  0.00    -0.354 N 
ATOM     49  C   UNL     1     -12.571   2.895  -5.103  1.00  0.00     0.074 A 
ATOM     50  C   UNL     1     -11.459   3.333  -5.933  1.00  0.00     0.031 C 
ATOM     51  C   UNL     1     -10.097   0.411  -1.643  1.00  0.00     0.029 A 
ATOM     52  C   UNL     1      -9.445   1.153  -0.590  1.00  0.00     0.049 A 
ATOM     53  H   UNL     1      -8.102   2.704  -1.131  1.00  0.00     0.167 HD
ATOM     54  C   UNL     1     -13.366   1.804  -5.342  1.00  0.00     0.037 A 
ATOM     55  C   UNL     1      -9.809   1.312   0.722  1.00  0.00     0.037 A 
ATOM     56  C   UNL     1     -13.588   1.006  -4.130  1.00  0.00     0.049 A 
ATOM     57  C   UNL     1     -11.276   1.191   0.946  1.00  0.00     0.074 A 
ATOM     58  C   UNL     1     -13.146  -0.263  -3.771  1.00  0.00     0.029 A 
ATOM     59  N   UNL     1     -14.088   1.575  -2.965  1.00  0.00    -0.354 N 
ATOM     60  N   UNL     1     -12.085   0.953  -0.034  1.00  0.00    -0.248 NA
ATOM     61  C   UNL     1     -11.977   1.390   2.212  1.00  0.00     0.031 C 
ATOM     62  C   UNL     1     -13.361  -0.443  -2.386  1.00  0.00     0.029 A 
ATOM     63  C   UNL     1     -13.938   0.713  -1.893  1.00  0.00     0.049 A 
ATOM     64  H   UNL     1     -14.493   2.470  -2.910  1.00  0.00     0.167 HD
ATOM     65  C   UNL     1     -13.369   1.105   0.378  1.00  0.00     0.074 A 
ATOM     66  C   UNL     1     -13.260   1.292   1.812  1.00  0.00     0.031 C 
ATOM     67  C   UNL     1     -14.362   1.100  -0.552  1.00  0.00     0.037 A 
BRANCH  54  68
ATOM     68  C   UNL     1     -13.601   1.262  -6.751  1.00  0.00     0.058 A 
ATOM     69  C   UNL     1     -14.015  -0.064  -7.002  1.00  0.00     0.135 A 
ATOM     70  C   UNL     1     -13.492   2.064  -7.911  1.00  0.00     0.135 A 
ATOM     71  F   UNL     1     -14.319  -0.910  -6.010  1.00  0.00    -0.206 F 
ATOM     72  C   UNL     1     -14.187  -0.579  -8.289  1.00  0.00     0.059 A 
ATOM     73  C   UNL     1     -13.602   1.560  -9.210  1.00  0.00     0.059 A 
ATOM     74  F   UNL     1     -13.316   3.393  -7.822  1.00  0.00    -0.206 F 
ATOM     75  C   UNL     1     -13.959   0.233  -9.390  1.00  0.00     0.060 A 
BRANCH  75  76
ATOM     76  S   UNL     1     -14.229  -0.438 -11.039  1.00  0.00     0.124 S 
ATOM     77  O   UNL     1     -13.395  -1.636 -11.032  1.00  0.00    -0.237 OA
ATOM     78  O   UNL     1     -15.670  -0.668 -11.036  1.00  0.00    -0.237 OA
ATOM     79  O   UNL     1     -13.770   0.631 -11.922  1.00  0.00    -0.744 OA
ENDBRANCH  75  76
ENDBRANCH  54  68
BRANCH  55  80
ATOM     80  C   UNL     1      -8.925   2.212   1.541  1.00  0.00     0.058 A 
ATOM     81  C   UNL     1      -7.623   1.743   1.621  1.00  0.00     0.135 A 
ATOM     82  C   UNL     1      -8.955   3.547   1.201  1.00  0.00     0.135 A 
ATOM     83  F   UNL     1      -7.228   1.066   2.704  1.00  0.00    -0.206 F 
ATOM     84  C   UNL     1      -6.639   2.216   0.762  1.00  0.00     0.059 A 
ATOM     85  C   UNL     1      -7.928   4.061   0.401  1.00  0.00     0.059 A 
ATOM     86  F   UNL     1     -10.025   4.312   1.469  1.00  0.00    -0.206 F 
ATOM     87  C   UNL     1      -6.922   3.261  -0.103  1.00  0.00     0.060 A 
BRANCH  87  88
ATOM     88  S   UNL     1      -5.943   3.408  -1.872  1.00  0.00     0.124 S 
ATOM     89  O   UNL     1      -5.190   4.681  -1.868  1.00  0.00    -0.237 OA
ATOM     90  O   UNL     1      -5.043   2.246  -1.770  1.00  0.00    -0.237 OA
ATOM     91  O   UNL     1      -6.926   3.259  -2.871  1.00  0.00    -0.744 OA
ENDBRANCH  87  88
ENDBRANCH  55  80
BRANCH  67  92
ATOM     92  C   UNL     1     -15.810   1.361  -0.291  1.00  0.00     0.058 A 
ATOM     93  C   UNL     1     -16.302   2.159   0.751  1.00  0.00     0.135 A 
ATOM     94  C   UNL     1     -16.772   0.845  -1.192  1.00  0.00     0.135 A 
ATOM     95  F   UNL     1     -15.482   2.800   1.594  1.00  0.00    -0.206 F 
ATOM     96  C   UNL     1     -17.667   2.354   0.944  1.00  0.00     0.059 A 
ATOM     97  C   UNL     1     -18.129   1.083  -1.056  1.00  0.00     0.059 A 
ATOM     98  F   UNL     1     -16.422   0.084  -2.240  1.00  0.00    -0.206 F 
ATOM     99  C   UNL     1     -18.572   1.804   0.040  1.00  0.00     0.060 A 
BRANCH  99 100
ATOM    100  S   UNL     1     -20.335   2.043   0.285  1.00  0.00     0.124 S 
ATOM    101  O   UNL     1     -20.648   0.948   1.198  1.00  0.00    -0.237 OA
ATOM    102  O   UNL     1     -20.399   3.383   0.862  1.00  0.00    -0.237 OA
ATOM    103  O   UNL     1     -20.882   1.921  -1.062  1.00  0.00    -0.744 OA
ENDBRANCH  99 100
ENDBRANCH  67  92
ENDBRANCH  41  42
ENDBRANCH  33  36
ENDBRANCH  31  32
ENDBRANCH  30  31
ENDBRANCH   1  30
TORSDOF 17
