REMARK SMILES Cc1ccccc1C(=O)Nc1ccc(OCC(=O)NCCCNC(=O)c2ccc(-c3c4nc(c(-c5c(F)cc(S(=O)(=O)[O-])cc5F)c5ccc([nH]5)c(-c5c(F)cc(S(=O)(=O)[O-])cc5F)c5nc(c(-c6c(F)cc(S(=O)(=O)[O-])cc6F)c6ccc3[nH]6)C=C5)C=C4)cc2)c(-c2nc3ccccc3s2)c1
REMARK SMILES IDX 20 1 19 2 17 3 18 4 16 6 15 7 14 8 11 9 12 10 102 11 13 12
REMARK SMILES IDX 92 13 10 14 8 15 9 16 7 18 1 19 2 20 3 21 4 22 6 23 5 24
REMARK SMILES IDX 93 25 94 26 101 27 95 28 100 29 96 30 99 31 97 32 98 33
REMARK SMILES IDX 21 34 22 35 23 36 24 37 25 39 26 40 27 41 91 42 28 43 90 44
REMARK SMILES IDX 29 45 30 46 31 47 84 48 32 49 89 50 83 51 85 52 33 53 88 54
REMARK SMILES IDX 82 55 81 56 34 58 68 59 47 60 67 61 48 62 51 63 66 64 86 65
REMARK SMILES IDX 49 66 50 67 65 69 87 70 52 71 35 72 36 73 45 74 37 75 38 76
REMARK SMILES IDX 44 77 46 78 39 79 40 80 41 81 42 82 43 83 69 84 70 85 79 86
REMARK SMILES IDX 71 87 72 88 78 89 80 90 73 91 74 92 75 93 76 94 77 95 53 96
REMARK SMILES IDX 54 97 63 98 55 99 56 100 62 101 64 102 57 103 58 104 59 105
REMARK SMILES IDX 60 106 61 107
REMARK H PARENT 19 5 10 17 23 38 85 57 51 68
REMARK Flexibility Score: inf
ROOT
ATOM      1  C   UNL     1       5.029  -4.890   2.017  1.00  0.00     0.117 C 
ENDROOT
BRANCH   1   2
ATOM      2  N   UNL     1       3.989  -4.559   1.058  1.00  0.00    -0.353 N 
ATOM      3  C   UNL     1       4.072  -3.755  -0.045  1.00  0.00     0.257 C 
ATOM      4  O   UNL     1       3.027  -3.492  -0.637  1.00  0.00    -0.271 OA
ATOM      5  H   UNL     1       3.108  -4.968   1.223  1.00  0.00     0.163 HD
BRANCH   3   6
ATOM      6  C   UNL     1       5.474  -3.251  -0.492  1.00  0.00     0.329 C 
BRANCH   6   7
ATOM      7  O   UNL     1       5.645  -2.243  -1.489  1.00  0.00    -0.483 OA
BRANCH   7   8
ATOM      8  C   UNL     1       4.916  -1.110  -1.241  1.00  0.00     0.130 A 
ATOM      9  C   UNL     1       3.401   1.105  -0.492  1.00  0.00     0.042 A 
ATOM     10  C   UNL     1       4.641   0.883   0.107  1.00  0.00     0.030 A 
ATOM     11  C   UNL     1       2.999   0.308  -1.567  1.00  0.00     0.041 A 
ATOM     12  C   UNL     1       5.380  -0.244  -0.242  1.00  0.00     0.049 A 
ATOM     13  C   UNL     1       3.769  -0.797  -1.997  1.00  0.00     0.055 A 
BRANCH   9  14
ATOM     14  N   UNL     1       2.599   2.111   0.060  1.00  0.00    -0.322 N 
ATOM     15  C   UNL     1       1.232   2.189   0.218  1.00  0.00     0.255 C 
ATOM     16  O   UNL     1       0.748   3.283   0.519  1.00  0.00    -0.269 OA
ATOM     17  H   UNL     1       3.095   2.894   0.391  1.00  0.00     0.170 HD
BRANCH  15  18
ATOM     18  C   UNL     1       0.328   1.001   0.130  1.00  0.00     0.043 A 
ATOM     19  C   UNL     1       1.778  -0.607   1.541  1.00  0.00     0.045 C 
ATOM     20  C   UNL     1       0.581  -0.265   0.700  1.00  0.00    -0.038 A 
ATOM     21  C   UNL     1      -0.364  -1.294   0.516  1.00  0.00     0.004 A 
ATOM     22  C   UNL     1      -1.585  -1.049  -0.109  1.00  0.00     0.000 A 
ATOM     23  C   UNL     1      -0.925   1.241  -0.467  1.00  0.00     0.014 A 
ATOM     24  C   UNL     1      -1.878   0.227  -0.574  1.00  0.00     0.001 A 
ENDBRANCH  15  18
ENDBRANCH   9  14
BRANCH  13  25
ATOM     25  C   UNL     1       3.252  -1.577  -3.151  1.00  0.00     0.128 A 
ATOM     26  N   UNL     1       2.234  -1.183  -3.898  1.00  0.00    -0.236 NA
ATOM     27  S   UNL     1       3.909  -3.093  -3.650  1.00  0.00    -0.114 S 
ATOM     28  C   UNL     1       1.755  -2.245  -4.646  1.00  0.00     0.082 A 
ATOM     29  C   UNL     1       2.497  -3.418  -4.554  1.00  0.00     0.055 A 
ATOM     30  C   UNL     1       0.588  -2.248  -5.433  1.00  0.00     0.030 A 
ATOM     31  C   UNL     1       2.082  -4.621  -5.143  1.00  0.00     0.021 A 
ATOM     32  C   UNL     1       0.160  -3.440  -6.028  1.00  0.00     0.002 A 
ATOM     33  C   UNL     1       0.887  -4.615  -5.864  1.00  0.00     0.002 A 
ENDBRANCH  13  25
ENDBRANCH   7   8
ENDBRANCH   6   7
ENDBRANCH   3   6
ENDBRANCH   1   2
BRANCH   1  34
ATOM     34  C   UNL     1       5.242  -3.752   3.011  1.00  0.00     0.042 C 
BRANCH  34  35
ATOM     35  C   UNL     1       4.104  -3.630   4.009  1.00  0.00     0.118 C 
BRANCH  35  36
ATOM     36  N   UNL     1       4.257  -4.457   5.195  1.00  0.00    -0.352 N 
ATOM     37  C   UNL     1       3.675  -4.049   6.392  1.00  0.00     0.251 C 
ATOM     38  H   UNL     1       4.768  -5.297   5.152  1.00  0.00     0.163 HD
ATOM     39  O   UNL     1       4.287  -3.688   7.379  1.00  0.00    -0.269 OA
BRANCH  37  40
ATOM     40  C   UNL     1       2.197  -4.002   6.338  1.00  0.00     0.039 A 
ATOM     41  C   UNL     1       1.446  -5.093   6.779  1.00  0.00     0.014 A 
ATOM     42  C   UNL     1       1.616  -2.969   5.602  1.00  0.00     0.014 A 
ATOM     43  C   UNL     1       0.120  -5.213   6.362  1.00  0.00     0.010 A 
ATOM     44  C   UNL     1       0.339  -3.138   5.115  1.00  0.00     0.010 A 
ATOM     45  C   UNL     1      -0.402  -4.271   5.473  1.00  0.00    -0.014 A 
BRANCH  45  46
ATOM     46  C   UNL     1      -1.690  -4.395   4.803  1.00  0.00     0.031 A 
ATOM     47  C   UNL     1      -2.824  -3.531   5.208  1.00  0.00     0.074 A 
ATOM     48  C   UNL     1      -1.798  -5.184   3.713  1.00  0.00     0.049 A 
ATOM     49  N   UNL     1      -4.059  -3.767   4.921  1.00  0.00    -0.248 NA
ATOM     50  C   UNL     1      -2.646  -2.326   6.011  1.00  0.00     0.031 C 
ATOM     51  C   UNL     1      -2.847  -5.148   2.700  1.00  0.00     0.029 A 
ATOM     52  N   UNL     1      -1.050  -6.319   3.397  1.00  0.00    -0.354 N 
ATOM     53  C   UNL     1      -4.793  -2.647   5.248  1.00  0.00     0.074 A 
ATOM     54  C   UNL     1      -3.874  -1.799   5.971  1.00  0.00     0.031 C 
ATOM     55  C   UNL     1      -2.842  -6.307   2.024  1.00  0.00     0.029 A 
ATOM     56  C   UNL     1      -1.897  -7.189   2.684  1.00  0.00     0.049 A 
ATOM     57  H   UNL     1      -0.107  -6.481   3.629  1.00  0.00     0.167 HD
ATOM     58  C   UNL     1      -6.060  -2.508   4.758  1.00  0.00     0.037 A 
ATOM     59  C   UNL     1      -2.210  -8.426   3.176  1.00  0.00     0.037 A 
ATOM     60  C   UNL     1      -6.446  -3.682   3.976  1.00  0.00     0.049 A 
ATOM     61  C   UNL     1      -3.683  -8.613   3.461  1.00  0.00     0.074 A 
ATOM     62  C   UNL     1      -6.414  -3.944   2.616  1.00  0.00     0.029 A 
ATOM     63  N   UNL     1      -6.646  -4.903   4.610  1.00  0.00    -0.354 N 
ATOM     64  N   UNL     1      -4.531  -7.630   3.591  1.00  0.00    -0.248 NA
ATOM     65  C   UNL     1      -4.318  -9.918   3.619  1.00  0.00     0.031 C 
ATOM     66  C   UNL     1      -6.535  -5.342   2.435  1.00  0.00     0.029 A 
ATOM     67  C   UNL     1      -6.662  -5.929   3.683  1.00  0.00     0.049 A 
ATOM     68  H   UNL     1      -6.760  -5.021   5.580  1.00  0.00     0.167 HD
ATOM     69  C   UNL     1      -5.778  -8.129   3.869  1.00  0.00     0.074 A 
ATOM     70  C   UNL     1      -5.596  -9.569   3.851  1.00  0.00     0.031 C 
ATOM     71  C   UNL     1      -6.852  -7.312   4.094  1.00  0.00     0.037 A 
BRANCH  58  72
ATOM     72  C   UNL     1      -6.829  -1.199   4.735  1.00  0.00     0.058 A 
ATOM     73  C   UNL     1      -7.748  -0.919   3.697  1.00  0.00     0.135 A 
ATOM     74  C   UNL     1      -6.676  -0.160   5.673  1.00  0.00     0.135 A 
ATOM     75  F   UNL     1      -8.082  -1.842   2.785  1.00  0.00    -0.206 F 
ATOM     76  C   UNL     1      -8.364   0.324   3.536  1.00  0.00     0.059 A 
ATOM     77  C   UNL     1      -7.238   1.112   5.504  1.00  0.00     0.059 A 
ATOM     78  F   UNL     1      -6.018  -0.353   6.823  1.00  0.00    -0.206 F 
ATOM     79  C   UNL     1      -8.073   1.349   4.422  1.00  0.00     0.060 A 
BRANCH  79  80
ATOM     80  S   UNL     1      -8.812   2.970   4.146  1.00  0.00     0.124 S 
ATOM     81  O   UNL     1      -8.409   3.263   2.773  1.00  0.00    -0.237 OA
ATOM     82  O   UNL     1     -10.231   2.697   4.346  1.00  0.00    -0.237 OA
ATOM     83  O   UNL     1      -8.186   3.808   5.166  1.00  0.00    -0.744 OA
ENDBRANCH  79  80
ENDBRANCH  58  72
BRANCH  59  84
ATOM     84  C   UNL     1      -1.085  -9.049   3.931  1.00  0.00     0.058 A 
ATOM     85  C   UNL     1       0.053  -9.423   3.192  1.00  0.00     0.135 A 
ATOM     86  C   UNL     1      -0.918  -8.816   5.303  1.00  0.00     0.135 A 
ATOM     87  F   UNL     1      -0.058  -9.691   1.880  1.00  0.00    -0.206 F 
ATOM     88  C   UNL     1       1.331  -9.365   3.739  1.00  0.00     0.059 A 
ATOM     89  C   UNL     1       0.356  -8.764   5.876  1.00  0.00     0.059 A 
ATOM     90  F   UNL     1      -1.968  -8.475   6.065  1.00  0.00    -0.206 F 
ATOM     91  C   UNL     1       1.474  -8.946   5.059  1.00  0.00     0.060 A 
BRANCH  91  92
ATOM     92  S   UNL     1       3.129  -8.479   5.629  1.00  0.00     0.124 S 
ATOM     93  O   UNL     1       3.920  -9.653   5.280  1.00  0.00    -0.237 OA
ATOM     94  O   UNL     1       3.403  -7.276   4.836  1.00  0.00    -0.237 OA
ATOM     95  O   UNL     1       2.940  -8.245   7.055  1.00  0.00    -0.744 OA
ENDBRANCH  91  92
ENDBRANCH  59  84
BRANCH  71  96
ATOM     96  C   UNL     1      -8.209  -7.737   4.614  1.00  0.00     0.058 A 
ATOM     97  C   UNL     1      -8.424  -8.855   5.438  1.00  0.00     0.135 A 
ATOM     98  C   UNL     1      -9.347  -6.918   4.398  1.00  0.00     0.135 A 
ATOM     99  F   UNL     1      -7.411  -9.646   5.821  1.00  0.00    -0.206 F 
ATOM    100  C   UNL     1      -9.683  -9.182   5.947  1.00  0.00     0.059 A 
ATOM    101  C   UNL     1     -10.598  -7.194   4.944  1.00  0.00     0.059 A 
ATOM    102  F   UNL     1      -9.279  -5.804   3.654  1.00  0.00    -0.206 F 
ATOM    103  C   UNL     1     -10.766  -8.346   5.694  1.00  0.00     0.060 A 
BRANCH 103 104
ATOM    104  S   UNL     1     -12.381  -8.726   6.398  1.00  0.00     0.124 S 
ATOM    105  O   UNL     1     -12.988  -9.508   5.326  1.00  0.00    -0.237 OA
ATOM    106  O   UNL     1     -12.042  -9.473   7.606  1.00  0.00    -0.237 OA
ATOM    107  O   UNL     1     -12.961  -7.407   6.629  1.00  0.00    -0.744 OA
ENDBRANCH 103 104
ENDBRANCH  71  96
ENDBRANCH  45  46
ENDBRANCH  37  40
ENDBRANCH  35  36
ENDBRANCH  34  35
ENDBRANCH   1  34
TORSDOF 18
