REMARK SMILES C[C@@H]1CN(C(=O)[C@@H]2CCCCC[C@@H]2[NH3+])C[C@H]1C(=O)NCCCNC(=O)c1ccc(-c2c3nc(c(-c4c(F)cc(S(=O)(=O)[O-])cc4F)c4ccc([nH]4)c(-c4c(F)cc(S(=O)(=O)[O-])cc4F)c4nc(c(-c5c(F)cc(S(=O)(=O)[O-])cc5F)c5ccc2[nH]5)C=C4)C=C3)cc1
REMARK SMILES IDX 20 1 19 2 17 3 18 4 16 6 1 7 2 8 3 9 4 10 15 11 5 12 6 13
REMARK SMILES IDX 7 14 8 15 9 16 10 17 13 19 12 20 11 21 14 23 21 27 22 28
REMARK SMILES IDX 23 29 24 30 25 32 26 33 27 34 91 35 28 36 90 37 29 38 30 39
REMARK SMILES IDX 31 40 84 41 32 42 89 43 83 44 85 45 33 46 88 47 82 48 81 49
REMARK SMILES IDX 34 51 68 52 47 53 67 54 48 55 51 56 66 57 86 58 49 59 50 60
REMARK SMILES IDX 65 62 87 63 52 64 35 65 36 66 45 67 37 68 38 69 44 70 46 71
REMARK SMILES IDX 39 72 40 73 41 74 42 75 43 76 69 77 70 78 79 79 71 80 72 81
REMARK SMILES IDX 78 82 80 83 73 84 74 85 75 86 76 87 77 88 53 89 54 90 63 91
REMARK SMILES IDX 55 92 56 93 62 94 64 95 57 96 58 97 59 98 60 99 61 100
REMARK H PARENT 19 5 14 24 14 25 14 26 23 31 85 50 51 61
REMARK Flexibility Score: 90.00
ROOT
ATOM      1  C   UNL     1       1.277   0.300  -2.855  1.00  0.00     0.117 C 
ENDROOT
BRANCH   1   2
ATOM      2  N   UNL     1       0.664   1.577  -2.563  1.00  0.00    -0.356 N 
ATOM      3  C   UNL     1       0.189   2.059  -1.380  1.00  0.00     0.225 C 
ATOM      4  O   UNL     1      -0.190   3.235  -1.362  1.00  0.00    -0.275 OA
ATOM      5  H   UNL     1       0.578   2.188  -3.331  1.00  0.00     0.163 HD
BRANCH   3   6
ATOM      6  C   UNL     1       0.097   1.213  -0.108  1.00  0.00     0.102 C 
ATOM      7  C   UNL     1      -2.113   0.098   0.494  1.00  0.00     0.010 C 
ATOM      8  C   UNL     1      -0.791  -0.039  -0.256  1.00  0.00     0.020 C 
ATOM      9  C   UNL     1       0.057  -1.198   0.282  1.00  0.00     0.123 C 
ATOM     10  N   UNL     1       1.432  -0.723   0.255  1.00  0.00    -0.341 N 
ATOM     11  C   UNL     1       1.452   0.724   0.401  1.00  0.00     0.133 C 
BRANCH  10  12
ATOM     12  C   UNL     1       2.618  -1.423   0.148  1.00  0.00     0.231 C 
ATOM     13  O   UNL     1       3.686  -0.855   0.413  1.00  0.00    -0.274 OA
BRANCH  12  14
ATOM     14  C   UNL     1       2.673  -2.870  -0.389  1.00  0.00     0.136 C 
BRANCH  14  15
ATOM     15  C   UNL     1       2.064  -2.974  -1.798  1.00  0.00     0.020 C 
BRANCH  15  16
ATOM     16  C   UNL     1       2.514  -4.184  -2.611  1.00  0.00     0.001 C 
BRANCH  16  17
ATOM     17  C   UNL     1       1.679  -5.435  -2.382  1.00  0.00     0.000 CG0
ATOM     18  G   UNL     1       1.337  -5.751  -0.931  1.00  0.00     0.000 G0
ENDBRANCH  16  17
ENDBRANCH  15  16
ENDBRANCH  14  15
BRANCH  14  19
ATOM     19  C   UNL     1       2.354  -3.965   0.649  1.00  0.00     0.193 C 
BRANCH  19  20
ATOM     20  C   UNL     1       2.434  -5.399   0.078  1.00  0.00     0.066 C 
BRANCH  20  21
ATOM     21  C   UNL     1       1.337  -5.751  -0.931  1.00  0.00     0.006 CG0
ATOM     22  G   UNL     1       1.679  -5.435  -2.382  1.00  0.00     0.000 G0
ENDBRANCH  20  21
ENDBRANCH  19  20
BRANCH  19  23
ATOM     23  N   UNL     1       1.084  -3.803   1.361  1.00  0.00    -0.354 N 
ATOM     24  H   UNL     1       0.310  -3.928   0.709  1.00  0.00     0.344 HD
ATOM     25  H   UNL     1       1.039  -2.869   1.768  1.00  0.00     0.344 HD
ATOM     26  H   UNL     1       1.019  -4.500   2.103  1.00  0.00     0.344 HD
ENDBRANCH  19  23
ENDBRANCH  14  19
ENDBRANCH  12  14
ENDBRANCH  10  12
ENDBRANCH   3   6
ENDBRANCH   1   2
BRANCH   1  27
ATOM     27  C   UNL     1       0.669  -0.421  -4.048  1.00  0.00     0.042 C 
BRANCH  27  28
ATOM     28  C   UNL     1       1.477  -0.268  -5.327  1.00  0.00     0.118 C 
BRANCH  28  29
ATOM     29  N   UNL     1       2.830  -0.818  -5.239  1.00  0.00    -0.352 N 
ATOM     30  C   UNL     1       3.430  -1.935  -5.775  1.00  0.00     0.251 C 
ATOM     31  H   UNL     1       3.435  -0.278  -4.682  1.00  0.00     0.163 HD
ATOM     32  O   UNL     1       4.573  -2.211  -5.423  1.00  0.00    -0.269 OA
BRANCH  30  33
ATOM     33  C   UNL     1       2.725  -2.830  -6.724  1.00  0.00     0.039 A 
ATOM     34  C   UNL     1       3.002  -4.204  -6.698  1.00  0.00     0.014 A 
ATOM     35  C   UNL     1       1.817  -2.341  -7.657  1.00  0.00     0.014 A 
ATOM     36  C   UNL     1       2.291  -5.084  -7.524  1.00  0.00     0.010 A 
ATOM     37  C   UNL     1       1.026  -3.222  -8.386  1.00  0.00     0.010 A 
ATOM     38  C   UNL     1       1.252  -4.605  -8.333  1.00  0.00    -0.014 A 
BRANCH  38  39
ATOM     39  C   UNL     1       0.388  -5.494  -9.158  1.00  0.00     0.031 A 
ATOM     40  C   UNL     1       0.258  -5.228 -10.638  1.00  0.00     0.074 A 
ATOM     41  C   UNL     1      -0.384  -6.432  -8.570  1.00  0.00     0.049 A 
ATOM     42  N   UNL     1      -0.635  -5.670 -11.484  1.00  0.00    -0.248 NA
ATOM     43  C   UNL     1       1.230  -4.293 -11.230  1.00  0.00     0.031 C 
ATOM     44  C   UNL     1      -0.393  -6.760  -7.142  1.00  0.00     0.029 A 
ATOM     45  N   UNL     1      -1.343  -7.261  -9.102  1.00  0.00    -0.354 N 
ATOM     46  C   UNL     1      -0.376  -5.016 -12.684  1.00  0.00     0.074 A 
ATOM     47  C   UNL     1       0.741  -4.127 -12.451  1.00  0.00     0.031 C 
ATOM     48  C   UNL     1      -1.304  -7.721  -6.914  1.00  0.00     0.029 A 
ATOM     49  C   UNL     1      -1.983  -8.040  -8.164  1.00  0.00     0.049 A 
ATOM     50  H   UNL     1      -1.553  -7.294 -10.063  1.00  0.00     0.167 HD
ATOM     51  C   UNL     1      -1.003  -5.156 -13.875  1.00  0.00     0.037 A 
ATOM     52  C   UNL     1      -3.018  -8.893  -8.293  1.00  0.00     0.037 A 
ATOM     53  C   UNL     1      -2.043  -6.117 -14.124  1.00  0.00     0.049 A 
ATOM     54  C   UNL     1      -3.646  -9.087  -9.648  1.00  0.00     0.074 A 
ATOM     55  C   UNL     1      -2.669  -6.412 -15.323  1.00  0.00     0.029 A 
ATOM     56  N   UNL     1      -2.590  -6.956 -13.167  1.00  0.00    -0.354 N 
ATOM     57  N   UNL     1      -3.359  -8.490 -10.781  1.00  0.00    -0.248 NA
ATOM     58  C   UNL     1      -4.737 -10.068  -9.746  1.00  0.00     0.031 C 
ATOM     59  C   UNL     1      -3.612  -7.416 -15.085  1.00  0.00     0.029 A 
ATOM     60  C   UNL     1      -3.547  -7.769 -13.747  1.00  0.00     0.049 A 
ATOM     61  H   UNL     1      -2.335  -6.972 -12.216  1.00  0.00     0.167 HD
ATOM     62  C   UNL     1      -4.207  -9.050 -11.730  1.00  0.00     0.074 A 
ATOM     63  C   UNL     1      -5.016 -10.034 -11.042  1.00  0.00     0.031 C 
ATOM     64  C   UNL     1      -4.309  -8.773 -13.052  1.00  0.00     0.037 A 
BRANCH  51  65
ATOM     65  C   UNL     1      -0.574  -4.274 -15.013  1.00  0.00     0.058 A 
ATOM     66  C   UNL     1       0.650  -4.462 -15.673  1.00  0.00     0.135 A 
ATOM     67  C   UNL     1      -1.434  -3.276 -15.501  1.00  0.00     0.135 A 
ATOM     68  F   UNL     1       1.517  -5.390 -15.237  1.00  0.00    -0.206 F 
ATOM     69  C   UNL     1       1.012  -3.685 -16.768  1.00  0.00     0.059 A 
ATOM     70  C   UNL     1      -1.104  -2.504 -16.611  1.00  0.00     0.059 A 
ATOM     71  F   UNL     1      -2.616  -3.052 -14.904  1.00  0.00    -0.206 F 
ATOM     72  C   UNL     1       0.126  -2.712 -17.233  1.00  0.00     0.060 A 
BRANCH  72  73
ATOM     73  S   UNL     1       0.592  -1.744 -18.684  1.00  0.00     0.124 S 
ATOM     74  O   UNL     1       1.588  -0.838 -18.120  1.00  0.00    -0.237 OA
ATOM     75  O   UNL     1       1.106  -2.766 -19.590  1.00  0.00    -0.237 OA
ATOM     76  O   UNL     1      -0.662  -1.121 -19.094  1.00  0.00    -0.744 OA
ENDBRANCH  72  73
ENDBRANCH  51  65
BRANCH  52  77
ATOM     77  C   UNL     1      -3.537  -9.636  -7.112  1.00  0.00     0.058 A 
ATOM     78  C   UNL     1      -3.345 -11.021  -6.996  1.00  0.00     0.135 A 
ATOM     79  C   UNL     1      -4.255  -8.989  -6.096  1.00  0.00     0.135 A 
ATOM     80  F   UNL     1      -2.667 -11.685  -7.945  1.00  0.00    -0.206 F 
ATOM     81  C   UNL     1      -3.879 -11.746  -5.936  1.00  0.00     0.059 A 
ATOM     82  C   UNL     1      -4.777  -9.688  -5.011  1.00  0.00     0.059 A 
ATOM     83  F   UNL     1      -4.447  -7.662  -6.147  1.00  0.00    -0.206 F 
ATOM     84  C   UNL     1      -4.601 -11.070  -4.951  1.00  0.00     0.060 A 
BRANCH  84  85
ATOM     85  S   UNL     1      -5.288 -12.015  -3.574  1.00  0.00     0.124 S 
ATOM     86  O   UNL     1      -6.452 -12.635  -4.197  1.00  0.00    -0.237 OA
ATOM     87  O   UNL     1      -4.189 -12.915  -3.236  1.00  0.00    -0.237 OA
ATOM     88  O   UNL     1      -5.575 -10.989  -2.576  1.00  0.00    -0.744 OA
ENDBRANCH  84  85
ENDBRANCH  52  77
BRANCH  64  89
ATOM     89  C   UNL     1      -5.277  -9.584 -13.863  1.00  0.00     0.058 A 
ATOM     90  C   UNL     1      -6.658  -9.348 -13.815  1.00  0.00     0.135 A 
ATOM     91  C   UNL     1      -4.802 -10.548 -14.768  1.00  0.00     0.135 A 
ATOM     92  F   UNL     1      -7.159  -8.441 -12.962  1.00  0.00    -0.206 F 
ATOM     93  C   UNL     1      -7.539 -10.046 -14.634  1.00  0.00     0.059 A 
ATOM     94  C   UNL     1      -5.662 -11.241 -15.611  1.00  0.00     0.059 A 
ATOM     95  F   UNL     1      -3.486 -10.802 -14.856  1.00  0.00    -0.206 F 
ATOM     96  C   UNL     1      -7.031 -10.986 -15.534  1.00  0.00     0.060 A 
BRANCH  96  97
ATOM     97  S   UNL     1      -8.177 -11.836 -16.639  1.00  0.00     0.124 S 
ATOM     98  O   UNL     1      -8.793 -12.803 -15.736  1.00  0.00    -0.237 OA
ATOM     99  O   UNL     1      -9.042 -10.750 -17.091  1.00  0.00    -0.237 OA
ATOM    100  O   UNL     1      -7.304 -12.401 -17.663  1.00  0.00    -0.744 OA
ENDBRANCH  96  97
ENDBRANCH  64  89
ENDBRANCH  38  39
ENDBRANCH  30  33
ENDBRANCH  28  29
ENDBRANCH  27  28
ENDBRANCH   1  27
TORSDOF 16
