REMARK SMILES Cc1cccc(-c2ccc(Cl)c(C(=O)NCCCNC(=O)c3ccc(-c4c5nc(c(-c6c(F)cc(S(=O)(=O)[O-])cc6F)c6ccc([nH]6)c(-c6c(F)cc(S(=O)(=O)[O-])cc6F)c6nc(c(-c7c(F)cc(S(=O)(=O)[O-])cc7F)c7ccc4[nH]7)C=C6)C=C5)cc3)c2)c1
REMARK SMILES IDX 18 1 17 2 16 3 15 4 13 5 14 6 12 8 7 9 8 10 88 11 9 12 10 13
REMARK SMILES IDX 11 14 6 15 1 16 2 17 3 18 89 19 4 20 5 21 19 22 20 23 21 25
REMARK SMILES IDX 22 26 23 27 87 28 24 29 86 30 25 31 26 32 27 33 80 34 28 35
REMARK SMILES IDX 85 36 79 37 81 38 29 39 84 40 78 41 77 42 30 44 64 45 43 46
REMARK SMILES IDX 63 47 44 48 47 49 62 50 82 51 45 52 46 53 61 55 83 56 48 57
REMARK SMILES IDX 31 58 32 59 41 60 33 61 34 62 40 63 42 64 35 65 36 66 37 67
REMARK SMILES IDX 38 68 39 69 65 70 66 71 75 72 67 73 68 74 74 75 76 76 69 77
REMARK SMILES IDX 70 78 71 79 72 80 73 81 49 82 50 83 59 84 51 85 52 86 58 87
REMARK SMILES IDX 60 88 53 89 54 90 55 91 56 92 57 93
REMARK H PARENT 15 7 19 24 81 43 47 54
REMARK Flexibility Score: inf
ROOT
ATOM      1  C   UNL     1      -6.989   7.482   0.485  1.00  0.00     0.118 C 
ENDROOT
BRANCH   1   2
ATOM      2  C   UNL     1      -5.672   6.731   0.299  1.00  0.00     0.042 C 
BRANCH   2   3
ATOM      3  C   UNL     1      -4.683   7.071   1.404  1.00  0.00     0.118 C 
BRANCH   3   4
ATOM      4  N   UNL     1      -4.250   5.920   2.195  1.00  0.00    -0.352 N 
ATOM      5  C   UNL     1      -3.425   4.839   2.049  1.00  0.00     0.252 C 
ATOM      6  O   UNL     1      -3.315   4.112   3.044  1.00  0.00    -0.269 OA
ATOM      7  H   UNL     1      -4.673   5.925   3.084  1.00  0.00     0.163 HD
BRANCH   5   8
ATOM      8  C   UNL     1      -2.725   4.398   0.808  1.00  0.00     0.059 A 
ATOM      9  C   UNL     1      -1.726   2.419  -0.305  1.00  0.00    -0.017 A 
ATOM     10  C   UNL     1      -1.355   3.236  -1.376  1.00  0.00     0.010 A 
ATOM     11  C   UNL     1      -2.490   2.995   0.726  1.00  0.00     0.024 A 
ATOM     12  C   UNL     1      -1.547   4.611  -1.305  1.00  0.00     0.022 A 
ATOM     13  C   UNL     1      -2.133   5.197  -0.172  1.00  0.00     0.053 A 
ATOM     14  Cl  UNL     1      -1.755   6.867   0.012  1.00  0.00    -0.083 Cl
BRANCH   9  15
ATOM     15  C   UNL     1      -1.124   1.079  -0.179  1.00  0.00    -0.018 A 
ATOM     16  C   UNL     1       2.444  -0.299   0.044  1.00  0.00     0.044 C 
ATOM     17  C   UNL     1       0.946  -0.243   0.001  1.00  0.00    -0.051 A 
ATOM     18  C   UNL     1       0.182  -1.408   0.080  1.00  0.00     0.003 A 
ATOM     19  C   UNL     1       0.285   0.983  -0.131  1.00  0.00     0.012 A 
ATOM     20  C   UNL     1      -1.214  -1.336   0.046  1.00  0.00     0.001 A 
ATOM     21  C   UNL     1      -1.865  -0.101  -0.078  1.00  0.00     0.009 A 
ENDBRANCH   9  15
ENDBRANCH   5   8
ENDBRANCH   3   4
ENDBRANCH   2   3
ENDBRANCH   1   2
BRANCH   1  22
ATOM     22  N   UNL     1      -7.042   8.807  -0.110  1.00  0.00    -0.352 N 
ATOM     23  C   UNL     1      -8.071   9.755   0.011  1.00  0.00     0.251 C 
ATOM     24  H   UNL     1      -6.269   9.070  -0.659  1.00  0.00     0.163 HD
ATOM     25  O   UNL     1      -8.087  10.763  -0.649  1.00  0.00    -0.269 OA
BRANCH  23  26
ATOM     26  C   UNL     1      -9.117   9.471   1.018  1.00  0.00     0.039 A 
ATOM     27  C   UNL     1      -9.209  10.304   2.138  1.00  0.00     0.014 A 
ATOM     28  C   UNL     1      -9.786   8.251   0.978  1.00  0.00     0.014 A 
ATOM     29  C   UNL     1      -9.808   9.824   3.303  1.00  0.00     0.010 A 
ATOM     30  C   UNL     1     -10.283   7.737   2.160  1.00  0.00     0.010 A 
ATOM     31  C   UNL     1     -10.257   8.504   3.336  1.00  0.00    -0.014 A 
BRANCH  31  32
ATOM     32  C   UNL     1     -10.642   7.795   4.557  1.00  0.00     0.031 A 
ATOM     33  C   UNL     1     -12.043   7.341   4.742  1.00  0.00     0.074 A 
ATOM     34  C   UNL     1      -9.697   7.415   5.445  1.00  0.00     0.049 A 
ATOM     35  N   UNL     1     -12.542   6.895   5.846  1.00  0.00    -0.248 NA
ATOM     36  C   UNL     1     -13.026   7.408   3.667  1.00  0.00     0.031 C 
ATOM     37  C   UNL     1      -9.809   6.358   6.447  1.00  0.00     0.029 A 
ATOM     38  N   UNL     1      -8.491   8.047   5.748  1.00  0.00    -0.354 N 
ATOM     39  C   UNL     1     -13.784   6.362   5.572  1.00  0.00     0.074 A 
ATOM     40  C   UNL     1     -14.057   6.759   4.212  1.00  0.00     0.031 C 
ATOM     41  C   UNL     1      -8.865   6.536   7.382  1.00  0.00     0.029 A 
ATOM     42  C   UNL     1      -8.218   7.806   7.108  1.00  0.00     0.049 A 
ATOM     43  H   UNL     1      -7.934   8.567   5.125  1.00  0.00     0.167 HD
ATOM     44  C   UNL     1     -14.377   5.539   6.488  1.00  0.00     0.037 A 
ATOM     45  C   UNL     1      -8.136   8.833   8.007  1.00  0.00     0.037 A 
ATOM     46  C   UNL     1     -13.624   5.527   7.744  1.00  0.00     0.049 A 
ATOM     47  C   UNL     1      -9.185   8.799   9.095  1.00  0.00     0.074 A 
ATOM     48  C   UNL     1     -12.690   4.653   8.278  1.00  0.00     0.029 A 
ATOM     49  N   UNL     1     -13.562   6.684   8.516  1.00  0.00    -0.354 N 
ATOM     50  N   UNL     1     -10.239   8.030   9.072  1.00  0.00    -0.248 NA
ATOM     51  C   UNL     1      -9.147   9.649  10.283  1.00  0.00     0.031 C 
ATOM     52  C   UNL     1     -12.011   5.321   9.328  1.00  0.00     0.029 A 
ATOM     53  C   UNL     1     -12.544   6.593   9.448  1.00  0.00     0.049 A 
ATOM     54  H   UNL     1     -14.160   7.459   8.414  1.00  0.00     0.167 HD
ATOM     55  C   UNL     1     -11.032   8.303  10.155  1.00  0.00     0.074 A 
ATOM     56  C   UNL     1     -10.286   9.296  10.905  1.00  0.00     0.031 C 
ATOM     57  C   UNL     1     -12.248   7.707  10.335  1.00  0.00     0.037 A 
BRANCH  44  58
ATOM     58  C   UNL     1     -15.457   4.522   6.141  1.00  0.00     0.058 A 
ATOM     59  C   UNL     1     -15.568   3.311   6.862  1.00  0.00     0.135 A 
ATOM     60  C   UNL     1     -16.357   4.631   5.062  1.00  0.00     0.135 A 
ATOM     61  F   UNL     1     -14.870   3.097   7.986  1.00  0.00    -0.206 F 
ATOM     62  C   UNL     1     -16.393   2.254   6.465  1.00  0.00     0.059 A 
ATOM     63  C   UNL     1     -17.148   3.569   4.608  1.00  0.00     0.059 A 
ATOM     64  F   UNL     1     -16.560   5.795   4.436  1.00  0.00    -0.206 F 
ATOM     65  C   UNL     1     -17.149   2.374   5.309  1.00  0.00     0.060 A 
BRANCH  65  66
ATOM     66  S   UNL     1     -18.132   0.971   4.750  1.00  0.00     0.124 S 
ATOM     67  O   UNL     1     -17.139  -0.096   4.683  1.00  0.00    -0.237 OA
ATOM     68  O   UNL     1     -19.123   0.851   5.814  1.00  0.00    -0.237 OA
ATOM     69  O   UNL     1     -18.652   1.412   3.458  1.00  0.00    -0.744 OA
ENDBRANCH  65  66
ENDBRANCH  44  58
BRANCH  45  70
ATOM     70  C   UNL     1      -7.528  10.062   7.428  1.00  0.00     0.058 A 
ATOM     71  C   UNL     1      -6.163  10.003   7.090  1.00  0.00     0.135 A 
ATOM     72  C   UNL     1      -8.319  11.027   6.790  1.00  0.00     0.135 A 
ATOM     73  F   UNL     1      -5.360   9.111   7.695  1.00  0.00    -0.206 F 
ATOM     74  C   UNL     1      -5.647  10.730   6.026  1.00  0.00     0.059 A 
ATOM     75  C   UNL     1      -7.818  11.777   5.725  1.00  0.00     0.059 A 
ATOM     76  F   UNL     1      -9.624  11.133   7.081  1.00  0.00    -0.206 F 
ATOM     77  C   UNL     1      -6.506  11.553   5.302  1.00  0.00     0.060 A 
BRANCH  77  78
ATOM     78  S   UNL     1      -5.942  12.133   3.684  1.00  0.00     0.124 S 
ATOM     79  O   UNL     1      -4.717  12.848   4.025  1.00  0.00    -0.237 OA
ATOM     80  O   UNL     1      -5.761  10.868   2.974  1.00  0.00    -0.237 OA
ATOM     81  O   UNL     1      -7.048  12.962   3.221  1.00  0.00    -0.744 OA
ENDBRANCH  77  78
ENDBRANCH  45  70
BRANCH  57  82
ATOM     82  C   UNL     1     -13.239   8.072  11.409  1.00  0.00     0.058 A 
ATOM     83  C   UNL     1     -13.446   9.384  11.868  1.00  0.00     0.135 A 
ATOM     84  C   UNL     1     -14.120   7.093  11.924  1.00  0.00     0.135 A 
ATOM     85  F   UNL     1     -12.739  10.411  11.373  1.00  0.00    -0.206 F 
ATOM     86  C   UNL     1     -14.416   9.696  12.822  1.00  0.00     0.059 A 
ATOM     87  C   UNL     1     -15.127   7.391  12.838  1.00  0.00     0.059 A 
ATOM     88  F   UNL     1     -14.031   5.809  11.543  1.00  0.00    -0.206 F 
ATOM     89  C   UNL     1     -15.252   8.692  13.304  1.00  0.00     0.060 A 
BRANCH  89  90
ATOM     90  S   UNL     1     -16.542   9.088  14.499  1.00  0.00     0.124 S 
ATOM     91  O   UNL     1     -15.863   8.813  15.762  1.00  0.00    -0.237 OA
ATOM     92  O   UNL     1     -16.819  10.496  14.229  1.00  0.00    -0.237 OA
ATOM     93  O   UNL     1     -17.616   8.167  14.143  1.00  0.00    -0.744 OA
ENDBRANCH  89  90
ENDBRANCH  57  82
ENDBRANCH  31  32
ENDBRANCH  23  26
ENDBRANCH   1  22
TORSDOF 14
