REMARK SMILES Cc1ccc(-c2cncc(C#N)c2)cc1C(=O)NCCCNC(=O)c1ccc(-c2c3nc(c(-c4c(F)cc(S(=O)(=O)[O-])cc4F)c4ccc([nH]4)c(-c4c(F)cc(S(=O)(=O)[O-])cc4F)c4nc(c(-c5c(F)cc(S(=O)(=O)[O-])cc5F)c5ccc2[nH]5)C=C4)C=C3)cc1
REMARK SMILES IDX 20 1 19 2 18 3 16 4 17 5 15 7 1 8 2 9 3 10 4 11 14 12 5 13
REMARK SMILES IDX 6 14 7 15 13 16 8 17 10 18 9 19 11 20 12 21 21 22 22 23
REMARK SMILES IDX 23 24 24 26 25 27 26 28 90 29 27 30 89 31 28 32 29 33 30 34
REMARK SMILES IDX 83 35 31 36 88 37 82 38 84 39 32 40 87 41 81 42 80 43 33 45
REMARK SMILES IDX 67 46 46 47 66 48 47 49 50 50 65 51 85 52 48 53 49 54 64 56
REMARK SMILES IDX 86 57 51 58 34 59 35 60 44 61 36 62 37 63 43 64 45 65 38 66
REMARK SMILES IDX 39 67 40 68 41 69 42 70 68 71 69 72 78 73 70 74 71 75 77 76
REMARK SMILES IDX 79 77 72 78 73 79 74 80 75 81 76 82 52 83 53 84 62 85 54 86
REMARK SMILES IDX 55 87 61 88 63 89 56 90 57 91 58 92 59 93 60 94
REMARK H PARENT 18 6 22 25 84 44 50 55
REMARK Flexibility Score: inf
ROOT
ATOM      1  C   UNL     1       4.106   0.035   0.380  1.00  0.00     0.042 C 
ENDROOT
BRANCH   1   2
ATOM      2  C   UNL     1       2.862   0.718   1.163  1.00  0.00     0.118 C 
BRANCH   2   3
ATOM      3  N   UNL     1       2.127   1.766   0.443  1.00  0.00    -0.352 N 
ATOM      4  C   UNL     1       0.891   1.770  -0.165  1.00  0.00     0.251 C 
ATOM      5  O   UNL     1       0.432   2.825  -0.608  1.00  0.00    -0.269 OA
ATOM      6  H   UNL     1       2.606   2.624   0.383  1.00  0.00     0.163 HD
BRANCH   4   7
ATOM      7  C   UNL     1       0.006   0.569  -0.155  1.00  0.00     0.043 A 
ATOM      8  C   UNL     1       1.667  -1.195  -1.037  1.00  0.00     0.045 C 
ATOM      9  C   UNL     1       0.394  -0.760  -0.389  1.00  0.00    -0.038 A 
ATOM     10  C   UNL     1      -0.488  -1.799  -0.081  1.00  0.00     0.005 A 
ATOM     11  C   UNL     1      -1.815  -1.529   0.196  1.00  0.00     0.009 A 
ATOM     12  C   UNL     1      -1.358   0.831   0.075  1.00  0.00     0.023 A 
ATOM     13  C   UNL     1      -2.286  -0.212   0.182  1.00  0.00    -0.016 A 
BRANCH  13  14
ATOM     14  C   UNL     1      -3.727   0.015   0.153  1.00  0.00     0.001 A 
ATOM     15  C   UNL     1      -4.573  -0.538   1.113  1.00  0.00     0.119 A 
ATOM     16  C   UNL     1      -4.326   0.649  -0.945  1.00  0.00     0.031 A 
ATOM     17  N   UNL     1      -5.923  -0.536   1.034  1.00  0.00    -0.263 NA
ATOM     18  C   UNL     1      -5.714   0.661  -1.064  1.00  0.00     0.071 A 
ATOM     19  C   UNL     1      -6.458   0.053  -0.061  1.00  0.00     0.130 A 
BRANCH  18  20
ATOM     20  C   UNL     1      -6.359   1.228  -2.193  1.00  0.00     0.101 C 
ATOM     21  N   UNL     1      -6.920   1.676  -3.125  1.00  0.00    -0.192 NA
ENDBRANCH  18  20
ENDBRANCH  13  14
ENDBRANCH   4   7
ENDBRANCH   2   3
ENDBRANCH   1   2
BRANCH   1  22
ATOM     22  C   UNL     1       5.386   0.873   0.569  1.00  0.00     0.118 C 
BRANCH  22  23
ATOM     23  N   UNL     1       7.064   0.660   0.285  1.00  0.00    -0.352 N 
ATOM     24  C   UNL     1       8.487   1.217  -0.229  1.00  0.00     0.251 C 
ATOM     25  H   UNL     1       7.251  -0.259   0.585  1.00  0.00     0.163 HD
ATOM     26  O   UNL     1       9.379   0.763   0.529  1.00  0.00    -0.269 OA
BRANCH  24  27
ATOM     27  C   UNL     1       9.202   2.348  -1.407  1.00  0.00     0.039 A 
ATOM     28  C   UNL     1      10.135   3.385  -1.036  1.00  0.00     0.014 A 
ATOM     29  C   UNL     1       8.764   2.664  -2.689  1.00  0.00     0.014 A 
ATOM     30  C   UNL     1       9.893   4.798  -1.451  1.00  0.00     0.010 A 
ATOM     31  C   UNL     1       8.414   4.010  -3.016  1.00  0.00     0.010 A 
ATOM     32  C   UNL     1       8.744   5.088  -2.213  1.00  0.00    -0.014 A 
BRANCH  32  33
ATOM     33  C   UNL     1       7.763   6.277  -2.168  1.00  0.00     0.031 A 
ATOM     34  C   UNL     1       7.964   7.223  -3.255  1.00  0.00     0.074 A 
ATOM     35  C   UNL     1       6.636   6.538  -1.414  1.00  0.00     0.049 A 
ATOM     36  N   UNL     1       8.405   8.429  -3.152  1.00  0.00    -0.248 NA
ATOM     37  C   UNL     1       7.801   6.747  -4.625  1.00  0.00     0.031 C 
ATOM     38  C   UNL     1       5.671   7.666  -1.343  1.00  0.00     0.029 A 
ATOM     39  N   UNL     1       6.114   5.808  -0.364  1.00  0.00    -0.354 N 
ATOM     40  C   UNL     1       8.186   8.958  -4.409  1.00  0.00     0.074 A 
ATOM     41  C   UNL     1       8.215   7.820  -5.290  1.00  0.00     0.031 C 
ATOM     42  C   UNL     1       5.123   7.728  -0.098  1.00  0.00     0.029 A 
ATOM     43  C   UNL     1       5.709   6.659   0.673  1.00  0.00     0.049 A 
ATOM     44  H   UNL     1       6.037   4.827  -0.347  1.00  0.00     0.167 HD
ATOM     45  C   UNL     1       7.512  10.140  -4.560  1.00  0.00     0.037 A 
ATOM     46  C   UNL     1       6.498   6.722   1.797  1.00  0.00     0.037 A 
ATOM     47  C   UNL     1       7.004  10.616  -3.255  1.00  0.00     0.049 A 
ATOM     48  C   UNL     1       7.306   7.994   1.823  1.00  0.00     0.074 A 
ATOM     49  C   UNL     1       5.745  10.783  -2.695  1.00  0.00     0.029 A 
ATOM     50  N   UNL     1       7.879  10.688  -2.184  1.00  0.00    -0.354 N 
ATOM     51  N   UNL     1       7.205   8.877   0.875  1.00  0.00    -0.248 NA
ATOM     52  C   UNL     1       8.304   8.373   2.821  1.00  0.00     0.031 C 
ATOM     53  C   UNL     1       5.896  10.937  -1.275  1.00  0.00     0.029 A 
ATOM     54  C   UNL     1       7.244  10.886  -0.975  1.00  0.00     0.049 A 
ATOM     55  H   UNL     1       8.855  10.605  -2.276  1.00  0.00     0.167 HD
ATOM     56  C   UNL     1       8.059   9.908   1.080  1.00  0.00     0.074 A 
ATOM     57  C   UNL     1       8.764   9.527   2.298  1.00  0.00     0.031 C 
ATOM     58  C   UNL     1       8.077  10.973   0.223  1.00  0.00     0.037 A 
BRANCH  45  59
ATOM     59  C   UNL     1       7.074  10.709  -5.909  1.00  0.00     0.058 A 
ATOM     60  C   UNL     1       6.223  11.832  -5.972  1.00  0.00     0.135 A 
ATOM     61  C   UNL     1       7.512  10.259  -7.179  1.00  0.00     0.135 A 
ATOM     62  F   UNL     1       5.798  12.448  -4.861  1.00  0.00    -0.206 F 
ATOM     63  C   UNL     1       5.806  12.414  -7.176  1.00  0.00     0.059 A 
ATOM     64  C   UNL     1       7.063  10.782  -8.394  1.00  0.00     0.059 A 
ATOM     65  F   UNL     1       8.480   9.351  -7.328  1.00  0.00    -0.206 F 
ATOM     66  C   UNL     1       6.220  11.874  -8.386  1.00  0.00     0.060 A 
BRANCH  66  67
ATOM     67  S   UNL     1       5.735  12.666  -9.928  1.00  0.00     0.124 S 
ATOM     68  O   UNL     1       4.279  12.587  -9.868  1.00  0.00    -0.237 OA
ATOM     69  O   UNL     1       6.306  14.001  -9.777  1.00  0.00    -0.237 OA
ATOM     70  O   UNL     1       6.360  11.836 -10.954  1.00  0.00    -0.744 OA
ENDBRANCH  66  67
ENDBRANCH  45  59
BRANCH  46  71
ATOM     71  C   UNL     1       7.011   5.355   2.212  1.00  0.00     0.058 A 
ATOM     72  C   UNL     1       5.996   4.422   2.374  1.00  0.00     0.135 A 
ATOM     73  C   UNL     1       8.019   4.856   1.420  1.00  0.00     0.135 A 
ATOM     74  F   UNL     1       5.398   4.296   3.567  1.00  0.00    -0.206 F 
ATOM     75  C   UNL     1       5.743   3.414   1.406  1.00  0.00     0.059 A 
ATOM     76  C   UNL     1       7.652   3.939   0.399  1.00  0.00     0.059 A 
ATOM     77  F   UNL     1       9.187   5.511   1.321  1.00  0.00    -0.206 F 
ATOM     78  C   UNL     1       6.445   3.318   0.200  1.00  0.00     0.060 A 
BRANCH  78  79
ATOM     79  S   UNL     1       5.827   2.499  -1.731  1.00  0.00     0.124 S 
ATOM     80  O   UNL     1       4.480   1.954  -1.617  1.00  0.00    -0.237 OA
ATOM     81  O   UNL     1       5.819   3.674  -2.580  1.00  0.00    -0.237 OA
ATOM     82  O   UNL     1       6.745   1.422  -2.092  1.00  0.00    -0.744 OA
ENDBRANCH  78  79
ENDBRANCH  46  71
BRANCH  58  83
ATOM     83  C   UNL     1       8.943  12.186   0.414  1.00  0.00     0.058 A 
ATOM     84  C   UNL     1       9.314  12.664   1.677  1.00  0.00     0.135 A 
ATOM     85  C   UNL     1       9.372  12.971  -0.683  1.00  0.00     0.135 A 
ATOM     86  F   UNL     1       8.785  12.154   2.800  1.00  0.00    -0.206 F 
ATOM     87  C   UNL     1      10.200  13.724   1.833  1.00  0.00     0.059 A 
ATOM     88  C   UNL     1      10.213  14.060  -0.551  1.00  0.00     0.059 A 
ATOM     89  F   UNL     1       8.993  12.736  -1.944  1.00  0.00    -0.206 F 
ATOM     90  C   UNL     1      10.662  14.400   0.708  1.00  0.00     0.060 A 
BRANCH  90  91
ATOM     91  S   UNL     1      11.797  15.771   0.910  1.00  0.00     0.124 S 
ATOM     92  O   UNL     1      11.162  16.537   1.977  1.00  0.00    -0.237 OA
ATOM     93  O   UNL     1      13.028  15.076   1.272  1.00  0.00    -0.237 OA
ATOM     94  O   UNL     1      11.799  16.412  -0.401  1.00  0.00    -0.744 OA
ENDBRANCH  90  91
ENDBRANCH  58  83
ENDBRANCH  32  33
ENDBRANCH  24  27
ENDBRANCH  22  23
ENDBRANCH   1  22
TORSDOF 15
