REMARK SMILES CCOc1cc(OCC)cc(-c2ccc([C@@H](C)C(=O)NCCCNC(=O)c3ccc(-c4c5nc(c(-c6c(F)cc(S(=O)(=O)[O-])cc6F)c6ccc([nH]6)c(-c6c(F)cc(S(=O)(=O)[O-])cc6F)c6nc(c(-c7c(F)cc(S(=O)(=O)[O-])cc7F)c7ccc4[nH]7)C=C6)C=C5)cc3)cc2)c1
REMARK SMILES IDX 21 1 20 2 18 3 19 4 16 6 17 7 15 8 12 9 13 10 94 11 14 12
REMARK SMILES IDX 93 13 11 14 4 15 5 16 95 17 6 18 10 19 3 20 2 21 1 22 7 23
REMARK SMILES IDX 8 24 9 25 22 26 23 27 24 28 25 29 26 31 27 32 28 33 92 34
REMARK SMILES IDX 29 35 91 36 30 37 31 38 32 39 85 40 33 41 90 42 84 43 86 44
REMARK SMILES IDX 34 45 89 46 83 47 82 48 35 50 69 51 48 52 68 53 49 54 52 55
REMARK SMILES IDX 67 56 87 57 50 58 51 59 66 61 88 62 53 63 36 64 37 65 46 66
REMARK SMILES IDX 38 67 39 68 45 69 47 70 40 71 41 72 42 73 43 74 44 75 70 76
REMARK SMILES IDX 71 77 80 78 72 79 73 80 79 81 81 82 74 83 75 84 76 85 77 86
REMARK SMILES IDX 78 87 54 88 55 89 64 90 56 91 57 92 63 93 65 94 58 95 59 96
REMARK SMILES IDX 60 97 61 98 62 99
REMARK H PARENT 20 5 24 30 86 49 52 60
REMARK Flexibility Score: inf
ROOT
ATOM      1  C   UNL     1       9.480  -2.405   0.408  1.00  0.00     0.117 C 
ENDROOT
BRANCH   1   2
ATOM      2  N   UNL     1       8.695  -3.526  -0.072  1.00  0.00    -0.356 N 
ATOM      3  C   UNL     1       8.059  -3.762  -1.252  1.00  0.00     0.227 C 
ATOM      4  O   UNL     1       7.449  -4.836  -1.336  1.00  0.00    -0.274 OA
ATOM      5  H   UNL     1       8.605  -4.257   0.582  1.00  0.00     0.163 HD
BRANCH   3   6
ATOM      6  C   UNL     1       8.065  -2.798  -2.448  1.00  0.00     0.105 C 
ATOM      7  C   UNL     1       9.450  -2.484  -3.012  1.00  0.00     0.023 C 
BRANCH   6   8
ATOM      8  C   UNL     1       7.155  -1.598  -2.253  1.00  0.00    -0.036 A 
ATOM      9  C   UNL     1       5.348   0.546  -1.738  1.00  0.00    -0.018 A 
ATOM     10  C   UNL     1       6.695   0.603  -1.347  1.00  0.00     0.009 A 
ATOM     11  C   UNL     1       4.932  -0.603  -2.425  1.00  0.00     0.009 A 
ATOM     12  C   UNL     1       7.590  -0.426  -1.636  1.00  0.00     0.005 A 
ATOM     13  C   UNL     1       5.814  -1.666  -2.660  1.00  0.00     0.005 A 
BRANCH   9  14
ATOM     14  C   UNL     1       4.427   1.652  -1.402  1.00  0.00    -0.011 A 
ATOM     15  C   UNL     1       2.258   2.479  -0.673  1.00  0.00     0.123 A 
ATOM     16  C   UNL     1       2.758   3.778  -0.596  1.00  0.00     0.092 A 
ATOM     17  C   UNL     1       3.080   1.430  -1.084  1.00  0.00     0.055 A 
ATOM     18  C   UNL     1       4.086   4.035  -0.935  1.00  0.00     0.123 A 
ATOM     19  C   UNL     1       4.895   2.978  -1.351  1.00  0.00     0.055 A 
BRANCH  15  20
ATOM     20  O   UNL     1       0.921   2.280  -0.461  1.00  0.00    -0.494 OA
BRANCH  20  21
ATOM     21  C   UNL     1       0.630   1.528   0.724  1.00  0.00     0.226 C 
ATOM     22  C   UNL     1       0.501   0.040   0.430  1.00  0.00     0.049 C 
ENDBRANCH  20  21
ENDBRANCH  15  20
BRANCH  18  23
ATOM     23  O   UNL     1       4.496   5.334  -0.804  1.00  0.00    -0.494 OA
BRANCH  23  24
ATOM     24  C   UNL     1       5.772   5.705  -1.333  1.00  0.00     0.226 C 
ATOM     25  C   UNL     1       6.903   5.450  -0.346  1.00  0.00     0.049 C 
ENDBRANCH  23  24
ENDBRANCH  18  23
ENDBRANCH   9  14
ENDBRANCH   6   8
ENDBRANCH   3   6
ENDBRANCH   1   2
BRANCH   1  26
ATOM     26  C   UNL     1       8.694  -1.487   1.343  1.00  0.00     0.042 C 
BRANCH  26  27
ATOM     27  C   UNL     1       8.613  -1.977   2.784  1.00  0.00     0.118 C 
BRANCH  27  28
ATOM     28  N   UNL     1       9.909  -1.961   3.447  1.00  0.00    -0.352 N 
ATOM     29  C   UNL     1      10.350  -1.281   4.555  1.00  0.00     0.251 C 
ATOM     30  H   UNL     1      10.588  -2.538   3.027  1.00  0.00     0.163 HD
ATOM     31  O   UNL     1      11.557  -1.270   4.789  1.00  0.00    -0.269 OA
BRANCH  29  32
ATOM     32  C   UNL     1       9.419  -0.563   5.460  1.00  0.00     0.039 A 
ATOM     33  C   UNL     1       9.870   0.606   6.084  1.00  0.00     0.014 A 
ATOM     34  C   UNL     1       8.147  -1.055   5.764  1.00  0.00     0.014 A 
ATOM     35  C   UNL     1       9.037   1.296   6.968  1.00  0.00     0.010 A 
ATOM     36  C   UNL     1       7.287  -0.323   6.584  1.00  0.00     0.010 A 
ATOM     37  C   UNL     1       7.726   0.854   7.206  1.00  0.00    -0.014 A 
BRANCH  37  38
ATOM     38  C   UNL     1       6.817   1.614   8.105  1.00  0.00     0.031 A 
ATOM     39  C   UNL     1       6.308   1.000   9.383  1.00  0.00     0.074 A 
ATOM     40  C   UNL     1       6.419   2.852   7.748  1.00  0.00     0.049 A 
ATOM     41  N   UNL     1       5.503   1.509  10.280  1.00  0.00    -0.248 NA
ATOM     42  C   UNL     1       6.741  -0.375   9.680  1.00  0.00     0.031 C 
ATOM     43  C   UNL     1       6.791   3.533   6.505  1.00  0.00     0.029 A 
ATOM     44  N   UNL     1       5.613   3.757   8.392  1.00  0.00    -0.354 N 
ATOM     45  C   UNL     1       5.326   0.518  11.240  1.00  0.00     0.074 A 
ATOM     46  C   UNL     1       6.063  -0.641  10.787  1.00  0.00     0.031 C 
ATOM     47  C   UNL     1       6.237   4.755   6.490  1.00  0.00     0.029 A 
ATOM     48  C   UNL     1       5.448   4.936   7.705  1.00  0.00     0.049 A 
ATOM     49  H   UNL     1       5.192   3.578   9.264  1.00  0.00     0.167 HD
ATOM     50  C   UNL     1       4.635   0.577  12.405  1.00  0.00     0.037 A 
ATOM     51  C   UNL     1       4.742   6.040   8.016  1.00  0.00     0.037 A 
ATOM     52  C   UNL     1       3.919   1.741  12.862  1.00  0.00     0.049 A 
ATOM     53  C   UNL     1       4.006   6.092   9.326  1.00  0.00     0.074 A 
ATOM     54  C   UNL     1       3.231   1.919  14.049  1.00  0.00     0.029 A 
ATOM     55  N   UNL     1       3.798   2.926  12.150  1.00  0.00    -0.354 N 
ATOM     56  N   UNL     1       3.903   5.168  10.251  1.00  0.00    -0.248 NA
ATOM     57  C   UNL     1       3.301   7.342   9.641  1.00  0.00     0.031 C 
ATOM     58  C   UNL     1       2.663   3.199  14.040  1.00  0.00     0.029 A 
ATOM     59  C   UNL     1       3.035   3.835  12.866  1.00  0.00     0.049 A 
ATOM     60  H   UNL     1       4.197   3.097  11.266  1.00  0.00     0.167 HD
ATOM     61  C   UNL     1       3.135   5.729  11.265  1.00  0.00     0.074 A 
ATOM     62  C   UNL     1       2.821   7.081  10.849  1.00  0.00     0.031 C 
ATOM     63  C   UNL     1       2.723   5.174  12.433  1.00  0.00     0.037 A 
BRANCH  50  64
ATOM     64  C   UNL     1       4.630  -0.654  13.273  1.00  0.00     0.058 A 
ATOM     65  C   UNL     1       5.784  -1.081  13.950  1.00  0.00     0.135 A 
ATOM     66  C   UNL     1       3.454  -1.402  13.452  1.00  0.00     0.135 A 
ATOM     67  F   UNL     1       6.939  -0.413  13.805  1.00  0.00    -0.206 F 
ATOM     68  C   UNL     1       5.782  -2.223  14.745  1.00  0.00     0.059 A 
ATOM     69  C   UNL     1       3.423  -2.532  14.265  1.00  0.00     0.059 A 
ATOM     70  F   UNL     1       2.321  -1.040  12.831  1.00  0.00    -0.206 F 
ATOM     71  C   UNL     1       4.597  -2.945  14.894  1.00  0.00     0.060 A 
BRANCH  71  72
ATOM     72  S   UNL     1       4.613  -4.426  15.926  1.00  0.00     0.124 S 
ATOM     73  O   UNL     1       5.328  -5.368  15.070  1.00  0.00    -0.237 OA
ATOM     74  O   UNL     1       5.334  -3.975  17.111  1.00  0.00    -0.237 OA
ATOM     75  O   UNL     1       3.196  -4.714  16.129  1.00  0.00    -0.744 OA
ENDBRANCH  71  72
ENDBRANCH  50  64
BRANCH  51  76
ATOM     76  C   UNL     1       4.730   7.197   7.082  1.00  0.00     0.058 A 
ATOM     77  C   UNL     1       5.416   8.381   7.389  1.00  0.00     0.135 A 
ATOM     78  C   UNL     1       4.058   7.131   5.851  1.00  0.00     0.135 A 
ATOM     79  F   UNL     1       6.070   8.494   8.555  1.00  0.00    -0.206 F 
ATOM     80  C   UNL     1       5.426   9.464   6.516  1.00  0.00     0.059 A 
ATOM     81  C   UNL     1       4.075   8.191   4.950  1.00  0.00     0.059 A 
ATOM     82  F   UNL     1       3.401   6.013   5.504  1.00  0.00    -0.206 F 
ATOM     83  C   UNL     1       4.756   9.358   5.296  1.00  0.00     0.060 A 
BRANCH  83  84
ATOM     84  S   UNL     1       4.830  10.748   4.145  1.00  0.00     0.124 S 
ATOM     85  O   UNL     1       3.925  11.701   4.777  1.00  0.00    -0.237 OA
ATOM     86  O   UNL     1       6.247  11.096   4.174  1.00  0.00    -0.237 OA
ATOM     87  O   UNL     1       4.362  10.168   2.889  1.00  0.00    -0.744 OA
ENDBRANCH  83  84
ENDBRANCH  51  76
BRANCH  63  88
ATOM     88  C   UNL     1       1.900   6.041  13.347  1.00  0.00     0.058 A 
ATOM     89  C   UNL     1       0.573   6.380  13.041  1.00  0.00     0.135 A 
ATOM     90  C   UNL     1       2.442   6.528  14.547  1.00  0.00     0.135 A 
ATOM     91  F   UNL     1       0.009   5.944  11.904  1.00  0.00    -0.206 F 
ATOM     92  C   UNL     1      -0.176   7.207  13.873  1.00  0.00     0.059 A 
ATOM     93  C   UNL     1       1.702   7.333  15.408  1.00  0.00     0.059 A 
ATOM     94  F   UNL     1       3.702   6.223  14.894  1.00  0.00    -0.206 F 
ATOM     95  C   UNL     1       0.400   7.683  15.052  1.00  0.00     0.060 A 
BRANCH  95  96
ATOM     96  S   UNL     1      -0.579   8.757  16.123  1.00  0.00     0.124 S 
ATOM     97  O   UNL     1      -0.527  10.021  15.397  1.00  0.00    -0.237 OA
ATOM     98  O   UNL     1      -1.876   8.088  16.139  1.00  0.00    -0.237 OA
ATOM     99  O   UNL     1       0.150   8.728  17.388  1.00  0.00    -0.744 OA
ENDBRANCH  95  96
ENDBRANCH  63  88
ENDBRANCH  37  38
ENDBRANCH  29  32
ENDBRANCH  27  28
ENDBRANCH  26  27
ENDBRANCH   1  26
TORSDOF 19
