REMARK SMILES C[C@@H]1CCC[C@](C#N)([C@H](O)C(=O)NCCCNC(=O)c2ccc(-c3c4nc(c(-c5c(F)cc(S(=O)(=O)[O-])cc5F)c5ccc([nH]5)c(-c5c(F)cc(S(=O)(=O)[O-])cc5F)c5nc(c(-c6c(F)cc(S(=O)(=O)[O-])cc6F)c6ccc3[nH]6)C=C5)C=C4)cc2)C1
REMARK SMILES IDX 15 1 14 2 13 3 11 4 12 5 9 7 6 8 1 9 2 10 3 11 86 12 4 13
REMARK SMILES IDX 5 14 7 15 8 16 10 17 16 19 17 20 18 21 19 23 20 24 21 25
REMARK SMILES IDX 85 26 22 27 84 28 23 29 24 30 25 31 78 32 26 33 83 34 77 35
REMARK SMILES IDX 79 36 27 37 82 38 76 39 75 40 28 42 62 43 41 44 61 45 42 46
REMARK SMILES IDX 45 47 60 48 80 49 43 50 44 51 59 53 81 54 46 55 29 56 30 57
REMARK SMILES IDX 39 58 31 59 32 60 38 61 40 62 33 63 34 64 35 65 36 66 37 67
REMARK SMILES IDX 63 68 64 69 73 70 65 71 66 72 72 73 74 74 67 75 68 76 69 77
REMARK SMILES IDX 70 78 71 79 47 80 48 81 57 82 49 83 50 84 56 85 58 86 51 87
REMARK SMILES IDX 52 88 53 89 54 90 55 91
REMARK H PARENT 13 6 10 18 17 22 79 41 45 52
REMARK Flexibility Score: inf
ROOT
ATOM      1  C   UNL     1      -4.365  -3.083   5.502  1.00  0.00     0.042 C 
ENDROOT
BRANCH   1   2
ATOM      2  C   UNL     1      -3.698  -3.048   4.127  1.00  0.00     0.117 C 
BRANCH   2   3
ATOM      3  N   UNL     1      -4.616  -2.788   3.005  1.00  0.00    -0.354 N 
ATOM      4  C   UNL     1      -5.027  -1.850   2.123  1.00  0.00     0.250 C 
ATOM      5  O   UNL     1      -5.815  -2.357   1.295  1.00  0.00    -0.272 OA
ATOM      6  H   UNL     1      -5.125  -3.613   2.832  1.00  0.00     0.163 HD
BRANCH   4   7
ATOM      7  C   UNL     1      -4.852  -0.262   2.016  1.00  0.00     0.223 C 
BRANCH   7   8
ATOM      8  C   UNL     1      -3.538   0.586   2.203  1.00  0.00     0.092 C 
ATOM      9  C   UNL     1      -4.434   0.022   5.100  1.00  0.00     0.008 C 
ATOM     10  C   UNL     1      -2.981   0.274   4.679  1.00  0.00    -0.013 C 
ATOM     11  C   UNL     1      -2.695   1.752   4.909  1.00  0.00     0.003 C 
ATOM     12  C   UNL     1      -2.587  -0.018   3.218  1.00  0.00     0.029 C 
ATOM     13  C   UNL     1      -3.604   2.602   4.021  1.00  0.00     0.002 C 
ATOM     14  C   UNL     1      -3.727   2.122   2.554  1.00  0.00     0.025 C 
BRANCH   8  15
ATOM     15  C   UNL     1      -2.849   0.571   0.870  1.00  0.00     0.072 C 
ATOM     16  N   UNL     1      -2.319   0.598  -0.157  1.00  0.00    -0.198 NA
ENDBRANCH   8  15
ENDBRANCH   7   8
BRANCH   7  17
ATOM     17  O   UNL     1      -5.986   0.455   2.522  1.00  0.00    -0.382 OA
ATOM     18  H   UNL     1      -5.963   0.452   3.492  1.00  0.00     0.211 HD
ENDBRANCH   7  17
ENDBRANCH   4   7
ENDBRANCH   2   3
ENDBRANCH   1   2
BRANCH   1  19
ATOM     19  C   UNL     1      -4.497  -4.465   6.106  1.00  0.00     0.118 C 
BRANCH  19  20
ATOM     20  N   UNL     1      -3.207  -5.041   6.458  1.00  0.00    -0.352 N 
ATOM     21  C   UNL     1      -2.674  -5.332   7.692  1.00  0.00     0.251 C 
ATOM     22  H   UNL     1      -2.626  -5.256   5.693  1.00  0.00     0.163 HD
ATOM     23  O   UNL     1      -1.471  -5.564   7.783  1.00  0.00    -0.269 OA
BRANCH  21  24
ATOM     24  C   UNL     1      -3.532  -5.360   8.900  1.00  0.00     0.039 A 
ATOM     25  C   UNL     1      -2.994  -4.992  10.136  1.00  0.00     0.014 A 
ATOM     26  C   UNL     1      -4.860  -5.781   8.824  1.00  0.00     0.014 A 
ATOM     27  C   UNL     1      -3.803  -5.005  11.275  1.00  0.00     0.010 A 
ATOM     28  C   UNL     1      -5.698  -5.650   9.921  1.00  0.00     0.010 A 
ATOM     29  C   UNL     1      -5.171  -5.305  11.170  1.00  0.00    -0.014 A 
BRANCH  29  30
ATOM     30  C   UNL     1      -6.064  -5.327  12.355  1.00  0.00     0.031 A 
ATOM     31  C   UNL     1      -6.799  -6.596  12.710  1.00  0.00     0.074 A 
ATOM     32  C   UNL     1      -6.260  -4.198  13.064  1.00  0.00     0.049 A 
ATOM     33  N   UNL     1      -7.681  -6.804  13.652  1.00  0.00    -0.248 NA
ATOM     34  C   UNL     1      -6.540  -7.778  11.868  1.00  0.00     0.031 C 
ATOM     35  C   UNL     1      -5.646  -2.900  12.775  1.00  0.00     0.029 A 
ATOM     36  N   UNL     1      -7.033  -3.958  14.171  1.00  0.00    -0.354 N 
ATOM     37  C   UNL     1      -8.090  -8.125  13.502  1.00  0.00     0.074 A 
ATOM     38  C   UNL     1      -7.425  -8.646  12.332  1.00  0.00     0.031 C 
ATOM     39  C   UNL     1      -6.035  -2.011  13.703  1.00  0.00     0.029 A 
ATOM     40  C   UNL     1      -6.965  -2.660  14.620  1.00  0.00     0.049 A 
ATOM     41  H   UNL     1      -7.585  -4.649  14.602  1.00  0.00     0.167 HD
ATOM     42  C   UNL     1      -8.918  -8.849  14.290  1.00  0.00     0.037 A 
ATOM     43  C   UNL     1      -7.590  -2.061  15.652  1.00  0.00     0.037 A 
ATOM     44  C   UNL     1      -9.549  -8.322  15.470  1.00  0.00     0.049 A 
ATOM     45  C   UNL     1      -8.512  -2.883  16.511  1.00  0.00     0.074 A 
ATOM     46  C   UNL     1     -10.360  -8.977  16.378  1.00  0.00     0.029 A 
ATOM     47  N   UNL     1      -9.441  -7.007  15.903  1.00  0.00    -0.354 N 
ATOM     48  N   UNL     1      -8.832  -4.152  16.396  1.00  0.00    -0.248 NA
ATOM     49  C   UNL     1      -9.151  -2.200  17.642  1.00  0.00     0.031 C 
ATOM     50  C   UNL     1     -10.795  -8.044  17.323  1.00  0.00     0.029 A 
ATOM     51  C   UNL     1     -10.195  -6.824  17.049  1.00  0.00     0.049 A 
ATOM     52  H   UNL     1      -8.907  -6.309  15.461  1.00  0.00     0.167 HD
ATOM     53  C   UNL     1      -9.686  -4.426  17.459  1.00  0.00     0.074 A 
ATOM     54  C   UNL     1      -9.818  -3.195  18.212  1.00  0.00     0.031 C 
ATOM     55  C   UNL     1     -10.305  -5.588  17.785  1.00  0.00     0.037 A 
BRANCH  42  56
ATOM     56  C   UNL     1      -9.184 -10.281  13.905  1.00  0.00     0.058 A 
ATOM     57  C   UNL     1      -8.179 -11.262  13.950  1.00  0.00     0.135 A 
ATOM     58  C   UNL     1     -10.471 -10.688  13.516  1.00  0.00     0.135 A 
ATOM     59  F   UNL     1      -6.924 -10.931  14.295  1.00  0.00    -0.206 F 
ATOM     60  C   UNL     1      -8.431 -12.583  13.593  1.00  0.00     0.059 A 
ATOM     61  C   UNL     1     -10.755 -12.011  13.191  1.00  0.00     0.059 A 
ATOM     62  F   UNL     1     -11.471  -9.795  13.449  1.00  0.00    -0.206 F 
ATOM     63  C   UNL     1      -9.724 -12.949  13.219  1.00  0.00     0.060 A 
BRANCH  63  64
ATOM     64  S   UNL     1     -10.036 -14.671  12.778  1.00  0.00     0.124 S 
ATOM     65  O   UNL     1      -9.316 -14.782  11.512  1.00  0.00    -0.237 OA
ATOM     66  O   UNL     1      -9.450 -15.390  13.905  1.00  0.00    -0.237 OA
ATOM     67  O   UNL     1     -11.490 -14.741  12.680  1.00  0.00    -0.744 OA
ENDBRANCH  63  64
ENDBRANCH  42  56
BRANCH  43  68
ATOM     68  C   UNL     1      -7.347  -0.620  15.936  1.00  0.00     0.058 A 
ATOM     69  C   UNL     1      -6.668  -0.213  17.095  1.00  0.00     0.135 A 
ATOM     70  C   UNL     1      -7.772   0.380  15.046  1.00  0.00     0.135 A 
ATOM     71  F   UNL     1      -6.243  -1.128  17.979  1.00  0.00    -0.206 F 
ATOM     72  C   UNL     1      -6.439   1.131  17.373  1.00  0.00     0.059 A 
ATOM     73  C   UNL     1      -7.526   1.728  15.286  1.00  0.00     0.059 A 
ATOM     74  F   UNL     1      -8.408   0.046  13.912  1.00  0.00    -0.206 F 
ATOM     75  C   UNL     1      -6.868   2.094  16.459  1.00  0.00     0.060 A 
BRANCH  75  76
ATOM     76  S   UNL     1      -6.524   3.832  16.809  1.00  0.00     0.124 S 
ATOM     77  O   UNL     1      -7.416   4.087  17.934  1.00  0.00    -0.237 OA
ATOM     78  O   UNL     1      -5.098   3.804  17.116  1.00  0.00    -0.237 OA
ATOM     79  O   UNL     1      -6.876   4.502  15.560  1.00  0.00    -0.744 OA
ENDBRANCH  75  76
ENDBRANCH  43  68
BRANCH  55  80
ATOM     80  C   UNL     1     -11.146  -5.598  19.031  1.00  0.00     0.058 A 
ATOM     81  C   UNL     1     -12.369  -4.914  19.106  1.00  0.00     0.135 A 
ATOM     82  C   UNL     1     -10.747  -6.354  20.146  1.00  0.00     0.135 A 
ATOM     83  F   UNL     1     -12.795  -4.172  18.071  1.00  0.00    -0.206 F 
ATOM     84  C   UNL     1     -13.153  -4.956  20.254  1.00  0.00     0.059 A 
ATOM     85  C   UNL     1     -11.534  -6.441  21.288  1.00  0.00     0.059 A 
ATOM     86  F   UNL     1      -9.592  -7.038  20.122  1.00  0.00    -0.206 F 
ATOM     87  C   UNL     1     -12.729  -5.727  21.338  1.00  0.00     0.060 A 
BRANCH  87  88
ATOM     88  S   UNL     1     -13.776  -5.800  22.805  1.00  0.00     0.124 S 
ATOM     89  O   UNL     1     -13.616  -4.454  23.347  1.00  0.00    -0.237 OA
ATOM     90  O   UNL     1     -15.085  -6.104  22.237  1.00  0.00    -0.237 OA
ATOM     91  O   UNL     1     -13.178  -6.870  23.598  1.00  0.00    -0.744 OA
ENDBRANCH  87  88
ENDBRANCH  55  80
ENDBRANCH  29  30
ENDBRANCH  21  24
ENDBRANCH  19  20
ENDBRANCH   1  19
TORSDOF 16
