REMARK SMILES CCCOC(=O)c1c(NC(=O)[C@@H]2CC=CC[C@H]2C(=O)NCCCNC(=O)c2ccc(-c3c4nc(c(-c5c(F)cc(S(=O)(=O)[O-])cc5F)c5ccc([nH]5)c(-c5c(F)cc(S(=O)(=O)[O-])cc5F)c5nc(c(-c6c(F)cc(S(=O)(=O)[O-])cc6F)c6ccc3[nH]6)C=C5)C=C4)cc2)sc2c1CCCC2
REMARK SMILES IDX 18 1 19 2 20 3 17 5 12 6 13 7 14 8 16 9 15 10 10 11 9 12
REMARK SMILES IDX 11 14 8 15 7 16 95 17 93 18 94 19 96 20 99 21 97 22 98 23
REMARK SMILES IDX 5 24 6 25 4 26 3 27 2 28 1 29 21 30 22 31 23 32 24 33 25 34
REMARK SMILES IDX 26 36 27 37 28 38 92 39 29 40 91 41 30 42 31 43 32 44 85 45
REMARK SMILES IDX 33 46 90 47 84 48 86 49 34 50 89 51 83 52 82 53 35 55 69 56
REMARK SMILES IDX 48 57 68 58 49 59 52 60 67 61 87 62 50 63 51 64 66 66 88 67
REMARK SMILES IDX 53 68 36 69 37 70 46 71 38 72 39 73 45 74 47 75 40 76 41 77
REMARK SMILES IDX 42 78 43 79 44 80 70 81 71 82 80 83 72 84 73 85 79 86 81 87
REMARK SMILES IDX 74 88 75 89 76 90 77 91 78 92 54 93 55 94 64 95 56 96 57 97
REMARK SMILES IDX 63 98 65 99 58 100 59 101 60 102 61 103 62 104
REMARK H PARENT 20 4 9 13 24 35 86 54 52 65
REMARK Flexibility Score: inf
ROOT
ATOM      1  C   UNL     1       0.744   0.722   0.085  1.00  0.00     0.224 C 
ATOM      2  O   UNL     1       1.701   1.083  -0.646  1.00  0.00    -0.275 OA
ATOM      3  N   UNL     1      -0.057   1.882   0.370  1.00  0.00    -0.356 N 
ATOM      4  H   UNL     1       0.581   2.632   0.344  1.00  0.00     0.163 HD
ENDROOT
BRANCH   1   5
ATOM      5  C   UNL     1       0.879  -1.053   0.560  1.00  0.00     0.095 C 
ATOM      6  C   UNL     1       1.832  -1.459   1.735  1.00  0.00     0.095 C 
ATOM      7  C   UNL     1       2.260  -2.945   1.903  1.00  0.00     0.041 C 
ATOM      8  C   UNL     1       1.268  -3.962   1.485  1.00  0.00    -0.030 C 
ATOM      9  C   UNL     1      -0.228  -2.155   0.737  1.00  0.00     0.041 C 
ATOM     10  C   UNL     1       0.134  -3.596   0.900  1.00  0.00    -0.030 C 
BRANCH   6  11
ATOM     11  C   UNL     1       3.079  -0.702   1.577  1.00  0.00     0.229 C 
ATOM     12  N   UNL     1       3.034   0.553   2.008  1.00  0.00    -0.317 N 
ATOM     13  H   UNL     1       3.865   1.054   1.845  1.00  0.00     0.170 HD
ATOM     14  O   UNL     1       4.112  -1.135   1.082  1.00  0.00    -0.274 OA
BRANCH  12  15
ATOM     15  C   UNL     1       2.071   1.286   2.631  1.00  0.00     0.110 A 
ATOM     16  C   UNL     1       0.720   1.336   3.056  1.00  0.00     0.098 A 
ATOM     17  C   UNL     1       0.694   2.593   3.889  1.00  0.00    -0.017 A 
ATOM     18  S   UNL     1       3.041   2.654   2.921  1.00  0.00    -0.122 S 
ATOM     19  C   UNL     1       1.869   3.350   3.838  1.00  0.00     0.011 A 
ATOM     20  C   UNL     1      -0.399   3.271   4.641  1.00  0.00     0.038 C 
ATOM     21  C   UNL     1       2.152   4.738   4.350  1.00  0.00     0.047 C 
ATOM     22  C   UNL     1      -0.311   4.758   4.204  1.00  0.00     0.005 C 
ATOM     23  C   UNL     1       0.896   5.410   4.858  1.00  0.00     0.006 C 
BRANCH  16  24
ATOM     24  C   UNL     1      -0.554   0.330   2.793  1.00  0.00     0.341 C 
ATOM     25  O   UNL     1      -1.119  -0.224   3.722  1.00  0.00    -0.246 OA
BRANCH  24  26
ATOM     26  O   UNL     1      -1.077   0.213   1.472  1.00  0.00    -0.462 OA
BRANCH  26  27
ATOM     27  C   UNL     1      -2.191  -0.354   0.464  1.00  0.00     0.233 C 
BRANCH  27  28
ATOM     28  C   UNL     1      -1.898  -0.338  -1.192  1.00  0.00     0.038 C 
ATOM     29  C   UNL     1      -0.840  -1.120  -2.051  1.00  0.00     0.007 C 
ENDBRANCH  27  28
ENDBRANCH  26  27
ENDBRANCH  24  26
ENDBRANCH  16  24
ENDBRANCH  12  15
ENDBRANCH   6  11
ENDBRANCH   1   5
BRANCH   3  30
ATOM     30  C   UNL     1      -1.530   2.599   0.726  1.00  0.00     0.117 C 
BRANCH  30  31
ATOM     31  C   UNL     1      -2.446   2.595   2.102  1.00  0.00     0.042 C 
BRANCH  31  32
ATOM     32  C   UNL     1      -3.011   3.965   2.704  1.00  0.00     0.118 C 
BRANCH  32  33
ATOM     33  N   UNL     1      -3.952   3.919   3.906  1.00  0.00    -0.352 N 
ATOM     34  C   UNL     1      -4.135   4.255   5.254  1.00  0.00     0.251 C 
ATOM     35  H   UNL     1      -4.772   3.463   3.610  1.00  0.00     0.163 HD
ATOM     36  O   UNL     1      -5.327   4.258   5.603  1.00  0.00    -0.269 OA
BRANCH  34  37
ATOM     37  C   UNL     1      -3.173   4.532   6.389  1.00  0.00     0.039 A 
ATOM     38  C   UNL     1      -3.387   3.888   7.623  1.00  0.00     0.014 A 
ATOM     39  C   UNL     1      -2.236   5.551   6.454  1.00  0.00     0.014 A 
ATOM     40  C   UNL     1      -2.583   4.138   8.777  1.00  0.00     0.010 A 
ATOM     41  C   UNL     1      -1.310   5.660   7.540  1.00  0.00     0.010 A 
ATOM     42  C   UNL     1      -1.438   4.955   8.744  1.00  0.00    -0.014 A 
BRANCH  42  43
ATOM     43  C   UNL     1      -0.466   5.066   9.939  1.00  0.00     0.031 A 
ATOM     44  C   UNL     1       0.216   6.381  10.371  1.00  0.00     0.074 A 
ATOM     45  C   UNL     1      -0.111   3.966  10.659  1.00  0.00     0.049 A 
ATOM     46  N   UNL     1       1.049   6.604  11.370  1.00  0.00    -0.248 NA
ATOM     47  C   UNL     1      -0.009   7.582   9.555  1.00  0.00     0.031 C 
ATOM     48  C   UNL     1      -0.486   2.584  10.345  1.00  0.00     0.029 A 
ATOM     49  N   UNL     1       0.642   3.821  11.816  1.00  0.00    -0.354 N 
ATOM     50  C   UNL     1       1.472   7.933  11.257  1.00  0.00     0.074 A 
ATOM     51  C   UNL     1       0.875   8.440  10.044  1.00  0.00     0.031 C 
ATOM     52  C   UNL     1      -0.059   1.762  11.316  1.00  0.00     0.029 A 
ATOM     53  C   UNL     1       0.683   2.529  12.310  1.00  0.00     0.049 A 
ATOM     54  H   UNL     1       1.108   4.573  12.247  1.00  0.00     0.167 HD
ATOM     55  C   UNL     1       2.227   8.700  12.092  1.00  0.00     0.037 A 
ATOM     56  C   UNL     1       1.231   1.997  13.427  1.00  0.00     0.037 A 
ATOM     57  C   UNL     1       2.749   8.260  13.363  1.00  0.00     0.049 A 
ATOM     58  C   UNL     1       1.969   2.879  14.403  1.00  0.00     0.074 A 
ATOM     59  C   UNL     1       3.393   9.011  14.335  1.00  0.00     0.029 A 
ATOM     60  N   UNL     1       2.684   6.964  13.846  1.00  0.00    -0.354 N 
ATOM     61  N   UNL     1       2.220   4.163  14.325  1.00  0.00    -0.248 NA
ATOM     62  C   UNL     1       2.490   2.243  15.625  1.00  0.00     0.031 C 
ATOM     63  C   UNL     1       3.763   8.159  15.381  1.00  0.00     0.029 A 
ATOM     64  C   UNL     1       3.295   6.890  15.089  1.00  0.00     0.049 A 
ATOM     65  H   UNL     1       2.266   6.207  13.376  1.00  0.00     0.167 HD
ATOM     66  C   UNL     1       2.901   4.489  15.496  1.00  0.00     0.074 A 
ATOM     67  C   UNL     1       3.005   3.277  16.275  1.00  0.00     0.031 C 
ATOM     68  C   UNL     1       3.394   5.692  15.882  1.00  0.00     0.037 A 
BRANCH  55  69
ATOM     69  C   UNL     1       2.504  10.140  11.701  1.00  0.00     0.058 A 
ATOM     70  C   UNL     1       1.482  11.103  11.644  1.00  0.00     0.135 A 
ATOM     71  C   UNL     1       3.818  10.584  11.462  1.00  0.00     0.135 A 
ATOM     72  F   UNL     1       0.206  10.748  11.868  1.00  0.00    -0.206 F 
ATOM     73  C   UNL     1       1.740  12.432  11.319  1.00  0.00     0.059 A 
ATOM     74  C   UNL     1       4.105  11.919  11.173  1.00  0.00     0.059 A 
ATOM     75  F   UNL     1       4.845   9.722  11.523  1.00  0.00    -0.206 F 
ATOM     76  C   UNL     1       3.056  12.832  11.086  1.00  0.00     0.060 A 
BRANCH  76  77
ATOM     77  S   UNL     1       3.369  14.562  10.674  1.00  0.00     0.124 S 
ATOM     78  O   UNL     1       2.826  14.641   9.320  1.00  0.00    -0.237 OA
ATOM     79  O   UNL     1       2.610  15.270  11.700  1.00  0.00    -0.237 OA
ATOM     80  O   UNL     1       4.820  14.682  10.774  1.00  0.00    -0.744 OA
ENDBRANCH  76  77
ENDBRANCH  55  69
BRANCH  56  81
ATOM     81  C   UNL     1       1.062   0.541  13.730  1.00  0.00     0.058 A 
ATOM     82  C   UNL     1       0.257   0.111  14.798  1.00  0.00     0.135 A 
ATOM     83  C   UNL     1       1.702  -0.449  12.967  1.00  0.00     0.135 A 
ATOM     84  F   UNL     1      -0.365   1.014  15.573  1.00  0.00    -0.206 F 
ATOM     85  C   UNL     1       0.104  -1.238  15.109  1.00  0.00     0.059 A 
ATOM     86  C   UNL     1       1.539  -1.807  13.238  1.00  0.00     0.059 A 
ATOM     87  F   UNL     1       2.477  -0.100  11.929  1.00  0.00    -0.206 F 
ATOM     88  C   UNL     1       0.746  -2.191  14.319  1.00  0.00     0.060 A 
BRANCH  88  89
ATOM     89  S   UNL     1       0.496  -3.941  14.697  1.00  0.00     0.124 S 
ATOM     90  O   UNL     1       1.273  -4.092  15.922  1.00  0.00    -0.237 OA
ATOM     91  O   UNL     1      -0.954  -4.018  14.847  1.00  0.00    -0.237 OA
ATOM     92  O   UNL     1       1.034  -4.619  13.521  1.00  0.00    -0.744 OA
ENDBRANCH  88  89
ENDBRANCH  56  81
BRANCH  68  93
ATOM     93  C   UNL     1       4.059   5.784  17.230  1.00  0.00     0.058 A 
ATOM     94  C   UNL     1       5.310   5.199  17.483  1.00  0.00     0.135 A 
ATOM     95  C   UNL     1       3.458   6.511  18.270  1.00  0.00     0.135 A 
ATOM     96  F   UNL     1       5.930   4.490  16.526  1.00  0.00    -0.206 F 
ATOM     97  C   UNL     1       5.927   5.307  18.726  1.00  0.00     0.059 A 
ATOM     98  C   UNL     1       4.070   6.659  19.512  1.00  0.00     0.059 A 
ATOM     99  F   UNL     1       2.267   7.103  18.082  1.00  0.00    -0.206 F 
ATOM    100  C   UNL     1       5.299   6.041  19.735  1.00  0.00     0.060 A 
BRANCH 100 101
ATOM    101  S   UNL     1       6.123   6.195  21.334  1.00  0.00     0.124 S 
ATOM    102  O   UNL     1       5.958   4.853  21.881  1.00  0.00    -0.237 OA
ATOM    103  O   UNL     1       7.483   6.561  20.951  1.00  0.00    -0.237 OA
ATOM    104  O   UNL     1       5.364   7.245  22.008  1.00  0.00    -0.744 OA
ENDBRANCH 100 101
ENDBRANCH  68  93
ENDBRANCH  42  43
ENDBRANCH  34  37
ENDBRANCH  32  33
ENDBRANCH  31  32
ENDBRANCH  30  31
ENDBRANCH   3  30
TORSDOF 19
