REMARK SMILES CCc1ccc(C(=O)[C@@H](Br)CC(=O)NCCCNC(=O)c2ccc(-c3c4nc(c(-c5c(F)cc(S(=O)(=O)[O-])cc5F)c5ccc([nH]5)c(-c5c(F)cc(S(=O)(=O)[O-])cc5F)c5nc(c(-c6c(F)cc(S(=O)(=O)[O-])cc6F)c6ccc3[nH]6)C=C5)C=C4)cc2)cc1
REMARK SMILES IDX 15 1 14 2 12 3 13 4 11 6 9 7 10 8 7 9 8 10 6 11 3 12 4 13
REMARK SMILES IDX 88 14 5 15 87 16 2 17 1 18 16 19 17 20 18 21 19 22 20 24
REMARK SMILES IDX 21 25 22 26 86 27 23 28 85 29 24 30 25 31 26 32 79 33 27 34
REMARK SMILES IDX 84 35 78 36 80 37 28 38 83 39 77 40 76 41 29 43 63 44 42 45
REMARK SMILES IDX 62 46 43 47 46 48 61 49 81 50 44 51 45 52 60 54 82 55 47 56
REMARK SMILES IDX 30 57 31 58 40 59 32 60 33 61 39 62 41 63 34 64 35 65 36 66
REMARK SMILES IDX 37 67 38 68 64 69 65 70 74 71 66 72 67 73 73 74 75 75 68 76
REMARK SMILES IDX 69 77 70 78 71 79 72 80 48 81 49 82 58 83 50 84 51 85 57 86
REMARK SMILES IDX 59 87 52 88 53 89 54 90 55 91 56 92
REMARK H PARENT 14 5 18 23 80 42 46 53
REMARK Flexibility Score: inf
ROOT
ATOM      1  C   UNL     1       3.720   6.065   0.922  1.00  0.00     0.117 C 
ENDROOT
BRANCH   1   2
ATOM      2  N   UNL     1       3.548   7.493   1.114  1.00  0.00    -0.356 N 
ATOM      3  C   UNL     1       2.460   8.276   0.878  1.00  0.00     0.221 C 
ATOM      4  O   UNL     1       2.561   9.492   1.033  1.00  0.00    -0.275 OA
ATOM      5  H   UNL     1       4.336   7.966   1.468  1.00  0.00     0.163 HD
BRANCH   3   6
ATOM      6  C   UNL     1       1.147   7.650   0.461  1.00  0.00     0.123 C 
BRANCH   6   7
ATOM      7  C   UNL     1       1.036   7.541  -1.052  1.00  0.00     0.138 C 
ATOM      8  Br  UNL     1      -0.799   7.945  -1.635  1.00  0.00    -0.080 Br
BRANCH   7   9
ATOM      9  C   UNL     1       1.392   6.220  -1.728  1.00  0.00     0.176 C 
ATOM     10  O   UNL     1       2.054   6.232  -2.770  1.00  0.00    -0.293 OA
BRANCH   9  11
ATOM     11  C   UNL     1       1.023   4.881  -1.162  1.00  0.00     0.019 A 
ATOM     12  C   UNL     1       0.641   2.330   0.011  1.00  0.00    -0.048 A 
ATOM     13  C   UNL     1       1.630   2.527  -0.957  1.00  0.00     0.004 A 
ATOM     14  C   UNL     1      -0.171   3.420   0.360  1.00  0.00     0.004 A 
ATOM     15  C   UNL     1       1.802   3.781  -1.551  1.00  0.00     0.012 A 
ATOM     16  C   UNL     1       0.005   4.679  -0.229  1.00  0.00     0.012 A 
BRANCH  12  17
ATOM     17  C   UNL     1       0.447   1.013   0.728  1.00  0.00     0.032 C 
ATOM     18  C   UNL     1       0.932  -0.230  -0.009  1.00  0.00     0.009 C 
ENDBRANCH  12  17
ENDBRANCH   9  11
ENDBRANCH   7   9
ENDBRANCH   6   7
ENDBRANCH   3   6
ENDBRANCH   1   2
BRANCH   1  19
ATOM     19  C   UNL     1       4.492   5.775  -0.360  1.00  0.00     0.042 C 
BRANCH  19  20
ATOM     20  C   UNL     1       6.000   5.779  -0.166  1.00  0.00     0.118 C 
BRANCH  20  21
ATOM     21  N   UNL     1       6.444   4.617   0.596  1.00  0.00    -0.352 N 
ATOM     22  C   UNL     1       7.220   3.546   0.227  1.00  0.00     0.251 C 
ATOM     23  H   UNL     1       6.135   4.597   1.530  1.00  0.00     0.163 HD
ATOM     24  O   UNL     1       7.251   2.561   0.961  1.00  0.00    -0.269 OA
BRANCH  22  25
ATOM     25  C   UNL     1       8.002   3.556  -1.032  1.00  0.00     0.039 A 
ATOM     26  C   UNL     1       8.192   2.351  -1.718  1.00  0.00     0.014 A 
ATOM     27  C   UNL     1       8.594   4.723  -1.518  1.00  0.00     0.014 A 
ATOM     28  C   UNL     1       8.921   2.333  -2.911  1.00  0.00     0.010 A 
ATOM     29  C   UNL     1       9.229   4.723  -2.756  1.00  0.00     0.010 A 
ATOM     30  C   UNL     1       9.416   3.526  -3.460  1.00  0.00    -0.014 A 
BRANCH  30  31
ATOM     31  C   UNL     1      10.145   3.546  -4.756  1.00  0.00     0.031 A 
ATOM     32  C   UNL     1      11.568   4.037  -4.814  1.00  0.00     0.074 A 
ATOM     33  C   UNL     1       9.503   3.196  -5.888  1.00  0.00     0.049 A 
ATOM     34  N   UNL     1      12.338   4.219  -5.856  1.00  0.00    -0.248 NA
ATOM     35  C   UNL     1      12.199   4.403  -3.535  1.00  0.00     0.031 C 
ATOM     36  C   UNL     1       8.107   2.759  -5.969  1.00  0.00     0.029 A 
ATOM     37  N   UNL     1       9.934   3.167  -7.191  1.00  0.00    -0.354 N 
ATOM     38  C   UNL     1      13.528   4.743  -5.364  1.00  0.00     0.074 A 
ATOM     39  C   UNL     1      13.360   4.900  -3.936  1.00  0.00     0.031 C 
ATOM     40  C   UNL     1       7.805   2.484  -7.248  1.00  0.00     0.029 A 
ATOM     41  C   UNL     1       8.967   2.765  -8.083  1.00  0.00     0.049 A 
ATOM     42  H   UNL     1      10.849   3.410  -7.461  1.00  0.00     0.167 HD
ATOM     43  C   UNL     1      14.665   5.043  -6.035  1.00  0.00     0.037 A 
ATOM     44  C   UNL     1       9.008   2.648  -9.425  1.00  0.00     0.037 A 
ATOM     45  C   UNL     1      14.836   4.849  -7.452  1.00  0.00     0.049 A 
ATOM     46  C   UNL     1      10.287   2.970 -10.148  1.00  0.00     0.074 A 
ATOM     47  C   UNL     1      15.970   5.053  -8.217  1.00  0.00     0.029 A 
ATOM     48  N   UNL     1      13.844   4.407  -8.316  1.00  0.00    -0.354 N 
ATOM     49  N   UNL     1      11.426   3.400  -9.656  1.00  0.00    -0.248 NA
ATOM     50  C   UNL     1      10.292   2.786 -11.605  1.00  0.00     0.031 C 
ATOM     51  C   UNL     1      15.652   4.778  -9.551  1.00  0.00     0.029 A 
ATOM     52  C   UNL     1      14.334   4.352  -9.610  1.00  0.00     0.049 A 
ATOM     53  H   UNL     1      12.928   4.168  -8.048  1.00  0.00     0.167 HD
ATOM     54  C   UNL     1      12.289   3.514 -10.741  1.00  0.00     0.074 A 
ATOM     55  C   UNL     1      11.545   3.095 -11.911  1.00  0.00     0.031 C 
ATOM     56  C   UNL     1      13.581   3.927 -10.764  1.00  0.00     0.037 A 
BRANCH  43  57
ATOM     57  C   UNL     1      15.815   5.610  -5.245  1.00  0.00     0.058 A 
ATOM     58  C   UNL     1      16.529   4.834  -4.317  1.00  0.00     0.135 A 
ATOM     59  C   UNL     1      16.227   6.939  -5.436  1.00  0.00     0.135 A 
ATOM     60  F   UNL     1      16.172   3.561  -4.083  1.00  0.00    -0.206 F 
ATOM     61  C   UNL     1      17.584   5.364  -3.581  1.00  0.00     0.059 A 
ATOM     62  C   UNL     1      17.299   7.482  -4.733  1.00  0.00     0.059 A 
ATOM     63  F   UNL     1      15.583   7.728  -6.311  1.00  0.00    -0.206 F 
ATOM     64  C   UNL     1      17.960   6.691  -3.794  1.00  0.00     0.060 A 
BRANCH  64  65
ATOM     65  S   UNL     1      19.328   7.364  -2.828  1.00  0.00     0.124 S 
ATOM     66  O   UNL     1      18.711   7.511  -1.513  1.00  0.00    -0.237 OA
ATOM     67  O   UNL     1      20.337   6.315  -2.941  1.00  0.00    -0.237 OA
ATOM     68  O   UNL     1      19.647   8.613  -3.513  1.00  0.00    -0.744 OA
ENDBRANCH  64  65
ENDBRANCH  43  57
BRANCH  44  69
ATOM     69  C   UNL     1       7.805   2.180 -10.163  1.00  0.00     0.058 A 
ATOM     70  C   UNL     1       7.768   0.905 -10.747  1.00  0.00     0.135 A 
ATOM     71  C   UNL     1       6.659   2.982 -10.275  1.00  0.00     0.135 A 
ATOM     72  F   UNL     1       8.841   0.102 -10.672  1.00  0.00    -0.206 F 
ATOM     73  C   UNL     1       6.644   0.445 -11.425  1.00  0.00     0.059 A 
ATOM     74  C   UNL     1       5.513   2.535 -10.925  1.00  0.00     0.059 A 
ATOM     75  F   UNL     1       6.637   4.204  -9.719  1.00  0.00    -0.206 F 
ATOM     76  C   UNL     1       5.518   1.267 -11.505  1.00  0.00     0.060 A 
BRANCH  76  77
ATOM     77  S   UNL     1       4.045   0.635 -12.336  1.00  0.00     0.124 S 
ATOM     78  O   UNL     1       4.455   0.679 -13.735  1.00  0.00    -0.237 OA
ATOM     79  O   UNL     1       3.910  -0.696 -11.752  1.00  0.00    -0.237 OA
ATOM     80  O   UNL     1       3.007   1.587 -11.952  1.00  0.00    -0.744 OA
ENDBRANCH  76  77
ENDBRANCH  44  69
BRANCH  56  81
ATOM     81  C   UNL     1      14.287   3.915 -12.092  1.00  0.00     0.058 A 
ATOM     82  C   UNL     1      13.999   4.859 -13.090  1.00  0.00     0.135 A 
ATOM     83  C   UNL     1      15.305   2.981 -12.345  1.00  0.00     0.135 A 
ATOM     84  F   UNL     1      13.030   5.769 -12.900  1.00  0.00    -0.206 F 
ATOM     85  C   UNL     1      14.680   4.863 -14.303  1.00  0.00     0.059 A 
ATOM     86  C   UNL     1      16.018   2.985 -13.539  1.00  0.00     0.059 A 
ATOM     87  F   UNL     1      15.627   2.064 -11.419  1.00  0.00    -0.206 F 
ATOM     88  C   UNL     1      15.691   3.923 -14.517  1.00  0.00     0.060 A 
BRANCH  88  89
ATOM     89  S   UNL     1      16.592   3.963 -16.080  1.00  0.00     0.124 S 
ATOM     90  O   UNL     1      15.604   3.415 -17.003  1.00  0.00    -0.237 OA
ATOM     91  O   UNL     1      16.886   5.384 -16.236  1.00  0.00    -0.237 OA
ATOM     92  O   UNL     1      17.752   3.114 -15.825  1.00  0.00    -0.744 OA
ENDBRANCH  88  89
ENDBRANCH  56  81
ENDBRANCH  30  31
ENDBRANCH  22  25
ENDBRANCH  20  21
ENDBRANCH  19  20
ENDBRANCH   1  19
TORSDOF 17
