REMARK SMILES CCC[N@@H+](C)CC[C@@H]1CCC[C@]1([NH2+]C)C(=O)NCCCNC(=O)c1ccc(-c2c3nc(c(-c4c(F)cc(S(=O)(=O)[O-])cc4F)c4ccc([nH]4)c(-c4c(F)cc(S(=O)(=O)[O-])cc4F)c4nc(c(-c5c(F)cc(S(=O)(=O)[O-])cc5F)c5ccc2[nH]5)C=C4)C=C3)cc1
REMARK SMILES IDX 18 1 17 2 15 3 16 4 12 6 8 7 9 8 10 9 11 10 7 11 6 12 4 13
REMARK SMILES IDX 5 14 3 16 2 17 1 18 13 19 14 20 19 23 20 24 21 25 22 26
REMARK SMILES IDX 23 28 24 29 25 30 89 31 26 32 88 33 27 34 28 35 29 36 82 37
REMARK SMILES IDX 30 38 87 39 81 40 83 41 31 42 86 43 80 44 79 45 32 47 66 48
REMARK SMILES IDX 45 49 65 50 46 51 49 52 64 53 84 54 47 55 48 56 63 58 85 59
REMARK SMILES IDX 50 60 33 61 34 62 43 63 35 64 36 65 42 66 44 67 37 68 38 69
REMARK SMILES IDX 39 70 40 71 41 72 67 73 68 74 77 75 69 76 70 77 76 78 78 79
REMARK SMILES IDX 71 80 72 81 73 82 74 83 75 84 51 85 52 86 61 87 53 88 54 89
REMARK SMILES IDX 60 90 62 91 55 92 56 93 57 94 58 95 59 96
REMARK H PARENT 17 5 4 15 13 21 13 22 21 27 83 46 49 57
REMARK Flexibility Score: inf
ROOT
ATOM      1  C   UNL     1       0.576   1.547  -1.854  1.00  0.00     0.118 C 
ENDROOT
BRANCH   1   2
ATOM      2  N   UNL     1       1.764   0.747  -2.112  1.00  0.00    -0.351 N 
ATOM      3  C   UNL     1       2.629  -0.057  -1.448  1.00  0.00     0.281 C 
ATOM      4  O   UNL     1       3.357  -0.680  -2.245  1.00  0.00    -0.268 OA
ATOM      5  H   UNL     1       2.017   0.809  -3.062  1.00  0.00     0.163 HD
BRANCH   3   6
ATOM      6  C   UNL     1       2.829  -0.294   0.113  1.00  0.00     0.178 C 
ATOM      7  C   UNL     1       3.472   0.859   0.955  1.00  0.00     0.066 C 
ATOM      8  C   UNL     1       4.920   0.864   0.421  1.00  0.00     0.011 C 
ATOM      9  C   UNL     1       5.293  -0.602   0.254  1.00  0.00     0.008 C 
ATOM     10  C   UNL     1       3.971  -1.363   0.281  1.00  0.00     0.079 C 
BRANCH   7  11
ATOM     11  C   UNL     1       2.941   2.299   1.040  1.00  0.00     0.072 C 
BRANCH  11  12
ATOM     12  C   UNL     1       1.444   2.589   1.235  1.00  0.00     0.262 C 
BRANCH  12  13
ATOM     13  N   UNL     1       0.705   2.581   2.495  1.00  0.00    -0.337 N 
ATOM     14  C   UNL     1       1.212   3.560   3.445  1.00  0.00     0.332 C 
ATOM     15  H   UNL     1      -0.232   2.890   2.236  1.00  0.00     0.347 HD
BRANCH  13  16
ATOM     16  C   UNL     1       0.448   1.271   3.072  1.00  0.00     0.261 C 
BRANCH  16  17
ATOM     17  C   UNL     1      -0.892   0.600   2.683  1.00  0.00     0.058 C 
ATOM     18  C   UNL     1      -1.272   0.434   1.221  1.00  0.00     0.010 C 
ENDBRANCH  16  17
ENDBRANCH  13  16
ENDBRANCH  12  13
ENDBRANCH  11  12
ENDBRANCH   7  11
BRANCH   6  19
ATOM     19  N   UNL     1       1.627  -0.839   0.769  1.00  0.00    -0.336 N 
ATOM     20  C   UNL     1       1.163  -2.138   0.297  1.00  0.00     0.331 C 
ATOM     21  H   UNL     1       0.869  -0.171   0.633  1.00  0.00     0.346 HD
ATOM     22  H   UNL     1       1.893  -0.984   1.744  1.00  0.00     0.346 HD
ENDBRANCH   6  19
ENDBRANCH   3   6
ENDBRANCH   1   2
BRANCH   1  23
ATOM     23  C   UNL     1       0.855   3.050  -1.875  1.00  0.00     0.042 C 
BRANCH  23  24
ATOM     24  C   UNL     1       0.408   3.742  -3.154  1.00  0.00     0.118 C 
BRANCH  24  25
ATOM     25  N   UNL     1      -1.040   3.930  -3.201  1.00  0.00    -0.352 N 
ATOM     26  C   UNL     1      -1.789   5.084  -3.298  1.00  0.00     0.251 C 
ATOM     27  H   UNL     1      -1.566   3.099  -3.156  1.00  0.00     0.163 HD
ATOM     28  O   UNL     1      -3.000   5.033  -3.122  1.00  0.00    -0.269 OA
BRANCH  26  29
ATOM     29  C   UNL     1      -1.136   6.381  -3.597  1.00  0.00     0.039 A 
ATOM     30  C   UNL     1      -1.619   7.553  -3.004  1.00  0.00     0.014 A 
ATOM     31  C   UNL     1      -0.053   6.449  -4.472  1.00  0.00     0.014 A 
ATOM     32  C   UNL     1      -0.975   8.772  -3.243  1.00  0.00     0.010 A 
ATOM     33  C   UNL     1       0.664   7.630  -4.601  1.00  0.00     0.010 A 
ATOM     34  C   UNL     1       0.196   8.814  -4.016  1.00  0.00    -0.014 A 
BRANCH  34  35
ATOM     35  C   UNL     1       0.925  10.079  -4.295  1.00  0.00     0.031 A 
ATOM     36  C   UNL     1       1.133  10.507  -5.728  1.00  0.00     0.074 A 
ATOM     37  C   UNL     1       1.473  10.785  -3.285  1.00  0.00     0.049 A 
ATOM     38  N   UNL     1       1.867  11.479  -6.204  1.00  0.00    -0.248 NA
ATOM     39  C   UNL     1       0.465   9.703  -6.768  1.00  0.00     0.031 C 
ATOM     40  C   UNL     1       1.385  10.443  -1.863  1.00  0.00     0.029 A 
ATOM     41  N   UNL     1       2.228  11.931  -3.301  1.00  0.00    -0.354 N 
ATOM     42  C   UNL     1       1.776  11.377  -7.589  1.00  0.00     0.074 A 
ATOM     43  C   UNL     1       0.975  10.210  -7.879  1.00  0.00     0.031 C 
ATOM     44  C   UNL     1       2.037  11.371  -1.144  1.00  0.00     0.029 A 
ATOM     45  C   UNL     1       2.629  12.348  -2.052  1.00  0.00     0.049 A 
ATOM     46  H   UNL     1       2.461  12.411  -4.128  1.00  0.00     0.167 HD
ATOM     47  C   UNL     1       2.284  12.201  -8.534  1.00  0.00     0.037 A 
ATOM     48  C   UNL     1       3.398  13.392  -1.685  1.00  0.00     0.037 A 
ATOM     49  C   UNL     1       3.028  13.393  -8.230  1.00  0.00     0.049 A 
ATOM     50  C   UNL     1       3.935  14.307  -2.754  1.00  0.00     0.074 A 
ATOM     51  C   UNL     1       3.527  14.341  -9.105  1.00  0.00     0.029 A 
ATOM     52  N   UNL     1       3.369  13.807  -6.951  1.00  0.00    -0.354 N 
ATOM     53  N   UNL     1       3.789  14.229  -4.057  1.00  0.00    -0.248 NA
ATOM     54  C   UNL     1       4.733  15.457  -2.308  1.00  0.00     0.031 C 
ATOM     55  C   UNL     1       4.212  15.303  -8.358  1.00  0.00     0.029 A 
ATOM     56  C   UNL     1       4.087  14.988  -7.013  1.00  0.00     0.049 A 
ATOM     57  H   UNL     1       3.136  13.330  -6.122  1.00  0.00     0.167 HD
ATOM     58  C   UNL     1       4.443  15.339  -4.580  1.00  0.00     0.074 A 
ATOM     59  C   UNL     1       4.978  16.076  -3.455  1.00  0.00     0.031 C 
ATOM     60  C   UNL     1       4.587  15.717  -5.875  1.00  0.00     0.037 A 
BRANCH  47  61
ATOM     61  C   UNL     1       2.039  11.857  -9.979  1.00  0.00     0.058 A 
ATOM     62  C   UNL     1       0.758  11.932 -10.551  1.00  0.00     0.135 A 
ATOM     63  C   UNL     1       3.107  11.496 -10.817  1.00  0.00     0.135 A 
ATOM     64  F   UNL     1      -0.303  12.253  -9.794  1.00  0.00    -0.206 F 
ATOM     65  C   UNL     1       0.541  11.639 -11.893  1.00  0.00     0.059 A 
ATOM     66  C   UNL     1       2.918  11.231 -12.171  1.00  0.00     0.059 A 
ATOM     67  F   UNL     1       4.352  11.403 -10.324  1.00  0.00    -0.206 F 
ATOM     68  C   UNL     1       1.629  11.295 -12.697  1.00  0.00     0.060 A 
BRANCH  68  69
ATOM     69  S   UNL     1       1.331  10.952 -14.444  1.00  0.00     0.124 S 
ATOM     70  O   UNL     1       0.637   9.669 -14.375  1.00  0.00    -0.237 OA
ATOM     71  O   UNL     1       0.516  12.092 -14.850  1.00  0.00    -0.237 OA
ATOM     72  O   UNL     1       2.673  10.908 -15.016  1.00  0.00    -0.744 OA
ENDBRANCH  68  69
ENDBRANCH  47  61
BRANCH  48  73
ATOM     73  C   UNL     1       3.690  13.643  -0.246  1.00  0.00     0.058 A 
ATOM     74  C   UNL     1       3.164  14.765   0.412  1.00  0.00     0.135 A 
ATOM     75  C   UNL     1       4.503  12.774   0.499  1.00  0.00     0.135 A 
ATOM     76  F   UNL     1       2.383  15.629  -0.255  1.00  0.00    -0.206 F 
ATOM     77  C   UNL     1       3.458  15.036   1.746  1.00  0.00     0.059 A 
ATOM     78  C   UNL     1       4.786  13.006   1.842  1.00  0.00     0.059 A 
ATOM     79  F   UNL     1       5.016  11.675  -0.075  1.00  0.00    -0.206 F 
ATOM     80  C   UNL     1       4.272  14.149   2.452  1.00  0.00     0.060 A 
BRANCH  80  81
ATOM     81  S   UNL     1       4.630  14.498   4.188  1.00  0.00     0.124 S 
ATOM     82  O   UNL     1       5.540  15.632   4.077  1.00  0.00    -0.237 OA
ATOM     83  O   UNL     1       3.304  14.792   4.721  1.00  0.00    -0.237 OA
ATOM     84  O   UNL     1       5.227  13.254   4.664  1.00  0.00    -0.744 OA
ENDBRANCH  80  81
ENDBRANCH  48  73
BRANCH  60  85
ATOM     85  C   UNL     1       5.296  17.013  -6.147  1.00  0.00     0.058 A 
ATOM     86  C   UNL     1       6.684  17.147  -5.989  1.00  0.00     0.135 A 
ATOM     87  C   UNL     1       4.582  18.115  -6.647  1.00  0.00     0.135 A 
ATOM     88  F   UNL     1       7.412  16.126  -5.510  1.00  0.00    -0.206 F 
ATOM     89  C   UNL     1       7.336  18.336  -6.297  1.00  0.00     0.059 A 
ATOM     90  C   UNL     1       5.218  19.302  -6.992  1.00  0.00     0.059 A 
ATOM     91  F   UNL     1       3.254  18.033  -6.829  1.00  0.00    -0.206 F 
ATOM     92  C   UNL     1       6.595  19.406  -6.804  1.00  0.00     0.060 A 
BRANCH  92  93
ATOM     93  S   UNL     1       7.462  20.926  -7.244  1.00  0.00     0.124 S 
ATOM     94  O   UNL     1       7.789  21.469  -5.930  1.00  0.00    -0.237 OA
ATOM     95  O   UNL     1       8.591  20.426  -8.022  1.00  0.00    -0.237 OA
ATOM     96  O   UNL     1       6.468  21.677  -8.004  1.00  0.00    -0.744 OA
ENDBRANCH  92  93
ENDBRANCH  60  85
ENDBRANCH  34  35
ENDBRANCH  26  29
ENDBRANCH  24  25
ENDBRANCH  23  24
ENDBRANCH   1  23
TORSDOF 19
