REMARK SMILES O=C(NCCCNC(=O)[C@@H]1CCCC[C@H]1C(=O)Nc1ccccc1C(=O)N1CCOCC1)c1ccc(-c2c3nc(c(-c4c(F)cc(S(=O)(=O)[O-])cc4F)c4ccc([nH]4)c(-c4c(F)cc(S(=O)(=O)[O-])cc4F)c4nc(c(-c5c(F)cc(S(=O)(=O)[O-])cc5F)c5ccc2[nH]5)C=C4)C=C3)cc1
REMARK SMILES IDX 5 1 4 2 3 3 1 4 2 5 33 7 34 8 98 9 35 10 97 11 36 12 37 13
REMARK SMILES IDX 38 14 91 15 39 16 96 17 90 18 92 19 40 20 95 21 89 22 88 23
REMARK SMILES IDX 41 25 75 26 54 27 74 28 55 29 58 30 73 31 93 32 56 33 57 34
REMARK SMILES IDX 72 36 94 37 59 38 42 39 43 40 52 41 44 42 45 43 51 44 53 45
REMARK SMILES IDX 46 46 47 47 48 48 49 49 50 50 76 51 77 52 86 53 78 54 79 55
REMARK SMILES IDX 85 56 87 57 80 58 81 59 82 60 83 61 84 62 60 63 61 64 70 65
REMARK SMILES IDX 62 66 63 67 69 68 71 69 64 70 65 71 66 72 67 73 68 74 6 75
REMARK SMILES IDX 7 76 8 77 9 79 10 80 11 81 15 82 12 83 14 84 13 85 16 86
REMARK SMILES IDX 17 87 18 88 19 90 20 91 24 92 21 93 23 94 22 95 25 96 26 97
REMARK SMILES IDX 27 98 28 99 32 100 29 101 31 102 30 103
REMARK H PARENT 3 6 92 24 58 35 7 78 18 89
REMARK Flexibility Score: inf
ROOT
ATOM      1  C   UNL     1       4.583   0.875  -2.549  1.00  0.00     0.042 C 
ENDROOT
BRANCH   1   2
ATOM      2  C   UNL     1       4.410   1.059  -1.043  1.00  0.00     0.118 C 
BRANCH   2   3
ATOM      3  N   UNL     1       3.015   0.989  -0.629  1.00  0.00    -0.352 N 
ATOM      4  O   UNL     1       1.147   0.006   0.163  1.00  0.00    -0.269 OA
ATOM      5  C   UNL     1       2.363   0.002   0.082  1.00  0.00     0.251 C 
ATOM      6  H   UNL     1       2.458   1.756  -0.894  1.00  0.00     0.163 HD
BRANCH   5   7
ATOM      7  C   UNL     1       3.156  -1.071   0.729  1.00  0.00     0.039 A 
ATOM      8  C   UNL     1       4.314  -0.757   1.438  1.00  0.00     0.014 A 
ATOM      9  C   UNL     1       2.736  -2.401   0.630  1.00  0.00     0.014 A 
ATOM     10  C   UNL     1       5.139  -1.774   1.897  1.00  0.00     0.010 A 
ATOM     11  C   UNL     1       3.512  -3.421   1.196  1.00  0.00     0.010 A 
ATOM     12  C   UNL     1       4.736  -3.118   1.812  1.00  0.00    -0.014 A 
BRANCH  12  13
ATOM     13  C   UNL     1       5.579  -4.152   2.470  1.00  0.00     0.031 A 
ATOM     14  C   UNL     1       6.246  -5.250   1.687  1.00  0.00     0.074 A 
ATOM     15  C   UNL     1       5.790  -4.040   3.798  1.00  0.00     0.049 A 
ATOM     16  N   UNL     1       7.057  -6.185   2.115  1.00  0.00    -0.248 NA
ATOM     17  C   UNL     1       5.966  -5.319   0.244  1.00  0.00     0.031 C 
ATOM     18  C   UNL     1       5.172  -3.028   4.663  1.00  0.00     0.029 A 
ATOM     19  N   UNL     1       6.596  -4.748   4.649  1.00  0.00    -0.354 N 
ATOM     20  C   UNL     1       7.380  -6.954   1.003  1.00  0.00     0.074 A 
ATOM     21  C   UNL     1       6.651  -6.397  -0.117  1.00  0.00     0.031 C 
ATOM     22  C   UNL     1       5.671  -3.138   5.900  1.00  0.00     0.029 A 
ATOM     23  C   UNL     1       6.582  -4.274   5.941  1.00  0.00     0.049 A 
ATOM     24  H   UNL     1       7.135  -5.522   4.365  1.00  0.00     0.167 HD
ATOM     25  C   UNL     1       8.217  -8.018   0.926  1.00  0.00     0.037 A 
ATOM     26  C   UNL     1       7.213  -4.714   7.045  1.00  0.00     0.037 A 
ATOM     27  C   UNL     1       8.943  -8.559   2.051  1.00  0.00     0.049 A 
ATOM     28  C   UNL     1       8.122  -5.902   6.929  1.00  0.00     0.074 A 
ATOM     29  C   UNL     1       9.821  -9.630   2.075  1.00  0.00     0.029 A 
ATOM     30  N   UNL     1       8.880  -8.071   3.349  1.00  0.00    -0.354 N 
ATOM     31  N   UNL     1       8.424  -6.605   5.863  1.00  0.00    -0.248 NA
ATOM     32  C   UNL     1       8.772  -6.361   8.162  1.00  0.00     0.031 C 
ATOM     33  C   UNL     1      10.256  -9.814   3.392  1.00  0.00     0.029 A 
ATOM     34  C   UNL     1       9.690  -8.827   4.182  1.00  0.00     0.049 A 
ATOM     35  H   UNL     1       8.339  -7.300   3.636  1.00  0.00     0.167 HD
ATOM     36  C   UNL     1       9.305  -7.588   6.297  1.00  0.00     0.074 A 
ATOM     37  C   UNL     1       9.514  -7.362   7.714  1.00  0.00     0.031 C 
ATOM     38  C   UNL     1       9.879  -8.593   5.592  1.00  0.00     0.037 A 
BRANCH  25  39
ATOM     39  C   UNL     1       8.402  -8.681  -0.414  1.00  0.00     0.058 A 
ATOM     40  C   UNL     1       9.139  -8.071  -1.441  1.00  0.00     0.135 A 
ATOM     41  C   UNL     1       7.909  -9.977  -0.646  1.00  0.00     0.135 A 
ATOM     42  F   UNL     1       9.621  -6.828  -1.281  1.00  0.00    -0.206 F 
ATOM     43  C   UNL     1       9.373  -8.716  -2.653  1.00  0.00     0.059 A 
ATOM     44  C   UNL     1       8.152 -10.650  -1.841  1.00  0.00     0.059 A 
ATOM     45  F   UNL     1       7.198 -10.609   0.300  1.00  0.00    -0.206 F 
ATOM     46  C   UNL     1       8.880 -10.008  -2.842  1.00  0.00     0.060 A 
BRANCH  46  47
ATOM     47  S   UNL     1       9.222 -10.841  -4.408  1.00  0.00     0.124 S 
ATOM     48  O   UNL     1       8.373 -10.090  -5.329  1.00  0.00    -0.237 OA
ATOM     49  O   UNL     1      10.659 -10.636  -4.562  1.00  0.00    -0.237 OA
ATOM     50  O   UNL     1       8.811 -12.219  -4.159  1.00  0.00    -0.744 OA
ENDBRANCH  46  47
ENDBRANCH  25  39
BRANCH  26  51
ATOM     51  C   UNL     1       6.973  -4.048   8.353  1.00  0.00     0.058 A 
ATOM     52  C   UNL     1       7.990  -3.346   9.015  1.00  0.00     0.135 A 
ATOM     53  C   UNL     1       5.711  -4.104   8.967  1.00  0.00     0.135 A 
ATOM     54  F   UNL     1       9.214  -3.265   8.470  1.00  0.00    -0.206 F 
ATOM     55  C   UNL     1       7.775  -2.749  10.253  1.00  0.00     0.059 A 
ATOM     56  C   UNL     1       5.462  -3.485  10.186  1.00  0.00     0.059 A 
ATOM     57  F   UNL     1       4.697  -4.745   8.365  1.00  0.00    -0.206 F 
ATOM     58  C   UNL     1       6.506  -2.826  10.831  1.00  0.00     0.060 A 
BRANCH  58  59
ATOM     59  S   UNL     1       6.227  -2.036  12.430  1.00  0.00     0.124 S 
ATOM     60  O   UNL     1       6.889  -2.968  13.335  1.00  0.00    -0.237 OA
ATOM     61  O   UNL     1       6.879  -0.743  12.254  1.00  0.00    -0.237 OA
ATOM     62  O   UNL     1       4.771  -1.986  12.528  1.00  0.00    -0.744 OA
ENDBRANCH  58  59
ENDBRANCH  26  51
BRANCH  38  63
ATOM     63  C   UNL     1      10.798  -9.510   6.350  1.00  0.00     0.058 A 
ATOM     64  C   UNL     1      10.308 -10.427   7.294  1.00  0.00     0.135 A 
ATOM     65  C   UNL     1      12.185  -9.470   6.133  1.00  0.00     0.135 A 
ATOM     66  F   UNL     1       8.991 -10.499   7.545  1.00  0.00    -0.206 F 
ATOM     67  C   UNL     1      11.164 -11.241   8.028  1.00  0.00     0.059 A 
ATOM     68  C   UNL     1      13.056 -10.297   6.833  1.00  0.00     0.059 A 
ATOM     69  F   UNL     1      12.704  -8.619   5.233  1.00  0.00    -0.206 F 
ATOM     70  C   UNL     1      12.538 -11.165   7.793  1.00  0.00     0.060 A 
BRANCH  70  71
ATOM     71  S   UNL     1      13.639 -12.223   8.755  1.00  0.00     0.124 S 
ATOM     72  O   UNL     1      13.629 -11.556  10.052  1.00  0.00    -0.237 OA
ATOM     73  O   UNL     1      12.959 -13.514   8.700  1.00  0.00    -0.237 OA
ATOM     74  O   UNL     1      14.900 -12.155   8.023  1.00  0.00    -0.744 OA
ENDBRANCH  70  71
ENDBRANCH  38  63
ENDBRANCH  12  13
ENDBRANCH   5   7
ENDBRANCH   2   3
ENDBRANCH   1   2
BRANCH   1  75
ATOM     75  C   UNL     1       4.321   2.154  -3.344  1.00  0.00     0.117 C 
BRANCH  75  76
ATOM     76  N   UNL     1       5.320   3.154  -3.003  1.00  0.00    -0.356 N 
ATOM     77  C   UNL     1       6.570   3.312  -3.525  1.00  0.00     0.223 C 
ATOM     78  H   UNL     1       5.060   3.800  -2.307  1.00  0.00     0.163 HD
ATOM     79  O   UNL     1       7.499   3.544  -2.752  1.00  0.00    -0.275 OA
BRANCH  77  80
ATOM     80  C   UNL     1       6.772   3.165  -5.028  1.00  0.00     0.091 C 
ATOM     81  C   UNL     1       7.155   1.680  -5.211  1.00  0.00     0.014 C 
ATOM     82  C   UNL     1       7.896   4.073  -5.615  1.00  0.00     0.091 C 
ATOM     83  C   UNL     1       7.442   1.328  -6.658  1.00  0.00     0.001 C 
ATOM     84  C   UNL     1       8.198   3.666  -7.075  1.00  0.00     0.014 C 
ATOM     85  C   UNL     1       8.560   2.197  -7.201  1.00  0.00     0.001 C 
BRANCH  82  86
ATOM     86  C   UNL     1       7.910   5.621  -5.668  1.00  0.00     0.228 C 
ATOM     87  O   UNL     1       8.966   6.215  -5.402  1.00  0.00    -0.274 OA
ATOM     88  N   UNL     1       6.944   6.385  -6.254  1.00  0.00    -0.325 N 
ATOM     89  H   UNL     1       7.221   7.289  -6.528  1.00  0.00     0.169 HD
BRANCH  88  90
ATOM     90  C   UNL     1       5.620   6.056  -6.516  1.00  0.00     0.054 A 
ATOM     91  C   UNL     1       5.249   6.026  -7.868  1.00  0.00     0.027 A 
ATOM     92  C   UNL     1       4.700   5.720  -5.515  1.00  0.00     0.063 A 
ATOM     93  C   UNL     1       4.051   5.427  -8.245  1.00  0.00     0.002 A 
ATOM     94  C   UNL     1       3.516   5.075  -5.913  1.00  0.00     0.016 A 
ATOM     95  C   UNL     1       3.214   4.893  -7.269  1.00  0.00     0.001 A 
BRANCH  92  96
ATOM     96  C   UNL     1       4.852   6.084  -4.058  1.00  0.00     0.256 C 
ATOM     97  O   UNL     1       4.025   5.690  -3.238  1.00  0.00    -0.269 OA
ATOM     98  N   UNL     1       5.867   6.979  -3.703  1.00  0.00    -0.334 N 
ATOM     99  C   UNL     1       5.450   8.341  -3.405  1.00  0.00     0.148 C 
ATOM    100  C   UNL     1       6.895   6.516  -2.766  1.00  0.00     0.148 C 
ATOM    101  C   UNL     1       6.665   9.264  -3.299  1.00  0.00     0.181 C 
ATOM    102  C   UNL     1       8.035   7.515  -2.547  1.00  0.00     0.181 C 
ATOM    103  O   UNL     1       7.538   8.825  -2.247  1.00  0.00    -0.378 OA
ENDBRANCH  92  96
ENDBRANCH  88  90
ENDBRANCH  82  86
ENDBRANCH  77  80
ENDBRANCH  75  76
ENDBRANCH   1  75
TORSDOF 16
