REMARK SMILES Cc1ccc(C(=O)NCCCNC(=O)c2ccc(-c3c4nc(c(-c5c(F)cc(S(=O)(=O)[O-])cc5F)c5ccc([nH]5)c(-c5c(F)cc(S(=O)(=O)[O-])cc5F)c5nc(c(-c6c(F)cc(S(=O)(=O)[O-])cc6F)c6ccc3[nH]6)C=C5)C=C4)cc2)c2c1N[C@H](c1ccccc1F)[C@H]1CC=C[C@@H]21
REMARK SMILES IDX 11 1 10 2 9 3 8 4 6 5 7 6 5 8 1 9 2 10 3 11 82 12 4 13 81 14
REMARK SMILES IDX 83 15 96 16 84 17 92 19 95 20 93 21 94 22 85 23 86 24 90 25
REMARK SMILES IDX 87 26 89 27 91 28 88 29 12 30 13 31 14 33 15 34 16 35 80 36
REMARK SMILES IDX 17 37 79 38 18 39 19 40 20 41 73 42 21 43 78 44 72 45 74 46
REMARK SMILES IDX 22 47 77 48 71 49 70 50 23 52 57 53 36 54 56 55 37 56 40 57
REMARK SMILES IDX 55 58 75 59 38 60 39 61 54 63 76 64 41 65 24 66 25 67 34 68
REMARK SMILES IDX 26 69 27 70 33 71 35 72 28 73 29 74 30 75 31 76 32 77 58 78
REMARK SMILES IDX 59 79 68 80 60 81 61 82 67 83 69 84 62 85 63 86 64 87 65 88
REMARK SMILES IDX 66 89 42 90 43 91 52 92 44 93 45 94 51 95 53 96 46 97 47 98
REMARK SMILES IDX 48 99 49 100 50 101
REMARK H PARENT 8 7 83 18 12 32 74 51 40 62
REMARK Flexibility Score: inf
ROOT
ATOM      1  C   UNL     1       0.313  -8.085   2.577  1.00  0.00     0.118 C 
ENDROOT
BRANCH   1   2
ATOM      2  C   UNL     1       0.964  -6.755   2.198  1.00  0.00     0.042 C 
BRANCH   2   3
ATOM      3  C   UNL     1       1.013  -6.533   0.685  1.00  0.00     0.118 C 
BRANCH   3   4
ATOM      4  N   UNL     1      -0.327  -6.337   0.164  1.00  0.00    -0.352 N 
ATOM      5  C   UNL     1      -1.126  -5.247  -0.065  1.00  0.00     0.251 C 
ATOM      6  O   UNL     1      -2.293  -5.530  -0.335  1.00  0.00    -0.269 OA
ATOM      7  H   UNL     1      -0.764  -7.184  -0.082  1.00  0.00     0.163 HD
BRANCH   5   8
ATOM      8  C   UNL     1      -0.650  -3.818  -0.038  1.00  0.00     0.045 A 
ATOM      9  C   UNL     1       0.963   0.208  -0.018  1.00  0.00     0.046 C 
ATOM     10  C   UNL     1       0.350  -1.168  -0.023  1.00  0.00    -0.028 A 
ATOM     11  C   UNL     1       0.947  -2.155   0.756  1.00  0.00     0.006 A 
ATOM     12  C   UNL     1      -0.835  -1.465  -0.726  1.00  0.00     0.042 A 
ATOM     13  C   UNL     1       0.429  -3.446   0.773  1.00  0.00     0.014 A 
ATOM     14  C   UNL     1      -1.319  -2.796  -0.778  1.00  0.00    -0.005 A 
ATOM     15  N   UNL     1      -1.493  -0.440  -1.379  1.00  0.00    -0.377 N 
ATOM     16  C   UNL     1      -2.604  -3.064  -1.540  1.00  0.00     0.050 C 
ATOM     17  C   UNL     1      -2.500  -0.670  -2.397  1.00  0.00     0.117 C 
ATOM     18  H   UNL     1      -1.268   0.488  -1.143  1.00  0.00     0.161 HD
ATOM     19  C   UNL     1      -3.419  -1.822  -1.970  1.00  0.00     0.031 C 
ATOM     20  C   UNL     1      -2.456  -3.795  -2.850  1.00  0.00    -0.023 C 
ATOM     21  C   UNL     1      -4.260  -2.334  -3.155  1.00  0.00     0.034 C 
ATOM     22  C   UNL     1      -3.387  -3.406  -3.732  1.00  0.00    -0.030 C 
BRANCH  17  23
ATOM     23  C   UNL     1      -3.134   0.686  -2.686  1.00  0.00     0.010 A 
ATOM     24  C   UNL     1      -2.370   1.631  -3.405  1.00  0.00     0.009 A 
ATOM     25  C   UNL     1      -4.375   1.103  -2.194  1.00  0.00     0.128 A 
ATOM     26  C   UNL     1      -2.825   2.938  -3.597  1.00  0.00     0.001 A 
ATOM     27  C   UNL     1      -4.833   2.407  -2.384  1.00  0.00     0.039 A 
ATOM     28  F   UNL     1      -5.168   0.274  -1.505  1.00  0.00    -0.207 F 
ATOM     29  C   UNL     1      -4.056   3.329  -3.079  1.00  0.00     0.003 A 
ENDBRANCH  17  23
ENDBRANCH   5   8
ENDBRANCH   3   4
ENDBRANCH   2   3
ENDBRANCH   1   2
BRANCH   1  30
ATOM     30  N   UNL     1       1.144  -9.213   2.180  1.00  0.00    -0.352 N 
ATOM     31  C   UNL     1       1.880 -10.058   2.973  1.00  0.00     0.251 C 
ATOM     32  H   UNL     1       1.184  -9.394   1.213  1.00  0.00     0.163 HD
ATOM     33  O   UNL     1       2.758 -10.757   2.480  1.00  0.00    -0.269 OA
BRANCH  31  34
ATOM     34  C   UNL     1       1.598 -10.118   4.420  1.00  0.00     0.039 A 
ATOM     35  C   UNL     1       2.657 -10.063   5.328  1.00  0.00     0.014 A 
ATOM     36  C   UNL     1       0.281 -10.256   4.869  1.00  0.00     0.014 A 
ATOM     37  C   UNL     1       2.390 -10.107   6.697  1.00  0.00     0.010 A 
ATOM     38  C   UNL     1       0.012 -10.244   6.233  1.00  0.00     0.010 A 
ATOM     39  C   UNL     1       1.065 -10.185   7.157  1.00  0.00    -0.014 A 
BRANCH  39  40
ATOM     40  C   UNL     1       0.762 -10.265   8.605  1.00  0.00     0.031 A 
ATOM     41  C   UNL     1       0.233 -11.550   9.178  1.00  0.00     0.074 A 
ATOM     42  C   UNL     1       0.931  -9.182   9.386  1.00  0.00     0.049 A 
ATOM     43  N   UNL     1      -0.120 -11.821  10.407  1.00  0.00    -0.248 NA
ATOM     44  C   UNL     1       0.063 -12.674   8.242  1.00  0.00     0.031 C 
ATOM     45  C   UNL     1       1.417  -7.879   8.929  1.00  0.00     0.029 A 
ATOM     46  N   UNL     1       0.711  -9.005  10.728  1.00  0.00    -0.354 N 
ATOM     47  C   UNL     1      -0.541 -13.145  10.394  1.00  0.00     0.074 A 
ATOM     48  C   UNL     1      -0.467 -13.601   9.024  1.00  0.00     0.031 C 
ATOM     49  C   UNL     1       1.482  -7.043   9.979  1.00  0.00     0.029 A 
ATOM     50  C   UNL     1       1.016  -7.741  11.175  1.00  0.00     0.049 A 
ATOM     51  H   UNL     1       0.367  -9.715  11.316  1.00  0.00     0.167 HD
ATOM     52  C   UNL     1      -0.921 -13.920  11.436  1.00  0.00     0.037 A 
ATOM     53  C   UNL     1       0.931  -7.210  12.410  1.00  0.00     0.037 A 
ATOM     54  C   UNL     1      -0.988 -13.456  12.796  1.00  0.00     0.049 A 
ATOM     55  C   UNL     1       0.449  -8.075  13.544  1.00  0.00     0.074 A 
ATOM     56  C   UNL     1      -1.341 -14.165  13.930  1.00  0.00     0.029 A 
ATOM     57  N   UNL     1      -0.697 -12.163  13.206  1.00  0.00    -0.354 N 
ATOM     58  N   UNL     1       0.097  -9.339  13.525  1.00  0.00    -0.248 NA
ATOM     59  C   UNL     1       0.352  -7.444  14.868  1.00  0.00     0.031 C 
ATOM     60  C   UNL     1      -1.304 -13.289  15.020  1.00  0.00     0.029 A 
ATOM     61  C   UNL     1      -0.883 -12.046  14.572  1.00  0.00     0.049 A 
ATOM     62  H   UNL     1      -0.403 -11.435  12.612  1.00  0.00     0.167 HD
ATOM     63  C   UNL     1      -0.239  -9.662  14.835  1.00  0.00     0.074 A 
ATOM     64  C   UNL     1      -0.038  -8.463  15.623  1.00  0.00     0.031 C 
ATOM     65  C   UNL     1      -0.673 -10.843  15.340  1.00  0.00     0.037 A 
BRANCH  52  66
ATOM     66  C   UNL     1      -1.275 -15.351  11.144  1.00  0.00     0.058 A 
ATOM     67  C   UNL     1      -0.291 -16.285  10.777  1.00  0.00     0.135 A 
ATOM     68  C   UNL     1      -2.598 -15.806  11.260  1.00  0.00     0.135 A 
ATOM     69  F   UNL     1       0.987 -15.899  10.633  1.00  0.00    -0.206 F 
ATOM     70  C   UNL     1      -0.610 -17.611  10.511  1.00  0.00     0.059 A 
ATOM     71  C   UNL     1      -2.936 -17.136  11.025  1.00  0.00     0.059 A 
ATOM     72  F   UNL     1      -3.578 -14.956  11.604  1.00  0.00    -0.206 F 
ATOM     73  C   UNL     1      -1.936 -18.029  10.640  1.00  0.00     0.060 A 
BRANCH  73  74
ATOM     74  S   UNL     1      -2.326 -19.757  10.298  1.00  0.00     0.124 S 
ATOM     75  O   UNL     1      -2.140 -19.818   8.852  1.00  0.00    -0.237 OA
ATOM     76  O   UNL     1      -1.329 -20.464  11.095  1.00  0.00    -0.237 OA
ATOM     77  O   UNL     1      -3.704 -19.893  10.758  1.00  0.00    -0.744 OA
ENDBRANCH  73  74
ENDBRANCH  52  66
BRANCH  53  78
ATOM     78  C   UNL     1       1.353  -5.804  12.644  1.00  0.00     0.058 A 
ATOM     79  C   UNL     1       2.529  -5.518  13.354  1.00  0.00     0.135 A 
ATOM     80  C   UNL     1       0.614  -4.721  12.142  1.00  0.00     0.135 A 
ATOM     81  F   UNL     1       3.266  -6.519  13.859  1.00  0.00    -0.206 F 
ATOM     82  C   UNL     1       2.955  -4.211  13.564  1.00  0.00     0.059 A 
ATOM     83  C   UNL     1       1.032  -3.405  12.320  1.00  0.00     0.059 A 
ATOM     84  F   UNL     1      -0.511  -4.941  11.445  1.00  0.00    -0.206 F 
ATOM     85  C   UNL     1       2.202  -3.160  13.037  1.00  0.00     0.060 A 
BRANCH  85  86
ATOM     86  S   UNL     1       2.801  -1.472  13.267  1.00  0.00     0.124 S 
ATOM     87  O   UNL     1       2.608  -1.282  14.699  1.00  0.00    -0.237 OA
ATOM     88  O   UNL     1       4.186  -1.578  12.817  1.00  0.00    -0.237 OA
ATOM     89  O   UNL     1       1.928  -0.684  12.402  1.00  0.00    -0.744 OA
ENDBRANCH  85  86
ENDBRANCH  53  78
BRANCH  65  90
ATOM     90  C   UNL     1      -0.950 -10.912  16.816  1.00  0.00     0.058 A 
ATOM     91  C   UNL     1      -2.089 -10.316  17.376  1.00  0.00     0.135 A 
ATOM     92  C   UNL     1      -0.116 -11.662  17.662  1.00  0.00     0.135 A 
ATOM     93  F   UNL     1      -2.913  -9.582  16.611  1.00  0.00    -0.206 F 
ATOM     94  C   UNL     1      -2.390 -10.454  18.727  1.00  0.00     0.059 A 
ATOM     95  C   UNL     1      -0.412 -11.836  19.010  1.00  0.00     0.059 A 
ATOM     96  F   UNL     1       0.982 -12.261  17.173  1.00  0.00    -0.206 F 
ATOM     97  C   UNL     1      -1.550 -11.225  19.534  1.00  0.00     0.060 A 
BRANCH  97  98
ATOM     98  S   UNL     1      -1.990 -11.445  21.270  1.00  0.00     0.124 S 
ATOM     99  O   UNL     1      -1.737 -10.114  21.811  1.00  0.00    -0.237 OA
ATOM    100  O   UNL     1      -3.394 -11.838  21.187  1.00  0.00    -0.237 OA
ATOM    101  O   UNL     1      -1.078 -12.491  21.724  1.00  0.00    -0.744 OA
ENDBRANCH  97  98
ENDBRANCH  65  90
ENDBRANCH  39  40
ENDBRANCH  31  34
ENDBRANCH   1  30
TORSDOF 14
