REMARK SMILES C[C@H]1CCC[C@]1(C(=O)NCCCNC(=O)c1ccc(-c2c3nc(c(-c4c(F)cc(S(=O)(=O)[O-])cc4F)c4ccc([nH]4)c(-c4c(F)cc(S(=O)(=O)[O-])cc4F)c4nc(c(-c5c(F)cc(S(=O)(=O)[O-])cc5F)c5ccc2[nH]5)C=C4)C=C3)cc1)c1ccc2c(c1)OCO2
REMARK SMILES IDX 12 1 11 2 10 3 9 4 7 5 8 6 6 8 1 9 2 10 3 11 4 12 5 13 82 14
REMARK SMILES IDX 83 15 87 16 84 17 86 18 85 19 88 20 90 21 89 22 13 23 14 24
REMARK SMILES IDX 15 26 16 27 17 28 81 29 18 30 80 31 19 32 20 33 21 34 74 35
REMARK SMILES IDX 22 36 79 37 73 38 75 39 23 40 78 41 72 42 71 43 24 45 58 46
REMARK SMILES IDX 37 47 57 48 38 49 41 50 56 51 76 52 39 53 40 54 55 56 77 57
REMARK SMILES IDX 42 58 25 59 26 60 35 61 27 62 28 63 34 64 36 65 29 66 30 67
REMARK SMILES IDX 31 68 32 69 33 70 59 71 60 72 69 73 61 74 62 75 68 76 70 77
REMARK SMILES IDX 63 78 64 79 65 80 66 81 67 82 43 83 44 84 53 85 45 86 46 87
REMARK SMILES IDX 52 88 54 89 47 90 48 91 49 92 50 93 51 94
REMARK H PARENT 9 7 13 25 75 44 41 55
REMARK Flexibility Score: inf
ROOT
ATOM      1  C   UNL     1      -1.666  -2.037   4.598  1.00  0.00     0.118 C 
ENDROOT
BRANCH   1   2
ATOM      2  C   UNL     1      -1.310  -2.016   3.123  1.00  0.00     0.042 C 
BRANCH   2   3
ATOM      3  C   UNL     1      -1.981  -0.888   2.357  1.00  0.00     0.117 C 
BRANCH   3   4
ATOM      4  N   UNL     1      -1.415   0.421   2.641  1.00  0.00    -0.355 N 
ATOM      5  C   UNL     1      -0.818   1.390   1.887  1.00  0.00     0.230 C 
ATOM      6  O   UNL     1      -0.723   2.469   2.483  1.00  0.00    -0.274 OA
ATOM      7  H   UNL     1      -1.475   0.663   3.593  1.00  0.00     0.163 HD
BRANCH   5   8
ATOM      8  C   UNL     1      -0.284   1.175   0.425  1.00  0.00     0.077 C 
ATOM      9  C   UNL     1       1.776  -0.014   1.557  1.00  0.00     0.009 C 
ATOM     10  C   UNL     1       0.883   0.128   0.330  1.00  0.00     0.006 C 
ATOM     11  C   UNL     1       0.265  -1.171  -0.167  1.00  0.00     0.005 C 
ATOM     12  C   UNL     1      -0.901  -0.726  -1.042  1.00  0.00     0.002 C 
ATOM     13  C   UNL     1      -1.430   0.584  -0.448  1.00  0.00     0.022 C 
BRANCH   8  14
ATOM     14  C   UNL     1       0.329   2.448  -0.264  1.00  0.00    -0.028 A 
ATOM     15  C   UNL     1       1.016   3.457   0.459  1.00  0.00     0.009 A 
ATOM     16  C   UNL     1       0.446   2.473  -1.676  1.00  0.00     0.055 A 
ATOM     17  C   UNL     1       1.799   4.431  -0.180  1.00  0.00     0.051 A 
ATOM     18  C   UNL     1       1.266   3.403  -2.272  1.00  0.00     0.166 A 
ATOM     19  C   UNL     1       1.935   4.352  -1.545  1.00  0.00     0.165 A 
ATOM     20  O   UNL     1       1.589   3.433  -3.594  1.00  0.00    -0.454 OA
ATOM     21  O   UNL     1       2.764   5.101  -2.322  1.00  0.00    -0.454 OA
ATOM     22  C   UNL     1       2.692   4.357  -3.557  1.00  0.00     0.468 C 
ENDBRANCH   8  14
ENDBRANCH   5   8
ENDBRANCH   3   4
ENDBRANCH   2   3
ENDBRANCH   1   2
BRANCH   1  23
ATOM     23  N   UNL     1      -3.075  -2.342   4.810  1.00  0.00    -0.352 N 
ATOM     24  C   UNL     1      -3.673  -3.471   5.315  1.00  0.00     0.251 C 
ATOM     25  H   UNL     1      -3.697  -1.626   4.549  1.00  0.00     0.163 HD
ATOM     26  O   UNL     1      -4.876  -3.637   5.143  1.00  0.00    -0.269 OA
BRANCH  24  27
ATOM     27  C   UNL     1      -2.879  -4.477   6.054  1.00  0.00     0.039 A 
ATOM     28  C   UNL     1      -3.213  -5.828   5.931  1.00  0.00     0.014 A 
ATOM     29  C   UNL     1      -1.837  -4.093   6.903  1.00  0.00     0.014 A 
ATOM     30  C   UNL     1      -2.471  -6.789   6.619  1.00  0.00     0.010 A 
ATOM     31  C   UNL     1      -1.031  -5.056   7.498  1.00  0.00     0.010 A 
ATOM     32  C   UNL     1      -1.354  -6.413   7.384  1.00  0.00    -0.014 A 
BRANCH  32  33
ATOM     33  C   UNL     1      -0.528  -7.429   8.081  1.00  0.00     0.031 A 
ATOM     34  C   UNL     1      -0.421  -7.425   9.582  1.00  0.00     0.074 A 
ATOM     35  C   UNL     1       0.158  -8.330   7.352  1.00  0.00     0.049 A 
ATOM     36  N   UNL     1       0.228  -8.248  10.365  1.00  0.00    -0.248 NA
ATOM     37  C   UNL     1      -1.106  -6.336  10.297  1.00  0.00     0.031 C 
ATOM     38  C   UNL     1       0.190  -8.383   5.888  1.00  0.00     0.029 A 
ATOM     39  N   UNL     1       0.950  -9.379   7.739  1.00  0.00    -0.354 N 
ATOM     40  C   UNL     1       0.041  -7.769  11.657  1.00  0.00     0.074 A 
ATOM     41  C   UNL     1      -0.723  -6.547  11.547  1.00  0.00     0.031 C 
ATOM     42  C   UNL     1       0.916  -9.443   5.502  1.00  0.00     0.029 A 
ATOM     43  C   UNL     1       1.426 -10.125   6.688  1.00  0.00     0.049 A 
ATOM     44  H   UNL     1       1.159  -9.579   8.680  1.00  0.00     0.167 HD
ATOM     45  C   UNL     1       0.443  -8.314  12.831  1.00  0.00     0.037 A 
ATOM     46  C   UNL     1       2.173 -11.245   6.681  1.00  0.00     0.037 A 
ATOM     47  C   UNL     1       1.185  -9.544  12.928  1.00  0.00     0.049 A 
ATOM     48  C   UNL     1       2.584 -11.850   7.994  1.00  0.00     0.074 A 
ATOM     49  C   UNL     1       1.584 -10.225  14.064  1.00  0.00     0.029 A 
ATOM     50  N   UNL     1       1.647 -10.275  11.842  1.00  0.00    -0.354 N 
ATOM     51  N   UNL     1       2.330 -11.430   9.211  1.00  0.00    -0.248 NA
ATOM     52  C   UNL     1       3.374 -13.085   7.931  1.00  0.00     0.031 C 
ATOM     53  C   UNL     1       2.325 -11.344  13.665  1.00  0.00     0.029 A 
ATOM     54  C   UNL     1       2.348 -11.387  12.279  1.00  0.00     0.049 A 
ATOM     55  H   UNL     1       1.497 -10.037  10.898  1.00  0.00     0.167 HD
ATOM     56  C   UNL     1       2.918 -12.358  10.062  1.00  0.00     0.074 A 
ATOM     57  C   UNL     1       3.519 -13.372   9.218  1.00  0.00     0.031 C 
ATOM     58  C   UNL     1       2.958 -12.371  11.419  1.00  0.00     0.037 A 
BRANCH  45  59
ATOM     59  C   UNL     1       0.084  -7.573  14.093  1.00  0.00     0.058 A 
ATOM     60  C   UNL     1      -1.247  -7.458  14.530  1.00  0.00     0.135 A 
ATOM     61  C   UNL     1       1.078  -6.954  14.866  1.00  0.00     0.135 A 
ATOM     62  F   UNL     1      -2.242  -8.017  13.823  1.00  0.00    -0.206 F 
ATOM     63  C   UNL     1      -1.584  -6.711  15.655  1.00  0.00     0.059 A 
ATOM     64  C   UNL     1       0.767  -6.228  16.014  1.00  0.00     0.059 A 
ATOM     65  F   UNL     1       2.367  -7.033  14.500  1.00  0.00    -0.206 F 
ATOM     66  C   UNL     1      -0.570  -6.092  16.385  1.00  0.00     0.060 A 
BRANCH  66  67
ATOM     67  S   UNL     1      -1.023  -5.095  17.820  1.00  0.00     0.124 S 
ATOM     68  O   UNL     1      -1.559  -3.896  17.182  1.00  0.00    -0.237 OA
ATOM     69  O   UNL     1      -2.000  -5.943  18.496  1.00  0.00    -0.237 OA
ATOM     70  O   UNL     1       0.243  -4.918  18.525  1.00  0.00    -0.744 OA
ENDBRANCH  66  67
ENDBRANCH  45  59
BRANCH  46  71
ATOM     71  C   UNL     1       2.514 -11.892   5.388  1.00  0.00     0.058 A 
ATOM     72  C   UNL     1       1.885 -13.082   4.996  1.00  0.00     0.135 A 
ATOM     73  C   UNL     1       3.422 -11.306   4.493  1.00  0.00     0.135 A 
ATOM     74  F   UNL     1       1.011 -13.681   5.819  1.00  0.00    -0.206 F 
ATOM     75  C   UNL     1       2.143 -13.671   3.763  1.00  0.00     0.059 A 
ATOM     76  C   UNL     1       3.680 -11.864   3.244  1.00  0.00     0.059 A 
ATOM     77  F   UNL     1       4.036 -10.156   4.814  1.00  0.00    -0.206 F 
ATOM     78  C   UNL     1       3.036 -13.049   2.889  1.00  0.00     0.060 A 
BRANCH  78  79
ATOM     79  S   UNL     1       3.295 -13.774   1.256  1.00  0.00     0.124 S 
ATOM     80  O   UNL     1       4.095 -14.950   1.579  1.00  0.00    -0.237 OA
ATOM     81  O   UNL     1       1.928 -14.033   0.816  1.00  0.00    -0.237 OA
ATOM     82  O   UNL     1       3.990 -12.717   0.526  1.00  0.00    -0.744 OA
ENDBRANCH  78  79
ENDBRANCH  46  71
BRANCH  58  83
ATOM     83  C   UNL     1       3.678 -13.524  12.063  1.00  0.00     0.058 A 
ATOM     84  C   UNL     1       5.076 -13.640  12.008  1.00  0.00     0.135 A 
ATOM     85  C   UNL     1       2.962 -14.520  12.745  1.00  0.00     0.135 A 
ATOM     86  F   UNL     1       5.806 -12.716  11.364  1.00  0.00    -0.206 F 
ATOM     87  C   UNL     1       5.736 -14.728  12.569  1.00  0.00     0.059 A 
ATOM     88  C   UNL     1       3.604 -15.602  13.339  1.00  0.00     0.059 A 
ATOM     89  F   UNL     1       1.625 -14.449  12.839  1.00  0.00    -0.206 F 
ATOM     90  C   UNL     1       4.990 -15.708  13.226  1.00  0.00     0.060 A 
BRANCH  90  91
ATOM     91  S   UNL     1       5.855 -17.121  13.941  1.00  0.00     0.124 S 
ATOM     92  O   UNL     1       6.154 -17.913  12.752  1.00  0.00    -0.237 OA
ATOM     93  O   UNL     1       7.003 -16.493  14.589  1.00  0.00    -0.237 OA
ATOM     94  O   UNL     1       4.869 -17.698  14.850  1.00  0.00    -0.744 OA
ENDBRANCH  90  91
ENDBRANCH  58  83
ENDBRANCH  32  33
ENDBRANCH  24  27
ENDBRANCH   1  23
TORSDOF 14
