REMARK SMILES CCN(Cc1ccccn1)c1nc(C)cc(C)c1C(=O)NCCCNC(=O)c1ccc(-c2c3nc(c(-c4c(F)cc(S(=O)(=O)[O-])cc4F)c4ccc([nH]4)c(-c4c(F)cc(S(=O)(=O)[O-])cc4F)c4nc(c(-c5c(F)cc(S(=O)(=O)[O-])cc5F)c5ccc2[nH]5)C=C4)C=C3)cc1
REMARK SMILES IDX 23 1 22 2 21 3 19 4 20 5 18 7 11 8 12 9 13 10 16 11 14 12
REMARK SMILES IDX 15 13 17 14 3 15 2 16 1 17 4 18 5 19 6 20 10 21 7 22 9 23
REMARK SMILES IDX 8 24 24 25 25 26 26 27 27 29 28 30 29 31 93 32 30 33 92 34
REMARK SMILES IDX 31 35 32 36 33 37 86 38 34 39 91 40 85 41 87 42 35 43 90 44
REMARK SMILES IDX 84 45 83 46 36 48 70 49 49 50 69 51 50 52 53 53 68 54 88 55
REMARK SMILES IDX 51 56 52 57 67 59 89 60 54 61 37 62 38 63 47 64 39 65 40 66
REMARK SMILES IDX 46 67 48 68 41 69 42 70 43 71 44 72 45 73 71 74 72 75 81 76
REMARK SMILES IDX 73 77 74 78 80 79 82 80 75 81 76 82 77 83 78 84 79 85 55 86
REMARK SMILES IDX 56 87 65 88 57 89 58 90 64 91 66 92 59 93 60 94 61 95 62 96
REMARK SMILES IDX 63 97
REMARK H PARENT 21 6 25 28 87 47 53 58
REMARK Flexibility Score: inf
ROOT
ATOM      1  C   UNL     1       5.238  -2.124  -0.101  1.00  0.00     0.042 C 
ENDROOT
BRANCH   1   2
ATOM      2  C   UNL     1       4.438  -1.804  -1.354  1.00  0.00     0.118 C 
BRANCH   2   3
ATOM      3  N   UNL     1       3.341  -0.910  -1.057  1.00  0.00    -0.352 N 
ATOM      4  C   UNL     1       3.032   0.127  -1.906  1.00  0.00     0.255 C 
ATOM      5  O   UNL     1       2.298  -0.071  -2.870  1.00  0.00    -0.269 OA
ATOM      6  H   UNL     1       2.810  -1.045  -0.239  1.00  0.00     0.163 HD
BRANCH   4   7
ATOM      7  C   UNL     1       3.506   1.492  -1.561  1.00  0.00     0.085 A 
ATOM      8  C   UNL     1       2.525   2.487  -1.398  1.00  0.00     0.142 A 
ATOM      9  N   UNL     1       2.874   3.791  -1.476  1.00  0.00    -0.235 NA
ATOM     10  C   UNL     1       4.160   4.163  -1.579  1.00  0.00     0.040 A 
ATOM     11  C   UNL     1       4.868   1.879  -1.636  1.00  0.00    -0.033 A 
ATOM     12  C   UNL     1       4.425   5.632  -1.652  1.00  0.00     0.067 C 
ATOM     13  C   UNL     1       5.181   3.242  -1.608  1.00  0.00     0.028 A 
ATOM     14  C   UNL     1       6.029   0.947  -1.788  1.00  0.00     0.045 C 
BRANCH   8  15
ATOM     15  N   UNL     1       1.182   2.220  -1.115  1.00  0.00    -0.350 N 
BRANCH  15  16
ATOM     16  C   UNL     1       0.842   1.890   0.271  1.00  0.00     0.115 C 
ATOM     17  C   UNL     1       0.671   0.390   0.467  1.00  0.00     0.027 C 
ENDBRANCH  15  16
BRANCH  15  18
ATOM     18  C   UNL     1       0.190   3.013  -1.858  1.00  0.00     0.174 C 
BRANCH  18  19
ATOM     19  C   UNL     1       0.003   4.495  -1.494  1.00  0.00     0.060 A 
ATOM     20  C   UNL     1      -0.795   5.274  -2.336  1.00  0.00     0.026 A 
ATOM     21  N   UNL     1       0.653   5.047  -0.437  1.00  0.00    -0.259 NA
ATOM     22  C   UNL     1      -0.816   6.657  -2.171  1.00  0.00     0.004 A 
ATOM     23  C   UNL     1       0.677   6.393  -0.344  1.00  0.00     0.111 A 
ATOM     24  C   UNL     1      -0.029   7.234  -1.185  1.00  0.00     0.020 A 
ENDBRANCH  18  19
ENDBRANCH  15  18
ENDBRANCH   8  15
ENDBRANCH   4   7
ENDBRANCH   2   3
ENDBRANCH   1   2
BRANCH   1  25
ATOM     25  C   UNL     1       5.014  -3.552   0.365  1.00  0.00     0.118 C 
BRANCH  25  26
ATOM     26  N   UNL     1       5.466  -4.513  -0.635  1.00  0.00    -0.352 N 
ATOM     27  C   UNL     1       6.471  -5.443  -0.591  1.00  0.00     0.251 C 
ATOM     28  H   UNL     1       4.965  -4.490  -1.483  1.00  0.00     0.163 HD
ATOM     29  O   UNL     1       6.857  -5.957  -1.636  1.00  0.00    -0.269 OA
BRANCH  27  30
ATOM     30  C   UNL     1       7.083  -5.824   0.698  1.00  0.00     0.039 A 
ATOM     31  C   UNL     1       8.440  -6.153   0.729  1.00  0.00     0.014 A 
ATOM     32  C   UNL     1       6.316  -5.903   1.863  1.00  0.00     0.014 A 
ATOM     33  C   UNL     1       9.032  -6.521   1.937  1.00  0.00     0.010 A 
ATOM     34  C   UNL     1       6.929  -6.158   3.081  1.00  0.00     0.010 A 
ATOM     35  C   UNL     1       8.287  -6.498   3.127  1.00  0.00    -0.014 A 
BRANCH  35  36
ATOM     36  C   UNL     1       8.900  -6.860   4.426  1.00  0.00     0.031 A 
ATOM     37  C   UNL     1       8.375  -8.039   5.201  1.00  0.00     0.074 A 
ATOM     38  C   UNL     1       9.886  -6.091   4.927  1.00  0.00     0.049 A 
ATOM     39  N   UNL     1       8.738  -8.482   6.376  1.00  0.00    -0.248 NA
ATOM     40  C   UNL     1       7.268  -8.798   4.594  1.00  0.00     0.031 C 
ATOM     41  C   UNL     1      10.424  -4.884   4.293  1.00  0.00     0.029 A 
ATOM     42  N   UNL     1      10.609  -6.205   6.085  1.00  0.00    -0.354 N 
ATOM     43  C   UNL     1       7.895  -9.552   6.654  1.00  0.00     0.074 A 
ATOM     44  C   UNL     1       6.958  -9.651   5.558  1.00  0.00     0.031 C 
ATOM     45  C   UNL     1      11.416  -4.393   5.051  1.00  0.00     0.029 A 
ATOM     46  C   UNL     1      11.561  -5.226   6.239  1.00  0.00     0.049 A 
ATOM     47  H   UNL     1      10.461  -6.922   6.744  1.00  0.00     0.167 HD
ATOM     48  C   UNL     1       7.920 -10.396   7.713  1.00  0.00     0.037 A 
ATOM     49  C   UNL     1      12.452  -5.028   7.229  1.00  0.00     0.037 A 
ATOM     50  C   UNL     1       8.886 -10.311   8.776  1.00  0.00     0.049 A 
ATOM     51  C   UNL     1      12.488  -6.002   8.373  1.00  0.00     0.074 A 
ATOM     52  C   UNL     1       9.048 -11.149   9.864  1.00  0.00     0.029 A 
ATOM     53  N   UNL     1       9.861  -9.328   8.879  1.00  0.00    -0.354 N 
ATOM     54  N   UNL     1      11.725  -7.048   8.590  1.00  0.00    -0.248 NA
ATOM     55  C   UNL     1      13.512  -5.778   9.401  1.00  0.00     0.031 C 
ATOM     56  C   UNL     1      10.098 -10.653  10.644  1.00  0.00     0.029 A 
ATOM     57  C   UNL     1      10.621  -9.532  10.018  1.00  0.00     0.049 A 
ATOM     58  H   UNL     1       9.993  -8.594   8.236  1.00  0.00     0.167 HD
ATOM     59  C   UNL     1      12.192  -7.621   9.767  1.00  0.00     0.074 A 
ATOM     60  C   UNL     1      13.315  -6.815  10.203  1.00  0.00     0.031 C 
ATOM     61  C   UNL     1      11.735  -8.714  10.429  1.00  0.00     0.037 A 
BRANCH  48  62
ATOM     62  C   UNL     1       6.886 -11.488   7.760  1.00  0.00     0.058 A 
ATOM     63  C   UNL     1       6.904 -12.562   6.853  1.00  0.00     0.135 A 
ATOM     64  C   UNL     1       5.873 -11.474   8.733  1.00  0.00     0.135 A 
ATOM     65  F   UNL     1       7.838 -12.617   5.890  1.00  0.00    -0.206 F 
ATOM     66  C   UNL     1       5.939 -13.563   6.888  1.00  0.00     0.059 A 
ATOM     67  C   UNL     1       4.915 -12.482   8.806  1.00  0.00     0.059 A 
ATOM     68  F   UNL     1       5.805 -10.472   9.623  1.00  0.00    -0.206 F 
ATOM     69  C   UNL     1       4.947 -13.514   7.869  1.00  0.00     0.060 A 
BRANCH  69  70
ATOM     70  S   UNL     1       3.705 -14.823   7.904  1.00  0.00     0.124 S 
ATOM     71  O   UNL     1       2.885 -14.478   6.746  1.00  0.00    -0.237 OA
ATOM     72  O   UNL     1       4.518 -16.028   7.767  1.00  0.00    -0.237 OA
ATOM     73  O   UNL     1       3.063 -14.648   9.203  1.00  0.00    -0.744 OA
ENDBRANCH  69  70
ENDBRANCH  48  62
BRANCH  49  74
ATOM     74  C   UNL     1      13.405  -3.889   7.153  1.00  0.00     0.058 A 
ATOM     75  C   UNL     1      14.769  -4.106   6.909  1.00  0.00     0.135 A 
ATOM     76  C   UNL     1      12.970  -2.562   7.298  1.00  0.00     0.135 A 
ATOM     77  F   UNL     1      15.232  -5.357   6.763  1.00  0.00    -0.206 F 
ATOM     78  C   UNL     1      15.673  -3.052   6.830  1.00  0.00     0.059 A 
ATOM     79  C   UNL     1      13.851  -1.490   7.198  1.00  0.00     0.059 A 
ATOM     80  F   UNL     1      11.671  -2.299   7.510  1.00  0.00    -0.206 F 
ATOM     81  C   UNL     1      15.203  -1.746   6.975  1.00  0.00     0.060 A 
BRANCH  81  82
ATOM     82  S   UNL     1      16.377  -0.382   6.824  1.00  0.00     0.124 S 
ATOM     83  O   UNL     1      17.102  -0.478   8.086  1.00  0.00    -0.237 OA
ATOM     84  O   UNL     1      17.126  -0.751   5.627  1.00  0.00    -0.237 OA
ATOM     85  O   UNL     1      15.515   0.787   6.678  1.00  0.00    -0.744 OA
ENDBRANCH  81  82
ENDBRANCH  49  74
BRANCH  61  86
ATOM     86  C   UNL     1      12.471  -9.112  11.676  1.00  0.00     0.058 A 
ATOM     87  C   UNL     1      12.373  -8.365  12.860  1.00  0.00     0.135 A 
ATOM     88  C   UNL     1      13.264 -10.271  11.693  1.00  0.00     0.135 A 
ATOM     89  F   UNL     1      11.631  -7.247  12.894  1.00  0.00    -0.206 F 
ATOM     90  C   UNL     1      13.065  -8.733  14.008  1.00  0.00     0.059 A 
ATOM     91  C   UNL     1      13.941 -10.674  12.838  1.00  0.00     0.059 A 
ATOM     92  F   UNL     1      13.380 -11.027  10.590  1.00  0.00    -0.206 F 
ATOM     93  C   UNL     1      13.850  -9.887  13.986  1.00  0.00     0.060 A 
BRANCH  93  94
ATOM     94  S   UNL     1      14.737 -10.360  15.485  1.00  0.00     0.124 S 
ATOM     95  O   UNL     1      15.837  -9.401  15.488  1.00  0.00    -0.237 OA
ATOM     96  O   UNL     1      13.727 -10.169  16.521  1.00  0.00    -0.237 OA
ATOM     97  O   UNL     1      15.113 -11.747  15.233  1.00  0.00    -0.744 OA
ENDBRANCH  93  94
ENDBRANCH  61  86
ENDBRANCH  35  36
ENDBRANCH  27  30
ENDBRANCH  25  26
ENDBRANCH   1  25
TORSDOF 17
