REMARK SMILES Cn1ccc(C(=O)NCc2ccc(C(=O)NCCCNC(=O)c3ccc(-c4c5nc(c(-c6c(F)cc(S(=O)(=O)[O-])cc6F)c6ccc([nH]6)c(-c6c(F)cc(S(=O)(=O)[O-])cc6F)c6nc(c(-c7c(F)cc(S(=O)(=O)[O-])cc7F)c7ccc4[nH]7)C=C6)C=C5)cc3)cc2)cc1=O
REMARK SMILES IDX 18 1 17 2 16 3 14 4 15 5 13 7 10 8 11 9 90 10 12 11 89 12
REMARK SMILES IDX 9 13 8 14 6 15 7 16 5 18 1 19 2 20 3 21 92 22 4 23 91 24
REMARK SMILES IDX 93 25 19 26 20 27 21 28 22 30 23 31 24 32 88 33 25 34 87 35
REMARK SMILES IDX 26 36 27 37 28 38 81 39 29 40 86 41 80 42 82 43 30 44 85 45
REMARK SMILES IDX 79 46 78 47 31 49 65 50 44 51 64 52 45 53 48 54 63 55 83 56
REMARK SMILES IDX 46 57 47 58 62 60 84 61 49 62 32 63 33 64 42 65 34 66 35 67
REMARK SMILES IDX 41 68 43 69 36 70 37 71 38 72 39 73 40 74 66 75 67 76 76 77
REMARK SMILES IDX 68 78 69 79 75 80 77 81 70 82 71 83 72 84 73 85 74 86 50 87
REMARK SMILES IDX 51 88 60 89 52 90 53 91 59 92 61 93 54 94 55 95 56 96 57 97
REMARK SMILES IDX 58 98
REMARK H PARENT 16 6 8 17 20 29 82 48 48 59
REMARK Flexibility Score: inf
ROOT
ATOM      1  C   UNL     1       4.883   6.611   5.429  1.00  0.00     0.042 C 
ENDROOT
BRANCH   1   2
ATOM      2  C   UNL     1       3.445   6.134   5.631  1.00  0.00     0.118 C 
BRANCH   2   3
ATOM      3  N   UNL     1       2.477   7.151   5.253  1.00  0.00    -0.352 N 
ATOM      4  C   UNL     1       1.682   7.294   4.143  1.00  0.00     0.251 C 
ATOM      5  O   UNL     1       0.838   8.191   4.154  1.00  0.00    -0.269 OA
ATOM      6  H   UNL     1       2.372   7.870   5.917  1.00  0.00     0.163 HD
BRANCH   4   7
ATOM      7  C   UNL     1       1.772   6.408   2.948  1.00  0.00     0.039 A 
ATOM      8  C   UNL     1       1.813   4.800   0.607  1.00  0.00    -0.029 A 
ATOM      9  C   UNL     1       0.642   5.459   1.000  1.00  0.00     0.006 A 
ATOM     10  C   UNL     1       2.968   4.997   1.379  1.00  0.00     0.006 A 
ATOM     11  C   UNL     1       0.622   6.248   2.160  1.00  0.00     0.014 A 
ATOM     12  C   UNL     1       2.950   5.799   2.523  1.00  0.00     0.014 A 
BRANCH   8  13
ATOM     13  C   UNL     1       1.855   3.985  -0.667  1.00  0.00     0.152 C 
BRANCH  13  14
ATOM     14  N   UNL     1       2.856   2.938  -0.596  1.00  0.00    -0.348 N 
ATOM     15  C   UNL     1       2.842   1.635  -0.227  1.00  0.00     0.251 C 
ATOM     16  O   UNL     1       3.940   1.080  -0.120  1.00  0.00    -0.269 OA
ATOM     17  H   UNL     1       3.748   3.243  -0.881  1.00  0.00     0.164 HD
BRANCH  15  18
ATOM     18  C   UNL     1       1.593   0.825  -0.059  1.00  0.00     0.046 A 
ATOM     19  C   UNL     1      -1.732  -1.819   0.068  1.00  0.00     0.153 C 
ATOM     20  N   UNL     1      -0.599  -0.907   0.072  1.00  0.00    -0.319 N 
ATOM     21  C   UNL     1       0.649  -1.410  -0.234  1.00  0.00     0.089 A 
ATOM     22  C   UNL     1      -0.794   0.431   0.397  1.00  0.00     0.251 A 
ATOM     23  C   UNL     1       1.713  -0.606  -0.306  1.00  0.00     0.032 A 
ATOM     24  C   UNL     1       0.413   1.305   0.359  1.00  0.00     0.085 A 
ATOM     25  O   UNL     1      -1.877   0.932   0.688  1.00  0.00    -0.269 OA
ENDBRANCH  15  18
ENDBRANCH  13  14
ENDBRANCH   8  13
ENDBRANCH   4   7
ENDBRANCH   2   3
ENDBRANCH   1   2
BRANCH   1  26
ATOM     26  C   UNL     1       5.362   7.599   6.487  1.00  0.00     0.118 C 
BRANCH  26  27
ATOM     27  N   UNL     1       5.548   6.965   7.785  1.00  0.00    -0.352 N 
ATOM     28  C   UNL     1       6.665   6.894   8.576  1.00  0.00     0.251 C 
ATOM     29  H   UNL     1       4.749   6.520   8.149  1.00  0.00     0.163 HD
ATOM     30  O   UNL     1       6.668   6.120   9.537  1.00  0.00    -0.269 OA
BRANCH  28  31
ATOM     31  C   UNL     1       7.860   7.719   8.291  1.00  0.00     0.039 A 
ATOM     32  C   UNL     1       9.128   7.157   8.475  1.00  0.00     0.014 A 
ATOM     33  C   UNL     1       7.743   9.055   7.897  1.00  0.00     0.014 A 
ATOM     34  C   UNL     1      10.272   7.917   8.220  1.00  0.00     0.010 A 
ATOM     35  C   UNL     1       8.882   9.790   7.577  1.00  0.00     0.010 A 
ATOM     36  C   UNL     1      10.159   9.234   7.747  1.00  0.00    -0.014 A 
BRANCH  36  37
ATOM     37  C   UNL     1      11.360  10.050   7.436  1.00  0.00     0.031 A 
ATOM     38  C   UNL     1      11.660  11.288   8.237  1.00  0.00     0.074 A 
ATOM     39  C   UNL     1      12.143   9.714   6.393  1.00  0.00     0.049 A 
ATOM     40  N   UNL     1      12.617  12.166   8.077  1.00  0.00    -0.248 NA
ATOM     41  C   UNL     1      10.745  11.594   9.348  1.00  0.00     0.031 C 
ATOM     42  C   UNL     1      11.937   8.557   5.521  1.00  0.00     0.029 A 
ATOM     43  N   UNL     1      13.265  10.318   5.885  1.00  0.00    -0.354 N 
ATOM     44  C   UNL     1      12.408  13.138   9.049  1.00  0.00     0.074 A 
ATOM     45  C   UNL     1      11.204  12.765   9.762  1.00  0.00     0.031 C 
ATOM     46  C   UNL     1      12.918   8.517   4.605  1.00  0.00     0.029 A 
ATOM     47  C   UNL     1      13.798   9.665   4.799  1.00  0.00     0.049 A 
ATOM     48  H   UNL     1      13.653  11.140   6.263  1.00  0.00     0.167 HD
ATOM     49  C   UNL     1      13.158  14.230   9.333  1.00  0.00     0.037 A 
ATOM     50  C   UNL     1      14.874   9.960   4.043  1.00  0.00     0.037 A 
ATOM     51  C   UNL     1      14.366  14.581   8.633  1.00  0.00     0.049 A 
ATOM     52  C   UNL     1      15.689  11.180   4.370  1.00  0.00     0.074 A 
ATOM     53  C   UNL     1      15.235  15.628   8.884  1.00  0.00     0.029 A 
ATOM     54  N   UNL     1      14.874  13.894   7.539  1.00  0.00    -0.354 N 
ATOM     55  N   UNL     1      15.511  12.057   5.329  1.00  0.00    -0.248 NA
ATOM     56  C   UNL     1      16.852  11.449   3.514  1.00  0.00     0.031 C 
ATOM     57  C   UNL     1      16.245  15.599   7.914  1.00  0.00     0.029 A 
ATOM     58  C   UNL     1      16.031  14.508   7.087  1.00  0.00     0.049 A 
ATOM     59  H   UNL     1      14.471  13.089   7.141  1.00  0.00     0.167 HD
ATOM     60  C   UNL     1      16.555  12.967   5.211  1.00  0.00     0.074 A 
ATOM     61  C   UNL     1      17.361  12.531   4.088  1.00  0.00     0.031 C 
ATOM     62  C   UNL     1      16.823  14.061   5.967  1.00  0.00     0.037 A 
BRANCH  49  63
ATOM     63  C   UNL     1      12.673  15.128  10.440  1.00  0.00     0.058 A 
ATOM     64  C   UNL     1      12.685  14.719  11.784  1.00  0.00     0.135 A 
ATOM     65  C   UNL     1      12.172  16.408  10.153  1.00  0.00     0.135 A 
ATOM     66  F   UNL     1      13.143  13.501  12.116  1.00  0.00    -0.206 F 
ATOM     67  C   UNL     1      12.165  15.521  12.795  1.00  0.00     0.059 A 
ATOM     68  C   UNL     1      11.675  17.240  11.153  1.00  0.00     0.059 A 
ATOM     69  F   UNL     1      12.143  16.855   8.888  1.00  0.00    -0.206 F 
ATOM     70  C   UNL     1      11.651  16.776  12.467  1.00  0.00     0.060 A 
BRANCH  70  71
ATOM     71  S   UNL     1      10.932  17.787  13.779  1.00  0.00     0.124 S 
ATOM     72  O   UNL     1       9.647  17.125  13.983  1.00  0.00    -0.237 OA
ATOM     73  O   UNL     1      11.901  17.635  14.860  1.00  0.00    -0.237 OA
ATOM     74  O   UNL     1      10.866  19.118  13.184  1.00  0.00    -0.744 OA
ENDBRANCH  70  71
ENDBRANCH  49  63
BRANCH  50  75
ATOM     75  C   UNL     1      15.265   9.047   2.938  1.00  0.00     0.058 A 
ATOM     76  C   UNL     1      16.381   8.209   3.068  1.00  0.00     0.135 A 
ATOM     77  C   UNL     1      14.507   8.951   1.761  1.00  0.00     0.135 A 
ATOM     78  F   UNL     1      17.140   8.271   4.173  1.00  0.00    -0.206 F 
ATOM     79  C   UNL     1      16.733   7.303   2.073  1.00  0.00     0.059 A 
ATOM     80  C   UNL     1      14.826   8.038   0.760  1.00  0.00     0.059 A 
ATOM     81  F   UNL     1      13.420   9.721   1.596  1.00  0.00    -0.206 F 
ATOM     82  C   UNL     1      15.943   7.219   0.925  1.00  0.00     0.060 A 
BRANCH  82  83
ATOM     83  S   UNL     1      16.360   5.979  -0.320  1.00  0.00     0.124 S 
ATOM     84  O   UNL     1      17.559   6.554  -0.918  1.00  0.00    -0.237 OA
ATOM     85  O   UNL     1      16.560   4.784   0.493  1.00  0.00    -0.237 OA
ATOM     86  O   UNL     1      15.177   5.954  -1.176  1.00  0.00    -0.744 OA
ENDBRANCH  82  83
ENDBRANCH  50  75
BRANCH  62  87
ATOM     87  C   UNL     1      18.058  14.849   5.627  1.00  0.00     0.058 A 
ATOM     88  C   UNL     1      18.117  15.677   4.496  1.00  0.00     0.135 A 
ATOM     89  C   UNL     1      19.178  14.812   6.473  1.00  0.00     0.135 A 
ATOM     90  F   UNL     1      17.076  15.741   3.650  1.00  0.00    -0.206 F 
ATOM     91  C   UNL     1      19.251  16.429   4.205  1.00  0.00     0.059 A 
ATOM     92  C   UNL     1      20.313  15.575   6.216  1.00  0.00     0.059 A 
ATOM     93  F   UNL     1      19.170  14.042   7.573  1.00  0.00    -0.206 F 
ATOM     94  C   UNL     1      20.344  16.372   5.073  1.00  0.00     0.060 A 
BRANCH  94  95
ATOM     95  S   UNL     1      21.795  17.382   4.706  1.00  0.00     0.124 S 
ATOM     96  O   UNL     1      22.403  16.636   3.610  1.00  0.00    -0.237 OA
ATOM     97  O   UNL     1      21.201  18.666   4.346  1.00  0.00    -0.237 OA
ATOM     98  O   UNL     1      22.540  17.374   5.962  1.00  0.00    -0.744 OA
ENDBRANCH  94  95
ENDBRANCH  62  87
ENDBRANCH  36  37
ENDBRANCH  28  31
ENDBRANCH  26  27
ENDBRANCH   1  26
TORSDOF 16
