REMARK SMILES CN1C(=O)C[C@@H](C(=O)NCCCNC(=O)c2ccc(-c3c4nc(c(-c5c(F)cc(S(=O)(=O)[O-])cc5F)c5ccc([nH]5)c(-c5c(F)cc(S(=O)(=O)[O-])cc5F)c5nc(c(-c6c(F)cc(S(=O)(=O)[O-])cc6F)c6ccc3[nH]6)C=C5)C=C4)cc2)C12CCN(C(=O)c1ccccc1-n1cccn1)CC2
REMARK SMILES IDX 11 1 10 2 9 3 7 4 8 5 6 7 1 8 2 9 3 10 82 11 4 12 5 13 83 14
REMARK SMILES IDX 100 15 84 16 99 17 85 18 86 19 87 20 88 21 89 22 93 23 90 24
REMARK SMILES IDX 92 25 91 26 94 27 95 28 98 29 96 30 97 31 12 32 13 33 14 34
REMARK SMILES IDX 15 36 16 37 17 38 81 39 18 40 80 41 19 42 20 43 21 44 74 45
REMARK SMILES IDX 22 46 79 47 73 48 75 49 23 50 78 51 72 52 71 53 24 55 58 56
REMARK SMILES IDX 37 57 57 58 38 59 41 60 56 61 76 62 39 63 40 64 55 66 77 67
REMARK SMILES IDX 42 68 25 69 26 70 35 71 27 72 28 73 34 74 36 75 29 76 30 77
REMARK SMILES IDX 31 78 32 79 33 80 59 81 60 82 69 83 61 84 62 85 68 86 70 87
REMARK SMILES IDX 63 88 64 89 65 90 66 91 67 92 43 93 44 94 53 95 45 96 46 97
REMARK SMILES IDX 52 98 54 99 47 100 48 101 49 102 50 103 51 104
REMARK H PARENT 9 6 13 35 75 54 41 65
REMARK Flexibility Score: inf
ROOT
ATOM      1  C   UNL     1      -2.015   1.829   1.720  1.00  0.00     0.042 C 
ENDROOT
BRANCH   1   2
ATOM      2  C   UNL     1      -1.407   1.324   3.030  1.00  0.00     0.117 C 
BRANCH   2   3
ATOM      3  N   UNL     1      -2.090   0.176   3.617  1.00  0.00    -0.356 N 
ATOM      4  C   UNL     1      -1.760  -1.126   3.811  1.00  0.00     0.226 C 
ATOM      5  O   UNL     1      -2.587  -1.805   4.435  1.00  0.00    -0.275 OA
ATOM      6  H   UNL     1      -2.991   0.395   3.946  1.00  0.00     0.163 HD
BRANCH   4   7
ATOM      7  C   UNL     1      -0.498  -1.818   3.291  1.00  0.00     0.113 C 
ATOM      8  C   UNL     1       0.978  -0.251   0.235  1.00  0.00     0.147 C 
ATOM      9  N   UNL     1       0.672  -0.825   1.533  1.00  0.00    -0.339 N 
ATOM     10  C   UNL     1       1.384  -0.483   2.673  1.00  0.00     0.223 C 
ATOM     11  C   UNL     1      -0.313  -1.896   1.759  1.00  0.00     0.058 C 
ATOM     12  O   UNL     1       2.321   0.299   2.747  1.00  0.00    -0.275 OA
ATOM     13  C   UNL     1       0.785  -1.203   3.847  1.00  0.00     0.116 C 
ATOM     14  C   UNL     1      -1.636  -1.733   0.986  1.00  0.00     0.051 C 
ATOM     15  C   UNL     1       0.356  -3.238   1.316  1.00  0.00     0.051 C 
ATOM     16  C   UNL     1      -2.532  -2.964   1.065  1.00  0.00     0.122 C 
ATOM     17  C   UNL     1      -0.595  -4.435   1.246  1.00  0.00     0.122 C 
ATOM     18  N   UNL     1      -1.814  -4.103   0.517  1.00  0.00    -0.338 N 
ATOM     19  C   UNL     1      -2.205  -4.872  -0.580  1.00  0.00     0.256 C 
ATOM     20  O   UNL     1      -1.566  -5.843  -0.980  1.00  0.00    -0.269 OA
BRANCH  19  21
ATOM     21  C   UNL     1      -3.484  -4.578  -1.279  1.00  0.00     0.065 A 
ATOM     22  C   UNL     1      -4.478  -5.565  -1.156  1.00  0.00     0.016 A 
ATOM     23  C   UNL     1      -3.779  -3.393  -1.970  1.00  0.00     0.077 A 
ATOM     24  C   UNL     1      -5.756  -5.359  -1.682  1.00  0.00     0.001 A 
ATOM     25  C   UNL     1      -5.086  -3.170  -2.441  1.00  0.00     0.029 A 
ATOM     26  C   UNL     1      -6.064  -4.156  -2.311  1.00  0.00     0.002 A 
BRANCH  23  27
ATOM     27  N   UNL     1      -2.812  -2.401  -2.252  1.00  0.00    -0.240 N 
ATOM     28  C   UNL     1      -1.477  -2.561  -2.546  1.00  0.00     0.115 A 
ATOM     29  N   UNL     1      -3.170  -1.089  -2.271  1.00  0.00    -0.177 NA
ATOM     30  C   UNL     1      -0.969  -1.306  -2.791  1.00  0.00     0.042 A 
ATOM     31  C   UNL     1      -2.053  -0.438  -2.592  1.00  0.00     0.135 A 
ENDBRANCH  23  27
ENDBRANCH  19  21
ENDBRANCH   4   7
ENDBRANCH   2   3
ENDBRANCH   1   2
BRANCH   1  32
ATOM     32  C   UNL     1      -3.445   2.337   1.856  1.00  0.00     0.118 C 
BRANCH  32  33
ATOM     33  N   UNL     1      -3.492   3.585   2.604  1.00  0.00    -0.352 N 
ATOM     34  C   UNL     1      -3.709   4.866   2.156  1.00  0.00     0.251 C 
ATOM     35  H   UNL     1      -3.347   3.499   3.574  1.00  0.00     0.163 HD
ATOM     36  O   UNL     1      -3.396   5.813   2.873  1.00  0.00    -0.269 OA
BRANCH  34  37
ATOM     37  C   UNL     1      -4.310   5.107   0.825  1.00  0.00     0.039 A 
ATOM     38  C   UNL     1      -3.849   6.177   0.052  1.00  0.00     0.014 A 
ATOM     39  C   UNL     1      -5.359   4.312   0.356  1.00  0.00     0.014 A 
ATOM     40  C   UNL     1      -4.402   6.412  -1.210  1.00  0.00     0.010 A 
ATOM     41  C   UNL     1      -5.846   4.492  -0.936  1.00  0.00     0.010 A 
ATOM     42  C   UNL     1      -5.383   5.551  -1.729  1.00  0.00    -0.014 A 
BRANCH  42  43
ATOM     43  C   UNL     1      -5.946   5.746  -3.091  1.00  0.00     0.031 A 
ATOM     44  C   UNL     1      -7.417   6.020  -3.270  1.00  0.00     0.074 A 
ATOM     45  C   UNL     1      -5.148   5.611  -4.169  1.00  0.00     0.049 A 
ATOM     46  N   UNL     1      -8.107   6.139  -4.375  1.00  0.00    -0.248 NA
ATOM     47  C   UNL     1      -8.223   6.149  -2.045  1.00  0.00     0.031 C 
ATOM     48  C   UNL     1      -3.716   5.303  -4.128  1.00  0.00     0.029 A 
ATOM     49  N   UNL     1      -5.426   5.705  -5.510  1.00  0.00    -0.354 N 
ATOM     50  C   UNL     1      -9.425   6.340  -3.980  1.00  0.00     0.074 A 
ATOM     51  C   UNL     1      -9.448   6.269  -2.535  1.00  0.00     0.031 C 
ATOM     52  C   UNL     1      -3.239   5.256  -5.382  1.00  0.00     0.029 A 
ATOM     53  C   UNL     1      -4.335   5.484  -6.318  1.00  0.00     0.049 A 
ATOM     54  H   UNL     1      -6.323   5.911  -5.861  1.00  0.00     0.167 HD
ATOM     55  C   UNL     1     -10.513   6.587  -4.749  1.00  0.00     0.037 A 
ATOM     56  C   UNL     1      -4.230   5.456  -7.661  1.00  0.00     0.037 A 
ATOM     57  C   UNL     1     -10.477   6.678  -6.186  1.00  0.00     0.049 A 
ATOM     58  C   UNL     1      -5.455   5.718  -8.496  1.00  0.00     0.074 A 
ATOM     59  C   UNL     1     -11.510   6.980  -7.054  1.00  0.00     0.029 A 
ATOM     60  N   UNL     1      -9.350   6.463  -6.966  1.00  0.00    -0.354 N 
ATOM     61  N   UNL     1      -6.681   5.972  -8.103  1.00  0.00    -0.248 NA
ATOM     62  C   UNL     1      -5.284   5.696  -9.955  1.00  0.00     0.031 C 
ATOM     63  C   UNL     1     -11.022   6.893  -8.362  1.00  0.00     0.029 A 
ATOM     64  C   UNL     1      -9.669   6.598  -8.307  1.00  0.00     0.049 A 
ATOM     65  H   UNL     1      -8.455   6.245  -6.618  1.00  0.00     0.167 HD
ATOM     66  C   UNL     1      -7.420   6.169  -9.264  1.00  0.00     0.074 A 
ATOM     67  C   UNL     1      -6.500   6.018 -10.373  1.00  0.00     0.031 C 
ATOM     68  C   UNL     1      -8.740   6.452  -9.401  1.00  0.00     0.037 A 
BRANCH  55  69
ATOM     69  C   UNL     1     -11.835   6.777  -4.053  1.00  0.00     0.058 A 
ATOM     70  C   UNL     1     -12.096   7.903  -3.254  1.00  0.00     0.135 A 
ATOM     71  C   UNL     1     -12.870   5.842  -4.217  1.00  0.00     0.135 A 
ATOM     72  F   UNL     1     -11.141   8.824  -3.049  1.00  0.00    -0.206 F 
ATOM     73  C   UNL     1     -13.321   8.077  -2.617  1.00  0.00     0.059 A 
ATOM     74  C   UNL     1     -14.114   6.012  -3.616  1.00  0.00     0.059 A 
ATOM     75  F   UNL     1     -12.679   4.747  -4.970  1.00  0.00    -0.206 F 
ATOM     76  C   UNL     1     -14.325   7.126  -2.805  1.00  0.00     0.060 A 
BRANCH  76  77
ATOM     77  S   UNL     1     -15.909   7.372  -1.975  1.00  0.00     0.124 S 
ATOM     78  O   UNL     1     -15.551   7.112  -0.584  1.00  0.00    -0.237 OA
ATOM     79  O   UNL     1     -16.218   8.760  -2.301  1.00  0.00    -0.237 OA
ATOM     80  O   UNL     1     -16.777   6.376  -2.595  1.00  0.00    -0.744 OA
ENDBRANCH  76  77
ENDBRANCH  55  69
BRANCH  56  81
ATOM     81  C   UNL     1      -2.913   5.185  -8.299  1.00  0.00     0.058 A 
ATOM     82  C   UNL     1      -2.229   6.188  -9.001  1.00  0.00     0.135 A 
ATOM     83  C   UNL     1      -2.304   3.923  -8.207  1.00  0.00     0.135 A 
ATOM     84  F   UNL     1      -2.771   7.410  -9.123  1.00  0.00    -0.206 F 
ATOM     85  C   UNL     1      -0.999   5.948  -9.604  1.00  0.00     0.059 A 
ATOM     86  C   UNL     1      -1.061   3.667  -8.777  1.00  0.00     0.059 A 
ATOM     87  F   UNL     1      -2.907   2.933  -7.531  1.00  0.00    -0.206 F 
ATOM     88  C   UNL     1      -0.420   4.684  -9.482  1.00  0.00     0.060 A 
BRANCH  88  89
ATOM     89  S   UNL     1       1.201   4.398 -10.225  1.00  0.00     0.124 S 
ATOM     90  O   UNL     1       0.876   4.388 -11.646  1.00  0.00    -0.237 OA
ATOM     91  O   UNL     1       1.961   5.550  -9.750  1.00  0.00    -0.237 OA
ATOM     92  O   UNL     1       1.606   3.114  -9.659  1.00  0.00    -0.744 OA
ENDBRANCH  88  89
ENDBRANCH  56  81
BRANCH  68  93
ATOM     93  C   UNL     1      -9.268   6.654 -10.795  1.00  0.00     0.058 A 
ATOM     94  C   UNL     1      -9.417   5.586 -11.693  1.00  0.00     0.135 A 
ATOM     95  C   UNL     1      -9.686   7.927 -11.216  1.00  0.00     0.135 A 
ATOM     96  F   UNL     1      -9.026   4.350 -11.345  1.00  0.00    -0.206 F 
ATOM     97  C   UNL     1      -9.943   5.777 -12.967  1.00  0.00     0.059 A 
ATOM     98  C   UNL     1     -10.244   8.135 -12.473  1.00  0.00     0.059 A 
ATOM     99  F   UNL     1      -9.575   8.982 -10.393  1.00  0.00    -0.206 F 
ATOM    100  C   UNL     1     -10.358   7.055 -13.346  1.00  0.00     0.060 A 
BRANCH 100 101
ATOM    101  S   UNL     1     -11.077   7.278 -14.987  1.00  0.00     0.124 S 
ATOM    102  O   UNL     1      -9.904   7.139 -15.844  1.00  0.00    -0.237 OA
ATOM    103  O   UNL     1     -12.044   6.187 -15.054  1.00  0.00    -0.237 OA
ATOM    104  O   UNL     1     -11.655   8.618 -14.926  1.00  0.00    -0.744 OA
ENDBRANCH 100 101
ENDBRANCH  68  93
ENDBRANCH  42  43
ENDBRANCH  34  37
ENDBRANCH  32  33
ENDBRANCH   1  32
TORSDOF 15
