REMARK SMILES [NH3+]Cc1c(-c2ccccc2)c(C(=O)NCCCNC(=O)c2ccc(-c3c4nc(c(-c5c(F)cc(S(=O)(=O)[O-])cc5F)c5ccc([nH]5)c(-c5c(F)cc(S(=O)(=O)[O-])cc5F)c5nc(c(-c6c(F)cc(S(=O)(=O)[O-])cc6F)c6ccc3[nH]6)C=C5)C=C4)cc2)c2ccccn12
REMARK SMILES IDX 16 1 15 2 14 3 12 4 13 5 11 7 3 8 4 9 92 10 87 11 91 12
REMARK SMILES IDX 88 13 90 14 89 15 2 16 1 17 5 21 6 22 10 23 7 24 9 25 8 26
REMARK SMILES IDX 17 27 18 28 19 29 20 31 21 32 22 33 86 34 23 35 85 36 24 37
REMARK SMILES IDX 25 38 26 39 79 40 27 41 84 42 78 43 80 44 28 45 83 46 77 47
REMARK SMILES IDX 76 48 29 50 63 51 42 52 62 53 43 54 46 55 61 56 81 57 44 58
REMARK SMILES IDX 45 59 60 61 82 62 47 63 30 64 31 65 40 66 32 67 33 68 39 69
REMARK SMILES IDX 41 70 34 71 35 72 36 73 37 74 38 75 64 76 65 77 74 78 66 79
REMARK SMILES IDX 67 80 73 81 75 82 68 83 69 84 70 85 71 86 72 87 48 88 49 89
REMARK SMILES IDX 58 90 50 91 51 92 57 93 59 94 52 95 53 96 54 97 55 98 56 99
REMARK H PARENT 14 6 1 18 1 19 1 20 18 30 80 49 46 60
REMARK Flexibility Score: inf
ROOT
ATOM      1  C   UNL     1       1.181   0.416   8.314  1.00  0.00     0.042 C 
ENDROOT
BRANCH   1   2
ATOM      2  C   UNL     1       1.982   0.351   7.027  1.00  0.00     0.118 C 
BRANCH   2   3
ATOM      3  N   UNL     1       2.477  -0.958   6.657  1.00  0.00    -0.352 N 
ATOM      4  C   UNL     1       2.607  -1.567   5.428  1.00  0.00     0.254 C 
ATOM      5  O   UNL     1       3.182  -2.654   5.427  1.00  0.00    -0.269 OA
ATOM      6  H   UNL     1       2.774  -1.509   7.417  1.00  0.00     0.163 HD
BRANCH   4   7
ATOM      7  C   UNL     1       2.020  -1.001   4.205  1.00  0.00     0.073 A 
ATOM      8  C   UNL     1       0.958  -0.913   2.160  1.00  0.00     0.086 A 
ATOM      9  C   UNL     1       1.519  -1.779   3.094  1.00  0.00     0.022 A 
ATOM     10  N   UNL     1       1.033   0.356   2.702  1.00  0.00    -0.314 N 
ATOM     11  C   UNL     1       1.907   0.322   3.789  1.00  0.00     0.059 A 
ATOM     12  C   UNL     1       0.405   1.535   2.282  1.00  0.00     0.092 A 
ATOM     13  C   UNL     1       2.387   1.589   4.247  1.00  0.00     0.027 A 
ATOM     14  C   UNL     1       0.721   2.704   2.861  1.00  0.00     0.018 A 
ATOM     15  C   UNL     1       1.793   2.725   3.836  1.00  0.00     0.004 A 
BRANCH   8  16
ATOM     16  C   UNL     1       0.341  -1.186   0.829  1.00  0.00     0.315 C 
BRANCH  16  17
ATOM     17  N   UNL     1       1.115  -0.555  -0.237  1.00  0.00    -0.353 N 
ATOM     18  H   UNL     1       0.678  -0.752  -1.137  1.00  0.00     0.344 HD
ATOM     19  H   UNL     1       2.065  -0.925  -0.231  1.00  0.00     0.344 HD
ATOM     20  H   UNL     1       1.142   0.454  -0.086  1.00  0.00     0.344 HD
ENDBRANCH  16  17
ENDBRANCH   8  16
BRANCH   9  21
ATOM     21  C   UNL     1       1.566  -3.222   2.901  1.00  0.00    -0.016 A 
ATOM     22  C   UNL     1       0.779  -4.073   3.684  1.00  0.00     0.009 A 
ATOM     23  C   UNL     1       2.435  -3.770   1.949  1.00  0.00     0.009 A 
ATOM     24  C   UNL     1       0.866  -5.458   3.518  1.00  0.00     0.001 A 
ATOM     25  C   UNL     1       2.517  -5.154   1.781  1.00  0.00     0.001 A 
ATOM     26  C   UNL     1       1.734  -5.997   2.568  1.00  0.00     0.000 A 
ENDBRANCH   9  21
ENDBRANCH   4   7
ENDBRANCH   2   3
ENDBRANCH   1   2
BRANCH   1  27
ATOM     27  C   UNL     1       1.902  -0.049   9.567  1.00  0.00     0.118 C 
BRANCH  27  28
ATOM     28  N   UNL     1       3.062   0.760   9.922  1.00  0.00    -0.352 N 
ATOM     29  C   UNL     1       3.258   1.702  10.909  1.00  0.00     0.251 C 
ATOM     30  H   UNL     1       3.850   0.605   9.353  1.00  0.00     0.163 HD
ATOM     31  O   UNL     1       4.308   2.336  10.925  1.00  0.00    -0.269 OA
BRANCH  29  32
ATOM     32  C   UNL     1       2.211   1.989  11.919  1.00  0.00     0.039 A 
ATOM     33  C   UNL     1       2.013   3.309  12.340  1.00  0.00     0.014 A 
ATOM     34  C   UNL     1       1.426   0.976  12.464  1.00  0.00     0.014 A 
ATOM     35  C   UNL     1       0.970   3.614  13.222  1.00  0.00     0.010 A 
ATOM     36  C   UNL     1       0.310   1.294  13.230  1.00  0.00     0.010 A 
ATOM     37  C   UNL     1       0.073   2.615  13.631  1.00  0.00    -0.014 A 
BRANCH  37  38
ATOM     38  C   UNL     1      -1.103   2.912  14.492  1.00  0.00     0.031 A 
ATOM     39  C   UNL     1      -1.258   2.222  15.823  1.00  0.00     0.074 A 
ATOM     40  C   UNL     1      -2.071   3.736  14.045  1.00  0.00     0.049 A 
ATOM     41  N   UNL     1      -2.249   2.280  16.677  1.00  0.00    -0.248 NA
ATOM     42  C   UNL     1      -0.174   1.313  16.229  1.00  0.00     0.031 C 
ATOM     43  C   UNL     1      -2.069   4.425  12.752  1.00  0.00     0.029 A 
ATOM     44  N   UNL     1      -3.250   4.132  14.626  1.00  0.00    -0.354 N 
ATOM     45  C   UNL     1      -1.917   1.400  17.701  1.00  0.00     0.074 A 
ATOM     46  C   UNL     1      -0.674   0.766  17.325  1.00  0.00     0.031 C 
ATOM     47  C   UNL     1      -3.164   5.195  12.661  1.00  0.00     0.029 A 
ATOM     48  C   UNL     1      -3.972   5.020  13.864  1.00  0.00     0.049 A 
ATOM     49  H   UNL     1      -3.551   3.810  15.507  1.00  0.00     0.167 HD
ATOM     50  C   UNL     1      -2.568   1.164  18.867  1.00  0.00     0.037 A 
ATOM     51  C   UNL     1      -5.149   5.629  14.108  1.00  0.00     0.037 A 
ATOM     52  C   UNL     1      -3.792   1.819  19.246  1.00  0.00     0.049 A 
ATOM     53  C   UNL     1      -5.862   5.350  15.402  1.00  0.00     0.074 A 
ATOM     54  C   UNL     1      -4.503   1.702  20.427  1.00  0.00     0.029 A 
ATOM     55  N   UNL     1      -4.489   2.716  18.447  1.00  0.00    -0.354 N 
ATOM     56  N   UNL     1      -5.503   4.563  16.389  1.00  0.00    -0.248 NA
ATOM     57  C   UNL     1      -7.139   6.043  15.617  1.00  0.00     0.031 C 
ATOM     58  C   UNL     1      -5.655   2.491  20.323  1.00  0.00     0.029 A 
ATOM     59  C   UNL     1      -5.635   3.141  19.099  1.00  0.00     0.049 A 
ATOM     60  H   UNL     1      -4.209   3.006  17.549  1.00  0.00     0.167 HD
ATOM     61  C   UNL     1      -6.495   4.688  17.355  1.00  0.00     0.074 A 
ATOM     62  C   UNL     1      -7.464   5.633  16.836  1.00  0.00     0.031 C 
ATOM     63  C   UNL     1      -6.591   4.082  18.565  1.00  0.00     0.037 A 
BRANCH  50  64
ATOM     64  C   UNL     1      -1.959   0.151  19.800  1.00  0.00     0.058 A 
ATOM     65  C   UNL     1      -0.726   0.378  20.436  1.00  0.00     0.135 A 
ATOM     66  C   UNL     1      -2.596  -1.077  20.039  1.00  0.00     0.135 A 
ATOM     67  F   UNL     1      -0.064   1.529  20.237  1.00  0.00    -0.206 F 
ATOM     68  C   UNL     1      -0.117  -0.598  21.218  1.00  0.00     0.059 A 
ATOM     69  C   UNL     1      -2.022  -2.055  20.847  1.00  0.00     0.059 A 
ATOM     70  F   UNL     1      -3.779  -1.349  19.466  1.00  0.00    -0.206 F 
ATOM     71  C   UNL     1      -0.768  -1.817  21.408  1.00  0.00     0.060 A 
BRANCH  71  72
ATOM     72  S   UNL     1       0.059  -3.095  22.378  1.00  0.00     0.124 S 
ATOM     73  O   UNL     1       1.078  -3.556  21.440  1.00  0.00    -0.237 OA
ATOM     74  O   UNL     1       0.551  -2.346  23.530  1.00  0.00    -0.237 OA
ATOM     75  O   UNL     1      -1.008  -4.049  22.663  1.00  0.00    -0.744 OA
ENDBRANCH  71  72
ENDBRANCH  50  64
BRANCH  51  76
ATOM     76  C   UNL     1      -5.686   6.611  13.129  1.00  0.00     0.058 A 
ATOM     77  C   UNL     1      -5.664   7.984  13.415  1.00  0.00     0.135 A 
ATOM     78  C   UNL     1      -6.182   6.212  11.878  1.00  0.00     0.135 A 
ATOM     79  F   UNL     1      -5.207   8.415  14.601  1.00  0.00    -0.206 F 
ATOM     80  C   UNL     1      -6.111   8.928  12.496  1.00  0.00     0.059 A 
ATOM     81  C   UNL     1      -6.613   7.139  10.934  1.00  0.00     0.059 A 
ATOM     82  F   UNL     1      -6.210   4.910  11.551  1.00  0.00    -0.206 F 
ATOM     83  C   UNL     1      -6.574   8.496  11.253  1.00  0.00     0.060 A 
BRANCH  83  84
ATOM     84  S   UNL     1      -7.070   9.737  10.038  1.00  0.00     0.124 S 
ATOM     85  O   UNL     1      -8.314  10.233  10.613  1.00  0.00    -0.237 OA
ATOM     86  O   UNL     1      -5.939  10.660  10.068  1.00  0.00    -0.237 OA
ATOM     87  O   UNL     1      -7.206   8.965   8.806  1.00  0.00    -0.744 OA
ENDBRANCH  83  84
ENDBRANCH  51  76
BRANCH  63  88
ATOM     88  C   UNL     1      -7.770   4.442  19.426  1.00  0.00     0.058 A 
ATOM     89  C   UNL     1      -9.068   4.002  19.126  1.00  0.00     0.135 A 
ATOM     90  C   UNL     1      -7.588   5.200  20.595  1.00  0.00     0.135 A 
ATOM     91  F   UNL     1      -9.297   3.281  18.017  1.00  0.00    -0.206 F 
ATOM     92  C   UNL     1     -10.149   4.320  19.941  1.00  0.00     0.059 A 
ATOM     93  C   UNL     1      -8.650   5.505  21.440  1.00  0.00     0.059 A 
ATOM     94  F   UNL     1      -6.365   5.638  20.935  1.00  0.00    -0.206 F 
ATOM     95  C   UNL     1      -9.930   5.071  21.097  1.00  0.00     0.060 A 
BRANCH  95  96
ATOM     96  S   UNL     1     -11.337   5.450  22.163  1.00  0.00     0.124 S 
ATOM     97  O   UNL     1     -12.031   6.468  21.382  1.00  0.00    -0.237 OA
ATOM     98  O   UNL     1     -12.010   4.159  22.263  1.00  0.00    -0.237 OA
ATOM     99  O   UNL     1     -10.713   5.922  23.396  1.00  0.00    -0.744 OA
ENDBRANCH  95  96
ENDBRANCH  63  88
ENDBRANCH  37  38
ENDBRANCH  29  32
ENDBRANCH  27  28
ENDBRANCH   1  27
TORSDOF 16
