REMARK SMILES C=CC[C@@]1(C(=O)NCCCNC(=O)c2ccc(-c3c4nc(c(-c5c(F)cc(S(=O)(=O)[O-])cc5F)c5ccc([nH]5)c(-c5c(F)cc(S(=O)(=O)[O-])cc5F)c5nc(c(-c6c(F)cc(S(=O)(=O)[O-])cc6F)c6ccc3[nH]6)C=C5)C=C4)cc2)CCCN(C(=O)c2ccc3c(c2)OCO3)C1
REMARK SMILES IDX 9 1 8 2 7 3 5 4 6 5 4 7 80 8 95 9 81 10 83 11 82 12 3 13
REMARK SMILES IDX 2 14 1 15 84 16 85 17 86 18 87 19 91 20 88 21 90 22 89 23
REMARK SMILES IDX 92 24 94 25 93 26 10 27 11 28 12 29 13 31 14 32 15 33 79 34
REMARK SMILES IDX 16 35 78 36 17 37 18 38 19 39 72 40 20 41 77 42 71 43 73 44
REMARK SMILES IDX 21 45 76 46 70 47 69 48 22 50 56 51 35 52 55 53 36 54 39 55
REMARK SMILES IDX 54 56 74 57 37 58 38 59 53 61 75 62 40 63 23 64 24 65 33 66
REMARK SMILES IDX 25 67 26 68 32 69 34 70 27 71 28 72 29 73 30 74 31 75 57 76
REMARK SMILES IDX 58 77 67 78 59 79 60 80 66 81 68 82 61 83 62 84 63 85 64 86
REMARK SMILES IDX 65 87 41 88 42 89 51 90 43 91 44 92 50 93 52 94 45 95 46 96
REMARK SMILES IDX 47 97 48 98 49 99
REMARK H PARENT 7 6 11 30 73 49 39 60
REMARK Flexibility Score: inf
ROOT
ATOM      1  C   UNL     1       1.662   1.530  -0.774  1.00  0.00     0.042 C 
ENDROOT
BRANCH   1   2
ATOM      2  C   UNL     1       1.272   0.248  -1.485  1.00  0.00     0.117 C 
BRANCH   2   3
ATOM      3  N   UNL     1       0.272  -0.509  -0.770  1.00  0.00    -0.355 N 
ATOM      4  C   UNL     1      -0.916  -1.060  -1.092  1.00  0.00     0.228 C 
ATOM      5  O   UNL     1      -1.445  -1.623  -0.123  1.00  0.00    -0.274 OA
ATOM      6  H   UNL     1       0.513  -0.657   0.172  1.00  0.00     0.163 HD
BRANCH   4   7
ATOM      7  C   UNL     1      -1.665  -0.919  -2.449  1.00  0.00     0.070 C 
ATOM      8  C   UNL     1      -2.675   0.259  -2.305  1.00  0.00     0.021 C 
ATOM      9  C   UNL     1      -2.446  -2.250  -2.650  1.00  0.00     0.137 C 
ATOM     10  C   UNL     1      -3.856  -0.031  -1.371  1.00  0.00     0.023 C 
ATOM     11  N   UNL     1      -3.576  -2.441  -1.760  1.00  0.00    -0.338 N 
ATOM     12  C   UNL     1      -4.543  -1.345  -1.725  1.00  0.00     0.120 C 
BRANCH   7  13
ATOM     13  C   UNL     1      -0.755  -0.804  -3.725  1.00  0.00     0.045 C 
BRANCH  13  14
ATOM     14  C   UNL     1      -0.990   0.384  -4.633  1.00  0.00    -0.034 C 
ATOM     15  C   UNL     1      -0.267   1.508  -4.710  1.00  0.00     0.004 C 
ENDBRANCH  13  14
ENDBRANCH   7  13
BRANCH  11  16
ATOM     16  C   UNL     1      -3.644  -3.617  -1.012  1.00  0.00     0.254 C 
ATOM     17  O   UNL     1      -2.770  -4.475  -0.943  1.00  0.00    -0.269 OA
BRANCH  16  18
ATOM     18  C   UNL     1      -4.935  -3.904  -0.381  1.00  0.00     0.043 A 
ATOM     19  C   UNL     1      -5.157  -3.622   0.980  1.00  0.00     0.018 A 
ATOM     20  C   UNL     1      -5.964  -4.300  -1.241  1.00  0.00     0.064 A 
ATOM     21  C   UNL     1      -6.461  -3.668   1.483  1.00  0.00     0.051 A 
ATOM     22  C   UNL     1      -7.231  -4.285  -0.725  1.00  0.00     0.166 A 
ATOM     23  C   UNL     1      -7.477  -3.965   0.593  1.00  0.00     0.165 A 
ATOM     24  O   UNL     1      -8.371  -4.480  -1.439  1.00  0.00    -0.454 OA
ATOM     25  O   UNL     1      -8.812  -3.917   0.856  1.00  0.00    -0.454 OA
ATOM     26  C   UNL     1      -9.340  -4.008  -0.485  1.00  0.00     0.468 C 
ENDBRANCH  16  18
ENDBRANCH  11  16
ENDBRANCH   4   7
ENDBRANCH   2   3
ENDBRANCH   1   2
BRANCH   1  27
ATOM     27  C   UNL     1       2.255   1.316   0.609  1.00  0.00     0.118 C 
BRANCH  27  28
ATOM     28  N   UNL     1       3.499   0.558   0.580  1.00  0.00    -0.352 N 
ATOM     29  C   UNL     1       4.802   0.972   0.719  1.00  0.00     0.251 C 
ATOM     30  H   UNL     1       3.388  -0.410   0.438  1.00  0.00     0.163 HD
ATOM     31  O   UNL     1       5.715   0.194   0.453  1.00  0.00    -0.269 OA
BRANCH  29  32
ATOM     32  C   UNL     1       5.108   2.354   1.150  1.00  0.00     0.039 A 
ATOM     33  C   UNL     1       6.152   3.044   0.528  1.00  0.00     0.014 A 
ATOM     34  C   UNL     1       4.372   2.973   2.160  1.00  0.00     0.014 A 
ATOM     35  C   UNL     1       6.387   4.382   0.851  1.00  0.00     0.010 A 
ATOM     36  C   UNL     1       4.532   4.333   2.401  1.00  0.00     0.010 A 
ATOM     37  C   UNL     1       5.540   5.056   1.748  1.00  0.00    -0.014 A 
BRANCH  37  38
ATOM     38  C   UNL     1       5.672   6.515   1.996  1.00  0.00     0.031 A 
ATOM     39  C   UNL     1       5.945   7.028   3.385  1.00  0.00     0.074 A 
ATOM     40  C   UNL     1       5.461   7.380   0.984  1.00  0.00     0.049 A 
ATOM     41  N   UNL     1       6.003   8.264   3.811  1.00  0.00    -0.248 NA
ATOM     42  C   UNL     1       6.151   6.021   4.439  1.00  0.00     0.031 C 
ATOM     43  C   UNL     1       5.132   7.007  -0.395  1.00  0.00     0.029 A 
ATOM     44  N   UNL     1       5.478   8.753   0.956  1.00  0.00    -0.354 N 
ATOM     45  C   UNL     1       6.237   8.183   5.179  1.00  0.00     0.074 A 
ATOM     46  C   UNL     1       6.253   6.778   5.522  1.00  0.00     0.031 C 
ATOM     47  C   UNL     1       5.005   8.118  -1.136  1.00  0.00     0.029 A 
ATOM     48  C   UNL     1       5.192   9.285  -0.280  1.00  0.00     0.049 A 
ATOM     49  H   UNL     1       5.675   9.305   1.747  1.00  0.00     0.167 HD
ATOM     50  C   UNL     1       6.444   9.188   6.064  1.00  0.00     0.037 A 
ATOM     51  C   UNL     1       5.078  10.567  -0.679  1.00  0.00     0.037 A 
ATOM     52  C   UNL     1       6.447  10.583   5.708  1.00  0.00     0.049 A 
ATOM     53  C   UNL     1       5.300  11.665   0.325  1.00  0.00     0.074 A 
ATOM     54  C   UNL     1       6.709  11.675   6.517  1.00  0.00     0.029 A 
ATOM     55  N   UNL     1       6.169  11.081   4.443  1.00  0.00    -0.354 N 
ATOM     56  N   UNL     1       5.592  11.568   1.601  1.00  0.00    -0.248 NA
ATOM     57  C   UNL     1       5.181  13.045  -0.163  1.00  0.00     0.031 C 
ATOM     58  C   UNL     1       6.535  12.835   5.755  1.00  0.00     0.029 A 
ATOM     59  C   UNL     1       6.224  12.466   4.456  1.00  0.00     0.049 A 
ATOM     60  H   UNL     1       5.964  10.532   3.652  1.00  0.00     0.167 HD
ATOM     61  C   UNL     1       5.714  12.874   2.062  1.00  0.00     0.074 A 
ATOM     62  C   UNL     1       5.484  13.741   0.925  1.00  0.00     0.031 C 
ATOM     63  C   UNL     1       5.991  13.316   3.314  1.00  0.00     0.037 A 
BRANCH  50  64
ATOM     64  C   UNL     1       6.688   8.817   7.502  1.00  0.00     0.058 A 
ATOM     65  C   UNL     1       7.868   8.173   7.910  1.00  0.00     0.135 A 
ATOM     66  C   UNL     1       5.750   9.149   8.494  1.00  0.00     0.135 A 
ATOM     67  F   UNL     1       8.793   7.817   7.004  1.00  0.00    -0.206 F 
ATOM     68  C   UNL     1       8.097   7.848   9.243  1.00  0.00     0.059 A 
ATOM     69  C   UNL     1       5.973   8.862   9.838  1.00  0.00     0.059 A 
ATOM     70  F   UNL     1       4.604   9.764   8.162  1.00  0.00    -0.206 F 
ATOM     71  C   UNL     1       7.144   8.200  10.201  1.00  0.00     0.060 A 
BRANCH  71  72
ATOM     72  S   UNL     1       7.466   7.783  11.928  1.00  0.00     0.124 S 
ATOM     73  O   UNL     1       7.306   6.332  11.911  1.00  0.00    -0.237 OA
ATOM     74  O   UNL     1       8.830   8.267  12.115  1.00  0.00    -0.237 OA
ATOM     75  O   UNL     1       6.436   8.519  12.654  1.00  0.00    -0.744 OA
ENDBRANCH  71  72
ENDBRANCH  50  64
BRANCH  51  76
ATOM     76  C   UNL     1       4.746  10.880  -2.096  1.00  0.00     0.058 A 
ATOM     77  C   UNL     1       5.692  11.471  -2.946  1.00  0.00     0.135 A 
ATOM     78  C   UNL     1       3.483  10.582  -2.632  1.00  0.00     0.135 A 
ATOM     79  F   UNL     1       6.912  11.781  -2.480  1.00  0.00    -0.206 F 
ATOM     80  C   UNL     1       5.395  11.773  -4.271  1.00  0.00     0.059 A 
ATOM     81  C   UNL     1       3.172  10.848  -3.962  1.00  0.00     0.059 A 
ATOM     82  F   UNL     1       2.547   9.999  -1.867  1.00  0.00    -0.206 F 
ATOM     83  C   UNL     1       4.131  11.454  -4.771  1.00  0.00     0.060 A 
BRANCH  83  84
ATOM     84  S   UNL     1       3.772  11.805  -6.505  1.00  0.00     0.124 S 
ATOM     85  O   UNL     1       3.667  13.259  -6.495  1.00  0.00    -0.237 OA
ATOM     86  O   UNL     1       4.943  11.253  -7.178  1.00  0.00    -0.237 OA
ATOM     87  O   UNL     1       2.525  11.084  -6.742  1.00  0.00    -0.744 OA
ENDBRANCH  83  84
ENDBRANCH  51  76
BRANCH  63  88
ATOM     88  C   UNL     1       6.085  14.804   3.518  1.00  0.00     0.058 A 
ATOM     89  C   UNL     1       4.949  15.627   3.482  1.00  0.00     0.135 A 
ATOM     90  C   UNL     1       7.323  15.406   3.800  1.00  0.00     0.135 A 
ATOM     91  F   UNL     1       3.743  15.104   3.209  1.00  0.00    -0.206 F 
ATOM     92  C   UNL     1       5.040  16.999   3.692  1.00  0.00     0.059 A 
ATOM     93  C   UNL     1       7.432  16.771   4.045  1.00  0.00     0.059 A 
ATOM     94  F   UNL     1       8.440  14.663   3.857  1.00  0.00    -0.206 F 
ATOM     95  C   UNL     1       6.286  17.561   3.976  1.00  0.00     0.060 A 
BRANCH  95  96
ATOM     96  S   UNL     1       6.383  19.338   4.278  1.00  0.00     0.124 S 
ATOM     97  O   UNL     1       6.179  19.876   2.937  1.00  0.00    -0.237 OA
ATOM     98  O   UNL     1       5.290  19.554   5.221  1.00  0.00    -0.237 OA
ATOM     99  O   UNL     1       7.723  19.518   4.829  1.00  0.00    -0.744 OA
ENDBRANCH  95  96
ENDBRANCH  63  88
ENDBRANCH  37  38
ENDBRANCH  29  32
ENDBRANCH  27  28
ENDBRANCH   1  27
TORSDOF 17
