REMARK SMILES CN(C)c1cccc(C(C)(C)C(=O)NCCCNC(=O)c2ccc(-c3c4nc(c(-c5c(F)cc(S(=O)(=O)[O-])cc5F)c5ccc([nH]5)c(-c5c(F)cc(S(=O)(=O)[O-])cc5F)c5nc(c(-c6c(F)cc(S(=O)(=O)[O-])cc6F)c6ccc3[nH]6)C=C5)C=C4)cc2)c1
REMARK SMILES IDX 16 1 15 2 14 3 12 4 13 5 9 7 10 8 11 9 8 10 4 11 5 12 87 13
REMARK SMILES IDX 6 14 7 15 2 16 1 17 3 18 17 19 18 20 19 21 20 23 21 24 22 25
REMARK SMILES IDX 86 26 23 27 85 28 24 29 25 30 26 31 79 32 27 33 84 34 78 35
REMARK SMILES IDX 80 36 28 37 83 38 77 39 76 40 29 42 63 43 42 44 62 45 43 46
REMARK SMILES IDX 46 47 61 48 81 49 44 50 45 51 60 53 82 54 47 55 30 56 31 57
REMARK SMILES IDX 40 58 32 59 33 60 39 61 41 62 34 63 35 64 36 65 37 66 38 67
REMARK SMILES IDX 64 68 65 69 74 70 66 71 67 72 73 73 75 74 68 75 69 76 70 77
REMARK SMILES IDX 71 78 72 79 48 80 49 81 58 82 50 83 51 84 57 85 59 86 52 87
REMARK SMILES IDX 53 88 54 89 55 90 56 91
REMARK H PARENT 14 6 18 22 80 41 46 52
REMARK Flexibility Score: inf
ROOT
ATOM      1  C   UNL     1       7.863   4.534  -0.480  1.00  0.00     0.042 C 
ENDROOT
BRANCH   1   2
ATOM      2  C   UNL     1       7.221   3.945  -1.729  1.00  0.00     0.117 C 
BRANCH   2   3
ATOM      3  N   UNL     1       6.365   2.811  -1.418  1.00  0.00    -0.355 N 
ATOM      4  C   UNL     1       5.024   2.577  -1.489  1.00  0.00     0.230 C 
ATOM      5  O   UNL     1       4.721   1.440  -1.117  1.00  0.00    -0.274 OA
ATOM      6  H   UNL     1       6.869   2.036  -1.080  1.00  0.00     0.163 HD
BRANCH   4   7
ATOM      7  C   UNL     1       4.006   3.631  -2.032  1.00  0.00     0.068 C 
ATOM      8  C   UNL     1       4.399   3.893  -3.510  1.00  0.00     0.026 C 
ATOM      9  C   UNL     1       4.090   4.905  -1.162  1.00  0.00     0.026 C 
BRANCH   7  10
ATOM     10  C   UNL     1       2.493   3.230  -2.052  1.00  0.00    -0.031 A 
ATOM     11  C   UNL     1       0.614   1.678  -1.597  1.00  0.00     0.036 A 
ATOM     12  C   UNL     1      -0.249   2.559  -2.256  1.00  0.00     0.026 A 
ATOM     13  C   UNL     1       1.969   2.053  -1.486  1.00  0.00     0.030 A 
ATOM     14  C   UNL     1       0.214   3.762  -2.779  1.00  0.00     0.002 A 
ATOM     15  C   UNL     1       1.565   4.089  -2.679  1.00  0.00     0.005 A 
BRANCH  11  16
ATOM     16  N   UNL     1       0.130   0.468  -1.091  1.00  0.00    -0.378 N 
ATOM     17  C   UNL     1       0.815  -0.168   0.027  1.00  0.00     0.143 C 
ATOM     18  C   UNL     1      -0.512  -0.412  -2.062  1.00  0.00     0.143 C 
ENDBRANCH  11  16
ENDBRANCH   7  10
ENDBRANCH   4   7
ENDBRANCH   2   3
ENDBRANCH   1   2
BRANCH   1  19
ATOM     19  C   UNL     1       8.712   3.549   0.313  1.00  0.00     0.118 C 
BRANCH  19  20
ATOM     20  N   UNL     1       9.818   3.007  -0.463  1.00  0.00    -0.352 N 
ATOM     21  C   UNL     1      11.170   3.091  -0.253  1.00  0.00     0.251 C 
ATOM     22  H   UNL     1       9.554   2.501  -1.266  1.00  0.00     0.163 HD
ATOM     23  O   UNL     1      11.939   2.729  -1.146  1.00  0.00    -0.269 OA
BRANCH  21  24
ATOM     24  C   UNL     1      11.709   3.620   1.018  1.00  0.00     0.039 A 
ATOM     25  C   UNL     1      12.851   4.425   0.984  1.00  0.00     0.014 A 
ATOM     26  C   UNL     1      11.125   3.296   2.246  1.00  0.00     0.014 A 
ATOM     27  C   UNL     1      13.378   4.936   2.172  1.00  0.00     0.010 A 
ATOM     28  C   UNL     1      11.595   3.880   3.418  1.00  0.00     0.010 A 
ATOM     29  C   UNL     1      12.741   4.686   3.398  1.00  0.00    -0.014 A 
BRANCH  29  30
ATOM     30  C   UNL     1      13.288   5.222   4.671  1.00  0.00     0.031 A 
ATOM     31  C   UNL     1      13.778   4.278   5.738  1.00  0.00     0.074 A 
ATOM     32  C   UNL     1      13.306   6.553   4.883  1.00  0.00     0.049 A 
ATOM     33  N   UNL     1      14.269   4.549   6.920  1.00  0.00    -0.248 NA
ATOM     34  C   UNL     1      13.674   2.838   5.450  1.00  0.00     0.031 C 
ATOM     35  C   UNL     1      12.812   7.566   3.948  1.00  0.00     0.029 A 
ATOM     36  N   UNL     1      13.759   7.282   5.953  1.00  0.00    -0.354 N 
ATOM     37  C   UNL     1      14.511   3.319   7.521  1.00  0.00     0.074 A 
ATOM     38  C   UNL     1      14.058   2.302   6.598  1.00  0.00     0.031 C 
ATOM     39  C   UNL     1      13.027   8.786   4.468  1.00  0.00     0.029 A 
ATOM     40  C   UNL     1      13.643   8.641   5.783  1.00  0.00     0.049 A 
ATOM     41  H   UNL     1      14.132   6.871   6.766  1.00  0.00     0.167 HD
ATOM     42  C   UNL     1      15.085   3.058   8.721  1.00  0.00     0.037 A 
ATOM     43  C   UNL     1      14.003   9.655   6.593  1.00  0.00     0.037 A 
ATOM     44  C   UNL     1      15.566   4.074   9.619  1.00  0.00     0.049 A 
ATOM     45  C   UNL     1      14.656   9.342   7.911  1.00  0.00     0.074 A 
ATOM     46  C   UNL     1      16.221   3.917  10.827  1.00  0.00     0.029 A 
ATOM     47  N   UNL     1      15.447   5.440   9.403  1.00  0.00    -0.354 N 
ATOM     48  N   UNL     1      14.939   8.173   8.436  1.00  0.00    -0.248 NA
ATOM     49  C   UNL     1      15.050  10.487   8.743  1.00  0.00     0.031 C 
ATOM     50  C   UNL     1      16.464   5.189  11.361  1.00  0.00     0.029 A 
ATOM     51  C   UNL     1      16.001   6.138  10.463  1.00  0.00     0.049 A 
ATOM     52  H   UNL     1      15.029   5.852   8.613  1.00  0.00     0.167 HD
ATOM     53  C   UNL     1      15.574   8.442   9.643  1.00  0.00     0.074 A 
ATOM     54  C   UNL     1      15.639   9.885   9.767  1.00  0.00     0.031 C 
ATOM     55  C   UNL     1      16.064   7.575  10.564  1.00  0.00     0.037 A 
BRANCH  42  56
ATOM     56  C   UNL     1      15.218   1.613   9.123  1.00  0.00     0.058 A 
ATOM     57  C   UNL     1      16.103   0.741   8.466  1.00  0.00     0.135 A 
ATOM     58  C   UNL     1      14.452   1.091  10.178  1.00  0.00     0.135 A 
ATOM     59  F   UNL     1      16.850   1.182   7.441  1.00  0.00    -0.206 F 
ATOM     60  C   UNL     1      16.188  -0.605   8.808  1.00  0.00     0.059 A 
ATOM     61  C   UNL     1      14.543  -0.245  10.557  1.00  0.00     0.059 A 
ATOM     62  F   UNL     1      13.593   1.879  10.844  1.00  0.00    -0.206 F 
ATOM     63  C   UNL     1      15.398  -1.090   9.850  1.00  0.00     0.060 A 
BRANCH  63  64
ATOM     64  S   UNL     1      15.499  -2.844  10.267  1.00  0.00     0.124 S 
ATOM     65  O   UNL     1      14.747  -3.446   9.170  1.00  0.00    -0.237 OA
ATOM     66  O   UNL     1      16.938  -3.087  10.256  1.00  0.00    -0.237 OA
ATOM     67  O   UNL     1      14.864  -2.919  11.579  1.00  0.00    -0.744 OA
ENDBRANCH  63  64
ENDBRANCH  42  56
BRANCH  43  68
ATOM     68  C   UNL     1      13.808  11.062   6.152  1.00  0.00     0.058 A 
ATOM     69  C   UNL     1      14.906  11.857   5.791  1.00  0.00     0.135 A 
ATOM     70  C   UNL     1      12.530  11.634   6.064  1.00  0.00     0.135 A 
ATOM     71  F   UNL     1      16.149  11.355   5.863  1.00  0.00    -0.206 F 
ATOM     72  C   UNL     1      14.748  13.173   5.371  1.00  0.00     0.059 A 
ATOM     73  C   UNL     1      12.343  12.941   5.625  1.00  0.00     0.059 A 
ATOM     74  F   UNL     1      11.446  10.909   6.382  1.00  0.00    -0.206 F 
ATOM     75  C   UNL     1      13.460  13.706   5.289  1.00  0.00     0.060 A 
BRANCH  75  76
ATOM     76  S   UNL     1      13.261  15.398   4.691  1.00  0.00     0.124 S 
ATOM     77  O   UNL     1      13.728  16.171   5.835  1.00  0.00    -0.237 OA
ATOM     78  O   UNL     1      14.126  15.412   3.514  1.00  0.00    -0.237 OA
ATOM     79  O   UNL     1      11.832  15.488   4.408  1.00  0.00    -0.744 OA
ENDBRANCH  75  76
ENDBRANCH  43  68
BRANCH  55  80
ATOM     80  C   UNL     1      16.752   8.164  11.764  1.00  0.00     0.058 A 
ATOM     81  C   UNL     1      16.038   8.807  12.786  1.00  0.00     0.135 A 
ATOM     82  C   UNL     1      18.145   8.055  11.904  1.00  0.00     0.135 A 
ATOM     83  F   UNL     1      14.705   8.941  12.697  1.00  0.00    -0.206 F 
ATOM     84  C   UNL     1      16.684   9.353  13.890  1.00  0.00     0.059 A 
ATOM     85  C   UNL     1      18.809   8.569  13.013  1.00  0.00     0.059 A 
ATOM     86  F   UNL     1      18.875   7.438  10.961  1.00  0.00    -0.206 F 
ATOM     87  C   UNL     1      18.071   9.232  13.993  1.00  0.00     0.060 A 
BRANCH  87  88
ATOM     88  S   UNL     1      18.899   9.932  15.437  1.00  0.00     0.124 S 
ATOM     89  O   UNL     1      18.888  11.355  15.119  1.00  0.00    -0.237 OA
ATOM     90  O   UNL     1      18.025   9.520  16.531  1.00  0.00    -0.237 OA
ATOM     91  O   UNL     1      20.211   9.293  15.417  1.00  0.00    -0.744 OA
ENDBRANCH  87  88
ENDBRANCH  55  80
ENDBRANCH  29  30
ENDBRANCH  21  24
ENDBRANCH  19  20
ENDBRANCH   1  19
TORSDOF 15
