REMARK SMILES COc1ncnc(N2CCSC[C@@H]2CC(=O)NCCCNC(=O)c2ccc(-c3c4nc(c(-c5c(F)cc(S(=O)(=O)[O-])cc5F)c5ccc([nH]5)c(-c5c(F)cc(S(=O)(=O)[O-])cc5F)c5nc(c(-c6c(F)cc(S(=O)(=O)[O-])cc6F)c6ccc3[nH]6)C=C5)C=C4)cc2)c1[N+](=O)[O-]
REMARK SMILES IDX 19 1 18 2 17 3 15 4 16 5 14 7 13 8 8 9 9 10 10 11 12 12
REMARK SMILES IDX 11 13 7 14 3 15 4 16 90 17 5 18 6 19 2 20 1 21 91 22 92 23
REMARK SMILES IDX 93 24 20 25 21 26 22 27 23 29 24 30 25 31 89 32 26 33 88 34
REMARK SMILES IDX 27 35 28 36 29 37 82 38 30 39 87 40 81 41 83 42 31 43 86 44
REMARK SMILES IDX 80 45 79 46 32 48 66 49 45 50 65 51 46 52 49 53 64 54 84 55
REMARK SMILES IDX 47 56 48 57 63 59 85 60 50 61 33 62 34 63 43 64 35 65 36 66
REMARK SMILES IDX 42 67 44 68 37 69 38 70 39 71 40 72 41 73 67 74 68 75 77 76
REMARK SMILES IDX 69 77 70 78 76 79 78 80 71 81 72 82 73 83 74 84 75 85 51 86
REMARK SMILES IDX 52 87 61 88 53 89 54 90 60 91 62 92 55 93 56 94 57 95 58 96
REMARK SMILES IDX 59 97
REMARK H PARENT 17 6 21 28 83 47 49 58
REMARK Flexibility Score: inf
ROOT
ATOM      1  C   UNL     1       1.282   1.101  -3.762  1.00  0.00     0.042 C 
ENDROOT
BRANCH   1   2
ATOM      2  C   UNL     1       2.639   1.752  -4.027  1.00  0.00     0.117 C 
BRANCH   2   3
ATOM      3  N   UNL     1       3.723   1.265  -3.192  1.00  0.00    -0.356 N 
ATOM      4  C   UNL     1       4.843   0.561  -3.518  1.00  0.00     0.222 C 
ATOM      5  O   UNL     1       5.783   0.566  -2.721  1.00  0.00    -0.275 OA
ATOM      6  H   UNL     1       3.635   1.478  -2.235  1.00  0.00     0.163 HD
BRANCH   4   7
ATOM      7  C   UNL     1       4.964  -0.188  -4.825  1.00  0.00     0.126 C 
BRANCH   7   8
ATOM      8  C   UNL     1       4.051  -1.420  -4.933  1.00  0.00     0.103 C 
ATOM      9  N   UNL     1       4.084  -2.260  -3.710  1.00  0.00    -0.345 N 
ATOM     10  C   UNL     1       5.288  -3.050  -3.413  1.00  0.00     0.129 C 
ATOM     11  C   UNL     1       5.659  -4.010  -4.546  1.00  0.00     0.091 C 
ATOM     12  C   UNL     1       4.369  -2.255  -6.193  1.00  0.00     0.095 C 
ATOM     13  S   UNL     1       5.960  -3.150  -6.121  1.00  0.00    -0.158 SA
BRANCH   9  14
ATOM     14  C   UNL     1       2.913  -2.399  -2.985  1.00  0.00     0.215 A 
ATOM     15  C   UNL     1       1.557  -2.385  -1.024  1.00  0.00     0.299 A 
ATOM     16  N   UNL     1       0.435  -2.511  -1.752  1.00  0.00    -0.196 NA
ATOM     17  C   UNL     1       2.809  -2.362  -1.604  1.00  0.00     0.372 A 
ATOM     18  C   UNL     1       0.605  -2.610  -3.073  1.00  0.00     0.228 A 
ATOM     19  N   UNL     1       1.782  -2.527  -3.718  1.00  0.00    -0.212 NA
BRANCH  15  20
ATOM     20  O   UNL     1       1.333  -2.369   0.326  1.00  0.00    -0.476 OA
ATOM     21  C   UNL     1       1.672  -1.136   0.956  1.00  0.00     0.280 C 
ENDBRANCH  15  20
BRANCH  17  22
ATOM     22  N   UNL     1       3.944  -2.199  -0.764  1.00  0.00     0.072 N 
ATOM     23  O   UNL     1       4.356  -1.045  -0.592  1.00  0.00    -0.258 OA
ATOM     24  O   UNL     1       4.400  -3.214  -0.221  1.00  0.00    -0.258 OA
ENDBRANCH  17  22
ENDBRANCH   9  14
ENDBRANCH   7   8
ENDBRANCH   4   7
ENDBRANCH   2   3
ENDBRANCH   1   2
BRANCH   1  25
ATOM     25  C   UNL     1       0.776   1.155  -2.320  1.00  0.00     0.118 C 
BRANCH  25  26
ATOM     26  N   UNL     1       0.280   2.462  -1.927  1.00  0.00    -0.352 N 
ATOM     27  C   UNL     1      -0.895   2.800  -1.290  1.00  0.00     0.251 C 
ATOM     28  H   UNL     1       0.869   3.219  -2.149  1.00  0.00     0.163 HD
ATOM     29  O   UNL     1      -1.184   3.986  -1.155  1.00  0.00    -0.269 OA
BRANCH  27  30
ATOM     30  C   UNL     1      -1.822   1.757  -0.781  1.00  0.00     0.039 A 
ATOM     31  C   UNL     1      -3.187   1.863  -1.059  1.00  0.00     0.014 A 
ATOM     32  C   UNL     1      -1.368   0.708   0.018  1.00  0.00     0.014 A 
ATOM     33  C   UNL     1      -4.076   0.889  -0.584  1.00  0.00     0.010 A 
ATOM     34  C   UNL     1      -2.246  -0.299   0.439  1.00  0.00     0.010 A 
ATOM     35  C   UNL     1      -3.615  -0.223   0.145  1.00  0.00    -0.014 A 
BRANCH  35  36
ATOM     36  C   UNL     1      -4.553  -1.310   0.559  1.00  0.00     0.031 A 
ATOM     37  C   UNL     1      -4.806  -1.628   2.013  1.00  0.00     0.074 A 
ATOM     38  C   UNL     1      -5.170  -2.050  -0.386  1.00  0.00     0.049 A 
ATOM     39  N   UNL     1      -5.611  -2.521   2.538  1.00  0.00    -0.248 NA
ATOM     40  C   UNL     1      -4.042  -0.859   3.005  1.00  0.00     0.031 C 
ATOM     41  C   UNL     1      -4.982  -1.899  -1.829  1.00  0.00     0.029 A 
ATOM     42  N   UNL     1      -6.085  -3.070  -0.277  1.00  0.00    -0.354 N 
ATOM     43  C   UNL     1      -5.444  -2.430   3.916  1.00  0.00     0.074 A 
ATOM     44  C   UNL     1      -4.419  -1.431   4.141  1.00  0.00     0.031 C 
ATOM     45  C   UNL     1      -5.793  -2.754  -2.471  1.00  0.00     0.029 A 
ATOM     46  C   UNL     1      -6.532  -3.543  -1.489  1.00  0.00     0.049 A 
ATOM     47  H   UNL     1      -6.393  -3.428   0.587  1.00  0.00     0.167 HD
ATOM     48  C   UNL     1      -6.094  -3.094   4.905  1.00  0.00     0.037 A 
ATOM     49  C   UNL     1      -7.441  -4.493  -1.785  1.00  0.00     0.037 A 
ATOM     50  C   UNL     1      -7.125  -4.079   4.687  1.00  0.00     0.049 A 
ATOM     51  C   UNL     1      -8.150  -5.220  -0.677  1.00  0.00     0.074 A 
ATOM     52  C   UNL     1      -7.884  -4.756   5.628  1.00  0.00     0.029 A 
ATOM     53  N   UNL     1      -7.539  -4.535   3.444  1.00  0.00    -0.354 N 
ATOM     54  N   UNL     1      -8.030  -5.066   0.619  1.00  0.00    -0.248 NA
ATOM     55  C   UNL     1      -9.124  -6.247  -1.074  1.00  0.00     0.031 C 
ATOM     56  C   UNL     1      -8.727  -5.650   4.955  1.00  0.00     0.029 A 
ATOM     57  C   UNL     1      -8.527  -5.498   3.593  1.00  0.00     0.049 A 
ATOM     58  H   UNL     1      -7.184  -4.221   2.581  1.00  0.00     0.167 HD
ATOM     59  C   UNL     1      -8.931  -5.957   1.193  1.00  0.00     0.074 A 
ATOM     60  C   UNL     1      -9.594  -6.641   0.102  1.00  0.00     0.031 C 
ATOM     61  C   UNL     1      -9.185  -6.181   2.506  1.00  0.00     0.037 A 
BRANCH  48  62
ATOM     62  C   UNL     1      -5.705  -2.772   6.326  1.00  0.00     0.058 A 
ATOM     63  C   UNL     1      -5.998  -1.526   6.905  1.00  0.00     0.135 A 
ATOM     64  C   UNL     1      -5.038  -3.718   7.122  1.00  0.00     0.135 A 
ATOM     65  F   UNL     1      -6.632  -0.581   6.192  1.00  0.00    -0.206 F 
ATOM     66  C   UNL     1      -5.592  -1.208   8.197  1.00  0.00     0.059 A 
ATOM     67  C   UNL     1      -4.650  -3.433   8.429  1.00  0.00     0.059 A 
ATOM     68  F   UNL     1      -4.745  -4.932   6.628  1.00  0.00    -0.206 F 
ATOM     69  C   UNL     1      -4.908  -2.165   8.948  1.00  0.00     0.060 A 
BRANCH  69  70
ATOM     70  S   UNL     1      -4.346  -1.723  10.606  1.00  0.00     0.124 S 
ATOM     71  O   UNL     1      -3.193  -0.879  10.304  1.00  0.00    -0.237 OA
ATOM     72  O   UNL     1      -5.506  -1.033  11.160  1.00  0.00    -0.237 OA
ATOM     73  O   UNL     1      -4.037  -3.013  11.215  1.00  0.00    -0.744 OA
ENDBRANCH  69  70
ENDBRANCH  48  62
BRANCH  49  74
ATOM     74  C   UNL     1      -7.774  -4.768  -3.208  1.00  0.00     0.058 A 
ATOM     75  C   UNL     1      -8.996  -4.341  -3.748  1.00  0.00     0.135 A 
ATOM     76  C   UNL     1      -6.869  -5.413  -4.064  1.00  0.00     0.135 A 
ATOM     77  F   UNL     1      -9.898  -3.728  -2.966  1.00  0.00    -0.206 F 
ATOM     78  C   UNL     1      -9.310  -4.541  -5.088  1.00  0.00     0.059 A 
ATOM     79  C   UNL     1      -7.150  -5.605  -5.413  1.00  0.00     0.059 A 
ATOM     80  F   UNL     1      -5.680  -5.826  -3.597  1.00  0.00    -0.206 F 
ATOM     81  C   UNL     1      -8.375  -5.166  -5.915  1.00  0.00     0.060 A 
BRANCH  81  82
ATOM     82  S   UNL     1      -8.755  -5.337  -7.672  1.00  0.00     0.124 S 
ATOM     83  O   UNL     1      -9.757  -6.396  -7.655  1.00  0.00    -0.237 OA
ATOM     84  O   UNL     1      -9.238  -4.003  -8.013  1.00  0.00    -0.237 OA
ATOM     85  O   UNL     1      -7.466  -5.696  -8.259  1.00  0.00    -0.744 OA
ENDBRANCH  81  82
ENDBRANCH  49  74
BRANCH  61  86
ATOM     86  C   UNL     1     -10.249  -7.191   2.844  1.00  0.00     0.058 A 
ATOM     87  C   UNL     1     -10.037  -8.569   2.685  1.00  0.00     0.135 A 
ATOM     88  C   UNL     1     -11.484  -6.776   3.367  1.00  0.00     0.135 A 
ATOM     89  F   UNL     1      -8.877  -9.021   2.180  1.00  0.00    -0.206 F 
ATOM     90  C   UNL     1     -11.019  -9.499   3.012  1.00  0.00     0.059 A 
ATOM     91  C   UNL     1     -12.472  -7.689   3.724  1.00  0.00     0.059 A 
ATOM     92  F   UNL     1     -11.738  -5.470   3.547  1.00  0.00    -0.206 F 
ATOM     93  C   UNL     1     -12.235  -9.050   3.531  1.00  0.00     0.060 A 
BRANCH  93  94
ATOM     94  S   UNL     1     -13.492 -10.267   3.978  1.00  0.00     0.124 S 
ATOM     95  O   UNL     1     -13.991 -10.669   2.667  1.00  0.00    -0.237 OA
ATOM     96  O   UNL     1     -12.713 -11.273   4.695  1.00  0.00    -0.237 OA
ATOM     97  O   UNL     1     -14.427  -9.505   4.800  1.00  0.00    -0.744 OA
ENDBRANCH  93  94
ENDBRANCH  61  86
ENDBRANCH  35  36
ENDBRANCH  27  30
ENDBRANCH  25  26
ENDBRANCH   1  25
TORSDOF 17
