REMARK SMILES Cc1ccccc1[C@@H](C)NS(=O)(=O)CC(=O)NCCCNC(=O)c1ccc(-c2c3nc(c(-c4c(F)cc(S(=O)(=O)[O-])cc4F)c4ccc([nH]4)c(-c4c(F)cc(S(=O)(=O)[O-])cc4F)c4nc(c(-c5c(F)cc(S(=O)(=O)[O-])cc5F)c5ccc2[nH]5)C=C4)C=C3)cc1
REMARK SMILES IDX 18 1 17 2 15 3 16 4 14 6 11 7 12 8 13 9 10 10 8 12 9 13 7 14
REMARK SMILES IDX 1 15 2 16 3 17 4 18 6 19 5 20 19 21 20 22 21 23 22 24 23 26
REMARK SMILES IDX 24 27 25 28 89 29 26 30 88 31 27 32 28 33 29 34 82 35 30 36
REMARK SMILES IDX 87 37 81 38 83 39 31 40 86 41 80 42 79 43 32 45 66 46 45 47
REMARK SMILES IDX 65 48 46 49 49 50 64 51 84 52 47 53 48 54 63 56 85 57 50 58
REMARK SMILES IDX 33 59 34 60 43 61 35 62 36 63 42 64 44 65 37 66 38 67 39 68
REMARK SMILES IDX 40 69 41 70 67 71 68 72 77 73 69 74 70 75 76 76 78 77 71 78
REMARK SMILES IDX 72 79 73 80 74 81 75 82 51 83 52 84 61 85 53 86 54 87 60 88
REMARK SMILES IDX 62 89 55 90 56 91 57 92 58 93 59 94
REMARK H PARENT 17 5 10 11 21 25 83 44 49 55
REMARK Flexibility Score: inf
ROOT
ATOM      1  C   UNL     1       3.174   5.826   3.877  1.00  0.00     0.117 C 
ENDROOT
BRANCH   1   2
ATOM      2  N   UNL     1       3.525   4.475   3.447  1.00  0.00    -0.355 N 
ATOM      3  C   UNL     1       3.380   3.916   2.209  1.00  0.00     0.236 C 
ATOM      4  O   UNL     1       3.497   2.692   2.099  1.00  0.00    -0.274 OA
ATOM      5  H   UNL     1       3.916   3.893   4.138  1.00  0.00     0.163 HD
BRANCH   3   6
ATOM      6  C   UNL     1       3.222   4.774   0.998  1.00  0.00     0.253 C 
BRANCH   6   7
ATOM      7  S   UNL     1       1.547   5.068   0.490  1.00  0.00     0.221 S 
ATOM      8  O   UNL     1       1.597   5.546  -0.868  1.00  0.00    -0.212 OA
ATOM      9  O   UNL     1       0.881   5.888   1.488  1.00  0.00    -0.212 OA
BRANCH   7  10
ATOM     10  N   UNL     1       0.751   3.614   0.505  1.00  0.00    -0.208 NA
ATOM     11  H   UNL     1       0.910   3.214   1.430  1.00  0.00     0.141 HD
BRANCH  10  12
ATOM     12  C   UNL     1       1.044   2.545  -0.457  1.00  0.00     0.096 C 
ATOM     13  C   UNL     1       0.588   2.959  -1.862  1.00  0.00     0.031 C 
BRANCH  12  14
ATOM     14  C   UNL     1       0.341   1.231  -0.102  1.00  0.00    -0.027 A 
ATOM     15  C   UNL     1       2.523  -0.148   0.015  1.00  0.00     0.044 C 
ATOM     16  C   UNL     1       1.025   0.002   0.034  1.00  0.00    -0.046 A 
ATOM     17  C   UNL     1       0.280  -1.190   0.146  1.00  0.00     0.004 A 
ATOM     18  C   UNL     1      -1.112  -1.178   0.172  1.00  0.00     0.000 A 
ATOM     19  C   UNL     1      -1.071   1.222  -0.021  1.00  0.00     0.005 A 
ATOM     20  C   UNL     1      -1.789   0.032   0.110  1.00  0.00     0.000 A 
ENDBRANCH  12  14
ENDBRANCH  10  12
ENDBRANCH   7  10
ENDBRANCH   6   7
ENDBRANCH   3   6
ENDBRANCH   1   2
BRANCH   1  21
ATOM     21  C   UNL     1       1.712   5.878   4.287  1.00  0.00     0.042 C 
BRANCH  21  22
ATOM     22  C   UNL     1       1.472   5.463   5.721  1.00  0.00     0.118 C 
BRANCH  22  23
ATOM     23  N   UNL     1       1.221   6.595   6.598  1.00  0.00    -0.352 N 
ATOM     24  C   UNL     1       0.443   6.604   7.744  1.00  0.00     0.251 C 
ATOM     25  H   UNL     1       1.650   7.446   6.352  1.00  0.00     0.163 HD
ATOM     26  O   UNL     1      -0.154   7.590   8.154  1.00  0.00    -0.269 OA
BRANCH  24  27
ATOM     27  C   UNL     1       0.528   5.391   8.577  1.00  0.00     0.039 A 
ATOM     28  C   UNL     1       1.274   5.495   9.760  1.00  0.00     0.014 A 
ATOM     29  C   UNL     1       0.256   4.162   7.991  1.00  0.00     0.014 A 
ATOM     30  C   UNL     1       1.939   4.377  10.234  1.00  0.00     0.010 A 
ATOM     31  C   UNL     1       1.057   3.112   8.339  1.00  0.00     0.010 A 
ATOM     32  C   UNL     1       1.907   3.235   9.444  1.00  0.00    -0.014 A 
BRANCH  32  33
ATOM     33  C   UNL     1       2.619   2.016   9.739  1.00  0.00     0.031 A 
ATOM     34  C   UNL     1       1.845   0.983  10.443  1.00  0.00     0.074 A 
ATOM     35  C   UNL     1       3.820   1.830   9.156  1.00  0.00     0.049 A 
ATOM     36  N   UNL     1       2.351  -0.011  11.071  1.00  0.00    -0.248 NA
ATOM     37  C   UNL     1       0.385   1.027  10.533  1.00  0.00     0.031 C 
ATOM     38  C   UNL     1       4.569   0.594   8.987  1.00  0.00     0.029 A 
ATOM     39  N   UNL     1       4.708   2.829   8.746  1.00  0.00    -0.354 N 
ATOM     40  C   UNL     1       1.324  -0.897  11.327  1.00  0.00     0.074 A 
ATOM     41  C   UNL     1       0.117  -0.149  11.101  1.00  0.00     0.031 C 
ATOM     42  C   UNL     1       5.868   0.899   8.807  1.00  0.00     0.029 A 
ATOM     43  C   UNL     1       6.001   2.337   9.003  1.00  0.00     0.049 A 
ATOM     44  H   UNL     1       4.475   3.703   8.355  1.00  0.00     0.167 HD
ATOM     45  C   UNL     1       1.650  -2.207  11.516  1.00  0.00     0.037 A 
ATOM     46  C   UNL     1       6.744   2.918   9.994  1.00  0.00     0.037 A 
ATOM     47  C   UNL     1       3.110  -2.333  11.535  1.00  0.00     0.049 A 
ATOM     48  C   UNL     1       6.958   1.983  11.167  1.00  0.00     0.074 A 
ATOM     49  C   UNL     1       4.023  -2.673  10.550  1.00  0.00     0.029 A 
ATOM     50  N   UNL     1       3.831  -1.693  12.538  1.00  0.00    -0.354 N 
ATOM     51  N   UNL     1       6.164   0.989  11.468  1.00  0.00    -0.248 NA
ATOM     52  C   UNL     1       8.126   2.047  12.039  1.00  0.00     0.031 C 
ATOM     53  C   UNL     1       5.287  -2.148  10.929  1.00  0.00     0.029 A 
ATOM     54  C   UNL     1       5.145  -1.506  12.149  1.00  0.00     0.049 A 
ATOM     55  H   UNL     1       3.458  -1.411  13.404  1.00  0.00     0.167 HD
ATOM     56  C   UNL     1       6.690   0.279  12.519  1.00  0.00     0.074 A 
ATOM     57  C   UNL     1       7.921   0.982  12.835  1.00  0.00     0.031 C 
ATOM     58  C   UNL     1       6.092  -0.840  13.033  1.00  0.00     0.037 A 
BRANCH  45  59
ATOM     59  C   UNL     1       0.709  -3.391  11.370  1.00  0.00     0.058 A 
ATOM     60  C   UNL     1       1.241  -4.678  11.125  1.00  0.00     0.135 A 
ATOM     61  C   UNL     1      -0.701  -3.348  11.402  1.00  0.00     0.135 A 
ATOM     62  F   UNL     1       2.562  -4.904  11.121  1.00  0.00    -0.206 F 
ATOM     63  C   UNL     1       0.451  -5.801  10.870  1.00  0.00     0.059 A 
ATOM     64  C   UNL     1      -1.514  -4.452  11.121  1.00  0.00     0.059 A 
ATOM     65  F   UNL     1      -1.373  -2.249  11.754  1.00  0.00    -0.206 F 
ATOM     66  C   UNL     1      -0.929  -5.678  10.854  1.00  0.00     0.060 A 
BRANCH  66  67
ATOM     67  S   UNL     1      -1.929  -7.139  10.533  1.00  0.00     0.124 S 
ATOM     68  O   UNL     1      -1.484  -7.525   9.197  1.00  0.00    -0.237 OA
ATOM     69  O   UNL     1      -1.527  -8.027  11.619  1.00  0.00    -0.237 OA
ATOM     70  O   UNL     1      -3.299  -6.640  10.610  1.00  0.00    -0.744 OA
ENDBRANCH  66  67
ENDBRANCH  45  59
BRANCH  46  71
ATOM     71  C   UNL     1       6.541   4.402  10.047  1.00  0.00     0.058 A 
ATOM     72  C   UNL     1       6.974   5.146   8.927  1.00  0.00     0.135 A 
ATOM     73  C   UNL     1       5.561   4.989  10.860  1.00  0.00     0.135 A 
ATOM     74  F   UNL     1       7.925   4.646   8.120  1.00  0.00    -0.206 F 
ATOM     75  C   UNL     1       6.342   6.323   8.530  1.00  0.00     0.059 A 
ATOM     76  C   UNL     1       4.924   6.181  10.487  1.00  0.00     0.059 A 
ATOM     77  F   UNL     1       5.108   4.345  11.945  1.00  0.00    -0.206 F 
ATOM     78  C   UNL     1       5.273   6.797   9.283  1.00  0.00     0.060 A 
BRANCH  78  79
ATOM     79  S   UNL     1       4.266   8.131   8.584  1.00  0.00     0.124 S 
ATOM     80  O   UNL     1       5.220   9.234   8.537  1.00  0.00    -0.237 OA
ATOM     81  O   UNL     1       3.874   7.582   7.284  1.00  0.00    -0.237 OA
ATOM     82  O   UNL     1       3.183   8.273   9.547  1.00  0.00    -0.744 OA
ENDBRANCH  78  79
ENDBRANCH  46  71
BRANCH  58  83
ATOM     83  C   UNL     1       6.409  -1.489  14.367  1.00  0.00     0.058 A 
ATOM     84  C   UNL     1       7.036  -0.829  15.436  1.00  0.00     0.135 A 
ATOM     85  C   UNL     1       5.941  -2.798  14.662  1.00  0.00     0.135 A 
ATOM     86  F   UNL     1       7.402   0.457  15.353  1.00  0.00    -0.206 F 
ATOM     87  C   UNL     1       7.275  -1.449  16.663  1.00  0.00     0.059 A 
ATOM     88  C   UNL     1       6.094  -3.403  15.904  1.00  0.00     0.059 A 
ATOM     89  F   UNL     1       5.296  -3.545  13.754  1.00  0.00    -0.206 F 
ATOM     90  C   UNL     1       6.804  -2.737  16.887  1.00  0.00     0.060 A 
BRANCH  90  91
ATOM     91  S   UNL     1       7.101  -3.525  18.475  1.00  0.00     0.124 S 
ATOM     92  O   UNL     1       8.465  -4.013  18.301  1.00  0.00    -0.237 OA
ATOM     93  O   UNL     1       6.940  -2.418  19.413  1.00  0.00    -0.237 OA
ATOM     94  O   UNL     1       6.066  -4.551  18.544  1.00  0.00    -0.744 OA
ENDBRANCH  90  91
ENDBRANCH  58  83
ENDBRANCH  32  33
ENDBRANCH  24  27
ENDBRANCH  22  23
ENDBRANCH  21  22
ENDBRANCH   1  21
TORSDOF 17
