REMARK SMILES CCCN(CCC)c1cc(C(=O)NCCCNC(=O)c2ccc(-c3c4nc(c(-c5c(F)cc(S(=O)(=O)[O-])cc5F)c5ccc([nH]5)c(-c5c(F)cc(S(=O)(=O)[O-])cc5F)c5nc(c(-c6c(F)cc(S(=O)(=O)[O-])cc6F)c6ccc3[nH]6)C=C5)C=C4)cc2)cc(C(F)(F)F)c1
REMARK SMILES IDX 15 1 14 2 13 3 11 4 12 5 10 7 8 8 9 9 92 10 87 11 86 12 4 13
REMARK SMILES IDX 3 14 2 15 1 16 5 17 6 18 7 19 88 20 89 21 90 22 91 23 16 24
REMARK SMILES IDX 17 25 18 26 19 28 20 29 21 30 85 31 22 32 84 33 23 34 24 35
REMARK SMILES IDX 25 36 78 37 26 38 83 39 77 40 79 41 27 42 82 43 76 44 75 45
REMARK SMILES IDX 28 47 62 48 41 49 61 50 42 51 45 52 60 53 80 54 43 55 44 56
REMARK SMILES IDX 59 58 81 59 46 60 29 61 30 62 39 63 31 64 32 65 38 66 40 67
REMARK SMILES IDX 33 68 34 69 35 70 36 71 37 72 63 73 64 74 73 75 65 76 66 77
REMARK SMILES IDX 72 78 74 79 67 80 68 81 69 82 70 83 71 84 47 85 48 86 57 87
REMARK SMILES IDX 49 88 50 89 56 90 58 91 51 92 52 93 53 94 54 95 55 96
REMARK H PARENT 13 6 17 27 79 46 45 57
REMARK Flexibility Score: inf
ROOT
ATOM      1  C   UNL     1      -0.722  -6.721   3.275  1.00  0.00     0.042 C 
ENDROOT
BRANCH   1   2
ATOM      2  C   UNL     1       0.605  -6.168   2.796  1.00  0.00     0.118 C 
BRANCH   2   3
ATOM      3  N   UNL     1       1.070  -6.650   1.500  1.00  0.00    -0.352 N 
ATOM      4  C   UNL     1       1.690  -5.985   0.459  1.00  0.00     0.251 C 
ATOM      5  O   UNL     1       2.062  -6.625  -0.522  1.00  0.00    -0.269 OA
ATOM      6  H   UNL     1       0.916  -7.609   1.340  1.00  0.00     0.163 HD
BRANCH   4   7
ATOM      7  C   UNL     1       1.794  -4.501   0.456  1.00  0.00     0.042 A 
ATOM      8  C   UNL     1       1.173  -2.478  -0.773  1.00  0.00     0.038 A 
ATOM      9  C   UNL     1       1.517  -3.832  -0.747  1.00  0.00     0.039 A 
ATOM     10  C   UNL     1       1.133  -1.839   0.467  1.00  0.00     0.039 A 
ATOM     11  C   UNL     1       1.518  -2.455   1.664  1.00  0.00     0.058 A 
ATOM     12  C   UNL     1       1.966  -3.770   1.623  1.00  0.00     0.027 A 
BRANCH   8  13
ATOM     13  N   UNL     1       0.809  -1.812  -1.931  1.00  0.00    -0.372 N 
BRANCH  13  14
ATOM     14  C   UNL     1       1.344  -0.468  -2.208  1.00  0.00     0.116 C 
BRANCH  14  15
ATOM     15  C   UNL     1       0.382   0.692  -1.892  1.00  0.00     0.018 C 
ATOM     16  C   UNL     1       0.563   1.353  -0.527  1.00  0.00     0.006 C 
ENDBRANCH  14  15
ENDBRANCH  13  14
BRANCH  13  17
ATOM     17  C   UNL     1      -0.246  -2.345  -2.815  1.00  0.00     0.116 C 
BRANCH  17  18
ATOM     18  C   UNL     1       0.221  -3.477  -3.739  1.00  0.00     0.018 C 
ATOM     19  C   UNL     1      -0.349  -4.841  -3.348  1.00  0.00     0.006 C 
ENDBRANCH  17  18
ENDBRANCH  13  17
ENDBRANCH   8  13
BRANCH  11  20
ATOM     20  C   UNL     1       1.248  -1.793   2.990  1.00  0.00     0.416 C 
ATOM     21  F   UNL     1       0.142  -2.319   3.588  1.00  0.00    -0.166 F 
ATOM     22  F   UNL     1       2.264  -1.954   3.878  1.00  0.00    -0.166 F 
ATOM     23  F   UNL     1       1.026  -0.454   2.899  1.00  0.00    -0.166 F 
ENDBRANCH  11  20
ENDBRANCH   4   7
ENDBRANCH   2   3
ENDBRANCH   1   2
BRANCH   1  24
ATOM     24  C   UNL     1      -0.774  -8.224   3.446  1.00  0.00     0.118 C 
BRANCH  24  25
ATOM     25  N   UNL     1       0.196  -8.729   4.408  1.00  0.00    -0.352 N 
ATOM     26  C   UNL     1       0.037  -9.215   5.684  1.00  0.00     0.251 C 
ATOM     27  H   UNL     1       1.127  -8.722   4.089  1.00  0.00     0.163 HD
ATOM     28  O   UNL     1       1.038  -9.427   6.371  1.00  0.00    -0.269 OA
BRANCH  26  29
ATOM     29  C   UNL     1      -1.309  -9.454   6.251  1.00  0.00     0.039 A 
ATOM     30  C   UNL     1      -1.543  -9.169   7.600  1.00  0.00     0.014 A 
ATOM     31  C   UNL     1      -2.342  -9.972   5.470  1.00  0.00     0.014 A 
ATOM     32  C   UNL     1      -2.826  -9.323   8.133  1.00  0.00     0.010 A 
ATOM     33  C   UNL     1      -3.641 -10.005   5.965  1.00  0.00     0.010 A 
ATOM     34  C   UNL     1      -3.899  -9.695   7.307  1.00  0.00    -0.014 A 
BRANCH  34  35
ATOM     35  C   UNL     1      -5.292  -9.785   7.820  1.00  0.00     0.031 A 
ATOM     36  C   UNL     1      -6.043 -11.090   7.734  1.00  0.00     0.074 A 
ATOM     37  C   UNL     1      -5.907  -8.680   8.288  1.00  0.00     0.049 A 
ATOM     38  N   UNL     1      -7.289 -11.348   8.038  1.00  0.00    -0.248 NA
ATOM     39  C   UNL     1      -5.307 -12.250   7.203  1.00  0.00     0.031 C 
ATOM     40  C   UNL     1      -5.306  -7.346   8.370  1.00  0.00     0.029 A 
ATOM     41  N   UNL     1      -7.178  -8.498   8.774  1.00  0.00    -0.354 N 
ATOM     42  C   UNL     1      -7.489 -12.686   7.716  1.00  0.00     0.074 A 
ATOM     43  C   UNL     1      -6.258 -13.169   7.134  1.00  0.00     0.031 C 
ATOM     44  C   UNL     1      -6.195  -6.493   8.903  1.00  0.00     0.029 A 
ATOM     45  C   UNL     1      -7.444  -7.204   9.158  1.00  0.00     0.049 A 
ATOM     46  H   UNL     1      -7.837  -9.226   8.842  1.00  0.00     0.167 HD
ATOM     47  C   UNL     1      -8.589 -13.451   7.914  1.00  0.00     0.037 A 
ATOM     48  C   UNL     1      -8.569  -6.649   9.649  1.00  0.00     0.037 A 
ATOM     49  C   UNL     1      -9.800 -12.971   8.525  1.00  0.00     0.049 A 
ATOM     50  C   UNL     1      -9.779  -7.520   9.861  1.00  0.00     0.074 A 
ATOM     51  C   UNL     1     -10.948 -13.679   8.832  1.00  0.00     0.029 A 
ATOM     52  N   UNL     1     -10.021 -11.659   8.922  1.00  0.00    -0.354 N 
ATOM     53  N   UNL     1      -9.927  -8.800   9.614  1.00  0.00    -0.248 NA
ATOM     54  C   UNL     1     -10.973  -6.874  10.422  1.00  0.00     0.031 C 
ATOM     55  C   UNL     1     -11.883 -12.786   9.365  1.00  0.00     0.029 A 
ATOM     56  C   UNL     1     -11.296 -11.533   9.447  1.00  0.00     0.049 A 
ATOM     57  H   UNL     1      -9.368 -10.927   8.842  1.00  0.00     0.167 HD
ATOM     58  C   UNL     1     -11.219  -9.119  10.020  1.00  0.00     0.074 A 
ATOM     59  C   UNL     1     -11.805  -7.900  10.538  1.00  0.00     0.031 C 
ATOM     60  C   UNL     1     -11.861 -10.313   9.969  1.00  0.00     0.037 A 
BRANCH  47  61
ATOM     61  C   UNL     1      -8.531 -14.890   7.472  1.00  0.00     0.058 A 
ATOM     62  C   UNL     1      -7.709 -15.830   8.115  1.00  0.00     0.135 A 
ATOM     63  C   UNL     1      -9.336 -15.345   6.414  1.00  0.00     0.135 A 
ATOM     64  F   UNL     1      -6.906 -15.450   9.122  1.00  0.00    -0.206 F 
ATOM     65  C   UNL     1      -7.662 -17.159   7.706  1.00  0.00     0.059 A 
ATOM     66  C   UNL     1      -9.330 -16.677   6.009  1.00  0.00     0.059 A 
ATOM     67  F   UNL     1     -10.140 -14.491   5.761  1.00  0.00    -0.206 F 
ATOM     68  C   UNL     1      -8.478 -17.573   6.653  1.00  0.00     0.060 A 
BRANCH  68  69
ATOM     69  S   UNL     1      -8.412 -19.303   6.143  1.00  0.00     0.124 S 
ATOM     70  O   UNL     1      -7.102 -19.367   5.501  1.00  0.00    -0.237 OA
ATOM     71  O   UNL     1      -8.529 -20.007   7.416  1.00  0.00    -0.237 OA
ATOM     72  O   UNL     1      -9.556 -19.439   5.247  1.00  0.00    -0.744 OA
ENDBRANCH  68  69
ENDBRANCH  47  61
BRANCH  48  73
ATOM     73  C   UNL     1      -8.598  -5.202   9.998  1.00  0.00     0.058 A 
ATOM     74  C   UNL     1      -8.682  -4.784  11.335  1.00  0.00     0.135 A 
ATOM     75  C   UNL     1      -8.532  -4.210   9.008  1.00  0.00     0.135 A 
ATOM     76  F   UNL     1      -8.754  -5.694  12.319  1.00  0.00    -0.206 F 
ATOM     77  C   UNL     1      -8.721  -3.436  11.678  1.00  0.00     0.059 A 
ATOM     78  C   UNL     1      -8.539  -2.855   9.328  1.00  0.00     0.059 A 
ATOM     79  F   UNL     1      -8.432  -4.554   7.715  1.00  0.00    -0.206 F 
ATOM     80  C   UNL     1      -8.646  -2.478  10.665  1.00  0.00     0.060 A 
BRANCH  80  81
ATOM     81  S   UNL     1      -8.653  -0.732  11.125  1.00  0.00     0.124 S 
ATOM     82  O   UNL     1     -10.037  -0.544  11.546  1.00  0.00    -0.237 OA
ATOM     83  O   UNL     1      -7.652  -0.691  12.186  1.00  0.00    -0.237 OA
ATOM     84  O   UNL     1      -8.273  -0.057   9.888  1.00  0.00    -0.744 OA
ENDBRANCH  80  81
ENDBRANCH  48  73
BRANCH  60  85
ATOM     85  C   UNL     1     -13.258 -10.374  10.525  1.00  0.00     0.058 A 
ATOM     86  C   UNL     1     -14.344  -9.774   9.869  1.00  0.00     0.135 A 
ATOM     87  C   UNL     1     -13.519 -11.092  11.703  1.00  0.00     0.135 A 
ATOM     88  F   UNL     1     -14.149  -9.071   8.742  1.00  0.00    -0.206 F 
ATOM     89  C   UNL     1     -15.636  -9.863  10.375  1.00  0.00     0.059 A 
ATOM     90  C   UNL     1     -14.808 -11.222  12.210  1.00  0.00     0.059 A 
ATOM     91  F   UNL     1     -12.518 -11.695  12.364  1.00  0.00    -0.206 F 
ATOM     92  C   UNL     1     -15.859 -10.593  11.545  1.00  0.00     0.060 A 
BRANCH  92  93
ATOM     93  S   UNL     1     -17.546 -10.729  12.170  1.00  0.00     0.124 S 
ATOM     94  O   UNL     1     -17.780  -9.384  12.684  1.00  0.00    -0.237 OA
ATOM     95  O   UNL     1     -18.295 -11.089  10.970  1.00  0.00    -0.237 OA
ATOM     96  O   UNL     1     -17.451 -11.779  13.181  1.00  0.00    -0.744 OA
ENDBRANCH  92  93
ENDBRANCH  60  85
ENDBRANCH  34  35
ENDBRANCH  26  29
ENDBRANCH  24  25
ENDBRANCH   1  24
TORSDOF 19
