REMARK SMILES O=C(NCCCNC(=O)c1ccc2nc(-c3c[nH]nc3-c3ccc(F)cc3F)[nH]c2c1)c1ccc(-c2c3nc(c(-c4c(F)cc(S(=O)(=O)[O-])cc4F)c4ccc([nH]4)c(-c4c(F)cc(S(=O)(=O)[O-])cc4F)c4nc(c(-c5c(F)cc(S(=O)(=O)[O-])cc5F)c5ccc2[nH]5)C=C4)C=C3)cc1
REMARK SMILES IDX 4 1 3 2 1 3 2 4 32 6 33 7 97 8 34 9 96 10 35 11 36 12 37 13
REMARK SMILES IDX 90 14 38 15 95 16 89 17 91 18 39 19 94 20 88 21 87 22 40 24
REMARK SMILES IDX 74 25 53 26 73 27 54 28 57 29 72 30 92 31 55 32 56 33 71 35
REMARK SMILES IDX 93 36 58 37 41 38 42 39 51 40 43 41 44 42 50 43 52 44 45 45
REMARK SMILES IDX 46 46 47 47 48 48 49 49 75 50 76 51 85 52 77 53 78 54 84 55
REMARK SMILES IDX 86 56 79 57 80 58 81 59 82 60 83 61 59 62 60 63 69 64 61 65
REMARK SMILES IDX 62 66 68 67 70 68 63 69 64 70 65 71 66 72 67 73 5 74 6 75
REMARK SMILES IDX 7 76 8 77 9 79 10 80 11 81 31 82 12 83 30 84 13 85 29 86
REMARK SMILES IDX 14 87 15 88 16 90 17 91 20 92 18 93 19 94 21 96 22 97 27 98
REMARK SMILES IDX 23 99 26 100 28 101 24 102 25 103
REMARK H PARENT 3 5 91 23 57 34 7 78 29 89 18 95
REMARK Flexibility Score: inf
ROOT
ATOM      1  C   UNL     1       4.506  -0.703   1.201  1.00  0.00     0.118 C 
ENDROOT
BRANCH   1   2
ATOM      2  N   UNL     1       3.074  -0.737   0.940  1.00  0.00    -0.352 N 
ATOM      3  O   UNL     1       1.098  -0.076   0.109  1.00  0.00    -0.269 OA
ATOM      4  C   UNL     1       2.322  -0.073   0.004  1.00  0.00     0.251 C 
ATOM      5  H   UNL     1       2.562  -1.334   1.532  1.00  0.00     0.163 HD
BRANCH   4   6
ATOM      6  C   UNL     1       2.968   0.648  -1.113  1.00  0.00     0.039 A 
ATOM      7  C   UNL     1       4.052   0.097  -1.800  1.00  0.00     0.014 A 
ATOM      8  C   UNL     1       2.437   1.876  -1.520  1.00  0.00     0.014 A 
ATOM      9  C   UNL     1       4.684   0.824  -2.805  1.00  0.00     0.010 A 
ATOM     10  C   UNL     1       3.021   2.569  -2.583  1.00  0.00     0.010 A 
ATOM     11  C   UNL     1       4.164   2.059  -3.218  1.00  0.00    -0.014 A 
BRANCH  11  12
ATOM     12  C   UNL     1       4.776   2.778  -4.363  1.00  0.00     0.031 A 
ATOM     13  C   UNL     1       5.421   4.120  -4.172  1.00  0.00     0.074 A 
ATOM     14  C   UNL     1       4.719   2.219  -5.587  1.00  0.00     0.049 A 
ATOM     15  N   UNL     1       5.944   4.917  -5.069  1.00  0.00    -0.248 NA
ATOM     16  C   UNL     1       5.480   4.641  -2.798  1.00  0.00     0.031 C 
ATOM     17  C   UNL     1       4.109   0.923  -5.890  1.00  0.00     0.029 A 
ATOM     18  N   UNL     1       5.169   2.668  -6.802  1.00  0.00    -0.354 N 
ATOM     19  C   UNL     1       6.367   6.045  -4.376  1.00  0.00     0.074 A 
ATOM     20  C   UNL     1       6.026   5.836  -2.985  1.00  0.00     0.031 C 
ATOM     21  C   UNL     1       4.237   0.672  -7.201  1.00  0.00     0.029 A 
ATOM     22  C   UNL     1       4.880   1.815  -7.841  1.00  0.00     0.049 A 
ATOM     23  H   UNL     1       5.652   3.517  -6.919  1.00  0.00     0.167 HD
ATOM     24  C   UNL     1       6.984   7.149  -4.861  1.00  0.00     0.037 A 
ATOM     25  C   UNL     1       5.076   1.948  -9.167  1.00  0.00     0.037 A 
ATOM     26  C   UNL     1       7.329   7.334  -6.247  1.00  0.00     0.049 A 
ATOM     27  C   UNL     1       5.735   3.190  -9.688  1.00  0.00     0.074 A 
ATOM     28  C   UNL     1       8.008   8.390  -6.829  1.00  0.00     0.029 A 
ATOM     29  N   UNL     1       7.007   6.453  -7.271  1.00  0.00    -0.354 N 
ATOM     30  N   UNL     1       6.170   4.228  -9.014  1.00  0.00    -0.248 NA
ATOM     31  C   UNL     1       5.925   3.289 -11.140  1.00  0.00     0.031 C 
ATOM     32  C   UNL     1       8.052   8.172  -8.210  1.00  0.00     0.029 A 
ATOM     33  C   UNL     1       7.446   6.956  -8.484  1.00  0.00     0.049 A 
ATOM     34  H   UNL     1       6.537   5.596  -7.151  1.00  0.00     0.167 HD
ATOM     35  C   UNL     1       6.699   5.099  -9.958  1.00  0.00     0.074 A 
ATOM     36  C   UNL     1       6.533   4.465 -11.251  1.00  0.00     0.031 C 
ATOM     37  C   UNL     1       7.273   6.312  -9.765  1.00  0.00     0.037 A 
BRANCH  24  38
ATOM     38  C   UNL     1       7.295   8.257  -3.893  1.00  0.00     0.058 A 
ATOM     39  C   UNL     1       6.590   9.471  -3.955  1.00  0.00     0.135 A 
ATOM     40  C   UNL     1       8.298   8.134  -2.918  1.00  0.00     0.135 A 
ATOM     41  F   UNL     1       5.624   9.646  -4.870  1.00  0.00    -0.206 F 
ATOM     42  C   UNL     1       6.857  10.519  -3.078  1.00  0.00     0.059 A 
ATOM     43  C   UNL     1       8.563   9.159  -2.014  1.00  0.00     0.059 A 
ATOM     44  F   UNL     1       8.996   6.993  -2.806  1.00  0.00    -0.206 F 
ATOM     45  C   UNL     1       7.833  10.345  -2.098  1.00  0.00     0.060 A 
BRANCH  45  46
ATOM     46  S   UNL     1       8.167  11.649  -0.895  1.00  0.00     0.124 S 
ATOM     47  O   UNL     1       7.606  11.069   0.322  1.00  0.00    -0.237 OA
ATOM     48  O   UNL     1       9.622  11.746  -0.937  1.00  0.00    -0.237 OA
ATOM     49  O   UNL     1       7.448  12.801  -1.430  1.00  0.00    -0.744 OA
ENDBRANCH  45  46
ENDBRANCH  24  38
BRANCH  25  50
ATOM     50  C   UNL     1       4.626   0.856 -10.067  1.00  0.00     0.058 A 
ATOM     51  C   UNL     1       3.259   0.612 -10.277  1.00  0.00     0.135 A 
ATOM     52  C   UNL     1       5.546  -0.035 -10.633  1.00  0.00     0.135 A 
ATOM     53  F   UNL     1       2.340   1.429  -9.738  1.00  0.00    -0.206 F 
ATOM     54  C   UNL     1       2.815  -0.504 -10.979  1.00  0.00     0.059 A 
ATOM     55  C   UNL     1       5.127  -1.147 -11.358  1.00  0.00     0.059 A 
ATOM     56  F   UNL     1       6.862   0.161 -10.464  1.00  0.00    -0.206 F 
ATOM     57  C   UNL     1       3.758  -1.382 -11.509  1.00  0.00     0.060 A 
BRANCH  57  58
ATOM     58  S   UNL     1       3.231  -2.894 -12.345  1.00  0.00     0.124 S 
ATOM     59  O   UNL     1       3.624  -2.622 -13.723  1.00  0.00    -0.237 OA
ATOM     60  O   UNL     1       4.010  -3.913 -11.648  1.00  0.00    -0.237 OA
ATOM     61  O   UNL     1       1.793  -2.934 -12.094  1.00  0.00    -0.744 OA
ENDBRANCH  57  58
ENDBRANCH  25  50
BRANCH  37  62
ATOM     62  C   UNL     1       7.789   7.043 -10.971  1.00  0.00     0.058 A 
ATOM     63  C   UNL     1       9.172   7.165 -11.186  1.00  0.00     0.135 A 
ATOM     64  C   UNL     1       6.925   7.725 -11.840  1.00  0.00     0.135 A 
ATOM     65  F   UNL     1      10.039   6.535 -10.378  1.00  0.00    -0.206 F 
ATOM     66  C   UNL     1       9.683   7.967 -12.201  1.00  0.00     0.059 A 
ATOM     67  C   UNL     1       7.414   8.516 -12.874  1.00  0.00     0.059 A 
ATOM     68  F   UNL     1       5.595   7.629 -11.683  1.00  0.00    -0.206 F 
ATOM     69  C   UNL     1       8.796   8.642 -13.037  1.00  0.00     0.060 A 
BRANCH  69  70
ATOM     70  S   UNL     1       9.415   9.747 -14.325  1.00  0.00     0.124 S 
ATOM     71  O   UNL     1       9.062   9.015 -15.537  1.00  0.00    -0.237 OA
ATOM     72  O   UNL     1       8.655  10.968 -14.076  1.00  0.00    -0.237 OA
ATOM     73  O   UNL     1      10.844   9.835 -14.040  1.00  0.00    -0.744 OA
ENDBRANCH  69  70
ENDBRANCH  37  62
ENDBRANCH  11  12
ENDBRANCH   4   6
ENDBRANCH   1   2
BRANCH   1  74
ATOM     74  C   UNL     1       4.842   0.002   2.511  1.00  0.00     0.042 C 
BRANCH  74  75
ATOM     75  C   UNL     1       4.234  -0.662   3.740  1.00  0.00     0.118 C 
BRANCH  75  76
ATOM     76  N   UNL     1       4.727  -2.020   3.926  1.00  0.00    -0.352 N 
ATOM     77  C   UNL     1       5.657  -2.481   4.818  1.00  0.00     0.251 C 
ATOM     78  H   UNL     1       4.338  -2.699   3.328  1.00  0.00     0.163 HD
ATOM     79  O   UNL     1       6.121  -3.614   4.720  1.00  0.00    -0.269 OA
BRANCH  77  80
ATOM     80  C   UNL     1       6.108  -1.602   5.910  1.00  0.00     0.042 A 
ATOM     81  C   UNL     1       5.176  -1.124   6.841  1.00  0.00     0.016 A 
ATOM     82  C   UNL     1       7.475  -1.298   5.998  1.00  0.00     0.042 A 
ATOM     83  C   UNL     1       5.588  -0.307   7.898  1.00  0.00     0.031 A 
ATOM     84  C   UNL     1       7.846  -0.460   7.049  1.00  0.00     0.067 A 
ATOM     85  C   UNL     1       6.950   0.006   8.005  1.00  0.00     0.089 A 
ATOM     86  N   UNL     1       9.046   0.098   7.415  1.00  0.00    -0.338 N 
ATOM     87  N   UNL     1       7.598   0.723   8.970  1.00  0.00    -0.228 NA
ATOM     88  C   UNL     1       8.857   0.779   8.590  1.00  0.00     0.142 A 
ATOM     89  H   UNL     1       9.893   0.023   6.920  1.00  0.00     0.168 HD
BRANCH  88  90
ATOM     90  C   UNL     1       9.913   1.470   9.362  1.00  0.00     0.063 A 
ATOM     91  C   UNL     1      11.089   1.981   8.871  1.00  0.00     0.117 A 
ATOM     92  C   UNL     1       9.925   1.739  10.759  1.00  0.00     0.106 A 
ATOM     93  N   UNL     1      11.686   2.591   9.937  1.00  0.00    -0.284 N 
ATOM     94  N   UNL     1      11.041   2.406  11.101  1.00  0.00    -0.175 NA
ATOM     95  H   UNL     1      12.514   3.118   9.860  1.00  0.00     0.189 HD
BRANCH  92  96
ATOM     96  C   UNL     1       8.985   1.255  11.761  1.00  0.00     0.039 A 
ATOM     97  C   UNL     1       8.788  -0.130  11.906  1.00  0.00     0.016 A 
ATOM     98  C   UNL     1       8.254   2.131  12.567  1.00  0.00     0.135 A 
ATOM     99  C   UNL     1       7.866  -0.620  12.832  1.00  0.00     0.040 A 
ATOM    100  C   UNL     1       7.335   1.646  13.495  1.00  0.00     0.079 A 
ATOM    101  F   UNL     1       8.399   3.459  12.452  1.00  0.00    -0.206 F 
ATOM    102  C   UNL     1       7.148   0.275  13.617  1.00  0.00     0.126 A 
ATOM    103  F   UNL     1       6.261  -0.196  14.504  1.00  0.00    -0.207 F 
ENDBRANCH  92  96
ENDBRANCH  88  90
ENDBRANCH  77  80
ENDBRANCH  75  76
ENDBRANCH  74  75
ENDBRANCH   1  74
TORSDOF 15
