REMARK SMILES O=C(CCC(=O)c1c[nH]c2ccccc12)NCCCNC(=O)c1ccc(-c2c3nc(c(-c4c(F)cc(S(=O)(=O)[O-])cc4F)c4ccc([nH]4)c(-c4c(F)cc(S(=O)(=O)[O-])cc4F)c4nc(c(-c5c(F)cc(S(=O)(=O)[O-])cc5F)c5ccc2[nH]5)C=C4)C=C3)cc1
REMARK SMILES IDX 18 1 17 2 16 3 1 4 2 5 3 7 4 8 5 9 6 10 7 11 8 12 15 13 9 14
REMARK SMILES IDX 10 15 14 16 11 18 13 19 12 20 19 21 20 22 21 23 22 25 23 26
REMARK SMILES IDX 24 27 88 28 25 29 87 30 26 31 27 32 28 33 81 34 29 35 86 36
REMARK SMILES IDX 80 37 82 38 30 39 85 40 79 41 78 42 31 44 65 45 44 46 64 47
REMARK SMILES IDX 45 48 48 49 63 50 83 51 46 52 47 53 62 55 84 56 49 57 32 58
REMARK SMILES IDX 33 59 42 60 34 61 35 62 41 63 43 64 36 65 37 66 38 67 39 68
REMARK SMILES IDX 40 69 66 70 67 71 76 72 68 73 69 74 75 75 77 76 70 77 71 78
REMARK SMILES IDX 72 79 73 80 74 81 50 82 51 83 60 84 52 85 53 86 59 87 61 88
REMARK SMILES IDX 54 89 55 90 56 91 57 92 58 93
REMARK H PARENT 16 6 9 17 20 24 82 43 48 54
REMARK Flexibility Score: inf
ROOT
ATOM      1  C   UNL     1       2.958   0.358  -3.441  1.00  0.00     0.042 C 
ENDROOT
BRANCH   1   2
ATOM      2  C   UNL     1       1.659  -0.571  -1.931  1.00  0.00     0.117 C 
BRANCH   2   3
ATOM      3  N   UNL     1       1.926  -0.987  -0.387  1.00  0.00    -0.356 N 
ATOM      4  O   UNL     1       0.931   0.654   0.857  1.00  0.00    -0.275 OA
ATOM      5  C   UNL     1       1.818  -0.183   0.716  1.00  0.00     0.220 C 
ATOM      6  H   UNL     1       2.196  -1.920  -0.225  1.00  0.00     0.163 HD
BRANCH   5   7
ATOM      7  C   UNL     1       3.006  -0.238   1.681  1.00  0.00     0.108 C 
BRANCH   7   8
ATOM      8  C   UNL     1       4.078  -1.310   1.496  1.00  0.00     0.091 C 
BRANCH   8   9
ATOM      9  C   UNL     1       5.100  -1.041   0.382  1.00  0.00     0.165 C 
ATOM     10  O   UNL     1       6.257  -0.715   0.632  1.00  0.00    -0.294 OA
BRANCH   9  11
ATOM     11  C   UNL     1       4.657  -1.318  -0.977  1.00  0.00     0.043 A 
ATOM     12  C   UNL     1       4.837  -2.529  -1.646  1.00  0.00     0.095 A 
ATOM     13  C   UNL     1       3.741  -0.529  -1.722  1.00  0.00     0.010 A 
ATOM     14  N   UNL     1       3.994  -2.729  -2.737  1.00  0.00    -0.360 N 
ATOM     15  C   UNL     1       3.149  -1.664  -2.926  1.00  0.00     0.046 A 
ATOM     16  C   UNL     1       2.882   1.065  -1.508  1.00  0.00     0.011 A 
ATOM     17  H   UNL     1       4.004  -3.535  -3.303  1.00  0.00     0.166 HD
ATOM     18  C   UNL     1       1.713  -1.274  -3.941  1.00  0.00     0.027 A 
ATOM     19  C   UNL     1       1.411   1.456  -2.470  1.00  0.00     0.001 A 
ATOM     20  C   UNL     1       0.852   0.287  -3.693  1.00  0.00     0.002 A 
ENDBRANCH   9  11
ENDBRANCH   8   9
ENDBRANCH   7   8
ENDBRANCH   5   7
ENDBRANCH   2   3
ENDBRANCH   1   2
BRANCH   1  21
ATOM     21  C   UNL     1       4.642   0.473  -3.753  1.00  0.00     0.118 C 
BRANCH  21  22
ATOM     22  N   UNL     1       5.243  -0.582  -4.569  1.00  0.00    -0.352 N 
ATOM     23  C   UNL     1       5.632  -0.591  -5.883  1.00  0.00     0.251 C 
ATOM     24  H   UNL     1       5.395  -1.430  -4.093  1.00  0.00     0.163 HD
ATOM     25  O   UNL     1       5.851  -1.661  -6.446  1.00  0.00    -0.269 OA
BRANCH  23  26
ATOM     26  C   UNL     1       5.822   0.684  -6.603  1.00  0.00     0.039 A 
ATOM     27  C   UNL     1       5.446   0.790  -7.944  1.00  0.00     0.014 A 
ATOM     28  C   UNL     1       6.424   1.765  -5.955  1.00  0.00     0.014 A 
ATOM     29  C   UNL     1       5.615   2.005  -8.614  1.00  0.00     0.010 A 
ATOM     30  C   UNL     1       6.501   2.995  -6.589  1.00  0.00     0.010 A 
ATOM     31  C   UNL     1       6.115   3.124  -7.930  1.00  0.00    -0.014 A 
BRANCH  31  32
ATOM     32  C   UNL     1       6.291   4.446  -8.577  1.00  0.00     0.031 A 
ATOM     33  C   UNL     1       7.669   5.048  -8.645  1.00  0.00     0.074 A 
ATOM     34  C   UNL     1       5.211   5.147  -8.972  1.00  0.00     0.049 A 
ATOM     35  N   UNL     1       8.027   6.266  -8.953  1.00  0.00    -0.248 NA
ATOM     36  C   UNL     1       8.790   4.171  -8.266  1.00  0.00     0.031 C 
ATOM     37  C   UNL     1       3.825   4.680  -8.907  1.00  0.00     0.029 A 
ATOM     38  N   UNL     1       5.109   6.418  -9.477  1.00  0.00    -0.354 N 
ATOM     39  C   UNL     1       9.404   6.314  -8.761  1.00  0.00     0.074 A 
ATOM     40  C   UNL     1       9.810   5.016  -8.269  1.00  0.00     0.031 C 
ATOM     41  C   UNL     1       3.012   5.647  -9.361  1.00  0.00     0.029 A 
ATOM     42  C   UNL     1       3.813   6.817  -9.706  1.00  0.00     0.049 A 
ATOM     43  H   UNL     1       5.889   6.991  -9.659  1.00  0.00     0.167 HD
ATOM     44  C   UNL     1      10.252   7.343  -8.992  1.00  0.00     0.037 A 
ATOM     45  C   UNL     1       3.327   8.001 -10.127  1.00  0.00     0.037 A 
ATOM     46  C   UNL     1       9.835   8.610  -9.530  1.00  0.00     0.049 A 
ATOM     47  C   UNL     1       4.293   9.115 -10.424  1.00  0.00     0.074 A 
ATOM     48  C   UNL     1      10.612   9.704  -9.865  1.00  0.00     0.029 A 
ATOM     49  N   UNL     1       8.520   8.946  -9.826  1.00  0.00    -0.354 N 
ATOM     50  N   UNL     1       5.597   9.135 -10.275  1.00  0.00    -0.248 NA
ATOM     51  C   UNL     1       3.729  10.364 -10.952  1.00  0.00     0.031 C 
ATOM     52  C   UNL     1       9.765  10.711 -10.340  1.00  0.00     0.029 A 
ATOM     53  C   UNL     1       8.465  10.229 -10.341  1.00  0.00     0.049 A 
ATOM     54  H   UNL     1       7.743   8.357  -9.690  1.00  0.00     0.167 HD
ATOM     55  C   UNL     1       6.013  10.382 -10.725  1.00  0.00     0.074 A 
ATOM     56  C   UNL     1       4.822  11.090 -11.150  1.00  0.00     0.031 C 
ATOM     57  C   UNL     1       7.266  10.896 -10.784  1.00  0.00     0.037 A 
BRANCH  44  58
ATOM     58  C   UNL     1      11.709   7.136  -8.674  1.00  0.00     0.058 A 
ATOM     59  C   UNL     1      12.511   6.263  -9.426  1.00  0.00     0.135 A 
ATOM     60  C   UNL     1      12.317   7.833  -7.616  1.00  0.00     0.135 A 
ATOM     61  F   UNL     1      11.980   5.560 -10.439  1.00  0.00    -0.206 F 
ATOM     62  C   UNL     1      13.853   6.061  -9.120  1.00  0.00     0.059 A 
ATOM     63  C   UNL     1      13.665   7.669  -7.311  1.00  0.00     0.059 A 
ATOM     64  F   UNL     1      11.598   8.681  -6.863  1.00  0.00    -0.206 F 
ATOM     65  C   UNL     1      14.421   6.767  -8.059  1.00  0.00     0.060 A 
BRANCH  65  66
ATOM     66  S   UNL     1      16.164   6.494  -7.676  1.00  0.00     0.124 S 
ATOM     67  O   UNL     1      16.119   5.183  -7.034  1.00  0.00    -0.237 OA
ATOM     68  O   UNL     1      16.785   6.529  -8.996  1.00  0.00    -0.237 OA
ATOM     69  O   UNL     1      16.499   7.611  -6.799  1.00  0.00    -0.744 OA
ENDBRANCH  65  66
ENDBRANCH  44  58
BRANCH  45  70
ATOM     70  C   UNL     1       1.864   8.174 -10.325  1.00  0.00     0.058 A 
ATOM     71  C   UNL     1       1.320   8.247 -11.616  1.00  0.00     0.135 A 
ATOM     72  C   UNL     1       0.978   8.236  -9.238  1.00  0.00     0.135 A 
ATOM     73  F   UNL     1       2.127   8.194 -12.686  1.00  0.00    -0.206 F 
ATOM     74  C   UNL     1      -0.048   8.389 -11.825  1.00  0.00     0.059 A 
ATOM     75  C   UNL     1      -0.397   8.354  -9.422  1.00  0.00     0.059 A 
ATOM     76  F   UNL     1       1.445   8.149  -7.983  1.00  0.00    -0.206 F 
ATOM     77  C   UNL     1      -0.899   8.438 -10.720  1.00  0.00     0.060 A 
BRANCH  77  78
ATOM     78  S   UNL     1      -2.679   8.567 -11.005  1.00  0.00     0.124 S 
ATOM     79  O   UNL     1      -2.810   9.958 -11.420  1.00  0.00    -0.237 OA
ATOM     80  O   UNL     1      -2.896   7.567 -12.046  1.00  0.00    -0.237 OA
ATOM     81  O   UNL     1      -3.251   8.238  -9.703  1.00  0.00    -0.744 OA
ENDBRANCH  77  78
ENDBRANCH  45  70
BRANCH  57  82
ATOM     82  C   UNL     1       7.428  12.262 -11.384  1.00  0.00     0.058 A 
ATOM     83  C   UNL     1       7.086  13.424 -10.678  1.00  0.00     0.135 A 
ATOM     84  C   UNL     1       8.015  12.407 -12.652  1.00  0.00     0.135 A 
ATOM     85  F   UNL     1       6.516  13.336  -9.466  1.00  0.00    -0.206 F 
ATOM     86  C   UNL     1       7.315  14.688 -11.212  1.00  0.00     0.059 A 
ATOM     87  C   UNL     1       8.274  13.660 -13.195  1.00  0.00     0.059 A 
ATOM     88  F   UNL     1       8.367  11.323 -13.362  1.00  0.00    -0.206 F 
ATOM     89  C   UNL     1       7.915  14.795 -12.469  1.00  0.00     0.060 A 
BRANCH  89  90
ATOM     90  S   UNL     1       8.264  16.440 -13.124  1.00  0.00     0.124 S 
ATOM     91  O   UNL     1       6.934  16.885 -13.527  1.00  0.00    -0.237 OA
ATOM     92  O   UNL     1       8.838  17.122 -11.968  1.00  0.00    -0.237 OA
ATOM     93  O   UNL     1       9.198  16.180 -14.216  1.00  0.00    -0.744 OA
ENDBRANCH  89  90
ENDBRANCH  57  82
ENDBRANCH  31  32
ENDBRANCH  23  26
ENDBRANCH  21  22
ENDBRANCH   1  21
TORSDOF 16
