REMARK SMILES COCC[C@@H](C)NC(=O)N[C@@H]1C=C[C@@H](C(=O)NCCCNC(=O)c2ccc(-c3c4nc(c(-c5c(F)cc(S(=O)(=O)[O-])cc5F)c5ccc([nH]5)c(-c5c(F)cc(S(=O)(=O)[O-])cc5F)c5nc(c(-c6c(F)cc(S(=O)(=O)[O-])cc6F)c6ccc3[nH]6)C=C5)C=C4)cc2)C1
REMARK SMILES IDX 18 1 17 2 15 3 16 4 14 6 11 7 12 8 90 9 13 10 10 11 7 12
REMARK SMILES IDX 8 13 9 15 5 17 6 18 4 19 3 20 2 21 1 22 19 23 20 24 21 25
REMARK SMILES IDX 22 26 23 28 24 29 25 30 89 31 26 32 88 33 27 34 28 35 29 36
REMARK SMILES IDX 82 37 30 38 87 39 81 40 83 41 31 42 86 43 80 44 79 45 32 47
REMARK SMILES IDX 66 48 45 49 65 50 46 51 49 52 64 53 84 54 47 55 48 56 63 58
REMARK SMILES IDX 85 59 50 60 33 61 34 62 43 63 35 64 36 65 42 66 44 67 37 68
REMARK SMILES IDX 38 69 39 70 40 71 41 72 67 73 68 74 77 75 69 76 70 77 76 78
REMARK SMILES IDX 78 79 71 80 72 81 73 82 74 83 75 84 51 85 52 86 61 87 53 88
REMARK SMILES IDX 54 89 60 90 62 91 55 92 56 93 57 94 58 95 59 96
REMARK H PARENT 17 5 7 14 10 16 21 27 83 46 49 57
REMARK Flexibility Score: inf
ROOT
ATOM      1  C   UNL     1       2.837  -0.795   3.261  1.00  0.00     0.117 C 
ENDROOT
BRANCH   1   2
ATOM      2  N   UNL     1       3.897  -1.072   2.320  1.00  0.00    -0.356 N 
ATOM      3  C   UNL     1       3.889  -1.419   1.011  1.00  0.00     0.227 C 
ATOM      4  O   UNL     1       4.996  -1.427   0.455  1.00  0.00    -0.274 OA
ATOM      5  H   UNL     1       4.800  -0.994   2.705  1.00  0.00     0.163 HD
BRANCH   3   6
ATOM      6  C   UNL     1       2.634  -1.698   0.176  1.00  0.00     0.103 C 
ATOM      7  C   UNL     1       0.251  -1.382   0.784  1.00  0.00     0.107 C 
ATOM      8  C   UNL     1       0.790  -0.270  -0.051  1.00  0.00    -0.006 C 
ATOM      9  C   UNL     1       1.408  -2.414   0.760  1.00  0.00     0.047 C 
ATOM     10  C   UNL     1       2.077  -0.423  -0.364  1.00  0.00    -0.016 C 
BRANCH   7  11
ATOM     11  N   UNL     1      -0.980  -1.861   0.201  1.00  0.00    -0.332 N 
ATOM     12  N   UNL     1      -2.621  -0.184   0.586  1.00  0.00    -0.336 N 
ATOM     13  C   UNL     1      -2.211  -1.353   0.074  1.00  0.00     0.315 C 
ATOM     14  H   UNL     1      -3.495   0.092   0.227  1.00  0.00     0.165 HD
ATOM     15  O   UNL     1      -3.031  -1.998  -0.586  1.00  0.00    -0.249 OA
ATOM     16  H   UNL     1      -0.895  -2.761  -0.189  1.00  0.00     0.165 HD
BRANCH  12  17
ATOM     17  C   UNL     1      -2.089   0.784   1.547  1.00  0.00     0.083 C 
ATOM     18  C   UNL     1      -3.081   0.920   2.705  1.00  0.00     0.031 C 
BRANCH  17  19
ATOM     19  C   UNL     1      -1.839   2.143   0.872  1.00  0.00     0.053 C 
BRANCH  19  20
ATOM     20  C   UNL     1      -1.000   3.128   1.692  1.00  0.00     0.162 C 
BRANCH  20  21
ATOM     21  O   UNL     1       0.328   2.659   1.903  1.00  0.00    -0.385 OA
ATOM     22  C   UNL     1       0.533   2.019   3.152  1.00  0.00     0.194 C 
ENDBRANCH  20  21
ENDBRANCH  19  20
ENDBRANCH  17  19
ENDBRANCH  12  17
ENDBRANCH   7  11
ENDBRANCH   3   6
ENDBRANCH   1   2
BRANCH   1  23
ATOM     23  C   UNL     1       2.905  -1.672   4.499  1.00  0.00     0.042 C 
BRANCH  23  24
ATOM     24  C   UNL     1       4.079  -1.344   5.410  1.00  0.00     0.118 C 
BRANCH  24  25
ATOM     25  N   UNL     1       3.961  -0.044   6.062  1.00  0.00    -0.352 N 
ATOM     26  C   UNL     1       4.018   0.284   7.400  1.00  0.00     0.251 C 
ATOM     27  H   UNL     1       3.820   0.715   5.452  1.00  0.00     0.163 HD
ATOM     28  O   UNL     1       3.761   1.428   7.751  1.00  0.00    -0.269 OA
BRANCH  26  29
ATOM     29  C   UNL     1       4.345  -0.754   8.405  1.00  0.00     0.039 A 
ATOM     30  C   UNL     1       3.632  -0.788   9.606  1.00  0.00     0.014 A 
ATOM     31  C   UNL     1       5.325  -1.715   8.153  1.00  0.00     0.014 A 
ATOM     32  C   UNL     1       3.840  -1.839  10.504  1.00  0.00     0.010 A 
ATOM     33  C   UNL     1       5.439  -2.823   8.984  1.00  0.00     0.010 A 
ATOM     34  C   UNL     1       4.706  -2.897  10.176  1.00  0.00    -0.014 A 
BRANCH  34  35
ATOM     35  C   UNL     1       4.859  -4.080  11.065  1.00  0.00     0.031 A 
ATOM     36  C   UNL     1       6.215  -4.449  11.612  1.00  0.00     0.074 A 
ATOM     37  C   UNL     1       3.792  -4.862  11.326  1.00  0.00     0.049 A 
ATOM     38  N   UNL     1       6.554  -5.465  12.364  1.00  0.00    -0.248 NA
ATOM     39  C   UNL     1       7.348  -3.590  11.230  1.00  0.00     0.031 C 
ATOM     40  C   UNL     1       2.443  -4.666  10.787  1.00  0.00     0.029 A 
ATOM     41  N   UNL     1       3.670  -5.982  12.111  1.00  0.00    -0.354 N 
ATOM     42  C   UNL     1       7.933  -5.377  12.523  1.00  0.00     0.074 A 
ATOM     43  C   UNL     1       8.378  -4.254  11.731  1.00  0.00     0.031 C 
ATOM     44  C   UNL     1       1.624  -5.602  11.292  1.00  0.00     0.029 A 
ATOM     45  C   UNL     1       2.391  -6.486  12.163  1.00  0.00     0.049 A 
ATOM     46  H   UNL     1       4.428  -6.388  12.591  1.00  0.00     0.167 HD
ATOM     47  C   UNL     1       8.751  -6.137  13.289  1.00  0.00     0.037 A 
ATOM     48  C   UNL     1       1.890  -7.535  12.844  1.00  0.00     0.037 A 
ATOM     49  C   UNL     1       8.295  -7.224  14.115  1.00  0.00     0.049 A 
ATOM     50  C   UNL     1       2.806  -8.330  13.735  1.00  0.00     0.074 A 
ATOM     51  C   UNL     1       9.028  -8.015  14.981  1.00  0.00     0.029 A 
ATOM     52  N   UNL     1       6.982  -7.667  14.183  1.00  0.00    -0.354 N 
ATOM     53  N   UNL     1       4.096  -8.185  13.930  1.00  0.00    -0.248 NA
ATOM     54  C   UNL     1       2.198  -9.418  14.511  1.00  0.00     0.031 C 
ATOM     55  C   UNL     1       8.165  -8.959  15.549  1.00  0.00     0.029 A 
ATOM     56  C   UNL     1       6.885  -8.724  15.072  1.00  0.00     0.049 A 
ATOM     57  H   UNL     1       6.230  -7.286  13.675  1.00  0.00     0.167 HD
ATOM     58  C   UNL     1       4.446  -9.142  14.876  1.00  0.00     0.074 A 
ATOM     59  C   UNL     1       3.231  -9.851  15.221  1.00  0.00     0.031 C 
ATOM     60  C   UNL     1       5.663  -9.408  15.413  1.00  0.00     0.037 A 
BRANCH  47  61
ATOM     61  C   UNL     1      10.219  -5.802  13.287  1.00  0.00     0.058 A 
ATOM     62  C   UNL     1      10.704  -4.616  13.864  1.00  0.00     0.135 A 
ATOM     63  C   UNL     1      11.155  -6.683  12.722  1.00  0.00     0.135 A 
ATOM     64  F   UNL     1       9.853  -3.728  14.403  1.00  0.00    -0.206 F 
ATOM     65  C   UNL     1      12.058  -4.299  13.849  1.00  0.00     0.059 A 
ATOM     66  C   UNL     1      12.518  -6.401  12.724  1.00  0.00     0.059 A 
ATOM     67  F   UNL     1      10.748  -7.830  12.156  1.00  0.00    -0.206 F 
ATOM     68  C   UNL     1      12.958  -5.198  13.275  1.00  0.00     0.060 A 
BRANCH  68  69
ATOM     69  S   UNL     1      14.712  -4.773  13.268  1.00  0.00     0.124 S 
ATOM     70  O   UNL     1      14.756  -3.739  12.239  1.00  0.00    -0.237 OA
ATOM     71  O   UNL     1      14.928  -4.313  14.636  1.00  0.00    -0.237 OA
ATOM     72  O   UNL     1      15.366  -6.031  12.922  1.00  0.00    -0.744 OA
ENDBRANCH  68  69
ENDBRANCH  47  61
BRANCH  48  73
ATOM     73  C   UNL     1       0.440  -7.857  12.756  1.00  0.00     0.058 A 
ATOM     74  C   UNL     1      -0.417  -7.624  13.843  1.00  0.00     0.135 A 
ATOM     75  C   UNL     1      -0.122  -8.386  11.584  1.00  0.00     0.135 A 
ATOM     76  F   UNL     1       0.073  -7.122  14.986  1.00  0.00    -0.206 F 
ATOM     77  C   UNL     1      -1.774  -7.923  13.780  1.00  0.00     0.059 A 
ATOM     78  C   UNL     1      -1.481  -8.669  11.488  1.00  0.00     0.059 A 
ATOM     79  F   UNL     1       0.650  -8.607  10.509  1.00  0.00    -0.206 F 
ATOM     80  C   UNL     1      -2.298  -8.444  12.596  1.00  0.00     0.060 A 
BRANCH  80  81
ATOM     81  S   UNL     1      -4.070  -8.780  12.507  1.00  0.00     0.124 S 
ATOM     82  O   UNL     1      -4.182  -9.984  13.321  1.00  0.00    -0.237 OA
ATOM     83  O   UNL     1      -4.642  -7.565  13.079  1.00  0.00    -0.237 OA
ATOM     84  O   UNL     1      -4.305  -8.960  11.077  1.00  0.00    -0.744 OA
ENDBRANCH  80  81
ENDBRANCH  48  73
BRANCH  60  85
ATOM     85  C   UNL     1       5.731 -10.477  16.467  1.00  0.00     0.058 A 
ATOM     86  C   UNL     1       5.592 -11.838  16.154  1.00  0.00     0.135 A 
ATOM     87  C   UNL     1       5.973 -10.133  17.807  1.00  0.00     0.135 A 
ATOM     88  F   UNL     1       5.357 -12.220  14.888  1.00  0.00    -0.206 F 
ATOM     89  C   UNL     1       5.653 -12.819  17.138  1.00  0.00     0.059 A 
ATOM     90  C   UNL     1       6.066 -11.099  18.803  1.00  0.00     0.059 A 
ATOM     91  F   UNL     1       6.128  -8.846  18.158  1.00  0.00    -0.206 F 
ATOM     92  C   UNL     1       5.887 -12.438  18.461  1.00  0.00     0.060 A 
BRANCH  92  93
ATOM     93  S   UNL     1       5.974 -13.720  19.730  1.00  0.00     0.124 S 
ATOM     94  O   UNL     1       4.565 -14.063  19.895  1.00  0.00    -0.237 OA
ATOM     95  O   UNL     1       6.804 -14.737  19.092  1.00  0.00    -0.237 OA
ATOM     96  O   UNL     1       6.591 -13.035  20.862  1.00  0.00    -0.744 OA
ENDBRANCH  92  93
ENDBRANCH  60  85
ENDBRANCH  34  35
ENDBRANCH  26  29
ENDBRANCH  24  25
ENDBRANCH  23  24
ENDBRANCH   1  23
TORSDOF 18
