REMARK SMILES Cc1onc2c(=O)n(C)nc(C(=O)NCCCNC(=O)c3ccc(-c4c5nc(c(-c6c(F)cc(S(=O)(=O)[O-])cc6F)c6ccc([nH]6)c(-c6c(F)cc(S(=O)(=O)[O-])cc6F)c6nc(c(-c7c(F)cc(S(=O)(=O)[O-])cc7F)c7ccc4[nH]7)C=C6)C=C5)cc3)c12
REMARK SMILES IDX 18 1 19 2 20 3 17 5 16 6 15 7 14 8 12 9 13 10 11 12 1 13
REMARK SMILES IDX 2 14 3 15 87 16 4 17 5 18 6 19 10 20 7 21 8 22 9 23 21 24
REMARK SMILES IDX 22 25 86 26 23 27 85 28 24 29 25 30 26 31 79 32 27 33 84 34
REMARK SMILES IDX 78 35 80 36 28 37 83 38 77 39 76 40 29 42 63 43 42 44 62 45
REMARK SMILES IDX 43 46 46 47 61 48 81 49 44 50 45 51 60 53 82 54 47 55 30 56
REMARK SMILES IDX 31 57 40 58 32 59 33 60 39 61 41 62 34 63 35 64 36 65 37 66
REMARK SMILES IDX 38 67 64 68 65 69 74 70 66 71 67 72 73 73 75 74 68 75 69 76
REMARK SMILES IDX 70 77 71 78 72 79 48 80 49 81 58 82 50 83 51 84 57 85 59 86
REMARK SMILES IDX 52 87 53 88 54 89 55 90 56 91
REMARK H PARENT 18 4 14 11 80 41 46 52
REMARK Flexibility Score: inf
ROOT
ATOM      1  N   UNL     1      -2.832   6.291  -3.655  1.00  0.00    -0.352 N 
ATOM      2  C   UNL     1      -3.311   7.453  -4.194  1.00  0.00     0.251 C 
ATOM      3  O   UNL     1      -2.776   7.846  -5.232  1.00  0.00    -0.269 OA
ATOM      4  H   UNL     1      -1.926   6.056  -3.962  1.00  0.00     0.163 HD
ENDROOT
BRANCH   1   5
ATOM      5  C   UNL     1      -3.398   5.334  -2.718  1.00  0.00     0.118 C 
BRANCH   5   6
ATOM      6  C   UNL     1      -3.332   3.903  -3.289  1.00  0.00     0.042 C 
BRANCH   6   7
ATOM      7  C   UNL     1      -1.913   3.359  -3.528  1.00  0.00     0.118 C 
BRANCH   7   8
ATOM      8  N   UNL     1      -1.259   2.986  -2.284  1.00  0.00    -0.351 N 
ATOM      9  C   UNL     1      -0.882   1.774  -1.752  1.00  0.00     0.272 C 
ATOM     10  O   UNL     1      -0.474   1.763  -0.594  1.00  0.00    -0.267 OA
ATOM     11  H   UNL     1      -1.043   3.754  -1.706  1.00  0.00     0.163 HD
BRANCH   9  12
ATOM     12  C   UNL     1      -0.930   0.447  -2.530  1.00  0.00     0.161 A 
ATOM     13  C   UNL     1       1.252  -0.381   0.071  1.00  0.00     0.091 C 
ATOM     14  C   UNL     1       0.588  -1.084  -1.045  1.00  0.00     0.144 A 
ATOM     15  O   UNL     1       0.875  -2.419  -1.117  1.00  0.00    -0.360 OA
ATOM     16  C   UNL     1      -0.263  -0.758  -2.078  1.00  0.00     0.083 A 
ATOM     17  N   UNL     1       0.251  -2.976  -2.218  1.00  0.00    -0.074 NA
ATOM     18  C   UNL     1      -0.411  -1.966  -2.789  1.00  0.00     0.183 A 
ATOM     19  C   UNL     1      -1.173  -2.042  -4.013  1.00  0.00     0.296 A 
ATOM     20  N   UNL     1      -1.616   0.383  -3.643  1.00  0.00    -0.164 NA
ATOM     21  O   UNL     1      -1.315  -3.076  -4.674  1.00  0.00    -0.265 OA
ATOM     22  N   UNL     1      -1.711  -0.799  -4.389  1.00  0.00    -0.230 N 
ATOM     23  C   UNL     1      -2.429  -0.717  -5.644  1.00  0.00     0.178 C 
ENDBRANCH   9  12
ENDBRANCH   7   8
ENDBRANCH   6   7
ENDBRANCH   5   6
ENDBRANCH   1   5
BRANCH   2  24
ATOM     24  C   UNL     1      -4.393   8.268  -3.591  1.00  0.00     0.039 A 
ATOM     25  C   UNL     1      -5.184   9.027  -4.468  1.00  0.00     0.014 A 
ATOM     26  C   UNL     1      -4.530   8.459  -2.214  1.00  0.00     0.014 A 
ATOM     27  C   UNL     1      -6.109   9.953  -3.981  1.00  0.00     0.010 A 
ATOM     28  C   UNL     1      -5.462   9.391  -1.726  1.00  0.00     0.010 A 
ATOM     29  C   UNL     1      -6.263  10.142  -2.603  1.00  0.00    -0.014 A 
BRANCH  29  30
ATOM     30  C   UNL     1      -7.362  11.024  -2.140  1.00  0.00     0.031 A 
ATOM     31  C   UNL     1      -8.213  10.465  -1.050  1.00  0.00     0.074 A 
ATOM     32  C   UNL     1      -7.371  12.365  -2.310  1.00  0.00     0.049 A 
ATOM     33  N   UNL     1      -7.845  10.487   0.198  1.00  0.00    -0.248 NA
ATOM     34  C   UNL     1      -9.393   9.643  -1.305  1.00  0.00     0.031 C 
ATOM     35  C   UNL     1      -6.157  13.189  -2.342  1.00  0.00     0.029 A 
ATOM     36  N   UNL     1      -8.399  13.282  -2.241  1.00  0.00    -0.354 N 
ATOM     37  C   UNL     1      -8.712   9.671   0.897  1.00  0.00     0.074 A 
ATOM     38  C   UNL     1      -9.657   9.167  -0.077  1.00  0.00     0.031 C 
ATOM     39  C   UNL     1      -6.501  14.475  -2.115  1.00  0.00     0.029 A 
ATOM     40  C   UNL     1      -7.958  14.598  -2.087  1.00  0.00     0.049 A 
ATOM     41  H   UNL     1      -9.350  13.034  -2.295  1.00  0.00     0.167 HD
ATOM     42  C   UNL     1      -8.610   9.464   2.236  1.00  0.00     0.037 A 
ATOM     43  C   UNL     1      -8.627  15.588  -1.429  1.00  0.00     0.037 A 
ATOM     44  C   UNL     1      -7.581  10.207   2.901  1.00  0.00     0.049 A 
ATOM     45  C   UNL     1      -8.583  15.069  -0.012  1.00  0.00     0.074 A 
ATOM     46  C   UNL     1      -6.280  10.019   3.316  1.00  0.00     0.029 A 
ATOM     47  N   UNL     1      -7.855  11.516   3.225  1.00  0.00    -0.354 N 
ATOM     48  N   UNL     1      -7.564  15.137   0.804  1.00  0.00    -0.248 NA
ATOM     49  C   UNL     1      -9.620  14.115   0.385  1.00  0.00     0.031 C 
ATOM     50  C   UNL     1      -5.718  11.333   3.418  1.00  0.00     0.029 A 
ATOM     51  C   UNL     1      -6.705  12.233   3.018  1.00  0.00     0.049 A 
ATOM     52  H   UNL     1      -8.716  11.871   3.545  1.00  0.00     0.167 HD
ATOM     53  C   UNL     1      -7.705  14.045   1.665  1.00  0.00     0.074 A 
ATOM     54  C   UNL     1      -8.997  13.465   1.357  1.00  0.00     0.031 C 
ATOM     55  C   UNL     1      -6.702  13.566   2.457  1.00  0.00     0.037 A 
BRANCH  42  56
ATOM     56  C   UNL     1      -9.604   8.727   3.037  1.00  0.00     0.058 A 
ATOM     57  C   UNL     1     -10.582   9.470   3.715  1.00  0.00     0.135 A 
ATOM     58  C   UNL     1      -9.490   7.362   3.320  1.00  0.00     0.135 A 
ATOM     59  F   UNL     1     -10.712  10.786   3.471  1.00  0.00    -0.206 F 
ATOM     60  C   UNL     1     -11.387   8.896   4.685  1.00  0.00     0.059 A 
ATOM     61  C   UNL     1     -10.295   6.760   4.286  1.00  0.00     0.059 A 
ATOM     62  F   UNL     1      -8.565   6.615   2.697  1.00  0.00    -0.206 F 
ATOM     63  C   UNL     1     -11.221   7.543   4.980  1.00  0.00     0.060 A 
BRANCH  63  64
ATOM     64  S   UNL     1     -12.208   6.849   6.322  1.00  0.00     0.124 S 
ATOM     65  O   UNL     1     -11.738   7.621   7.468  1.00  0.00    -0.237 OA
ATOM     66  O   UNL     1     -13.566   7.137   5.875  1.00  0.00    -0.237 OA
ATOM     67  O   UNL     1     -11.835   5.438   6.322  1.00  0.00    -0.744 OA
ENDBRANCH  63  64
ENDBRANCH  42  56
BRANCH  43  68
ATOM     68  C   UNL     1      -9.898  16.076  -2.071  1.00  0.00     0.058 A 
ATOM     69  C   UNL     1      -9.892  16.375  -3.449  1.00  0.00     0.135 A 
ATOM     70  C   UNL     1     -11.123  16.272  -1.410  1.00  0.00     0.135 A 
ATOM     71  F   UNL     1      -8.740  16.370  -4.139  1.00  0.00    -0.206 F 
ATOM     72  C   UNL     1     -11.056  16.668  -4.157  1.00  0.00     0.059 A 
ATOM     73  C   UNL     1     -12.309  16.536  -2.098  1.00  0.00     0.059 A 
ATOM     74  F   UNL     1     -11.209  16.186  -0.075  1.00  0.00    -0.206 F 
ATOM     75  C   UNL     1     -12.271  16.692  -3.480  1.00  0.00     0.060 A 
BRANCH  75  76
ATOM     76  S   UNL     1     -13.790  16.845  -4.442  1.00  0.00     0.124 S 
ATOM     77  O   UNL     1     -13.663  18.188  -4.999  1.00  0.00    -0.237 OA
ATOM     78  O   UNL     1     -13.650  15.746  -5.394  1.00  0.00    -0.237 OA
ATOM     79  O   UNL     1     -14.842  16.672  -3.446  1.00  0.00    -0.744 OA
ENDBRANCH  75  76
ENDBRANCH  43  68
BRANCH  55  80
ATOM     80  C   UNL     1      -5.472  14.408   2.548  1.00  0.00     0.058 A 
ATOM     81  C   UNL     1      -5.499  15.610   3.268  1.00  0.00     0.135 A 
ATOM     82  C   UNL     1      -4.243  13.996   2.007  1.00  0.00     0.135 A 
ATOM     83  F   UNL     1      -6.645  16.047   3.816  1.00  0.00    -0.206 F 
ATOM     84  C   UNL     1      -4.343  16.355   3.483  1.00  0.00     0.059 A 
ATOM     85  C   UNL     1      -3.070  14.714   2.229  1.00  0.00     0.059 A 
ATOM     86  F   UNL     1      -4.154  12.862   1.292  1.00  0.00    -0.206 F 
ATOM     87  C   UNL     1      -3.129  15.887   2.979  1.00  0.00     0.060 A 
BRANCH  87  88
ATOM     88  S   UNL     1      -1.621  16.788   3.395  1.00  0.00     0.124 S 
ATOM     89  O   UNL     1      -1.788  18.029   2.646  1.00  0.00    -0.237 OA
ATOM     90  O   UNL     1      -1.722  16.907   4.847  1.00  0.00    -0.237 OA
ATOM     91  O   UNL     1      -0.554  15.910   2.922  1.00  0.00    -0.744 OA
ENDBRANCH  87  88
ENDBRANCH  55  80
ENDBRANCH  29  30
ENDBRANCH   2  24
TORSDOF 13
