REMARK SMILES O=C(C[C@]1(C(=O)NC2CCCCC2)CC(c2ccc([N+](=O)[O-])cc2)=NO1)NCCCNC(=O)c1ccc(-c2c3nc(c(-c4c(F)cc(S(=O)(=O)[O-])cc4F)c4ccc([nH]4)c(-c4c(F)cc(S(=O)(=O)[O-])cc4F)c4nc(c(-c5c(F)cc(S(=O)(=O)[O-])cc5F)c5ccc2[nH]5)C=C4)C=C3)cc1
REMARK SMILES IDX 29 1 28 2 27 3 1 4 2 5 3 7 4 8 14 9 26 10 15 11 25 12 5 13
REMARK SMILES IDX 6 14 7 15 8 17 9 18 13 19 10 20 12 21 11 22 16 23 17 24
REMARK SMILES IDX 24 25 18 26 23 27 19 28 20 29 21 30 22 31 30 32 31 33 32 34
REMARK SMILES IDX 33 36 34 37 35 38 99 39 36 40 98 41 37 42 38 43 39 44 92 45
REMARK SMILES IDX 40 46 97 47 91 48 93 49 41 50 96 51 90 52 89 53 42 55 76 56
REMARK SMILES IDX 55 57 75 58 56 59 59 60 74 61 94 62 57 63 58 64 73 66 95 67
REMARK SMILES IDX 60 68 43 69 44 70 53 71 45 72 46 73 52 74 54 75 47 76 48 77
REMARK SMILES IDX 49 78 50 79 51 80 77 81 78 82 87 83 79 84 80 85 86 86 88 87
REMARK SMILES IDX 81 88 82 89 83 90 84 91 85 92 61 93 62 94 71 95 63 96 64 97
REMARK SMILES IDX 70 98 72 99 65 100 66 101 67 102 68 103 69 104
REMARK H PARENT 27 6 7 16 31 35 93 54 59 65
REMARK Flexibility Score: inf
ROOT
ATOM      1  C   UNL     1       6.210   2.336  -2.486  1.00  0.00     0.042 C 
ENDROOT
BRANCH   1   2
ATOM      2  C   UNL     1       6.609   0.988  -1.910  1.00  0.00     0.117 C 
BRANCH   2   3
ATOM      3  N   UNL     1       5.468   0.204  -1.480  1.00  0.00    -0.356 N 
ATOM      4  O   UNL     1       6.174  -1.740  -2.479  1.00  0.00    -0.275 OA
ATOM      5  C   UNL     1       5.365  -1.132  -1.788  1.00  0.00     0.224 C 
ATOM      6  H   UNL     1       4.754   0.637  -0.959  1.00  0.00     0.163 HD
BRANCH   5   7
ATOM      7  C   UNL     1       4.166  -1.810  -1.192  1.00  0.00     0.162 C 
BRANCH   7   8
ATOM      8  C   UNL     1       4.240  -2.055   0.327  1.00  0.00     0.229 C 
ATOM      9  C   UNL     1       5.532  -1.724   1.084  1.00  0.00     0.123 C 
ATOM     10  O   UNL     1       4.087  -3.458   0.525  1.00  0.00    -0.378 OA
ATOM     11  C   UNL     1       6.120  -3.084   1.150  1.00  0.00     0.092 C 
ATOM     12  N   UNL     1       5.329  -4.042   0.803  1.00  0.00    -0.089 NA
BRANCH   8  13
ATOM     13  C   UNL     1       3.081  -1.255   0.949  1.00  0.00     0.268 C 
ATOM     14  O   UNL     1       3.232  -0.042   1.152  1.00  0.00    -0.270 OA
ATOM     15  N   UNL     1       1.839  -1.774   1.173  1.00  0.00    -0.350 N 
ATOM     16  H   UNL     1       1.153  -1.089   1.344  1.00  0.00     0.163 HD
BRANCH  15  17
ATOM     17  C   UNL     1       1.314  -3.151   1.210  1.00  0.00     0.082 C 
ATOM     18  C   UNL     1       1.393  -3.910  -0.128  1.00  0.00     0.025 C 
ATOM     19  C   UNL     1       1.776  -3.886   2.471  1.00  0.00     0.025 C 
ATOM     20  C   UNL     1       1.859  -5.373  -0.119  1.00  0.00     0.002 C 
ATOM     21  C   UNL     1       1.544  -5.386   2.386  1.00  0.00     0.002 C 
ATOM     22  C   UNL     1       2.313  -5.959   1.213  1.00  0.00     0.000 C 
ENDBRANCH  15  17
ENDBRANCH   8  13
BRANCH  11  23
ATOM     23  C   UNL     1       7.485  -3.354   1.621  1.00  0.00    -0.000 A 
ATOM     24  C   UNL     1       8.197  -4.391   1.004  1.00  0.00     0.017 A 
ATOM     25  C   UNL     1       8.003  -2.704   2.745  1.00  0.00     0.017 A 
ATOM     26  C   UNL     1       9.426  -4.800   1.520  1.00  0.00     0.086 A 
ATOM     27  C   UNL     1       9.229  -3.122   3.277  1.00  0.00     0.086 A 
ATOM     28  C   UNL     1       9.930  -4.175   2.667  1.00  0.00     0.269 A 
BRANCH  28  29
ATOM     29  N   UNL     1      11.183  -4.659   3.260  1.00  0.00     0.062 N 
ATOM     30  O   UNL     1      11.771  -5.589   2.688  1.00  0.00    -0.258 OA
ATOM     31  O   UNL     1      11.572  -4.120   4.306  1.00  0.00    -0.258 OA
ENDBRANCH  28  29
ENDBRANCH  11  23
ENDBRANCH   7   8
ENDBRANCH   5   7
ENDBRANCH   2   3
ENDBRANCH   1   2
BRANCH   1  32
ATOM     32  C   UNL     1       5.491   3.251  -1.504  1.00  0.00     0.118 C 
BRANCH  32  33
ATOM     33  N   UNL     1       6.296   3.579  -0.336  1.00  0.00    -0.352 N 
ATOM     34  C   UNL     1       6.669   4.803   0.164  1.00  0.00     0.251 C 
ATOM     35  H   UNL     1       6.623   2.803   0.174  1.00  0.00     0.163 HD
ATOM     36  O   UNL     1       7.493   4.855   1.071  1.00  0.00    -0.269 OA
BRANCH  34  37
ATOM     37  C   UNL     1       6.099   6.048  -0.399  1.00  0.00     0.039 A 
ATOM     38  C   UNL     1       6.936   7.153  -0.574  1.00  0.00     0.014 A 
ATOM     39  C   UNL     1       4.744   6.142  -0.728  1.00  0.00     0.014 A 
ATOM     40  C   UNL     1       6.424   8.331  -1.125  1.00  0.00     0.010 A 
ATOM     41  C   UNL     1       4.259   7.281  -1.363  1.00  0.00     0.010 A 
ATOM     42  C   UNL     1       5.087   8.397  -1.549  1.00  0.00    -0.014 A 
BRANCH  42  43
ATOM     43  C   UNL     1       4.530   9.639  -2.147  1.00  0.00     0.031 A 
ATOM     44  C   UNL     1       3.404  10.367  -1.459  1.00  0.00     0.074 A 
ATOM     45  C   UNL     1       5.005  10.089  -3.326  1.00  0.00     0.049 A 
ATOM     46  N   UNL     1       2.760  11.441  -1.838  1.00  0.00    -0.248 NA
ATOM     47  C   UNL     1       2.919   9.797  -0.191  1.00  0.00     0.031 C 
ATOM     48  C   UNL     1       6.058   9.446  -4.115  1.00  0.00     0.029 A 
ATOM     49  N   UNL     1       4.662  11.191  -4.069  1.00  0.00    -0.354 N 
ATOM     50  C   UNL     1       1.792  11.666  -0.867  1.00  0.00     0.074 A 
ATOM     51  C   UNL     1       1.888  10.581   0.085  1.00  0.00     0.031 C 
ATOM     52  C   UNL     1       6.295  10.181  -5.214  1.00  0.00     0.029 A 
ATOM     53  C   UNL     1       5.387  11.324  -5.229  1.00  0.00     0.049 A 
ATOM     54  H   UNL     1       3.961  11.827  -3.796  1.00  0.00     0.167 HD
ATOM     55  C   UNL     1       0.920  12.697  -0.758  1.00  0.00     0.037 A 
ATOM     56  C   UNL     1       5.327  12.260  -6.197  1.00  0.00     0.037 A 
ATOM     57  C   UNL     1       0.847  13.789  -1.694  1.00  0.00     0.049 A 
ATOM     58  C   UNL     1       4.351  13.398  -6.055  1.00  0.00     0.074 A 
ATOM     59  C   UNL     1       0.036  14.909  -1.648  1.00  0.00     0.029 A 
ATOM     60  N   UNL     1       1.613  13.898  -2.846  1.00  0.00    -0.354 N 
ATOM     61  N   UNL     1       3.485  13.628  -5.096  1.00  0.00    -0.248 NA
ATOM     62  C   UNL     1       4.352  14.411  -7.120  1.00  0.00     0.031 C 
ATOM     63  C   UNL     1       0.276  15.670  -2.797  1.00  0.00     0.029 A 
ATOM     64  C   UNL     1       1.281  15.056  -3.528  1.00  0.00     0.049 A 
ATOM     65  H   UNL     1       2.293  13.247  -3.136  1.00  0.00     0.167 HD
ATOM     66  C   UNL     1       2.865  14.830  -5.424  1.00  0.00     0.074 A 
ATOM     67  C   UNL     1       3.462  15.281  -6.664  1.00  0.00     0.031 C 
ATOM     68  C   UNL     1       1.893  15.500  -4.756  1.00  0.00     0.037 A 
BRANCH  55  69
ATOM     69  C   UNL     1      -0.021  12.697   0.417  1.00  0.00     0.058 A 
ATOM     70  C   UNL     1       0.437  12.892   1.731  1.00  0.00     0.135 A 
ATOM     71  C   UNL     1      -1.402  12.530   0.227  1.00  0.00     0.135 A 
ATOM     72  F   UNL     1       1.749  13.040   1.976  1.00  0.00    -0.206 F 
ATOM     73  C   UNL     1      -0.435  12.887   2.815  1.00  0.00     0.059 A 
ATOM     74  C   UNL     1      -2.297  12.555   1.293  1.00  0.00     0.059 A 
ATOM     75  F   UNL     1      -1.897  12.339  -1.007  1.00  0.00    -0.206 F 
ATOM     76  C   UNL     1      -1.801  12.718   2.586  1.00  0.00     0.060 A 
BRANCH  76  77
ATOM     77  S   UNL     1      -2.918  12.718   4.003  1.00  0.00     0.124 S 
ATOM     78  O   UNL     1      -2.604  11.433   4.621  1.00  0.00    -0.237 OA
ATOM     79  O   UNL     1      -2.484  13.899   4.742  1.00  0.00    -0.237 OA
ATOM     80  O   UNL     1      -4.241  12.813   3.395  1.00  0.00    -0.744 OA
ENDBRANCH  76  77
ENDBRANCH  55  69
BRANCH  56  81
ATOM     81  C   UNL     1       6.238  12.178  -7.371  1.00  0.00     0.058 A 
ATOM     82  C   UNL     1       7.274  13.107  -7.550  1.00  0.00     0.135 A 
ATOM     83  C   UNL     1       6.096  11.167  -8.335  1.00  0.00     0.135 A 
ATOM     84  F   UNL     1       7.449  14.095  -6.660  1.00  0.00    -0.206 F 
ATOM     85  C   UNL     1       8.123  13.051  -8.650  1.00  0.00     0.059 A 
ATOM     86  C   UNL     1       6.951  11.073  -9.429  1.00  0.00     0.059 A 
ATOM     87  F   UNL     1       5.132  10.242  -8.203  1.00  0.00    -0.206 F 
ATOM     88  C   UNL     1       7.954  12.028  -9.584  1.00  0.00     0.060 A 
BRANCH  88  89
ATOM     89  S   UNL     1       9.088  11.941 -10.987  1.00  0.00     0.124 S 
ATOM     90  O   UNL     1       8.651  13.077 -11.789  1.00  0.00    -0.237 OA
ATOM     91  O   UNL     1      10.388  12.079 -10.338  1.00  0.00    -0.237 OA
ATOM     92  O   UNL     1       8.817  10.624 -11.556  1.00  0.00    -0.744 OA
ENDBRANCH  88  89
ENDBRANCH  56  81
BRANCH  68  93
ATOM     93  C   UNL     1       1.447  16.822  -5.321  1.00  0.00     0.058 A 
ATOM     94  C   UNL     1       0.688  16.910  -6.498  1.00  0.00     0.135 A 
ATOM     95  C   UNL     1       1.746  18.016  -4.643  1.00  0.00     0.135 A 
ATOM     96  F   UNL     1       0.377  15.801  -7.187  1.00  0.00    -0.206 F 
ATOM     97  C   UNL     1       0.267  18.138  -7.000  1.00  0.00     0.059 A 
ATOM     98  C   UNL     1       1.308  19.251  -5.110  1.00  0.00     0.059 A 
ATOM     99  F   UNL     1       2.458  17.988  -3.505  1.00  0.00    -0.206 F 
ATOM    100  C   UNL     1       0.582  19.303  -6.298  1.00  0.00     0.060 A 
BRANCH 100 101
ATOM    101  S   UNL     1       0.008  20.887  -6.947  1.00  0.00     0.124 S 
ATOM    102  O   UNL     1       0.893  21.073  -8.092  1.00  0.00    -0.237 OA
ATOM    103  O   UNL     1      -1.389  20.607  -7.264  1.00  0.00    -0.237 OA
ATOM    104  O   UNL     1       0.220  21.808  -5.834  1.00  0.00    -0.744 OA
ENDBRANCH 100 101
ENDBRANCH  68  93
ENDBRANCH  42  43
ENDBRANCH  34  37
ENDBRANCH  32  33
ENDBRANCH   1  32
TORSDOF 18
