REMARK SMILES CC(=O)[C@@H]1CCCC[N@H+]1CC(C)(C)C(=O)NCCCNC(=O)c1ccc(-c2c3nc(c(-c4c(F)cc(S(=O)(=O)[O-])cc4F)c4ccc([nH]4)c(-c4c(F)cc(S(=O)(=O)[O-])cc4F)c4nc(c(-c5c(F)cc(S(=O)(=O)[O-])cc5F)c5ccc2[nH]5)C=C4)C=C3)cc1
REMARK SMILES IDX 18 1 17 2 16 3 14 4 15 5 11 7 12 8 13 9 10 10 9 11 4 12 5 13
REMARK SMILES IDX 6 14 8 15 7 17 2 18 1 19 3 20 19 21 20 22 21 23 22 25 23 26
REMARK SMILES IDX 24 27 88 28 25 29 87 30 26 31 27 32 28 33 81 34 29 35 86 36
REMARK SMILES IDX 80 37 82 38 30 39 85 40 79 41 78 42 31 44 65 45 44 46 64 47
REMARK SMILES IDX 45 48 48 49 63 50 83 51 46 52 47 53 62 55 84 56 49 57 32 58
REMARK SMILES IDX 33 59 42 60 34 61 35 62 41 63 43 64 36 65 37 66 38 67 39 68
REMARK SMILES IDX 40 69 66 70 67 71 76 72 68 73 69 74 75 75 77 76 70 77 71 78
REMARK SMILES IDX 72 79 73 80 74 81 50 82 51 83 60 84 52 85 53 86 59 87 61 88
REMARK SMILES IDX 54 89 55 90 56 91 57 92 58 93
REMARK H PARENT 16 6 9 16 20 24 82 43 48 54
REMARK Flexibility Score: inf
ROOT
ATOM      1  C   UNL     1      -0.274   2.502  -6.404  1.00  0.00     0.042 C 
ENDROOT
BRANCH   1   2
ATOM      2  C   UNL     1      -0.577   1.317  -5.502  1.00  0.00     0.117 C 
BRANCH   2   3
ATOM      3  N   UNL     1       0.539   0.392  -5.474  1.00  0.00    -0.355 N 
ATOM      4  C   UNL     1       1.487   0.146  -4.538  1.00  0.00     0.231 C 
ATOM      5  O   UNL     1       2.540  -0.329  -4.978  1.00  0.00    -0.274 OA
ATOM      6  H   UNL     1       0.623  -0.160  -6.284  1.00  0.00     0.163 HD
BRANCH   4   7
ATOM      7  C   UNL     1       1.310   0.490  -3.050  1.00  0.00     0.092 C 
ATOM      8  C   UNL     1      -0.133   0.390  -2.538  1.00  0.00     0.027 C 
ATOM      9  C   UNL     1       1.783   1.955  -2.895  1.00  0.00     0.027 C 
BRANCH   7  10
ATOM     10  C   UNL     1       2.283  -0.407  -2.188  1.00  0.00     0.279 C 
BRANCH  10  11
ATOM     11  N   UNL     1       2.106  -1.870  -1.936  1.00  0.00    -0.325 N 
ATOM     12  C   UNL     1       0.847  -2.351  -1.308  1.00  0.00     0.251 C 
ATOM     13  C   UNL     1       0.812  -3.900  -1.201  1.00  0.00     0.074 C 
ATOM     14  C   UNL     1       1.090  -4.595  -2.522  1.00  0.00     0.012 C 
ATOM     15  C   UNL     1       2.403  -2.602  -3.191  1.00  0.00     0.262 C 
ATOM     16  H   UNL     1       2.772  -2.074  -1.191  1.00  0.00     0.348 HD
ATOM     17  C   UNL     1       2.425  -4.118  -3.051  1.00  0.00     0.062 C 
BRANCH  12  18
ATOM     18  C   UNL     1       0.548  -1.861   0.131  1.00  0.00     0.186 C 
ATOM     19  C   UNL     1       1.354  -0.783   0.800  1.00  0.00     0.094 C 
ATOM     20  O   UNL     1      -0.424  -2.321   0.749  1.00  0.00    -0.293 OA
ENDBRANCH  12  18
ENDBRANCH  10  11
ENDBRANCH   7  10
ENDBRANCH   4   7
ENDBRANCH   2   3
ENDBRANCH   1   2
BRANCH   1  21
ATOM     21  C   UNL     1      -0.064   2.105  -7.857  1.00  0.00     0.118 C 
BRANCH  21  22
ATOM     22  N   UNL     1      -1.275   1.564  -8.460  1.00  0.00    -0.352 N 
ATOM     23  C   UNL     1      -2.067   2.110  -9.446  1.00  0.00     0.251 C 
ATOM     24  H   UNL     1      -1.567   0.689  -8.116  1.00  0.00     0.163 HD
ATOM     25  O   UNL     1      -3.168   1.647  -9.685  1.00  0.00    -0.269 OA
BRANCH  23  26
ATOM     26  C   UNL     1      -1.555   3.279 -10.191  1.00  0.00     0.039 A 
ATOM     27  C   UNL     1      -2.368   4.402 -10.355  1.00  0.00     0.014 A 
ATOM     28  C   UNL     1      -0.246   3.270 -10.677  1.00  0.00     0.014 A 
ATOM     29  C   UNL     1      -1.837   5.551 -10.946  1.00  0.00     0.010 A 
ATOM     30  C   UNL     1       0.307   4.441 -11.171  1.00  0.00     0.010 A 
ATOM     31  C   UNL     1      -0.485   5.591 -11.322  1.00  0.00    -0.014 A 
BRANCH  31  32
ATOM     32  C   UNL     1       0.139   6.793 -11.929  1.00  0.00     0.031 A 
ATOM     33  C   UNL     1       0.732   6.681 -13.309  1.00  0.00     0.074 A 
ATOM     34  C   UNL     1       0.268   7.930 -11.217  1.00  0.00     0.049 A 
ATOM     35  N   UNL     1       1.518   7.510 -13.941  1.00  0.00    -0.248 NA
ATOM     36  C   UNL     1       0.437   5.445 -14.055  1.00  0.00     0.031 C 
ATOM     37  C   UNL     1      -0.230   8.146  -9.857  1.00  0.00     0.029 A 
ATOM     38  N   UNL     1       0.887   9.113 -11.534  1.00  0.00    -0.354 N 
ATOM     39  C   UNL     1       1.839   6.883 -15.139  1.00  0.00     0.074 A 
ATOM     40  C   UNL     1       1.207   5.583 -15.123  1.00  0.00     0.031 C 
ATOM     41  C   UNL     1       0.098   9.387  -9.459  1.00  0.00     0.029 A 
ATOM     42  C   UNL     1       0.866  10.038 -10.515  1.00  0.00     0.049 A 
ATOM     43  H   UNL     1       1.307   9.284 -12.408  1.00  0.00     0.167 HD
ATOM     44  C   UNL     1       2.572   7.359 -16.172  1.00  0.00     0.037 A 
ATOM     45  C   UNL     1       1.423  11.263 -10.438  1.00  0.00     0.037 A 
ATOM     46  C   UNL     1       3.149   8.675 -16.202  1.00  0.00     0.049 A 
ATOM     47  C   UNL     1       2.204  11.785 -11.617  1.00  0.00     0.074 A 
ATOM     48  C   UNL     1       3.885   9.270 -17.211  1.00  0.00     0.029 A 
ATOM     49  N   UNL     1       3.029   9.610 -15.185  1.00  0.00    -0.354 N 
ATOM     50  N   UNL     1       2.485  11.184 -12.748  1.00  0.00    -0.248 NA
ATOM     51  C   UNL     1       2.737  13.151 -11.514  1.00  0.00     0.031 C 
ATOM     52  C   UNL     1       4.222  10.563 -16.798  1.00  0.00     0.029 A 
ATOM     53  C   UNL     1       3.666  10.783 -15.548  1.00  0.00     0.049 A 
ATOM     54  H   UNL     1       2.561   9.461 -14.332  1.00  0.00     0.167 HD
ATOM     55  C   UNL     1       3.193  12.111 -13.505  1.00  0.00     0.074 A 
ATOM     56  C   UNL     1       3.297  13.313 -12.705  1.00  0.00     0.031 C 
ATOM     57  C   UNL     1       3.712  11.981 -14.750  1.00  0.00     0.037 A 
BRANCH  44  58
ATOM     58  C   UNL     1       2.762   6.465 -17.364  1.00  0.00     0.058 A 
ATOM     59  C   UNL     1       1.702   6.180 -18.240  1.00  0.00     0.135 A 
ATOM     60  C   UNL     1       4.021   5.918 -17.659  1.00  0.00     0.135 A 
ATOM     61  F   UNL     1       0.473   6.660 -17.991  1.00  0.00    -0.206 F 
ATOM     62  C   UNL     1       1.878   5.368 -19.354  1.00  0.00     0.059 A 
ATOM     63  C   UNL     1       4.226   5.125 -18.784  1.00  0.00     0.059 A 
ATOM     64  F   UNL     1       5.067   6.155 -16.852  1.00  0.00    -0.206 F 
ATOM     65  C   UNL     1       3.145   4.847 -19.619  1.00  0.00     0.060 A 
BRANCH  65  66
ATOM     66  S   UNL     1       3.360   3.814 -21.084  1.00  0.00     0.124 S 
ATOM     67  O   UNL     1       2.720   2.573 -20.661  1.00  0.00    -0.237 OA
ATOM     68  O   UNL     1       2.653   4.575 -22.109  1.00  0.00    -0.237 OA
ATOM     69  O   UNL     1       4.810   3.750 -21.244  1.00  0.00    -0.744 OA
ENDBRANCH  65  66
ENDBRANCH  44  58
BRANCH  45  70
ATOM     70  C   UNL     1       1.261  12.089  -9.212  1.00  0.00     0.058 A 
ATOM     71  C   UNL     1       0.462  13.242  -9.220  1.00  0.00     0.135 A 
ATOM     72  C   UNL     1       1.917  11.758  -8.016  1.00  0.00     0.135 A 
ATOM     73  F   UNL     1      -0.184  13.601 -10.341  1.00  0.00    -0.206 F 
ATOM     74  C   UNL     1       0.345  14.057  -8.100  1.00  0.00     0.059 A 
ATOM     75  C   UNL     1       1.796  12.544  -6.874  1.00  0.00     0.059 A 
ATOM     76  F   UNL     1       2.675  10.653  -7.948  1.00  0.00    -0.206 F 
ATOM     77  C   UNL     1       1.022  13.703  -6.932  1.00  0.00     0.060 A 
BRANCH  77  78
ATOM     78  S   UNL     1       0.858  14.761  -5.477  1.00  0.00     0.124 S 
ATOM     79  O   UNL     1       1.736  15.872  -5.824  1.00  0.00    -0.237 OA
ATOM     80  O   UNL     1      -0.572  15.054  -5.466  1.00  0.00    -0.237 OA
ATOM     81  O   UNL     1       1.322  13.904  -4.389  1.00  0.00    -0.744 OA
ENDBRANCH  77  78
ENDBRANCH  45  70
BRANCH  57  82
ATOM     82  C   UNL     1       4.373  13.182 -15.360  1.00  0.00     0.058 A 
ATOM     83  C   UNL     1       5.662  13.585 -14.985  1.00  0.00     0.135 A 
ATOM     84  C   UNL     1       3.739  13.877 -16.404  1.00  0.00     0.135 A 
ATOM     85  F   UNL     1       6.305  12.955 -13.989  1.00  0.00    -0.206 F 
ATOM     86  C   UNL     1       6.301  14.644 -15.621  1.00  0.00     0.059 A 
ATOM     87  C   UNL     1       4.368  14.923 -17.068  1.00  0.00     0.059 A 
ATOM     88  F   UNL     1       2.508  13.520 -16.803  1.00  0.00    -0.206 F 
ATOM     89  C   UNL     1       5.649  15.302 -16.666  1.00  0.00     0.060 A 
BRANCH  89  90
ATOM     90  S   UNL     1       6.516  16.628 -17.530  1.00  0.00     0.124 S 
ATOM     91  O   UNL     1       6.422  17.718 -16.566  1.00  0.00    -0.237 OA
ATOM     92  O   UNL     1       7.848  16.061 -17.718  1.00  0.00    -0.237 OA
ATOM     93  O   UNL     1       5.739  16.802 -18.754  1.00  0.00    -0.744 OA
ENDBRANCH  89  90
ENDBRANCH  57  82
ENDBRANCH  31  32
ENDBRANCH  23  26
ENDBRANCH  21  22
ENDBRANCH   1  21
TORSDOF 16
