REMARK SMILES CC(C)[NH2+][C@]1(C(=O)NCCCNC(=O)c2ccc(-c3c4nc(c(-c5c(F)cc(S(=O)(=O)[O-])cc5F)c5ccc([nH]5)c(-c5c(F)cc(S(=O)(=O)[O-])cc5F)c5nc(c(-c6c(F)cc(S(=O)(=O)[O-])cc6F)c6ccc3[nH]6)C=C5)C=C4)cc2)CCC[C@@H]1CCSc1cnccn1
REMARK SMILES IDX 9 1 8 2 6 3 7 4 5 6 81 7 84 8 82 9 83 10 4 11 2 14 1 15 3 16
REMARK SMILES IDX 85 17 86 18 87 19 88 20 89 21 93 22 90 23 92 24 91 25 10 26
REMARK SMILES IDX 11 27 12 28 13 29 14 31 15 32 16 33 80 34 17 35 79 36 18 37
REMARK SMILES IDX 19 38 20 39 73 40 21 41 78 42 72 43 74 44 22 45 77 46 71 47
REMARK SMILES IDX 70 48 23 50 57 51 36 52 56 53 37 54 40 55 55 56 75 57 38 58
REMARK SMILES IDX 39 59 54 61 76 62 41 63 24 64 25 65 34 66 26 67 27 68 33 69
REMARK SMILES IDX 35 70 28 71 29 72 30 73 31 74 32 75 58 76 59 77 68 78 60 79
REMARK SMILES IDX 61 80 67 81 69 82 62 83 63 84 64 85 65 86 66 87 42 88 43 89
REMARK SMILES IDX 52 90 44 91 45 92 51 93 53 94 46 95 47 96 48 97 49 98 50 99
REMARK H PARENT 8 5 4 12 4 13 12 30 74 49 40 60
REMARK Flexibility Score: inf
ROOT
ATOM      1  C   UNL     1       0.875  -0.085  -2.801  1.00  0.00     0.118 C 
ENDROOT
BRANCH   1   2
ATOM      2  N   UNL     1       0.303  -0.338  -1.488  1.00  0.00    -0.351 N 
ATOM      3  C   UNL     1      -0.644  -1.167  -0.981  1.00  0.00     0.281 C 
ATOM      4  O   UNL     1      -0.874  -0.994   0.225  1.00  0.00    -0.268 OA
ATOM      5  H   UNL     1       0.702   0.236  -0.795  1.00  0.00     0.163 HD
BRANCH   3   6
ATOM      6  C   UNL     1      -1.479  -2.207  -1.789  1.00  0.00     0.178 C 
ATOM      7  C   UNL     1      -0.931  -2.624  -3.161  1.00  0.00     0.079 C 
ATOM      8  C   UNL     1      -1.343  -3.593  -1.054  1.00  0.00     0.061 C 
ATOM      9  C   UNL     1      -1.501  -4.003  -3.463  1.00  0.00     0.008 C 
ATOM     10  C   UNL     1      -1.695  -4.663  -2.105  1.00  0.00     0.011 C 
BRANCH   6  11
ATOM     11  N   UNL     1      -2.920  -1.836  -1.855  1.00  0.00    -0.331 N 
ATOM     12  H   UNL     1      -3.369  -2.471  -2.514  1.00  0.00     0.347 HD
ATOM     13  H   UNL     1      -3.249  -1.902  -0.891  1.00  0.00     0.347 HD
BRANCH  11  14
ATOM     14  C   UNL     1      -3.250  -0.465  -2.269  1.00  0.00     0.176 C 
ATOM     15  C   UNL     1      -4.664  -0.500  -2.858  1.00  0.00     0.075 C 
ATOM     16  C   UNL     1      -3.248   0.532  -1.100  1.00  0.00     0.075 C 
ENDBRANCH  11  14
ENDBRANCH   6  11
BRANCH   8  17
ATOM     17  C   UNL     1      -2.142  -3.796   0.253  1.00  0.00     0.022 C 
BRANCH  17  18
ATOM     18  C   UNL     1      -1.637  -4.952   1.124  1.00  0.00     0.077 C 
BRANCH  18  19
ATOM     19  S   UNL     1      -0.370  -4.476   2.363  1.00  0.00    -0.105 SA
BRANCH  19  20
ATOM     20  C   UNL     1       1.042  -4.231   1.320  1.00  0.00     0.114 A 
ATOM     21  C   UNL     1       1.633  -5.277   0.620  1.00  0.00     0.146 A 
ATOM     22  N   UNL     1       1.493  -2.964   1.185  1.00  0.00    -0.247 NA
ATOM     23  N   UNL     1       2.651  -5.100  -0.263  1.00  0.00    -0.260 NA
ATOM     24  C   UNL     1       2.506  -2.779   0.310  1.00  0.00     0.132 A 
ATOM     25  C   UNL     1       3.068  -3.822  -0.404  1.00  0.00     0.131 A 
ENDBRANCH  19  20
ENDBRANCH  18  19
ENDBRANCH  17  18
ENDBRANCH   8  17
ENDBRANCH   3   6
ENDBRANCH   1   2
BRANCH   1  26
ATOM     26  C   UNL     1       0.249   1.107  -3.511  1.00  0.00     0.042 C 
BRANCH  26  27
ATOM     27  C   UNL     1       0.461   2.432  -2.788  1.00  0.00     0.118 C 
BRANCH  27  28
ATOM     28  N   UNL     1       1.869   2.803  -2.739  1.00  0.00    -0.352 N 
ATOM     29  C   UNL     1       2.549   3.801  -3.389  1.00  0.00     0.251 C 
ATOM     30  H   UNL     1       2.421   2.249  -2.141  1.00  0.00     0.163 HD
ATOM     31  O   UNL     1       3.778   3.756  -3.419  1.00  0.00    -0.269 OA
BRANCH  29  32
ATOM     32  C   UNL     1       1.832   4.920  -4.042  1.00  0.00     0.039 A 
ATOM     33  C   UNL     1       2.363   5.474  -5.212  1.00  0.00     0.014 A 
ATOM     34  C   UNL     1       0.690   5.483  -3.467  1.00  0.00     0.014 A 
ATOM     35  C   UNL     1       1.736   6.568  -5.814  1.00  0.00     0.010 A 
ATOM     36  C   UNL     1       0.016   6.515  -4.115  1.00  0.00     0.010 A 
ATOM     37  C   UNL     1       0.549   7.090  -5.277  1.00  0.00    -0.014 A 
BRANCH  37  38
ATOM     38  C   UNL     1      -0.113   8.283  -5.867  1.00  0.00     0.031 A 
ATOM     39  C   UNL     1      -0.222   9.550  -5.058  1.00  0.00     0.074 A 
ATOM     40  C   UNL     1      -0.660   8.214  -7.096  1.00  0.00     0.049 A 
ATOM     41  N   UNL     1      -0.839  10.667  -5.347  1.00  0.00    -0.248 NA
ATOM     42  C   UNL     1       0.419   9.548  -3.732  1.00  0.00     0.031 C 
ATOM     43  C   UNL     1      -0.658   7.031  -7.960  1.00  0.00     0.029 A 
ATOM     44  N   UNL     1      -1.333   9.159  -7.828  1.00  0.00    -0.354 N 
ATOM     45  C   UNL     1      -0.684  11.485  -4.233  1.00  0.00     0.074 A 
ATOM     46  C   UNL     1       0.038  10.718  -3.242  1.00  0.00     0.031 C 
ATOM     47  C   UNL     1      -1.281   7.328  -9.112  1.00  0.00     0.029 A 
ATOM     48  C   UNL     1      -1.752   8.709  -9.058  1.00  0.00     0.049 A 
ATOM     49  H   UNL     1      -1.500  10.073  -7.504  1.00  0.00     0.167 HD
ATOM     50  C   UNL     1      -1.084  12.768  -4.059  1.00  0.00     0.037 A 
ATOM     51  C   UNL     1      -2.438   9.340 -10.030  1.00  0.00     0.037 A 
ATOM     52  C   UNL     1      -1.759  13.542  -5.066  1.00  0.00     0.049 A 
ATOM     53  C   UNL     1      -2.835  10.778  -9.832  1.00  0.00     0.074 A 
ATOM     54  C   UNL     1      -2.163  14.864  -5.012  1.00  0.00     0.029 A 
ATOM     55  N   UNL     1      -2.116  13.065  -6.319  1.00  0.00    -0.354 N 
ATOM     56  N   UNL     1      -2.646  11.549  -8.787  1.00  0.00    -0.248 NA
ATOM     57  C   UNL     1      -3.526  11.437 -10.949  1.00  0.00     0.031 C 
ATOM     58  C   UNL     1      -2.786  15.181  -6.224  1.00  0.00     0.029 A 
ATOM     59  C   UNL     1      -2.736  14.067  -7.047  1.00  0.00     0.049 A 
ATOM     60  H   UNL     1      -1.954  12.150  -6.643  1.00  0.00     0.167 HD
ATOM     61  C   UNL     1      -3.163  12.792  -9.134  1.00  0.00     0.074 A 
ATOM     62  C   UNL     1      -3.668  12.671 -10.486  1.00  0.00     0.031 C 
ATOM     63  C   UNL     1      -3.212  13.931  -8.400  1.00  0.00     0.037 A 
BRANCH  50  64
ATOM     64  C   UNL     1      -0.787  13.414  -2.733  1.00  0.00     0.058 A 
ATOM     65  C   UNL     1       0.522  13.753  -2.356  1.00  0.00     0.135 A 
ATOM     66  C   UNL     1      -1.824  13.714  -1.835  1.00  0.00     0.135 A 
ATOM     67  F   UNL     1       1.554  13.474  -3.169  1.00  0.00    -0.206 F 
ATOM     68  C   UNL     1       0.798  14.332  -1.122  1.00  0.00     0.059 A 
ATOM     69  C   UNL     1      -1.575  14.319  -0.606  1.00  0.00     0.059 A 
ATOM     70  F   UNL     1      -3.095  13.412  -2.144  1.00  0.00    -0.206 F 
ATOM     71  C   UNL     1      -0.257  14.608  -0.252  1.00  0.00     0.060 A 
BRANCH  71  72
ATOM     72  S   UNL     1       0.114  15.356   1.349  1.00  0.00     0.124 S 
ATOM     73  O   UNL     1       0.655  14.214   2.083  1.00  0.00    -0.237 OA
ATOM     74  O   UNL     1       1.079  16.393   0.995  1.00  0.00    -0.237 OA
ATOM     75  O   UNL     1      -1.181  15.840   1.808  1.00  0.00    -0.744 OA
ENDBRANCH  71  72
ENDBRANCH  50  64
BRANCH  51  76
ATOM     76  C   UNL     1      -2.756   8.628 -11.296  1.00  0.00     0.058 A 
ATOM     77  C   UNL     1      -2.088   8.949 -12.487  1.00  0.00     0.135 A 
ATOM     78  C   UNL     1      -3.717   7.607 -11.339  1.00  0.00     0.135 A 
ATOM     79  F   UNL     1      -1.163   9.921 -12.496  1.00  0.00    -0.206 F 
ATOM     80  C   UNL     1      -2.373   8.297 -13.682  1.00  0.00     0.059 A 
ATOM     81  C   UNL     1      -4.003   6.923 -12.517  1.00  0.00     0.059 A 
ATOM     82  F   UNL     1      -4.369   7.249 -10.223  1.00  0.00    -0.206 F 
ATOM     83  C   UNL     1      -3.333   7.283 -13.686  1.00  0.00     0.060 A 
BRANCH  83  84
ATOM     84  S   UNL     1      -3.662   6.408 -15.232  1.00  0.00     0.124 S 
ATOM     85  O   UNL     1      -4.449   7.393 -15.965  1.00  0.00    -0.237 OA
ATOM     86  O   UNL     1      -2.316   6.160 -15.738  1.00  0.00    -0.237 OA
ATOM     87  O   UNL     1      -4.387   5.219 -14.794  1.00  0.00    -0.744 OA
ENDBRANCH  83  84
ENDBRANCH  51  76
BRANCH  63  88
ATOM     88  C   UNL     1      -3.784  15.153  -9.061  1.00  0.00     0.058 A 
ATOM     89  C   UNL     1      -5.163  15.301  -9.275  1.00  0.00     0.135 A 
ATOM     90  C   UNL     1      -2.942  16.210  -9.441  1.00  0.00     0.135 A 
ATOM     91  F   UNL     1      -6.009  14.316  -8.934  1.00  0.00    -0.206 F 
ATOM     92  C   UNL     1      -5.685  16.446  -9.867  1.00  0.00     0.059 A 
ATOM     93  C   UNL     1      -3.445  17.375 -10.011  1.00  0.00     0.059 A 
ATOM     94  F   UNL     1      -1.616  16.122  -9.246  1.00  0.00    -0.206 F 
ATOM     95  C   UNL     1      -4.817  17.478 -10.232  1.00  0.00     0.060 A 
BRANCH  95  96
ATOM     96  S   UNL     1      -5.508  18.972 -10.973  1.00  0.00     0.124 S 
ATOM     97  O   UNL     1      -5.783  18.525 -12.334  1.00  0.00    -0.237 OA
ATOM     98  O   UNL     1      -6.680  19.224 -10.139  1.00  0.00    -0.237 OA
ATOM     99  O   UNL     1      -4.430  19.947 -10.837  1.00  0.00    -0.744 OA
ENDBRANCH  95  96
ENDBRANCH  63  88
ENDBRANCH  37  38
ENDBRANCH  29  32
ENDBRANCH  27  28
ENDBRANCH  26  27
ENDBRANCH   1  26
TORSDOF 19
