REMARK SMILES C[C@@H](C(=O)NCCCNC(=O)c1ccc(-c2c3nc(c(-c4c(F)cc(S(=O)(=O)[O-])cc4F)c4ccc([nH]4)c(-c4c(F)cc(S(=O)(=O)[O-])cc4F)c4nc(c(-c5c(F)cc(S(=O)(=O)[O-])cc5F)c5ccc2[nH]5)C=C4)C=C3)cc1)c1ccc(OC2CCCC2)cc1F
REMARK SMILES IDX 7 1 6 2 5 3 3 4 4 5 2 7 1 8 78 9 79 10 89 11 80 12 88 13
REMARK SMILES IDX 90 14 81 15 82 16 83 17 84 18 87 19 85 20 86 21 8 22 9 23
REMARK SMILES IDX 10 24 11 26 12 27 13 28 77 29 14 30 76 31 15 32 16 33 17 34
REMARK SMILES IDX 70 35 18 36 75 37 69 38 71 39 19 40 74 41 68 42 67 43 20 45
REMARK SMILES IDX 54 46 33 47 53 48 34 49 37 50 52 51 72 52 35 53 36 54 51 56
REMARK SMILES IDX 73 57 38 58 21 59 22 60 31 61 23 62 24 63 30 64 32 65 25 66
REMARK SMILES IDX 26 67 27 68 28 69 29 70 55 71 56 72 65 73 57 74 58 75 64 76
REMARK SMILES IDX 66 77 59 78 60 79 61 80 62 81 63 82 39 83 40 84 49 85 41 86
REMARK SMILES IDX 42 87 48 88 50 89 43 90 44 91 45 92 46 93 47 94
REMARK H PARENT 5 6 9 25 71 44 37 55
REMARK Flexibility Score: inf
ROOT
ATOM      1  C   UNL     1       4.337   0.583   1.207  1.00  0.00     0.042 C 
ENDROOT
BRANCH   1   2
ATOM      2  C   UNL     1       3.439  -0.281   2.086  1.00  0.00     0.117 C 
BRANCH   2   3
ATOM      3  N   UNL     1       2.416   0.506   2.748  1.00  0.00    -0.356 N 
ATOM      4  C   UNL     1       1.091   0.657   2.463  1.00  0.00     0.227 C 
ATOM      5  O   UNL     1       0.470   1.475   3.145  1.00  0.00    -0.274 OA
ATOM      6  H   UNL     1       2.729   1.014   3.532  1.00  0.00     0.163 HD
BRANCH   4   7
ATOM      7  C   UNL     1       0.445  -0.181   1.352  1.00  0.00     0.108 C 
ATOM      8  C   UNL     1       0.786   0.352  -0.040  1.00  0.00     0.023 C 
BRANCH   7   9
ATOM      9  C   UNL     1      -1.063  -0.294   1.505  1.00  0.00     0.000 A 
ATOM     10  C   UNL     1      -1.902   0.826   1.442  1.00  0.00     0.011 A 
ATOM     11  C   UNL     1      -1.656  -1.544   1.694  1.00  0.00     0.130 A 
ATOM     12  C   UNL     1      -3.287   0.680   1.553  1.00  0.00     0.047 A 
ATOM     13  C   UNL     1      -3.038  -1.693   1.800  1.00  0.00     0.086 A 
ATOM     14  F   UNL     1      -0.893  -2.646   1.762  1.00  0.00    -0.207 F 
ATOM     15  C   UNL     1      -3.867  -0.581   1.710  1.00  0.00     0.122 A 
BRANCH  15  16
ATOM     16  O   UNL     1      -5.227  -0.565   1.777  1.00  0.00    -0.490 OA
BRANCH  16  17
ATOM     17  C   UNL     1      -6.018  -1.729   1.590  1.00  0.00     0.173 C 
ATOM     18  C   UNL     1      -5.778  -2.545   0.322  1.00  0.00     0.045 C 
ATOM     19  C   UNL     1      -6.028  -2.716   2.757  1.00  0.00     0.045 C 
ATOM     20  C   UNL     1      -6.463  -3.866   0.632  1.00  0.00     0.004 C 
ATOM     21  C   UNL     1      -6.248  -4.091   2.127  1.00  0.00     0.004 C 
ENDBRANCH  16  17
ENDBRANCH  15  16
ENDBRANCH   7   9
ENDBRANCH   4   7
ENDBRANCH   2   3
ENDBRANCH   1   2
BRANCH   1  22
ATOM     22  C   UNL     1       5.083   1.677   1.961  1.00  0.00     0.118 C 
BRANCH  22  23
ATOM     23  N   UNL     1       6.077   1.149   2.885  1.00  0.00    -0.352 N 
ATOM     24  C   UNL     1       7.424   1.410   2.946  1.00  0.00     0.251 C 
ATOM     25  H   UNL     1       5.736   0.517   3.559  1.00  0.00     0.163 HD
ATOM     26  O   UNL     1       8.146   0.747   3.685  1.00  0.00    -0.269 OA
BRANCH  24  27
ATOM     27  C   UNL     1       8.001   2.475   2.099  1.00  0.00     0.039 A 
ATOM     28  C   UNL     1       9.148   2.205   1.347  1.00  0.00     0.014 A 
ATOM     29  C   UNL     1       7.394   3.733   2.034  1.00  0.00     0.014 A 
ATOM     30  C   UNL     1       9.645   3.174   0.472  1.00  0.00     0.010 A 
ATOM     31  C   UNL     1       7.849   4.668   1.113  1.00  0.00     0.010 A 
ATOM     32  C   UNL     1       8.978   4.399   0.322  1.00  0.00    -0.014 A 
BRANCH  32  33
ATOM     33  C   UNL     1       9.431   5.434  -0.641  1.00  0.00     0.031 A 
ATOM     34  C   UNL     1       9.872   6.776  -0.130  1.00  0.00     0.074 A 
ATOM     35  C   UNL     1       9.326   5.214  -1.966  1.00  0.00     0.049 A 
ATOM     36  N   UNL     1      10.105   7.879  -0.791  1.00  0.00    -0.248 NA
ATOM     37  C   UNL     1      10.033   6.899   1.327  1.00  0.00     0.031 C 
ATOM     38  C   UNL     1       8.876   3.966  -2.584  1.00  0.00     0.029 A 
ATOM     39  N   UNL     1       9.556   6.050  -3.031  1.00  0.00    -0.354 N 
ATOM     40  C   UNL     1      10.401   8.838   0.170  1.00  0.00     0.074 A 
ATOM     41  C   UNL     1      10.284   8.193   1.460  1.00  0.00     0.031 C 
ATOM     42  C   UNL     1       8.855   4.120  -3.918  1.00  0.00     0.029 A 
ATOM     43  C   UNL     1       9.246   5.489  -4.247  1.00  0.00     0.049 A 
ATOM     44  H   UNL     1       9.910   6.963  -2.933  1.00  0.00     0.167 HD
ATOM     45  C   UNL     1      10.749  10.135  -0.008  1.00  0.00     0.037 A 
ATOM     46  C   UNL     1       9.249   6.022  -5.484  1.00  0.00     0.037 A 
ATOM     47  C   UNL     1      10.893  10.758  -1.296  1.00  0.00     0.049 A 
ATOM     48  C   UNL     1       9.664   7.455  -5.667  1.00  0.00     0.074 A 
ATOM     49  C   UNL     1      11.298  12.048  -1.589  1.00  0.00     0.029 A 
ATOM     50  N   UNL     1      10.637  10.133  -2.509  1.00  0.00    -0.354 N 
ATOM     51  N   UNL     1       9.986   8.339  -4.753  1.00  0.00    -0.248 NA
ATOM     52  C   UNL     1       9.722   7.964  -7.044  1.00  0.00     0.031 C 
ATOM     53  C   UNL     1      11.258  12.212  -2.978  1.00  0.00     0.029 A 
ATOM     54  C   UNL     1      10.867  11.013  -3.553  1.00  0.00     0.049 A 
ATOM     55  H   UNL     1      10.337   9.201  -2.612  1.00  0.00     0.167 HD
ATOM     56  C   UNL     1      10.310   9.501  -5.444  1.00  0.00     0.074 A 
ATOM     57  C   UNL     1      10.144   9.208  -6.853  1.00  0.00     0.031 C 
ATOM     58  C   UNL     1      10.714  10.698  -4.953  1.00  0.00     0.037 A 
BRANCH  45  59
ATOM     59  C   UNL     1      10.978  10.958   1.229  1.00  0.00     0.058 A 
ATOM     60  C   UNL     1      12.087  10.745   2.063  1.00  0.00     0.135 A 
ATOM     61  C   UNL     1      10.064  11.958   1.598  1.00  0.00     0.135 A 
ATOM     62  F   UNL     1      12.985   9.792   1.764  1.00  0.00    -0.206 F 
ATOM     63  C   UNL     1      12.251  11.452   3.249  1.00  0.00     0.059 A 
ATOM     64  C   UNL     1      10.224  12.699   2.765  1.00  0.00     0.059 A 
ATOM     65  F   UNL     1       8.989  12.208   0.834  1.00  0.00    -0.206 F 
ATOM     66  C   UNL     1      11.307  12.419   3.598  1.00  0.00     0.060 A 
BRANCH  66  67
ATOM     67  S   UNL     1      11.501  13.295   5.164  1.00  0.00     0.124 S 
ATOM     68  O   UNL     1      11.025  12.295   6.115  1.00  0.00    -0.237 OA
ATOM     69  O   UNL     1      12.934  13.569   5.198  1.00  0.00    -0.237 OA
ATOM     70  O   UNL     1      10.647  14.467   5.004  1.00  0.00    -0.744 OA
ENDBRANCH  66  67
ENDBRANCH  45  59
BRANCH  46  71
ATOM     71  C   UNL     1       8.856   5.175  -6.640  1.00  0.00     0.058 A 
ATOM     72  C   UNL     1       9.822   4.664  -7.518  1.00  0.00     0.135 A 
ATOM     73  C   UNL     1       7.519   4.797  -6.843  1.00  0.00     0.135 A 
ATOM     74  F   UNL     1      11.111   5.003  -7.366  1.00  0.00    -0.206 F 
ATOM     75  C   UNL     1       9.480   3.799  -8.552  1.00  0.00     0.059 A 
ATOM     76  C   UNL     1       7.155   3.919  -7.859  1.00  0.00     0.059 A 
ATOM     77  F   UNL     1       6.561   5.247  -6.019  1.00  0.00    -0.206 F 
ATOM     78  C   UNL     1       8.144   3.423  -8.708  1.00  0.00     0.060 A 
BRANCH  78  79
ATOM     79  S   UNL     1       7.727   2.219  -9.988  1.00  0.00     0.124 S 
ATOM     80  O   UNL     1       7.828   3.027 -11.197  1.00  0.00    -0.237 OA
ATOM     81  O   UNL     1       8.764   1.207  -9.807  1.00  0.00    -0.237 OA
ATOM     82  O   UNL     1       6.379   1.794  -9.621  1.00  0.00    -0.744 OA
ENDBRANCH  78  79
ENDBRANCH  46  71
BRANCH  58  83
ATOM     83  C   UNL     1      11.051  11.781  -5.937  1.00  0.00     0.058 A 
ATOM     84  C   UNL     1      10.053  12.522  -6.588  1.00  0.00     0.135 A 
ATOM     85  C   UNL     1      12.389  12.150  -6.149  1.00  0.00     0.135 A 
ATOM     86  F   UNL     1       8.760  12.204  -6.424  1.00  0.00    -0.206 F 
ATOM     87  C   UNL     1      10.371  13.596  -7.413  1.00  0.00     0.059 A 
ATOM     88  C   UNL     1      12.729  13.231  -6.954  1.00  0.00     0.059 A 
ATOM     89  F   UNL     1      13.379  11.475  -5.543  1.00  0.00    -0.206 F 
ATOM     90  C   UNL     1      11.712  13.949  -7.583  1.00  0.00     0.060 A 
BRANCH  90  91
ATOM     91  S   UNL     1      12.109  15.394  -8.591  1.00  0.00     0.124 S 
ATOM     92  O   UNL     1      11.903  14.877  -9.940  1.00  0.00    -0.237 OA
ATOM     93  O   UNL     1      11.130  16.375  -8.132  1.00  0.00    -0.237 OA
ATOM     94  O   UNL     1      13.494  15.686  -8.234  1.00  0.00    -0.744 OA
ENDBRANCH  90  91
ENDBRANCH  58  83
ENDBRANCH  32  33
ENDBRANCH  24  27
ENDBRANCH  22  23
ENDBRANCH   1  22
TORSDOF 16
