REMARK SMILES CNC(=O)CCn1c(SCC(=O)NCCCNC(=O)c2ccc(-c3c4nc(c(-c5c(F)cc(S(=O)(=O)[O-])cc5F)c5ccc([nH]5)c(-c5c(F)cc(S(=O)(=O)[O-])cc5F)c5nc(c(-c6c(F)cc(S(=O)(=O)[O-])cc6F)c6ccc3[nH]6)C=C5)C=C4)cc2)nc2ccc(C)cc21
REMARK SMILES IDX 14 1 13 2 11 3 12 4 10 6 9 7 8 8 7 9 93 10 86 11 87 12 92 13
REMARK SMILES IDX 88 14 90 15 89 16 91 17 6 18 5 19 3 20 1 21 2 22 4 24 15 25
REMARK SMILES IDX 16 26 17 27 18 28 19 30 20 31 21 32 85 33 22 34 84 35 23 36
REMARK SMILES IDX 24 37 25 38 78 39 26 40 83 41 77 42 79 43 27 44 82 45 76 46
REMARK SMILES IDX 75 47 28 49 62 50 41 51 61 52 42 53 45 54 60 55 80 56 43 57
REMARK SMILES IDX 44 58 59 60 81 61 46 62 29 63 30 64 39 65 31 66 32 67 38 68
REMARK SMILES IDX 40 69 33 70 34 71 35 72 36 73 37 74 63 75 64 76 73 77 65 78
REMARK SMILES IDX 66 79 72 80 74 81 67 82 68 83 69 84 70 85 71 86 47 87 48 88
REMARK SMILES IDX 57 89 49 90 50 91 56 92 58 93 51 94 52 95 53 96 54 97 55 98
REMARK H PARENT 13 5 2 23 17 29 79 48 45 59
REMARK Flexibility Score: inf
ROOT
ATOM      1  C   UNL     1       4.675  -5.665  -1.975  1.00  0.00     0.117 C 
ENDROOT
BRANCH   1   2
ATOM      2  N   UNL     1       5.080  -5.024  -0.736  1.00  0.00    -0.355 N 
ATOM      3  C   UNL     1       4.370  -4.748   0.395  1.00  0.00     0.230 C 
ATOM      4  O   UNL     1       5.008  -4.320   1.363  1.00  0.00    -0.274 OA
ATOM      5  H   UNL     1       6.022  -4.742  -0.709  1.00  0.00     0.163 HD
BRANCH   3   6
ATOM      6  C   UNL     1       2.895  -5.091   0.516  1.00  0.00     0.178 C 
BRANCH   6   7
ATOM      7  S   UNL     1       1.814  -4.291  -0.697  1.00  0.00    -0.078 SA
BRANCH   7   8
ATOM      8  C   UNL     1       2.186  -2.617  -0.496  1.00  0.00     0.169 A 
ATOM      9  N   UNL     1       1.767  -1.643  -1.371  1.00  0.00    -0.318 N 
ATOM     10  C   UNL     1       2.266  -0.442  -0.908  1.00  0.00     0.069 A 
ATOM     11  N   UNL     1       2.843  -2.114   0.521  1.00  0.00    -0.222 NA
ATOM     12  C   UNL     1       2.868  -0.763   0.303  1.00  0.00     0.090 A 
ATOM     13  C   UNL     1       2.138   0.876  -1.363  1.00  0.00     0.032 A 
ATOM     14  C   UNL     1       3.338   0.266   1.131  1.00  0.00     0.031 A 
ATOM     15  C   UNL     1       2.481   1.899  -0.467  1.00  0.00    -0.049 A 
ATOM     16  C   UNL     1       3.094   1.595   0.755  1.00  0.00     0.006 A 
ATOM     17  C   UNL     1       2.021   3.298  -0.771  1.00  0.00     0.044 C 
BRANCH   9  18
ATOM     18  C   UNL     1       0.839  -1.774  -2.484  1.00  0.00     0.135 C 
BRANCH  18  19
ATOM     19  C   UNL     1      -0.614  -1.477  -2.108  1.00  0.00     0.122 C 
BRANCH  19  20
ATOM     20  C   UNL     1      -0.866   0.005  -1.933  1.00  0.00     0.221 C 
ATOM     21  C   UNL     1      -0.779  -0.038   0.610  1.00  0.00     0.142 C 
ATOM     22  N   UNL     1      -0.977   0.555  -0.693  1.00  0.00    -0.359 N 
ATOM     23  H   UNL     1      -1.232   1.505  -0.683  1.00  0.00     0.163 HD
ATOM     24  O   UNL     1      -0.936   0.754  -2.910  1.00  0.00    -0.275 OA
ENDBRANCH  19  20
ENDBRANCH  18  19
ENDBRANCH   9  18
ENDBRANCH   7   8
ENDBRANCH   6   7
ENDBRANCH   3   6
ENDBRANCH   1   2
BRANCH   1  25
ATOM     25  C   UNL     1       4.664  -4.697  -3.159  1.00  0.00     0.042 C 
BRANCH  25  26
ATOM     26  C   UNL     1       6.024  -4.066  -3.466  1.00  0.00     0.118 C 
BRANCH  26  27
ATOM     27  N   UNL     1       7.078  -5.018  -3.761  1.00  0.00    -0.352 N 
ATOM     28  C   UNL     1       7.575  -5.588  -4.901  1.00  0.00     0.251 C 
ATOM     29  H   UNL     1       7.545  -5.326  -2.951  1.00  0.00     0.163 HD
ATOM     30  O   UNL     1       8.641  -6.197  -4.770  1.00  0.00    -0.269 OA
BRANCH  28  31
ATOM     31  C   UNL     1       6.902  -5.598  -6.228  1.00  0.00     0.039 A 
ATOM     32  C   UNL     1       5.716  -4.937  -6.544  1.00  0.00     0.014 A 
ATOM     33  C   UNL     1       7.490  -6.428  -7.205  1.00  0.00     0.014 A 
ATOM     34  C   UNL     1       5.071  -5.199  -7.749  1.00  0.00     0.010 A 
ATOM     35  C   UNL     1       6.858  -6.679  -8.417  1.00  0.00     0.010 A 
ATOM     36  C   UNL     1       5.616  -6.109  -8.662  1.00  0.00    -0.014 A 
BRANCH  36  37
ATOM     37  C   UNL     1       4.886  -6.353  -9.902  1.00  0.00     0.031 A 
ATOM     38  C   UNL     1       4.670  -5.138 -10.736  1.00  0.00     0.074 A 
ATOM     39  C   UNL     1       4.486  -7.572 -10.319  1.00  0.00     0.049 A 
ATOM     40  N   UNL     1       3.549  -4.549 -10.996  1.00  0.00    -0.248 NA
ATOM     41  C   UNL     1       5.852  -4.403 -11.211  1.00  0.00     0.031 C 
ATOM     42  C   UNL     1       4.818  -8.884  -9.764  1.00  0.00     0.029 A 
ATOM     43  N   UNL     1       3.734  -7.891 -11.411  1.00  0.00    -0.354 N 
ATOM     44  C   UNL     1       3.855  -3.481 -11.837  1.00  0.00     0.074 A 
ATOM     45  C   UNL     1       5.289  -3.349 -11.806  1.00  0.00     0.031 C 
ATOM     46  C   UNL     1       4.469  -9.847 -10.649  1.00  0.00     0.029 A 
ATOM     47  C   UNL     1       3.774  -9.234 -11.769  1.00  0.00     0.049 A 
ATOM     48  H   UNL     1       3.205  -7.224 -11.905  1.00  0.00     0.167 HD
ATOM     49  C   UNL     1       2.912  -2.912 -12.639  1.00  0.00     0.037 A 
ATOM     50  C   UNL     1       3.325  -9.778 -12.932  1.00  0.00     0.037 A 
ATOM     51  C   UNL     1       1.583  -3.254 -12.199  1.00  0.00     0.049 A 
ATOM     52  C   UNL     1       2.308  -8.837 -13.482  1.00  0.00     0.074 A 
ATOM     53  C   UNL     1       0.875  -3.057 -11.028  1.00  0.00     0.029 A 
ATOM     54  N   UNL     1       0.901  -4.231 -12.885  1.00  0.00    -0.354 N 
ATOM     55  N   UNL     1       1.160  -8.597 -12.904  1.00  0.00    -0.248 NA
ATOM     56  C   UNL     1       2.773  -7.803 -14.396  1.00  0.00     0.031 C 
ATOM     57  C   UNL     1       0.137  -4.261 -10.842  1.00  0.00     0.029 A 
ATOM     58  C   UNL     1       0.379  -5.082 -11.945  1.00  0.00     0.049 A 
ATOM     59  H   UNL     1       0.805  -4.304 -13.862  1.00  0.00     0.167 HD
ATOM     60  C   UNL     1       0.975  -7.228 -13.037  1.00  0.00     0.074 A 
ATOM     61  C   UNL     1       1.970  -6.803 -14.021  1.00  0.00     0.031 C 
ATOM     62  C   UNL     1       0.235  -6.509 -12.140  1.00  0.00     0.037 A 
BRANCH  49  63
ATOM     63  C   UNL     1       3.179  -2.331 -14.009  1.00  0.00     0.058 A 
ATOM     64  C   UNL     1       2.130  -1.689 -14.703  1.00  0.00     0.135 A 
ATOM     65  C   UNL     1       4.321  -2.633 -14.783  1.00  0.00     0.135 A 
ATOM     66  F   UNL     1       0.998  -1.344 -14.068  1.00  0.00    -0.206 F 
ATOM     67  C   UNL     1       2.173  -1.458 -16.078  1.00  0.00     0.059 A 
ATOM     68  C   UNL     1       4.405  -2.365 -16.145  1.00  0.00     0.059 A 
ATOM     69  F   UNL     1       5.373  -3.290 -14.282  1.00  0.00    -0.206 F 
ATOM     70  C   UNL     1       3.308  -1.820 -16.793  1.00  0.00     0.060 A 
BRANCH  70  71
ATOM     71  S   UNL     1       3.321  -1.641 -18.585  1.00  0.00     0.124 S 
ATOM     72  O   UNL     1       2.304  -2.614 -18.980  1.00  0.00    -0.237 OA
ATOM     73  O   UNL     1       2.951  -0.235 -18.747  1.00  0.00    -0.237 OA
ATOM     74  O   UNL     1       4.688  -1.972 -18.950  1.00  0.00    -0.744 OA
ENDBRANCH  70  71
ENDBRANCH  49  63
BRANCH  50  75
ATOM     75  C   UNL     1       4.016 -10.812 -13.762  1.00  0.00     0.058 A 
ATOM     76  C   UNL     1       3.409 -11.377 -14.902  1.00  0.00     0.135 A 
ATOM     77  C   UNL     1       5.394 -11.078 -13.615  1.00  0.00     0.135 A 
ATOM     78  F   UNL     1       2.106 -11.165 -15.146  1.00  0.00    -0.206 F 
ATOM     79  C   UNL     1       4.131 -12.115 -15.853  1.00  0.00     0.059 A 
ATOM     80  C   UNL     1       6.130 -11.818 -14.540  1.00  0.00     0.059 A 
ATOM     81  F   UNL     1       6.101 -10.549 -12.606  1.00  0.00    -0.206 F 
ATOM     82  C   UNL     1       5.499 -12.313 -15.672  1.00  0.00     0.060 A 
BRANCH  82  83
ATOM     83  S   UNL     1       6.476 -13.118 -16.965  1.00  0.00     0.124 S 
ATOM     84  O   UNL     1       5.950 -14.479 -16.941  1.00  0.00    -0.237 OA
ATOM     85  O   UNL     1       6.142 -12.325 -18.143  1.00  0.00    -0.237 OA
ATOM     86  O   UNL     1       7.851 -12.975 -16.492  1.00  0.00    -0.744 OA
ENDBRANCH  82  83
ENDBRANCH  50  75
BRANCH  62  87
ATOM     87  C   UNL     1      -0.601  -7.234 -11.116  1.00  0.00     0.058 A 
ATOM     88  C   UNL     1      -0.076  -8.065 -10.109  1.00  0.00     0.135 A 
ATOM     89  C   UNL     1      -1.960  -6.895 -11.016  1.00  0.00     0.135 A 
ATOM     90  F   UNL     1       1.231  -8.358 -10.068  1.00  0.00    -0.206 F 
ATOM     91  C   UNL     1      -0.869  -8.548  -9.065  1.00  0.00     0.059 A 
ATOM     92  C   UNL     1      -2.761  -7.337  -9.966  1.00  0.00     0.059 A 
ATOM     93  F   UNL     1      -2.511  -6.057 -11.911  1.00  0.00    -0.206 F 
ATOM     94  C   UNL     1      -2.209  -8.167  -8.994  1.00  0.00     0.060 A 
BRANCH  94  95
ATOM     95  S   UNL     1      -3.200  -8.697  -7.580  1.00  0.00     0.124 S 
ATOM     96  O   UNL     1      -3.302 -10.136  -7.797  1.00  0.00    -0.237 OA
ATOM     97  O   UNL     1      -2.377  -8.283  -6.446  1.00  0.00    -0.237 OA
ATOM     98  O   UNL     1      -4.447  -7.953  -7.737  1.00  0.00    -0.744 OA
ENDBRANCH  94  95
ENDBRANCH  62  87
ENDBRANCH  36  37
ENDBRANCH  28  31
ENDBRANCH  26  27
ENDBRANCH  25  26
ENDBRANCH   1  25
TORSDOF 18
