REMARK SMILES CC(C)c1nc(OCC(=O)NCCCNC(=O)c2ccc(-c3c4nc(c(-c5c(F)cc(S(=O)(=O)[O-])cc5F)c5ccc([nH]5)c(-c5c(F)cc(S(=O)(=O)[O-])cc5F)c5nc(c(-c6c(F)cc(S(=O)(=O)[O-])cc6F)c6ccc3[nH]6)C=C5)C=C4)cc2)cc(-c2ccccn2)n1
REMARK SMILES IDX 13 1 12 2 11 3 9 4 10 5 8 7 7 8 6 9 4 10 5 11 92 12 85 13
REMARK SMILES IDX 84 14 2 15 1 16 3 17 86 18 87 19 91 20 88 21 90 22 89 23
REMARK SMILES IDX 14 24 15 25 16 26 17 28 18 29 19 30 83 31 20 32 82 33 21 34
REMARK SMILES IDX 22 35 23 36 76 37 24 38 81 39 75 40 77 41 25 42 80 43 74 44
REMARK SMILES IDX 73 45 26 47 60 48 39 49 59 50 40 51 43 52 58 53 78 54 41 55
REMARK SMILES IDX 42 56 57 58 79 59 44 60 27 61 28 62 37 63 29 64 30 65 36 66
REMARK SMILES IDX 38 67 31 68 32 69 33 70 34 71 35 72 61 73 62 74 71 75 63 76
REMARK SMILES IDX 64 77 70 78 72 79 65 80 66 81 67 82 68 83 69 84 45 85 46 86
REMARK SMILES IDX 55 87 47 88 48 89 54 90 56 91 49 92 50 93 51 94 52 95 53 96
REMARK H PARENT 11 6 15 27 77 46 43 57
REMARK Flexibility Score: inf
ROOT
ATOM      1  C   UNL     1      -3.172  -2.089   2.509  1.00  0.00     0.042 C 
ENDROOT
BRANCH   1   2
ATOM      2  C   UNL     1      -4.471  -2.509   1.831  1.00  0.00     0.117 C 
BRANCH   2   3
ATOM      3  N   UNL     1      -5.371  -1.391   1.609  1.00  0.00    -0.353 N 
ATOM      4  C   UNL     1      -5.696  -0.789   0.431  1.00  0.00     0.258 C 
ATOM      5  O   UNL     1      -6.488   0.156   0.444  1.00  0.00    -0.271 OA
ATOM      6  H   UNL     1      -5.801  -1.021   2.413  1.00  0.00     0.163 HD
BRANCH   4   7
ATOM      7  C   UNL     1      -5.089  -1.304  -0.880  1.00  0.00     0.331 C 
BRANCH   7   8
ATOM      8  O   UNL     1      -3.679  -1.242  -0.990  1.00  0.00    -0.467 OA
BRANCH   8   9
ATOM      9  C   UNL     1      -3.089  -0.010  -0.985  1.00  0.00     0.217 A 
ATOM     10  C   UNL     1      -1.072   1.079  -0.837  1.00  0.00     0.135 A 
ATOM     11  N   UNL     1      -1.753  -0.080  -0.899  1.00  0.00    -0.198 NA
ATOM     12  N   UNL     1      -1.648   2.294  -0.839  1.00  0.00    -0.231 NA
ATOM     13  C   UNL     1      -2.993   2.331  -0.938  1.00  0.00     0.096 A 
ATOM     14  C   UNL     1      -3.757   1.186  -1.042  1.00  0.00     0.099 A 
BRANCH  10  15
ATOM     15  C   UNL     1       0.441   1.030  -0.834  1.00  0.00     0.051 C 
ATOM     16  C   UNL     1       0.986  -0.094   0.050  1.00  0.00     0.016 C 
ATOM     17  C   UNL     1       0.961   0.892  -2.265  1.00  0.00     0.016 C 
ENDBRANCH  10  15
BRANCH  13  18
ATOM     18  C   UNL     1      -3.648   3.645  -0.886  1.00  0.00     0.089 A 
ATOM     19  C   UNL     1      -4.510   3.975   0.164  1.00  0.00     0.030 A 
ATOM     20  N   UNL     1      -3.458   4.468  -1.950  1.00  0.00    -0.255 NA
ATOM     21  C   UNL     1      -5.196   5.184   0.125  1.00  0.00     0.004 A 
ATOM     22  C   UNL     1      -4.127   5.642  -1.951  1.00  0.00     0.112 A 
ATOM     23  C   UNL     1      -5.003   6.037  -0.953  1.00  0.00     0.020 A 
ENDBRANCH  13  18
ENDBRANCH   8   9
ENDBRANCH   7   8
ENDBRANCH   4   7
ENDBRANCH   2   3
ENDBRANCH   1   2
BRANCH   1  24
ATOM     24  C   UNL     1      -3.350  -1.466   3.891  1.00  0.00     0.118 C 
BRANCH  24  25
ATOM     25  N   UNL     1      -4.003  -2.358   4.842  1.00  0.00    -0.352 N 
ATOM     26  C   UNL     1      -3.576  -2.826   6.059  1.00  0.00     0.251 C 
ATOM     27  H   UNL     1      -4.894  -2.675   4.566  1.00  0.00     0.163 HD
ATOM     28  O   UNL     1      -4.226  -3.707   6.623  1.00  0.00    -0.269 OA
BRANCH  26  29
ATOM     29  C   UNL     1      -2.343  -2.303   6.686  1.00  0.00     0.039 A 
ATOM     30  C   UNL     1      -1.477  -3.197   7.322  1.00  0.00     0.014 A 
ATOM     31  C   UNL     1      -2.047  -0.938   6.673  1.00  0.00     0.014 A 
ATOM     32  C   UNL     1      -0.284  -2.731   7.882  1.00  0.00     0.010 A 
ATOM     33  C   UNL     1      -0.821  -0.487   7.157  1.00  0.00     0.010 A 
ATOM     34  C   UNL     1       0.073  -1.377   7.771  1.00  0.00    -0.014 A 
BRANCH  34  35
ATOM     35  C   UNL     1       1.373  -0.874   8.287  1.00  0.00     0.031 A 
ATOM     36  C   UNL     1       1.409   0.151   9.389  1.00  0.00     0.074 A 
ATOM     37  C   UNL     1       2.523  -1.295   7.723  1.00  0.00     0.049 A 
ATOM     38  N   UNL     1       2.440   0.747   9.932  1.00  0.00    -0.248 NA
ATOM     39  C   UNL     1       0.113   0.582   9.933  1.00  0.00     0.031 C 
ATOM     40  C   UNL     1       2.622  -2.258   6.625  1.00  0.00     0.029 A 
ATOM     41  N   UNL     1       3.827  -0.965   7.992  1.00  0.00    -0.354 N 
ATOM     42  C   UNL     1       1.918   1.628  10.872  1.00  0.00     0.074 A 
ATOM     43  C   UNL     1       0.477   1.536  10.777  1.00  0.00     0.031 C 
ATOM     44  C   UNL     1       3.917  -2.469   6.340  1.00  0.00     0.029 A 
ATOM     45  C   UNL     1       4.738  -1.624   7.201  1.00  0.00     0.049 A 
ATOM     46  H   UNL     1       4.087  -0.318   8.687  1.00  0.00     0.167 HD
ATOM     47  C   UNL     1       2.576   2.421  11.753  1.00  0.00     0.037 A 
ATOM     48  C   UNL     1       6.084  -1.555   7.170  1.00  0.00     0.037 A 
ATOM     49  C   UNL     1       4.011   2.506  11.843  1.00  0.00     0.049 A 
ATOM     50  C   UNL     1       6.794  -0.640   8.129  1.00  0.00     0.074 A 
ATOM     51  C   UNL     1       4.777   3.249  12.724  1.00  0.00     0.029 A 
ATOM     52  N   UNL     1       4.899   1.832  11.015  1.00  0.00    -0.354 N 
ATOM     53  N   UNL     1       6.288   0.146   9.050  1.00  0.00    -0.248 NA
ATOM     54  C   UNL     1       8.261  -0.605   8.048  1.00  0.00     0.031 C 
ATOM     55  C   UNL     1       6.125   3.066  12.395  1.00  0.00     0.029 A 
ATOM     56  C   UNL     1       6.204   2.160  11.349  1.00  0.00     0.049 A 
ATOM     57  H   UNL     1       4.640   1.211  10.297  1.00  0.00     0.167 HD
ATOM     58  C   UNL     1       7.374   0.743   9.681  1.00  0.00     0.074 A 
ATOM     59  C   UNL     1       8.565   0.222   9.039  1.00  0.00     0.031 C 
ATOM     60  C   UNL     1       7.383   1.634  10.704  1.00  0.00     0.037 A 
BRANCH  47  61
ATOM     61  C   UNL     1       1.737   3.266  12.678  1.00  0.00     0.058 A 
ATOM     62  C   UNL     1       0.931   2.692  13.676  1.00  0.00     0.135 A 
ATOM     63  C   UNL     1       1.726   4.665  12.559  1.00  0.00     0.135 A 
ATOM     64  F   UNL     1       0.893   1.358  13.831  1.00  0.00    -0.206 F 
ATOM     65  C   UNL     1       0.100   3.467  14.479  1.00  0.00     0.059 A 
ATOM     66  C   UNL     1       0.930   5.463  13.376  1.00  0.00     0.059 A 
ATOM     67  F   UNL     1       2.482   5.272  11.630  1.00  0.00    -0.206 F 
ATOM     68  C   UNL     1       0.100   4.852  14.314  1.00  0.00     0.060 A 
BRANCH  68  69
ATOM     69  S   UNL     1      -1.018   5.840  15.330  1.00  0.00     0.124 S 
ATOM     70  O   UNL     1      -2.310   5.531  14.723  1.00  0.00    -0.237 OA
ATOM     71  O   UNL     1      -0.798   5.291  16.664  1.00  0.00    -0.237 OA
ATOM     72  O   UNL     1      -0.543   7.206  15.131  1.00  0.00    -0.744 OA
ENDBRANCH  68  69
ENDBRANCH  47  61
BRANCH  48  73
ATOM     73  C   UNL     1       6.845  -2.419   6.228  1.00  0.00     0.058 A 
ATOM     74  C   UNL     1       7.595  -3.505   6.702  1.00  0.00     0.135 A 
ATOM     75  C   UNL     1       6.808  -2.206   4.841  1.00  0.00     0.135 A 
ATOM     76  F   UNL     1       7.668  -3.744   8.021  1.00  0.00    -0.206 F 
ATOM     77  C   UNL     1       8.284  -4.348   5.838  1.00  0.00     0.059 A 
ATOM     78  C   UNL     1       7.468  -3.051   3.954  1.00  0.00     0.059 A 
ATOM     79  F   UNL     1       6.093  -1.189   4.335  1.00  0.00    -0.206 F 
ATOM     80  C   UNL     1       8.207  -4.118   4.464  1.00  0.00     0.060 A 
BRANCH  80  81
ATOM     81  S   UNL     1       9.046  -5.266   3.350  1.00  0.00     0.124 S 
ATOM     82  O   UNL     1      10.447  -4.947   3.597  1.00  0.00    -0.237 OA
ATOM     83  O   UNL     1       8.588  -6.560   3.846  1.00  0.00    -0.237 OA
ATOM     84  O   UNL     1       8.536  -4.891   2.034  1.00  0.00    -0.744 OA
ENDBRANCH  80  81
ENDBRANCH  48  73
BRANCH  60  85
ATOM     85  C   UNL     1       8.724   2.078  11.225  1.00  0.00     0.058 A 
ATOM     86  C   UNL     1       9.565   2.927  10.489  1.00  0.00     0.135 A 
ATOM     87  C   UNL     1       9.152   1.683  12.504  1.00  0.00     0.135 A 
ATOM     88  F   UNL     1       9.210   3.329   9.258  1.00  0.00    -0.206 F 
ATOM     89  C   UNL     1      10.793   3.348  10.990  1.00  0.00     0.059 A 
ATOM     90  C   UNL     1      10.361   2.118  13.038  1.00  0.00     0.059 A 
ATOM     91  F   UNL     1       8.383   0.880  13.256  1.00  0.00    -0.206 F 
ATOM     92  C   UNL     1      11.181   2.941  12.268  1.00  0.00     0.060 A 
BRANCH  92  93
ATOM     93  S   UNL     1      12.761   3.522  12.920  1.00  0.00     0.124 S 
ATOM     94  O   UNL     1      13.710   2.743  12.131  1.00  0.00    -0.237 OA
ATOM     95  O   UNL     1      12.713   4.951  12.624  1.00  0.00    -0.237 OA
ATOM     96  O   UNL     1      12.692   3.179  14.337  1.00  0.00    -0.744 OA
ENDBRANCH  92  93
ENDBRANCH  60  85
ENDBRANCH  34  35
ENDBRANCH  26  29
ENDBRANCH  24  25
ENDBRANCH   1  24
TORSDOF 17
