REMARK SMILES CN(CC(=O)NCCCNC(=O)c1ccc(-c2c3nc(c(-c4c(F)cc(S(=O)(=O)[O-])cc4F)c4ccc([nH]4)c(-c4c(F)cc(S(=O)(=O)[O-])cc4F)c4nc(c(-c5c(F)cc(S(=O)(=O)[O-])cc5F)c5ccc2[nH]5)C=C4)C=C3)cc1)c1ncc(-c2nnnn2-c2ccccc2)c(-c2ccc(Cl)cc2)n1
REMARK SMILES IDX 7 1 6 2 4 3 5 4 3 6 2 7 1 8 79 9 80 10 102 11 81 12 94 13
REMARK SMILES IDX 82 14 95 15 96 16 101 17 97 18 100 19 98 20 99 21 83 22
REMARK SMILES IDX 84 23 87 24 85 25 86 26 88 27 89 28 93 29 90 30 92 31 91 32
REMARK SMILES IDX 8 33 9 34 10 35 11 36 12 38 13 39 14 40 78 41 15 42 77 43
REMARK SMILES IDX 16 44 17 45 18 46 71 47 19 48 76 49 70 50 72 51 20 52 75 53
REMARK SMILES IDX 69 54 68 55 21 57 55 58 34 59 54 60 35 61 38 62 53 63 73 64
REMARK SMILES IDX 36 65 37 66 52 68 74 69 39 70 22 71 23 72 32 73 24 74 25 75
REMARK SMILES IDX 31 76 33 77 26 78 27 79 28 80 29 81 30 82 56 83 57 84 66 85
REMARK SMILES IDX 58 86 59 87 65 88 67 89 60 90 61 91 62 92 63 93 64 94 40 95
REMARK SMILES IDX 41 96 50 97 42 98 43 99 49 100 51 101 44 102 45 103 46 104
REMARK SMILES IDX 47 105 48 106
REMARK H PARENT 6 5 10 37 72 56 38 67
REMARK Flexibility Score: inf
ROOT
ATOM      1  C   UNL     1      -2.322   0.117  -0.037  1.00  0.00     0.117 C 
ENDROOT
BRANCH   1   2
ATOM      2  N   UNL     1      -2.583  -1.266  -0.377  1.00  0.00    -0.354 N 
ATOM      3  C   UNL     1      -1.725  -2.331  -0.335  1.00  0.00     0.239 C 
ATOM      4  O   UNL     1      -2.183  -3.451  -0.582  1.00  0.00    -0.273 OA
ATOM      5  H   UNL     1      -3.499  -1.467  -0.677  1.00  0.00     0.163 HD
BRANCH   3   6
ATOM      6  C   UNL     1      -0.279  -2.136   0.141  1.00  0.00     0.219 C 
BRANCH   6   7
ATOM      7  N   UNL     1       0.520  -1.217  -0.672  1.00  0.00    -0.335 N 
ATOM      8  C   UNL     1       1.380  -0.246  -0.032  1.00  0.00     0.147 C 
BRANCH   7   9
ATOM      9  C   UNL     1       0.901  -1.669  -1.920  1.00  0.00     0.226 A 
ATOM     10  N   UNL     1       0.009  -2.347  -2.645  1.00  0.00    -0.221 NA
ATOM     11  N   UNL     1       2.143  -1.416  -2.365  1.00  0.00    -0.212 NA
ATOM     12  C   UNL     1       0.373  -2.741  -3.878  1.00  0.00     0.129 A 
ATOM     13  C   UNL     1       2.504  -1.858  -3.599  1.00  0.00     0.087 A 
ATOM     14  C   UNL     1       1.612  -2.504  -4.436  1.00  0.00     0.066 A 
BRANCH  13  15
ATOM     15  C   UNL     1       3.923  -1.630  -3.929  1.00  0.00     0.001 A 
ATOM     16  C   UNL     1       4.926  -2.218  -3.135  1.00  0.00     0.012 A 
ATOM     17  C   UNL     1       4.323  -0.856  -5.031  1.00  0.00     0.012 A 
ATOM     18  C   UNL     1       6.279  -2.068  -3.450  1.00  0.00     0.021 A 
ATOM     19  C   UNL     1       5.678  -0.704  -5.349  1.00  0.00     0.021 A 
ATOM     20  C   UNL     1       6.649  -1.317  -4.562  1.00  0.00     0.041 A 
ATOM     21  Cl  UNL     1       8.314  -1.151  -4.963  1.00  0.00    -0.084 Cl
ENDBRANCH  13  15
BRANCH  14  22
ATOM     22  C   UNL     1       1.907  -2.963  -5.781  1.00  0.00     0.190 A 
ATOM     23  N   UNL     1       2.793  -3.886  -6.105  1.00  0.00    -0.108 NA
ATOM     24  N   UNL     1       1.179  -2.647  -6.925  1.00  0.00    -0.193 N 
ATOM     25  N   UNL     1       2.546  -4.219  -7.409  1.00  0.00    -0.023 NA
ATOM     26  N   UNL     1       1.522  -3.532  -7.890  1.00  0.00    -0.040 NA
BRANCH  24  27
ATOM     27  C   UNL     1       0.200  -1.647  -7.139  1.00  0.00     0.069 A 
ATOM     28  C   UNL     1      -0.800  -1.862  -8.097  1.00  0.00     0.028 A 
ATOM     29  C   UNL     1       0.222  -0.445  -6.416  1.00  0.00     0.028 A 
ATOM     30  C   UNL     1      -1.797  -0.903  -8.288  1.00  0.00     0.002 A 
ATOM     31  C   UNL     1      -0.763   0.520  -6.635  1.00  0.00     0.002 A 
ATOM     32  C   UNL     1      -1.778   0.286  -7.560  1.00  0.00     0.000 A 
ENDBRANCH  24  27
ENDBRANCH  14  22
ENDBRANCH   7   9
ENDBRANCH   6   7
ENDBRANCH   3   6
ENDBRANCH   1   2
BRANCH   1  33
ATOM     33  C   UNL     1      -2.127   0.997  -1.266  1.00  0.00     0.042 C 
BRANCH  33  34
ATOM     34  C   UNL     1      -3.372   1.128  -2.138  1.00  0.00     0.118 C 
BRANCH  34  35
ATOM     35  N   UNL     1      -4.474   1.796  -1.452  1.00  0.00    -0.352 N 
ATOM     36  C   UNL     1      -5.160   2.938  -1.789  1.00  0.00     0.251 C 
ATOM     37  H   UNL     1      -4.771   1.362  -0.620  1.00  0.00     0.163 HD
ATOM     38  O   UNL     1      -5.943   3.437  -0.985  1.00  0.00    -0.269 OA
BRANCH  36  39
ATOM     39  C   UNL     1      -4.942   3.576  -3.105  1.00  0.00     0.039 A 
ATOM     40  C   UNL     1      -4.780   4.963  -3.170  1.00  0.00     0.014 A 
ATOM     41  C   UNL     1      -4.902   2.809  -4.271  1.00  0.00     0.014 A 
ATOM     42  C   UNL     1      -4.494   5.571  -4.395  1.00  0.00     0.010 A 
ATOM     43  C   UNL     1      -4.550   3.406  -5.478  1.00  0.00     0.010 A 
ATOM     44  C   UNL     1      -4.333   4.791  -5.551  1.00  0.00    -0.014 A 
BRANCH  44  45
ATOM     45  C   UNL     1      -3.923   5.384  -6.849  1.00  0.00     0.031 A 
ATOM     46  C   UNL     1      -4.845   5.300  -8.034  1.00  0.00     0.074 A 
ATOM     47  C   UNL     1      -2.684   5.897  -6.989  1.00  0.00     0.049 A 
ATOM     48  N   UNL     1      -4.608   5.587  -9.287  1.00  0.00    -0.248 NA
ATOM     49  C   UNL     1      -6.203   4.794  -7.779  1.00  0.00     0.031 C 
ATOM     50  C   UNL     1      -1.688   6.009  -5.921  1.00  0.00     0.029 A 
ATOM     51  N   UNL     1      -2.041   6.396  -8.094  1.00  0.00    -0.354 N 
ATOM     52  C   UNL     1      -5.775   5.276  -9.974  1.00  0.00     0.074 A 
ATOM     53  C   UNL     1      -6.705   4.739  -9.005  1.00  0.00     0.031 C 
ATOM     54  C   UNL     1      -0.564   6.546  -6.422  1.00  0.00     0.029 A 
ATOM     55  C   UNL     1      -0.740   6.771  -7.854  1.00  0.00     0.049 A 
ATOM     56  H   UNL     1      -2.471   6.478  -8.976  1.00  0.00     0.167 HD
ATOM     57  C   UNL     1      -6.049   5.437 -11.291  1.00  0.00     0.037 A 
ATOM     58  C   UNL     1       0.212   7.222  -8.694  1.00  0.00     0.037 A 
ATOM     59  C   UNL     1      -5.130   6.003 -12.242  1.00  0.00     0.049 A 
ATOM     60  C   UNL     1      -0.113   7.385 -10.154  1.00  0.00     0.074 A 
ATOM     61  C   UNL     1      -5.334   6.260 -13.586  1.00  0.00     0.029 A 
ATOM     62  N   UNL     1      -3.834   6.404 -11.951  1.00  0.00    -0.354 N 
ATOM     63  N   UNL     1      -1.236   7.124 -10.780  1.00  0.00    -0.248 NA
ATOM     64  C   UNL     1       0.954   7.900 -11.024  1.00  0.00     0.031 C 
ATOM     65  C   UNL     1      -4.148   6.777 -14.117  1.00  0.00     0.029 A 
ATOM     66  C   UNL     1      -3.220   6.888 -13.094  1.00  0.00     0.049 A 
ATOM     67  H   UNL     1      -3.412   6.351 -11.062  1.00  0.00     0.167 HD
ATOM     68  C   UNL     1      -1.020   7.473 -12.109  1.00  0.00     0.074 A 
ATOM     69  C   UNL     1       0.339   7.966 -12.197  1.00  0.00     0.031 C 
ATOM     70  C   UNL     1      -1.872   7.395 -13.160  1.00  0.00     0.037 A 
BRANCH  57  71
ATOM     71  C   UNL     1      -7.399   4.993 -11.783  1.00  0.00     0.058 A 
ATOM     72  C   UNL     1      -8.570   5.693 -11.453  1.00  0.00     0.135 A 
ATOM     73  C   UNL     1      -7.518   3.877 -12.627  1.00  0.00     0.135 A 
ATOM     74  F   UNL     1      -8.515   6.758 -10.638  1.00  0.00    -0.206 F 
ATOM     75  C   UNL     1      -9.816   5.285 -11.919  1.00  0.00     0.059 A 
ATOM     76  C   UNL     1      -8.751   3.468 -13.127  1.00  0.00     0.059 A 
ATOM     77  F   UNL     1      -6.430   3.171 -12.972  1.00  0.00    -0.206 F 
ATOM     78  C   UNL     1      -9.896   4.170 -12.755  1.00  0.00     0.060 A 
BRANCH  78  79
ATOM     79  S   UNL     1     -11.520   3.655 -13.352  1.00  0.00     0.124 S 
ATOM     80  O   UNL     1     -12.097   3.066 -12.148  1.00  0.00    -0.237 OA
ATOM     81  O   UNL     1     -12.109   4.919 -13.783  1.00  0.00    -0.237 OA
ATOM     82  O   UNL     1     -11.206   2.715 -14.423  1.00  0.00    -0.744 OA
ENDBRANCH  78  79
ENDBRANCH  57  71
BRANCH  58  83
ATOM     83  C   UNL     1       1.565   7.556  -8.173  1.00  0.00     0.058 A 
ATOM     84  C   UNL     1       1.997   8.889  -8.097  1.00  0.00     0.135 A 
ATOM     85  C   UNL     1       2.444   6.557  -7.728  1.00  0.00     0.135 A 
ATOM     86  F   UNL     1       1.194   9.878  -8.515  1.00  0.00    -0.206 F 
ATOM     87  C   UNL     1       3.258   9.219  -7.613  1.00  0.00     0.059 A 
ATOM     88  C   UNL     1       3.701   6.864  -7.218  1.00  0.00     0.059 A 
ATOM     89  F   UNL     1       2.071   5.268  -7.763  1.00  0.00    -0.206 F 
ATOM     90  C   UNL     1       4.103   8.198  -7.173  1.00  0.00     0.060 A 
BRANCH  90  91
ATOM     91  S   UNL     1       5.719   8.642  -6.499  1.00  0.00     0.124 S 
ATOM     92  O   UNL     1       6.451   9.001  -7.707  1.00  0.00    -0.237 OA
ATOM     93  O   UNL     1       5.385   9.743  -5.601  1.00  0.00    -0.237 OA
ATOM     94  O   UNL     1       6.152   7.414  -5.838  1.00  0.00    -0.744 OA
ENDBRANCH  90  91
ENDBRANCH  58  83
BRANCH  70  95
ATOM     95  C   UNL     1      -1.387   7.891 -14.493  1.00  0.00     0.058 A 
ATOM     96  C   UNL     1      -0.487   7.152 -15.272  1.00  0.00     0.135 A 
ATOM     97  C   UNL     1      -1.903   9.081 -15.033  1.00  0.00     0.135 A 
ATOM     98  F   UNL     1       0.042   6.013 -14.797  1.00  0.00    -0.206 F 
ATOM     99  C   UNL     1      -0.110   7.575 -16.543  1.00  0.00     0.059 A 
ATOM    100  C   UNL     1      -1.560   9.511 -16.310  1.00  0.00     0.059 A 
ATOM    101  F   UNL     1      -2.774   9.821 -14.329  1.00  0.00    -0.206 F 
ATOM    102  C   UNL     1      -0.659   8.753 -17.057  1.00  0.00     0.060 A 
BRANCH 102 103
ATOM    103  S   UNL     1      -0.216   9.254 -18.734  1.00  0.00     0.124 S 
ATOM    104  O   UNL     1       1.148   9.736 -18.547  1.00  0.00    -0.237 OA
ATOM    105  O   UNL     1      -0.352   8.006 -19.479  1.00  0.00    -0.237 OA
ATOM    106  O   UNL     1      -1.206  10.278 -19.055  1.00  0.00    -0.744 OA
ENDBRANCH 102 103
ENDBRANCH  70  95
ENDBRANCH  44  45
ENDBRANCH  36  39
ENDBRANCH  34  35
ENDBRANCH  33  34
ENDBRANCH   1  33
TORSDOF 18
