REMARK SMILES O=C(CCOc1cccc(/C=C2\CCn3c2nc2cc(Cl)ccc2c3=O)c1)NCCCNC(=O)c1ccc(-c2c3nc(c(-c4c(F)cc(S(=O)(=O)[O-])cc4F)c4ccc([nH]4)c(-c4c(F)cc(S(=O)(=O)[O-])cc4F)c4nc(c(-c5c(F)cc(S(=O)(=O)[O-])cc5F)c5ccc2[nH]5)C=C4)C=C3)cc1
REMARK SMILES IDX 29 1 28 2 1 3 2 4 3 6 4 7 5 8 6 9 7 10 27 11 8 12 10 13 9 14
REMARK SMILES IDX 11 15 12 16 13 17 16 18 14 19 15 20 17 21 25 22 18 23 24 24
REMARK SMILES IDX 26 25 19 26 23 27 20 28 22 29 21 30 30 31 31 32 32 33 33 34
REMARK SMILES IDX 34 36 35 37 36 38 100 39 37 40 99 41 38 42 39 43 40 44 93 45
REMARK SMILES IDX 41 46 98 47 92 48 94 49 42 50 97 51 91 52 90 53 43 55 77 56
REMARK SMILES IDX 56 57 76 58 57 59 60 60 75 61 95 62 58 63 59 64 74 66 96 67
REMARK SMILES IDX 61 68 44 69 45 70 54 71 46 72 47 73 53 74 55 75 48 76 49 77
REMARK SMILES IDX 50 78 51 79 52 80 78 81 79 82 88 83 80 84 81 85 87 86 89 87
REMARK SMILES IDX 82 88 83 89 84 90 85 91 86 92 62 93 63 94 72 95 64 96 65 97
REMARK SMILES IDX 71 98 73 99 66 100 67 101 68 102 69 103 70 104
REMARK H PARENT 28 5 32 35 94 54 60 65
REMARK Flexibility Score: inf
ROOT
ATOM      1  C   UNL     1       1.537  -0.224   1.663  1.00  0.00     0.117 C 
ENDROOT
BRANCH   1   2
ATOM      2  N   UNL     1       2.446  -0.415   0.562  1.00  0.00    -0.356 N 
ATOM      3  O   UNL     1       0.853  -0.228  -1.087  1.00  0.00    -0.275 OA
ATOM      4  C   UNL     1       2.027  -0.266  -0.736  1.00  0.00     0.223 C 
ATOM      5  H   UNL     1       3.383  -0.657   0.744  1.00  0.00     0.163 HD
BRANCH   4   6
ATOM      6  C   UNL     1       3.161   0.026  -1.677  1.00  0.00     0.141 C 
BRANCH   6   7
ATOM      7  C   UNL     1       3.421   1.532  -1.619  1.00  0.00     0.239 C 
BRANCH   7   8
ATOM      8  O   UNL     1       4.221   1.875  -0.483  1.00  0.00    -0.493 OA
BRANCH   8   9
ATOM      9  C   UNL     1       3.736   2.782   0.426  1.00  0.00     0.119 A 
ATOM     10  C   UNL     1       4.706   3.580   1.019  1.00  0.00     0.046 A 
ATOM     11  C   UNL     1       2.423   2.813   0.932  1.00  0.00     0.054 A 
ATOM     12  C   UNL     1       4.340   4.481   2.020  1.00  0.00     0.004 A 
ATOM     13  C   UNL     1       2.106   3.494   2.136  1.00  0.00    -0.022 A 
ATOM     14  C   UNL     1       3.035   4.462   2.556  1.00  0.00     0.008 A 
BRANCH  13  15
ATOM     15  C   UNL     1       1.032   2.878   3.092  1.00  0.00     0.015 C 
ATOM     16  C   UNL     1       1.358   2.300   4.304  1.00  0.00    -0.003 C 
ATOM     17  C   UNL     1       2.627   2.735   4.948  1.00  0.00     0.061 C 
ATOM     18  C   UNL     1       1.596   0.747   4.402  1.00  0.00     0.139 A 
ATOM     19  C   UNL     1       3.687   1.992   4.099  1.00  0.00     0.132 C 
ATOM     20  N   UNL     1       3.032   0.771   3.423  1.00  0.00    -0.292 N 
ATOM     21  N   UNL     1       1.149  -0.451   5.099  1.00  0.00    -0.230 NA
ATOM     22  C   UNL     1       3.861  -0.712   2.795  1.00  0.00     0.261 A 
ATOM     23  C   UNL     1       1.810  -2.136   4.748  1.00  0.00     0.080 A 
ATOM     24  C   UNL     1       3.220  -2.348   3.645  1.00  0.00     0.066 A 
ATOM     25  O   UNL     1       4.745  -0.619   1.954  1.00  0.00    -0.269 OA
ATOM     26  C   UNL     1       1.059  -3.246   5.028  1.00  0.00     0.049 A 
ATOM     27  C   UNL     1       3.522  -3.562   3.095  1.00  0.00     0.017 A 
ATOM     28  C   UNL     1       1.456  -4.420   4.338  1.00  0.00     0.043 A 
ATOM     29  C   UNL     1       2.602  -4.571   3.441  1.00  0.00     0.021 A 
ATOM     30  Cl  UNL     1       0.397  -5.795   4.454  1.00  0.00    -0.084 Cl
ENDBRANCH  13  15
ENDBRANCH   8   9
ENDBRANCH   7   8
ENDBRANCH   6   7
ENDBRANCH   4   6
ENDBRANCH   1   2
BRANCH   1  31
ATOM     31  C   UNL     1       1.861  -0.879   3.103  1.00  0.00     0.042 C 
BRANCH  31  32
ATOM     32  C   UNL     1       3.284  -0.633   4.768  1.00  0.00     0.118 C 
BRANCH  32  33
ATOM     33  N   UNL     1       4.947  -0.215   4.585  1.00  0.00    -0.352 N 
ATOM     34  C   UNL     1       5.876   0.199   5.486  1.00  0.00     0.251 C 
ATOM     35  H   UNL     1       5.283  -0.290   3.663  1.00  0.00     0.163 HD
ATOM     36  O   UNL     1       6.582   1.183   5.310  1.00  0.00    -0.269 OA
BRANCH  34  37
ATOM     37  C   UNL     1       6.082  -0.689   6.574  1.00  0.00     0.039 A 
ATOM     38  C   UNL     1       6.071  -0.212   7.877  1.00  0.00     0.014 A 
ATOM     39  C   UNL     1       6.326  -2.007   6.187  1.00  0.00     0.014 A 
ATOM     40  C   UNL     1       6.309  -1.133   8.864  1.00  0.00     0.010 A 
ATOM     41  C   UNL     1       6.498  -2.926   7.168  1.00  0.00     0.010 A 
ATOM     42  C   UNL     1       6.520  -2.471   8.491  1.00  0.00    -0.014 A 
BRANCH  42  43
ATOM     43  C   UNL     1       6.847  -3.465   9.489  1.00  0.00     0.031 A 
ATOM     44  C   UNL     1       8.237  -3.994   9.496  1.00  0.00     0.074 A 
ATOM     45  C   UNL     1       5.829  -3.917  10.229  1.00  0.00     0.049 A 
ATOM     46  N   UNL     1       8.728  -4.973  10.194  1.00  0.00    -0.248 NA
ATOM     47  C   UNL     1       9.191  -3.384   8.546  1.00  0.00     0.031 C 
ATOM     48  C   UNL     1       4.439  -3.447  10.144  1.00  0.00     0.029 A 
ATOM     49  N   UNL     1       5.804  -4.880  11.183  1.00  0.00    -0.354 N 
ATOM     50  C   UNL     1      10.037  -5.111   9.759  1.00  0.00     0.074 A 
ATOM     51  C   UNL     1      10.247  -4.169   8.686  1.00  0.00     0.031 C 
ATOM     52  C   UNL     1       3.701  -4.111  11.045  1.00  0.00     0.029 A 
ATOM     53  C   UNL     1       4.564  -5.060  11.734  1.00  0.00     0.049 A 
ATOM     54  H   UNL     1       6.598  -5.397  11.452  1.00  0.00     0.167 HD
ATOM     55  C   UNL     1      10.975  -5.943  10.256  1.00  0.00     0.037 A 
ATOM     56  C   UNL     1       4.200  -5.909  12.706  1.00  0.00     0.037 A 
ATOM     57  C   UNL     1      10.694  -6.831  11.350  1.00  0.00     0.049 A 
ATOM     58  C   UNL     1       5.287  -6.759  13.296  1.00  0.00     0.074 A 
ATOM     59  C   UNL     1      11.543  -7.698  12.006  1.00  0.00     0.029 A 
ATOM     60  N   UNL     1       9.446  -6.947  11.957  1.00  0.00    -0.354 N 
ATOM     61  N   UNL     1       6.547  -6.856  12.930  1.00  0.00    -0.248 NA
ATOM     62  C   UNL     1       4.919  -7.589  14.442  1.00  0.00     0.031 C 
ATOM     63  C   UNL     1      10.800  -8.357  12.993  1.00  0.00     0.029 A 
ATOM     64  C   UNL     1       9.499  -7.869  12.982  1.00  0.00     0.049 A 
ATOM     65  H   UNL     1       8.642  -6.444  11.692  1.00  0.00     0.167 HD
ATOM     66  C   UNL     1       7.134  -7.747  13.815  1.00  0.00     0.074 A 
ATOM     67  C   UNL     1       6.088  -8.134  14.748  1.00  0.00     0.031 C 
ATOM     68  C   UNL     1       8.409  -8.212  13.864  1.00  0.00     0.037 A 
BRANCH  55  69
ATOM     69  C   UNL     1      12.339  -5.904   9.631  1.00  0.00     0.058 A 
ATOM     70  C   UNL     1      13.169  -4.773   9.736  1.00  0.00     0.135 A 
ATOM     71  C   UNL     1      12.823  -7.000   8.901  1.00  0.00     0.135 A 
ATOM     72  F   UNL     1      12.746  -3.681  10.394  1.00  0.00    -0.206 F 
ATOM     73  C   UNL     1      14.415  -4.721   9.120  1.00  0.00     0.059 A 
ATOM     74  C   UNL     1      14.080  -6.982   8.302  1.00  0.00     0.059 A 
ATOM     75  F   UNL     1      12.067  -8.098   8.749  1.00  0.00    -0.206 F 
ATOM     76  C   UNL     1      14.863  -5.833   8.406  1.00  0.00     0.060 A 
BRANCH  76  77
ATOM     77  S   UNL     1      16.493  -5.760   7.633  1.00  0.00     0.124 S 
ATOM     78  O   UNL     1      16.244  -4.861   6.511  1.00  0.00    -0.237 OA
ATOM     79  O   UNL     1      17.322  -5.219   8.706  1.00  0.00    -0.237 OA
ATOM     80  O   UNL     1      16.762  -7.149   7.278  1.00  0.00    -0.744 OA
ENDBRANCH  76  77
ENDBRANCH  55  69
BRANCH  56  81
ATOM     81  C   UNL     1       2.805  -5.908  13.199  1.00  0.00     0.058 A 
ATOM     82  C   UNL     1       2.491  -5.374  14.457  1.00  0.00     0.135 A 
ATOM     83  C   UNL     1       1.747  -6.370  12.401  1.00  0.00     0.135 A 
ATOM     84  F   UNL     1       3.467  -4.896  15.244  1.00  0.00    -0.206 F 
ATOM     85  C   UNL     1       1.183  -5.328  14.922  1.00  0.00     0.059 A 
ATOM     86  C   UNL     1       0.426  -6.311  12.833  1.00  0.00     0.059 A 
ATOM     87  F   UNL     1       1.991  -6.846  11.170  1.00  0.00    -0.206 F 
ATOM     88  C   UNL     1       0.156  -5.801  14.102  1.00  0.00     0.060 A 
BRANCH  88  89
ATOM     89  S   UNL     1      -1.542  -5.706  14.705  1.00  0.00     0.124 S 
ATOM     90  O   UNL     1      -1.555  -6.761  15.711  1.00  0.00    -0.237 OA
ATOM     91  O   UNL     1      -1.612  -4.339  15.211  1.00  0.00    -0.237 OA
ATOM     92  O   UNL     1      -2.338  -5.964  13.508  1.00  0.00    -0.744 OA
ENDBRANCH  88  89
ENDBRANCH  56  81
BRANCH  68  93
ATOM     93  C   UNL     1       8.712  -9.166  14.978  1.00  0.00     0.058 A 
ATOM     94  C   UNL     1       8.214 -10.477  14.973  1.00  0.00     0.135 A 
ATOM     95  C   UNL     1       9.511  -8.759  16.056  1.00  0.00     0.135 A 
ATOM     96  F   UNL     1       7.442 -10.905  13.961  1.00  0.00    -0.206 F 
ATOM     97  C   UNL     1       8.455 -11.340  16.032  1.00  0.00     0.059 A 
ATOM     98  C   UNL     1       9.794  -9.617  17.109  1.00  0.00     0.059 A 
ATOM     99  F   UNL     1      10.023  -7.518  16.091  1.00  0.00    -0.206 F 
ATOM    100  C   UNL     1       9.239 -10.897  17.099  1.00  0.00     0.060 A 
BRANCH 100 101
ATOM    101  S   UNL     1       9.530 -12.019  18.479  1.00  0.00     0.124 S 
ATOM    102  O   UNL     1       8.253 -11.949  19.182  1.00  0.00    -0.237 OA
ATOM    103  O   UNL     1       9.815 -13.280  17.803  1.00  0.00    -0.237 OA
ATOM    104  O   UNL     1      10.664 -11.415  19.172  1.00  0.00    -0.744 OA
ENDBRANCH 100 101
ENDBRANCH  68  93
ENDBRANCH  42  43
ENDBRANCH  34  37
ENDBRANCH  32  33
ENDBRANCH  31  32
ENDBRANCH   1  31
TORSDOF 17
