REMARK SMILES C[C@@H]1SCCC[C@@]1(CC(=O)NCCCNC(=O)c1ccc(-c2c3nc(c(-c4c(F)cc(S(=O)(=O)[O-])cc4F)c4ccc([nH]4)c(-c4c(F)cc(S(=O)(=O)[O-])cc4F)c4nc(c(-c5c(F)cc(S(=O)(=O)[O-])cc5F)c5ccc2[nH]5)C=C4)C=C3)cc1)[NH+]1CCCC1
REMARK SMILES IDX 13 1 12 2 11 3 9 4 10 5 8 7 7 8 1 9 2 10 3 11 4 12 6 13 5 14
REMARK SMILES IDX 84 15 85 16 88 17 86 19 87 20 14 21 15 22 16 23 17 25 18 26
REMARK SMILES IDX 19 27 83 28 20 29 82 30 21 31 22 32 23 33 76 34 24 35 81 36
REMARK SMILES IDX 75 37 77 38 25 39 80 40 74 41 73 42 26 44 60 45 39 46 59 47
REMARK SMILES IDX 40 48 43 49 58 50 78 51 41 52 42 53 57 55 79 56 44 57 27 58
REMARK SMILES IDX 28 59 37 60 29 61 30 62 36 63 38 64 31 65 32 66 33 67 34 68
REMARK SMILES IDX 35 69 61 70 62 71 71 72 63 73 64 74 70 75 72 76 65 77 66 78
REMARK SMILES IDX 67 79 68 80 69 81 45 82 46 83 55 84 47 85 48 86 54 87 56 88
REMARK SMILES IDX 49 89 50 90 51 91 52 92 53 93
REMARK H PARENT 11 6 84 18 15 24 77 43 43 54
REMARK Flexibility Score: inf
ROOT
ATOM      1  C   UNL     1      -3.301   2.082  -1.872  1.00  0.00     0.042 C 
ENDROOT
BRANCH   1   2
ATOM      2  C   UNL     1      -3.619   0.690  -1.346  1.00  0.00     0.117 C 
BRANCH   2   3
ATOM      3  N   UNL     1      -2.525  -0.240  -1.506  1.00  0.00    -0.356 N 
ATOM      4  C   UNL     1      -1.646  -0.693  -0.577  1.00  0.00     0.226 C 
ATOM      5  O   UNL     1      -1.048  -1.740  -0.851  1.00  0.00    -0.275 OA
ATOM      6  H   UNL     1      -2.399  -0.595  -2.416  1.00  0.00     0.163 HD
BRANCH   4   7
ATOM      7  C   UNL     1      -1.430  -0.017   0.778  1.00  0.00     0.169 C 
BRANCH   7   8
ATOM      8  C   UNL     1      -0.672   1.381   0.867  1.00  0.00     0.118 C 
ATOM      9  C   UNL     1       1.388   0.204  -0.345  1.00  0.00     0.026 C 
ATOM     10  C   UNL     1       0.446   1.432  -0.285  1.00  0.00     0.105 C 
ATOM     11  S   UNL     1       1.618   2.853  -0.209  1.00  0.00    -0.152 SA
ATOM     12  C   UNL     1       2.194   2.670   1.496  1.00  0.00     0.070 C 
ATOM     13  C   UNL     1       0.078   1.416   2.254  1.00  0.00     0.071 C 
ATOM     14  C   UNL     1       1.054   2.571   2.498  1.00  0.00     0.017 C 
BRANCH   8  15
ATOM     15  N   UNL     1      -1.728   2.455   0.838  1.00  0.00    -0.329 N 
ATOM     16  C   UNL     1      -1.404   3.873   0.659  1.00  0.00     0.262 C 
ATOM     17  C   UNL     1      -2.839   2.378   1.807  1.00  0.00     0.262 C 
ATOM     18  H   UNL     1      -2.010   2.118  -0.082  1.00  0.00     0.348 HD
ATOM     19  C   UNL     1      -2.065   4.612   1.812  1.00  0.00     0.067 C 
ATOM     20  C   UNL     1      -3.305   3.801   2.067  1.00  0.00     0.067 C 
ENDBRANCH   8  15
ENDBRANCH   7   8
ENDBRANCH   4   7
ENDBRANCH   2   3
ENDBRANCH   1   2
BRANCH   1  21
ATOM     21  C   UNL     1      -3.684   2.295  -3.329  1.00  0.00     0.118 C 
BRANCH  21  22
ATOM     22  N   UNL     1      -5.129   2.340  -3.515  1.00  0.00    -0.352 N 
ATOM     23  C   UNL     1      -5.933   3.331  -4.021  1.00  0.00     0.251 C 
ATOM     24  H   UNL     1      -5.606   1.527  -3.231  1.00  0.00     0.163 HD
ATOM     25  O   UNL     1      -7.150   3.236  -3.879  1.00  0.00    -0.269 OA
BRANCH  23  26
ATOM     26  C   UNL     1      -5.360   4.508  -4.718  1.00  0.00     0.039 A 
ATOM     27  C   UNL     1      -5.986   5.749  -4.564  1.00  0.00     0.014 A 
ATOM     28  C   UNL     1      -4.253   4.394  -5.563  1.00  0.00     0.014 A 
ATOM     29  C   UNL     1      -5.474   6.877  -5.211  1.00  0.00     0.010 A 
ATOM     30  C   UNL     1      -3.694   5.532  -6.141  1.00  0.00     0.010 A 
ATOM     31  C   UNL     1      -4.306   6.784  -5.983  1.00  0.00    -0.014 A 
BRANCH  31  32
ATOM     32  C   UNL     1      -3.717   7.979  -6.643  1.00  0.00     0.031 A 
ATOM     33  C   UNL     1      -3.625   8.045  -8.145  1.00  0.00     0.074 A 
ATOM     34  C   UNL     1      -3.210   8.974  -5.888  1.00  0.00     0.049 A 
ATOM     35  N   UNL     1      -3.076   8.961  -8.900  1.00  0.00    -0.248 NA
ATOM     36  C   UNL     1      -4.202   6.919  -8.897  1.00  0.00     0.031 C 
ATOM     37  C   UNL     1      -3.193   9.002  -4.424  1.00  0.00     0.029 A 
ATOM     38  N   UNL     1      -2.597  10.149  -6.247  1.00  0.00    -0.354 N 
ATOM     39  C   UNL     1      -3.222   8.515 -10.208  1.00  0.00     0.074 A 
ATOM     40  C   UNL     1      -3.870   7.223 -10.143  1.00  0.00     0.031 C 
ATOM     41  C   UNL     1      -2.618  10.142  -4.010  1.00  0.00     0.029 A 
ATOM     42  C   UNL     1      -2.191  10.910  -5.175  1.00  0.00     0.049 A 
ATOM     43  H   UNL     1      -2.461  10.421  -7.183  1.00  0.00     0.167 HD
ATOM     44  C   UNL     1      -2.869   9.135 -11.360  1.00  0.00     0.037 A 
ATOM     45  C   UNL     1      -1.538  12.088  -5.136  1.00  0.00     0.037 A 
ATOM     46  C   UNL     1      -2.257  10.437 -11.417  1.00  0.00     0.049 A 
ATOM     47  C   UNL     1      -1.171  12.764  -6.429  1.00  0.00     0.074 A 
ATOM     48  C   UNL     1      -1.921  11.181 -12.535  1.00  0.00     0.029 A 
ATOM     49  N   UNL     1      -1.891  11.190 -10.311  1.00  0.00    -0.354 N 
ATOM     50  N   UNL     1      -1.375  12.355  -7.659  1.00  0.00    -0.248 NA
ATOM     51  C   UNL     1      -0.492  14.063  -6.331  1.00  0.00     0.031 C 
ATOM     52  C   UNL     1      -1.317  12.367 -12.104  1.00  0.00     0.029 A 
ATOM     53  C   UNL     1      -1.318  12.383 -10.719  1.00  0.00     0.049 A 
ATOM     54  H   UNL     1      -2.021  10.916  -9.374  1.00  0.00     0.167 HD
ATOM     55  C   UNL     1      -0.871  13.357  -8.480  1.00  0.00     0.074 A 
ATOM     56  C   UNL     1      -0.366  14.397  -7.608  1.00  0.00     0.031 C 
ATOM     57  C   UNL     1      -0.829  13.411  -9.835  1.00  0.00     0.037 A 
BRANCH  44  58
ATOM     58  C   UNL     1      -3.144   8.420 -12.655  1.00  0.00     0.058 A 
ATOM     59  C   UNL     1      -4.450   8.255 -13.143  1.00  0.00     0.135 A 
ATOM     60  C   UNL     1      -2.087   7.934 -13.442  1.00  0.00     0.135 A 
ATOM     61  F   UNL     1      -5.500   8.686 -12.424  1.00  0.00    -0.206 F 
ATOM     62  C   UNL     1      -4.702   7.614 -14.351  1.00  0.00     0.059 A 
ATOM     63  C   UNL     1      -2.313   7.313 -14.668  1.00  0.00     0.059 A 
ATOM     64  F   UNL     1      -0.818   8.064 -13.025  1.00  0.00    -0.206 F 
ATOM     65  C   UNL     1      -3.626   7.147 -15.108  1.00  0.00     0.060 A 
BRANCH  65  66
ATOM     66  S   UNL     1      -3.969   6.332 -16.682  1.00  0.00     0.124 S 
ATOM     67  O   UNL     1      -4.497   5.047 -16.235  1.00  0.00    -0.237 OA
ATOM     68  O   UNL     1      -4.936   7.235 -17.297  1.00  0.00    -0.237 OA
ATOM     69  O   UNL     1      -2.662   6.281 -17.331  1.00  0.00    -0.744 OA
ENDBRANCH  65  66
ENDBRANCH  44  58
BRANCH  45  70
ATOM     70  C   UNL     1      -1.206  12.711  -3.827  1.00  0.00     0.058 A 
ATOM     71  C   UNL     1      -1.867  13.869  -3.391  1.00  0.00     0.135 A 
ATOM     72  C   UNL     1      -0.231  12.159  -2.982  1.00  0.00     0.135 A 
ATOM     73  F   UNL     1      -2.803  14.438  -4.165  1.00  0.00    -0.206 F 
ATOM     74  C   UNL     1      -1.560  14.470  -2.174  1.00  0.00     0.059 A 
ATOM     75  C   UNL     1       0.075  12.726  -1.749  1.00  0.00     0.059 A 
ATOM     76  F   UNL     1       0.417  11.041  -3.344  1.00  0.00    -0.206 F 
ATOM     77  C   UNL     1      -0.587  13.889  -1.359  1.00  0.00     0.060 A 
BRANCH  77  78
ATOM     78  S   UNL     1      -0.227  14.651   0.239  1.00  0.00     0.124 S 
ATOM     79  O   UNL     1       0.542  15.823  -0.162  1.00  0.00    -0.237 OA
ATOM     80  O   UNL     1      -1.564  14.912   0.764  1.00  0.00    -0.237 OA
ATOM     81  O   UNL     1       0.521  13.614   0.943  1.00  0.00    -0.744 OA
ENDBRANCH  77  78
ENDBRANCH  45  70
BRANCH  57  82
ATOM     82  C   UNL     1      -0.247  14.648 -10.458  1.00  0.00     0.058 A 
ATOM     83  C   UNL     1       1.134  14.899 -10.446  1.00  0.00     0.135 A 
ATOM     84  C   UNL     1      -1.077  15.567 -11.120  1.00  0.00     0.135 A 
ATOM     85  F   UNL     1       1.969  14.055  -9.821  1.00  0.00    -0.206 F 
ATOM     86  C   UNL     1       1.670  16.032 -11.050  1.00  0.00     0.059 A 
ATOM     87  C   UNL     1      -0.559  16.692 -11.754  1.00  0.00     0.059 A 
ATOM     88  F   UNL     1      -2.403  15.367 -11.170  1.00  0.00    -0.206 F 
ATOM     89  C   UNL     1       0.815  16.923 -11.702  1.00  0.00     0.060 A 
BRANCH  89  90
ATOM     90  S   UNL     1       1.526  18.372 -12.511  1.00  0.00     0.124 S 
ATOM     91  O   UNL     1       1.836  19.223 -11.367  1.00  0.00    -0.237 OA
ATOM     92  O   UNL     1       2.676  17.807 -13.210  1.00  0.00    -0.237 OA
ATOM     93  O   UNL     1       0.447  18.844 -13.372  1.00  0.00    -0.744 OA
ENDBRANCH  89  90
ENDBRANCH  57  82
ENDBRANCH  31  32
ENDBRANCH  23  26
ENDBRANCH  21  22
ENDBRANCH   1  21
TORSDOF 15
