REMARK SMILES C=CCN(CC(=O)NCCCNC(=O)c1ccc(-c2c3nc(c(-c4c(F)cc(S(=O)(=O)[O-])cc4F)c4ccc([nH]4)c(-c4c(F)cc(S(=O)(=O)[O-])cc4F)c4nc(c(-c5c(F)cc(S(=O)(=O)[O-])cc5F)c5ccc2[nH]5)C=C4)C=C3)cc1)C(=O)NC[C@@H]1CCC(=O)N1
REMARK SMILES IDX 9 1 8 2 6 3 7 4 5 6 4 7 3 8 2 9 1 10 81 11 82 12 83 13 84 15
REMARK SMILES IDX 85 16 86 17 90 18 87 19 88 20 89 22 10 23 11 24 12 25 13 26
REMARK SMILES IDX 14 28 15 29 16 30 80 31 17 32 79 33 18 34 19 35 20 36 73 37
REMARK SMILES IDX 21 38 78 39 72 40 74 41 22 42 77 43 71 44 70 45 23 47 57 48
REMARK SMILES IDX 36 49 56 50 37 51 40 52 55 53 75 54 38 55 39 56 54 58 76 59
REMARK SMILES IDX 41 60 24 61 25 62 34 63 26 64 27 65 33 66 35 67 28 68 29 69
REMARK SMILES IDX 30 70 31 71 32 72 58 73 59 74 68 75 60 76 61 77 67 78 69 79
REMARK SMILES IDX 62 80 63 81 64 82 65 83 66 84 42 85 43 86 52 87 44 88 45 89
REMARK SMILES IDX 51 90 53 91 46 92 47 93 48 94 49 95 50 96
REMARK H PARENT 8 5 83 14 90 21 12 27 74 46 40 57
REMARK Flexibility Score: inf
ROOT
ATOM      1  C   UNL     1      -4.442   0.934   0.491  1.00  0.00     0.117 C 
ENDROOT
BRANCH   1   2
ATOM      2  N   UNL     1      -4.679   1.278   1.878  1.00  0.00    -0.354 N 
ATOM      3  C   UNL     1      -3.854   1.913   2.760  1.00  0.00     0.239 C 
ATOM      4  O   UNL     1      -4.384   2.562   3.673  1.00  0.00    -0.273 OA
ATOM      5  H   UNL     1      -5.560   1.018   2.234  1.00  0.00     0.163 HD
BRANCH   3   6
ATOM      6  C   UNL     1      -2.329   1.961   2.594  1.00  0.00     0.221 C 
BRANCH   6   7
ATOM      7  N   UNL     1      -1.672   0.733   2.158  1.00  0.00    -0.312 N 
BRANCH   7   8
ATOM      8  C   UNL     1      -1.083   0.757   0.816  1.00  0.00     0.149 C 
BRANCH   8   9
ATOM      9  C   UNL     1       0.408   0.909   0.877  1.00  0.00    -0.013 C 
ATOM     10  C   UNL     1       1.245   0.104   0.207  1.00  0.00     0.006 C 
ENDBRANCH   8   9
ENDBRANCH   7   8
BRANCH   7  11
ATOM     11  C   UNL     1      -1.470  -0.398   2.891  1.00  0.00     0.318 C 
ATOM     12  O   UNL     1      -0.885  -1.380   2.421  1.00  0.00    -0.249 OA
ATOM     13  N   UNL     1      -1.868  -0.576   4.156  1.00  0.00    -0.336 N 
ATOM     14  H   UNL     1      -1.497  -1.419   4.504  1.00  0.00     0.165 HD
BRANCH  13  15
ATOM     15  C   UNL     1      -2.669   0.069   5.187  1.00  0.00     0.142 C 
BRANCH  15  16
ATOM     16  C   UNL     1      -4.075  -0.546   5.395  1.00  0.00     0.101 C 
ATOM     17  C   UNL     1      -4.373  -1.850   4.652  1.00  0.00     0.036 C 
ATOM     18  N   UNL     1      -5.151   0.301   4.955  1.00  0.00    -0.352 N 
ATOM     19  C   UNL     1      -5.896  -1.862   4.531  1.00  0.00     0.102 C 
ATOM     20  C   UNL     1      -6.206  -0.395   4.412  1.00  0.00     0.220 C 
ATOM     21  H   UNL     1      -5.134   1.282   5.036  1.00  0.00     0.163 HD
ATOM     22  O   UNL     1      -7.200   0.106   3.921  1.00  0.00    -0.275 OA
ENDBRANCH  15  16
ENDBRANCH  13  15
ENDBRANCH   7  11
ENDBRANCH   6   7
ENDBRANCH   3   6
ENDBRANCH   1   2
BRANCH   1  23
ATOM     23  C   UNL     1      -4.326  -0.561   0.213  1.00  0.00     0.042 C 
BRANCH  23  24
ATOM     24  C   UNL     1      -5.621  -1.356   0.376  1.00  0.00     0.118 C 
BRANCH  24  25
ATOM     25  N   UNL     1      -6.709  -0.859  -0.456  1.00  0.00    -0.352 N 
ATOM     26  C   UNL     1      -7.371  -1.414  -1.522  1.00  0.00     0.251 C 
ATOM     27  H   UNL     1      -7.027   0.039  -0.207  1.00  0.00     0.163 HD
ATOM     28  O   UNL     1      -8.130  -0.705  -2.182  1.00  0.00    -0.269 OA
BRANCH  26  29
ATOM     29  C   UNL     1      -7.183  -2.833  -1.904  1.00  0.00     0.039 A 
ATOM     30  C   UNL     1      -7.151  -3.161  -3.264  1.00  0.00     0.014 A 
ATOM     31  C   UNL     1      -7.095  -3.848  -0.949  1.00  0.00     0.014 A 
ATOM     32  C   UNL     1      -6.949  -4.486  -3.661  1.00  0.00     0.010 A 
ATOM     33  C   UNL     1      -6.821  -5.159  -1.344  1.00  0.00     0.010 A 
ATOM     34  C   UNL     1      -6.732  -5.490  -2.704  1.00  0.00    -0.014 A 
BRANCH  34  35
ATOM     35  C   UNL     1      -6.354  -6.872  -3.110  1.00  0.00     0.031 A 
ATOM     36  C   UNL     1      -7.238  -8.044  -2.781  1.00  0.00     0.074 A 
ATOM     37  C   UNL     1      -5.166  -7.075  -3.715  1.00  0.00     0.049 A 
ATOM     38  N   UNL     1      -7.029  -9.319  -2.990  1.00  0.00    -0.248 NA
ATOM     39  C   UNL     1      -8.515  -7.748  -2.113  1.00  0.00     0.031 C 
ATOM     40  C   UNL     1      -4.199  -6.025  -4.048  1.00  0.00     0.029 A 
ATOM     41  N   UNL     1      -4.559  -8.229  -4.144  1.00  0.00    -0.354 N 
ATOM     42  C   UNL     1      -8.137  -9.979  -2.471  1.00  0.00     0.074 A 
ATOM     43  C   UNL     1      -8.996  -8.964  -1.897  1.00  0.00     0.031 C 
ATOM     44  C   UNL     1      -3.132  -6.580  -4.642  1.00  0.00     0.029 A 
ATOM     45  C   UNL     1      -3.312  -8.027  -4.689  1.00  0.00     0.049 A 
ATOM     46  H   UNL     1      -4.977  -9.117  -4.069  1.00  0.00     0.167 HD
ATOM     47  C   UNL     1      -8.418 -11.305  -2.485  1.00  0.00     0.037 A 
ATOM     48  C   UNL     1      -2.403  -8.906  -5.155  1.00  0.00     0.037 A 
ATOM     49  C   UNL     1      -7.559 -12.307  -3.067  1.00  0.00     0.049 A 
ATOM     50  C   UNL     1      -2.727 -10.375  -5.137  1.00  0.00     0.074 A 
ATOM     51  C   UNL     1      -7.785 -13.667  -3.187  1.00  0.00     0.029 A 
ATOM     52  N   UNL     1      -6.307 -12.063  -3.613  1.00  0.00    -0.354 N 
ATOM     53  N   UNL     1      -3.813 -10.973  -4.709  1.00  0.00    -0.248 NA
ATOM     54  C   UNL     1      -1.706 -11.287  -5.668  1.00  0.00     0.031 C 
ATOM     55  C   UNL     1      -6.646 -14.254  -3.748  1.00  0.00     0.029 A 
ATOM     56  C   UNL     1      -5.733 -13.252  -4.037  1.00  0.00     0.049 A 
ATOM     57  H   UNL     1      -5.887 -11.175  -3.688  1.00  0.00     0.167 HD
ATOM     58  C   UNL     1      -3.613 -12.331  -4.935  1.00  0.00     0.074 A 
ATOM     59  C   UNL     1      -2.312 -12.462  -5.558  1.00  0.00     0.031 C 
ATOM     60  C   UNL     1      -4.433 -13.373  -4.651  1.00  0.00     0.037 A 
BRANCH  47  61
ATOM     61  C   UNL     1      -9.705 -11.758  -1.845  1.00  0.00     0.058 A 
ATOM     62  C   UNL     1     -10.957 -11.459  -2.406  1.00  0.00     0.135 A 
ATOM     63  C   UNL     1      -9.684 -12.542  -0.679  1.00  0.00     0.135 A 
ATOM     64  F   UNL     1     -11.040 -10.704  -3.513  1.00  0.00    -0.206 F 
ATOM     65  C   UNL     1     -12.142 -11.893  -1.818  1.00  0.00     0.059 A 
ATOM     66  C   UNL     1     -10.855 -13.014  -0.092  1.00  0.00     0.059 A 
ATOM     67  F   UNL     1      -8.516 -12.862  -0.100  1.00  0.00    -0.206 F 
ATOM     68  C   UNL     1     -12.080 -12.672  -0.661  1.00  0.00     0.060 A 
BRANCH  68  69
ATOM     69  S   UNL     1     -13.626 -13.230   0.085  1.00  0.00     0.124 S 
ATOM     70  O   UNL     1     -14.157 -11.982   0.624  1.00  0.00    -0.237 OA
ATOM     71  O   UNL     1     -14.344 -13.780  -1.061  1.00  0.00    -0.237 OA
ATOM     72  O   UNL     1     -13.193 -14.207   1.078  1.00  0.00    -0.744 OA
ENDBRANCH  68  69
ENDBRANCH  47  61
BRANCH  48  73
ATOM     73  C   UNL     1      -1.100  -8.415  -5.679  1.00  0.00     0.058 A 
ATOM     74  C   UNL     1      -0.793  -8.493  -7.045  1.00  0.00     0.135 A 
ATOM     75  C   UNL     1      -0.143  -7.837  -4.828  1.00  0.00     0.135 A 
ATOM     76  F   UNL     1      -1.670  -9.044  -7.899  1.00  0.00    -0.206 F 
ATOM     77  C   UNL     1       0.417  -8.027  -7.549  1.00  0.00     0.059 A 
ATOM     78  C   UNL     1       1.061  -7.338  -5.312  1.00  0.00     0.059 A 
ATOM     79  F   UNL     1      -0.393  -7.725  -3.514  1.00  0.00    -0.206 F 
ATOM     80  C   UNL     1       1.336  -7.445  -6.674  1.00  0.00     0.060 A 
BRANCH  80  81
ATOM     81  S   UNL     1       2.878  -6.791  -7.349  1.00  0.00     0.124 S 
ATOM     82  O   UNL     1       3.594  -8.015  -7.689  1.00  0.00    -0.237 OA
ATOM     83  O   UNL     1       2.404  -5.994  -8.477  1.00  0.00    -0.237 OA
ATOM     84  O   UNL     1       3.432  -6.022  -6.238  1.00  0.00    -0.744 OA
ENDBRANCH  80  81
ENDBRANCH  48  73
BRANCH  60  85
ATOM     85  C   UNL     1      -3.956 -14.751  -5.026  1.00  0.00     0.058 A 
ATOM     86  C   UNL     1      -2.908 -15.383  -4.339  1.00  0.00     0.135 A 
ATOM     87  C   UNL     1      -4.587 -15.467  -6.058  1.00  0.00     0.135 A 
ATOM     88  F   UNL     1      -2.264 -14.742  -3.351  1.00  0.00    -0.206 F 
ATOM     89  C   UNL     1      -2.484 -16.665  -4.677  1.00  0.00     0.059 A 
ATOM     90  C   UNL     1      -4.201 -16.762  -6.391  1.00  0.00     0.059 A 
ATOM     91  F   UNL     1      -5.601 -14.916  -6.743  1.00  0.00    -0.206 F 
ATOM     92  C   UNL     1      -3.140 -17.348  -5.702  1.00  0.00     0.060 A 
BRANCH  92  93
ATOM     93  S   UNL     1      -2.601 -19.023  -6.106  1.00  0.00     0.124 S 
ATOM     94  O   UNL     1      -1.319 -18.772  -6.756  1.00  0.00    -0.237 OA
ATOM     95  O   UNL     1      -2.534 -19.654  -4.792  1.00  0.00    -0.237 OA
ATOM     96  O   UNL     1      -3.660 -19.521  -6.980  1.00  0.00    -0.744 OA
ENDBRANCH  92  93
ENDBRANCH  60  85
ENDBRANCH  34  35
ENDBRANCH  26  29
ENDBRANCH  24  25
ENDBRANCH  23  24
ENDBRANCH   1  23
TORSDOF 19
