REMARK SMILES C[C@H]1C[NH2+]C[C@@H](CC(=O)NCCCNC(=O)c2ccc(-c3c4nc(c(-c5c(F)cc(S(=O)(=O)[O-])cc5F)c5ccc([nH]5)c(-c5c(F)cc(S(=O)(=O)[O-])cc5F)c5nc(c(-c6c(F)cc(S(=O)(=O)[O-])cc6F)c6ccc3[nH]6)C=C5)C=C4)cc2)C1
REMARK SMILES IDX 13 1 12 2 11 3 10 4 8 5 9 6 7 8 6 9 1 10 2 11 3 12 83 13
REMARK SMILES IDX 4 14 5 15 14 18 15 19 16 21 17 22 18 23 82 24 19 25 81 26
REMARK SMILES IDX 20 27 21 28 22 29 75 30 23 31 80 32 74 33 76 34 24 35 79 36
REMARK SMILES IDX 73 37 72 38 25 40 59 41 38 42 58 43 39 44 42 45 57 46 77 47
REMARK SMILES IDX 40 48 41 49 56 51 78 52 43 53 26 54 27 55 36 56 28 57 29 58
REMARK SMILES IDX 35 59 37 60 30 61 31 62 32 63 33 64 34 65 60 66 61 67 70 68
REMARK SMILES IDX 62 69 63 70 69 71 71 72 64 73 65 74 66 75 67 76 68 77 44 78
REMARK SMILES IDX 45 79 54 80 46 81 47 82 53 83 55 84 48 85 49 86 50 87 51 88
REMARK SMILES IDX 52 89
REMARK H PARENT 10 7 4 16 4 17 14 20 76 39 42 50
REMARK Flexibility Score: inf
ROOT
ATOM      1  C   UNL     1      -3.283  -4.253   0.043  1.00  0.00     0.118 C 
ENDROOT
BRANCH   1   2
ATOM      2  C   UNL     1      -2.423  -3.189   0.716  1.00  0.00     0.042 C 
BRANCH   2   3
ATOM      3  C   UNL     1      -1.101  -3.710   1.286  1.00  0.00     0.117 C 
BRANCH   3   4
ATOM      4  N   UNL     1      -0.148  -4.089   0.249  1.00  0.00    -0.356 N 
ATOM      5  C   UNL     1       1.034  -3.530  -0.140  1.00  0.00     0.220 C 
ATOM      6  O   UNL     1       1.655  -4.071  -1.058  1.00  0.00    -0.275 OA
ATOM      7  H   UNL     1      -0.403  -4.891  -0.261  1.00  0.00     0.163 HD
BRANCH   5   8
ATOM      8  C   UNL     1       1.579  -2.283   0.529  1.00  0.00     0.109 C 
BRANCH   8   9
ATOM      9  C   UNL     1       1.254  -0.983  -0.235  1.00  0.00     0.054 C 
ATOM     10  C   UNL     1      -2.160   0.878  -0.338  1.00  0.00     0.013 C 
ATOM     11  C   UNL     1      -0.672   0.684  -0.646  1.00  0.00     0.041 C 
ATOM     12  C   UNL     1       0.179   1.729   0.079  1.00  0.00     0.263 C 
ATOM     13  C   UNL     1      -0.254  -0.729  -0.240  1.00  0.00     0.019 C 
ATOM     14  N   UNL     1       1.607   1.489  -0.151  1.00  0.00    -0.346 N 
ATOM     15  C   UNL     1       2.009   0.194   0.398  1.00  0.00     0.264 C 
ATOM     16  H   UNL     1       2.147   2.227   0.301  1.00  0.00     0.346 HD
ATOM     17  H   UNL     1       1.781   1.487  -1.156  1.00  0.00     0.346 HD
ENDBRANCH   8   9
ENDBRANCH   5   8
ENDBRANCH   3   4
ENDBRANCH   2   3
ENDBRANCH   1   2
BRANCH   1  18
ATOM     18  N   UNL     1      -4.236  -4.837   0.970  1.00  0.00    -0.352 N 
ATOM     19  C   UNL     1      -5.587  -4.623   1.107  1.00  0.00     0.251 C 
ATOM     20  H   UNL     1      -3.853  -5.490   1.601  1.00  0.00     0.163 HD
ATOM     21  O   UNL     1      -6.143  -5.019   2.131  1.00  0.00    -0.269 OA
BRANCH  19  22
ATOM     22  C   UNL     1      -6.383  -3.922   0.066  1.00  0.00     0.039 A 
ATOM     23  C   UNL     1      -7.428  -3.083   0.474  1.00  0.00     0.014 A 
ATOM     24  C   UNL     1      -6.179  -4.140  -1.299  1.00  0.00     0.014 A 
ATOM     25  C   UNL     1      -8.225  -2.432  -0.476  1.00  0.00     0.010 A 
ATOM     26  C   UNL     1      -6.929  -3.436  -2.246  1.00  0.00     0.010 A 
ATOM     27  C   UNL     1      -7.968  -2.581  -1.848  1.00  0.00    -0.014 A 
BRANCH  27  28
ATOM     28  C   UNL     1      -8.775  -1.861  -2.873  1.00  0.00     0.031 A 
ATOM     29  C   UNL     1      -9.609  -2.630  -3.867  1.00  0.00     0.074 A 
ATOM     30  C   UNL     1      -8.705  -0.517  -2.961  1.00  0.00     0.049 A 
ATOM     31  N   UNL     1     -10.295  -2.185  -4.889  1.00  0.00    -0.248 NA
ATOM     32  C   UNL     1      -9.659  -4.092  -3.705  1.00  0.00     0.031 C 
ATOM     33  C   UNL     1      -7.902   0.347  -2.093  1.00  0.00     0.029 A 
ATOM     34  N   UNL     1      -9.301   0.359  -3.836  1.00  0.00    -0.354 N 
ATOM     35  C   UNL     1     -10.832  -3.309  -5.508  1.00  0.00     0.074 A 
ATOM     36  C   UNL     1     -10.369  -4.460  -4.763  1.00  0.00     0.031 C 
ATOM     37  C   UNL     1      -8.056   1.625  -2.477  1.00  0.00     0.029 A 
ATOM     38  C   UNL     1      -8.938   1.671  -3.640  1.00  0.00     0.049 A 
ATOM     39  H   UNL     1      -9.930   0.074  -4.538  1.00  0.00     0.167 HD
ATOM     40  C   UNL     1     -11.647  -3.375  -6.589  1.00  0.00     0.037 A 
ATOM     41  C   UNL     1      -9.256   2.785  -4.329  1.00  0.00     0.037 A 
ATOM     42  C   UNL     1     -12.150  -2.227  -7.297  1.00  0.00     0.049 A 
ATOM     43  C   UNL     1     -10.174   2.686  -5.518  1.00  0.00     0.074 A 
ATOM     44  C   UNL     1     -13.068  -2.193  -8.334  1.00  0.00     0.029 A 
ATOM     45  N   UNL     1     -11.779  -0.915  -7.050  1.00  0.00    -0.354 N 
ATOM     46  N   UNL     1     -10.739   1.621  -6.033  1.00  0.00    -0.248 NA
ATOM     47  C   UNL     1     -10.496   3.937  -6.220  1.00  0.00     0.031 C 
ATOM     48  C   UNL     1     -13.218  -0.864  -8.743  1.00  0.00     0.029 A 
ATOM     49  C   UNL     1     -12.423  -0.067  -7.936  1.00  0.00     0.049 A 
ATOM     50  H   UNL     1     -11.150  -0.628  -6.349  1.00  0.00     0.167 HD
ATOM     51  C   UNL     1     -11.493   2.075  -7.110  1.00  0.00     0.074 A 
ATOM     52  C   UNL     1     -11.327   3.512  -7.162  1.00  0.00     0.031 C 
ATOM     53  C   UNL     1     -12.252   1.363  -7.978  1.00  0.00     0.037 A 
BRANCH  40  54
ATOM     54  C   UNL     1     -12.059  -4.735  -7.081  1.00  0.00     0.058 A 
ATOM     55  C   UNL     1     -12.996  -5.518  -6.389  1.00  0.00     0.135 A 
ATOM     56  C   UNL     1     -11.563  -5.230  -8.298  1.00  0.00     0.135 A 
ATOM     57  F   UNL     1     -13.493  -5.096  -5.215  1.00  0.00    -0.206 F 
ATOM     58  C   UNL     1     -13.413  -6.752  -6.877  1.00  0.00     0.059 A 
ATOM     59  C   UNL     1     -11.984  -6.451  -8.817  1.00  0.00     0.059 A 
ATOM     60  F   UNL     1     -10.666  -4.520  -9.001  1.00  0.00    -0.206 F 
ATOM     61  C   UNL     1     -12.902  -7.210  -8.093  1.00  0.00     0.060 A 
BRANCH  61  62
ATOM     62  S   UNL     1     -13.472  -8.803  -8.723  1.00  0.00     0.124 S 
ATOM     63  O   UNL     1     -12.763  -9.731  -7.848  1.00  0.00    -0.237 OA
ATOM     64  O   UNL     1     -14.915  -8.721  -8.524  1.00  0.00    -0.237 OA
ATOM     65  O   UNL     1     -13.033  -8.794 -10.116  1.00  0.00    -0.744 OA
ENDBRANCH  61  62
ENDBRANCH  40  54
BRANCH  41  66
ATOM     66  C   UNL     1      -8.691   4.098  -3.920  1.00  0.00     0.058 A 
ATOM     67  C   UNL     1      -9.499   5.083  -3.333  1.00  0.00     0.135 A 
ATOM     68  C   UNL     1      -7.332   4.394  -4.111  1.00  0.00     0.135 A 
ATOM     69  F   UNL     1     -10.806   4.850  -3.139  1.00  0.00    -0.206 F 
ATOM     70  C   UNL     1      -8.985   6.322  -2.964  1.00  0.00     0.059 A 
ATOM     71  C   UNL     1      -6.790   5.617  -3.728  1.00  0.00     0.059 A 
ATOM     72  F   UNL     1      -6.514   3.479  -4.655  1.00  0.00    -0.206 F 
ATOM     73  C   UNL     1      -7.627   6.579  -3.166  1.00  0.00     0.060 A 
BRANCH  73  74
ATOM     74  S   UNL     1      -6.957   8.174  -2.646  1.00  0.00     0.124 S 
ATOM     75  O   UNL     1      -7.428   9.051  -3.711  1.00  0.00    -0.237 OA
ATOM     76  O   UNL     1      -7.582   8.360  -1.340  1.00  0.00    -0.237 OA
ATOM     77  O   UNL     1      -5.517   7.934  -2.613  1.00  0.00    -0.744 OA
ENDBRANCH  73  74
ENDBRANCH  41  66
BRANCH  53  78
ATOM     78  C   UNL     1     -12.973   2.122  -9.056  1.00  0.00     0.058 A 
ATOM     79  C   UNL     1     -12.294   2.624 -10.176  1.00  0.00     0.135 A 
ATOM     80  C   UNL     1     -14.367   2.287  -9.004  1.00  0.00     0.135 A 
ATOM     81  F   UNL     1     -10.960   2.500 -10.269  1.00  0.00    -0.206 F 
ATOM     82  C   UNL     1     -12.969   3.274 -11.204  1.00  0.00     0.059 A 
ATOM     83  C   UNL     1     -15.066   2.914 -10.031  1.00  0.00     0.059 A 
ATOM     84  F   UNL     1     -15.065   1.818  -7.957  1.00  0.00    -0.206 F 
ATOM     85  C   UNL     1     -14.357   3.411 -11.124  1.00  0.00     0.060 A 
BRANCH  85  86
ATOM     86  S   UNL     1     -15.229   4.208 -12.489  1.00  0.00     0.124 S 
ATOM     87  O   UNL     1     -14.908   5.613 -12.262  1.00  0.00    -0.237 OA
ATOM     88  O   UNL     1     -14.606   3.597 -13.660  1.00  0.00    -0.237 OA
ATOM     89  O   UNL     1     -16.623   3.838 -12.264  1.00  0.00    -0.744 OA
ENDBRANCH  85  86
ENDBRANCH  53  78
ENDBRANCH  27  28
ENDBRANCH  19  22
ENDBRANCH   1  18
TORSDOF 14
