REMARK SMILES CSCc1ccc(C(=O)N[C@](C)(C(=O)NCCCNC(=O)c2ccc(-c3c4nc(c(-c5c(F)cc(S(=O)(=O)[O-])cc5F)c5ccc([nH]5)c(-c5c(F)cc(S(=O)(=O)[O-])cc5F)c5nc(c(-c6c(F)cc(S(=O)(=O)[O-])cc6F)c6ccc3[nH]6)C=C5)C=C4)cc2)C(F)(F)F)o1
REMARK SMILES IDX 16 1 15 2 13 3 14 4 11 6 12 7 10 8 8 9 9 10 7 12 4 13 5 14
REMARK SMILES IDX 92 15 6 16 3 17 2 18 1 19 88 20 89 21 90 22 91 23 17 24
REMARK SMILES IDX 18 25 19 26 20 27 21 29 22 30 23 31 87 32 24 33 86 34 25 35
REMARK SMILES IDX 26 36 27 37 80 38 28 39 85 40 79 41 81 42 29 43 84 44 78 45
REMARK SMILES IDX 77 46 30 48 64 49 43 50 63 51 44 52 47 53 62 54 82 55 45 56
REMARK SMILES IDX 46 57 61 59 83 60 48 61 31 62 32 63 41 64 33 65 34 66 40 67
REMARK SMILES IDX 42 68 35 69 36 70 37 71 38 72 39 73 65 74 66 75 75 76 67 77
REMARK SMILES IDX 68 78 74 79 76 80 69 81 70 82 71 83 72 84 73 85 49 86 50 87
REMARK SMILES IDX 59 88 51 89 52 90 58 91 60 92 53 93 54 94 55 95 56 96 57 97
REMARK H PARENT 15 5 10 11 19 28 81 47 47 58
REMARK Flexibility Score: inf
ROOT
ATOM      1  C   UNL     1      -1.741  -3.522   8.518  1.00  0.00     0.117 C 
ENDROOT
BRANCH   1   2
ATOM      2  N   UNL     1      -2.152  -3.416   7.126  1.00  0.00    -0.354 N 
ATOM      3  C   UNL     1      -1.758  -2.547   6.145  1.00  0.00     0.254 C 
ATOM      4  O   UNL     1      -2.563  -2.368   5.229  1.00  0.00    -0.272 OA
ATOM      5  H   UNL     1      -2.824  -4.078   6.844  1.00  0.00     0.163 HD
BRANCH   3   6
ATOM      6  C   UNL     1      -0.428  -1.788   6.230  1.00  0.00     0.212 C 
ATOM      7  C   UNL     1      -0.611  -0.675   7.295  1.00  0.00     0.056 C 
BRANCH   6   8
ATOM      8  N   UNL     1       0.673  -2.707   6.668  1.00  0.00    -0.328 N 
ATOM      9  C   UNL     1       1.302  -3.792   6.097  1.00  0.00     0.288 C 
ATOM     10  O   UNL     1       2.313  -4.151   6.709  1.00  0.00    -0.266 OA
ATOM     11  H   UNL     1       1.024  -2.486   7.560  1.00  0.00     0.165 HD
BRANCH   9  12
ATOM     12  C   UNL     1       0.842  -4.482   4.902  1.00  0.00     0.191 A 
ATOM     13  C   UNL     1       1.192  -5.821   3.156  1.00  0.00     0.114 A 
ATOM     14  C   UNL     1      -0.137  -5.480   3.120  1.00  0.00     0.047 A 
ATOM     15  O   UNL     1       1.786  -5.244   4.239  1.00  0.00    -0.455 OA
ATOM     16  C   UNL     1      -0.358  -4.636   4.232  1.00  0.00     0.056 A 
BRANCH  13  17
ATOM     17  C   UNL     1       2.029  -6.692   2.297  1.00  0.00     0.144 C 
BRANCH  17  18
ATOM     18  S   UNL     1       2.702  -5.837   0.833  1.00  0.00    -0.157 SA
ATOM     19  C   UNL     1       1.169  -5.260   0.058  1.00  0.00     0.085 C 
ENDBRANCH  17  18
ENDBRANCH  13  17
ENDBRANCH   9  12
ENDBRANCH   6   8
BRANCH   6  20
ATOM     20  C   UNL     1      -0.148  -1.073   4.888  1.00  0.00     0.420 C 
ATOM     21  F   UNL     1      -1.106  -0.178   4.562  1.00  0.00    -0.168 F 
ATOM     22  F   UNL     1       1.014  -0.367   4.982  1.00  0.00    -0.168 F 
ATOM     23  F   UNL     1       0.007  -1.913   3.846  1.00  0.00    -0.168 F 
ENDBRANCH   6  20
ENDBRANCH   3   6
ENDBRANCH   1   2
BRANCH   1  24
ATOM     24  C   UNL     1      -2.773  -2.852   9.425  1.00  0.00     0.042 C 
BRANCH  24  25
ATOM     25  C   UNL     1      -4.097  -3.611   9.503  1.00  0.00     0.118 C 
BRANCH  25  26
ATOM     26  N   UNL     1      -3.967  -4.869  10.222  1.00  0.00    -0.352 N 
ATOM     27  C   UNL     1      -4.656  -5.328  11.318  1.00  0.00     0.251 C 
ATOM     28  H   UNL     1      -3.283  -5.483   9.870  1.00  0.00     0.163 HD
ATOM     29  O   UNL     1      -4.256  -6.333  11.898  1.00  0.00    -0.269 OA
BRANCH  27  30
ATOM     30  C   UNL     1      -5.854  -4.613  11.813  1.00  0.00     0.039 A 
ATOM     31  C   UNL     1      -6.017  -4.454  13.192  1.00  0.00     0.014 A 
ATOM     32  C   UNL     1      -6.830  -4.130  10.935  1.00  0.00     0.014 A 
ATOM     33  C   UNL     1      -7.125  -3.761  13.686  1.00  0.00     0.010 A 
ATOM     34  C   UNL     1      -7.899  -3.380  11.426  1.00  0.00     0.010 A 
ATOM     35  C   UNL     1      -8.059  -3.188  12.806  1.00  0.00    -0.014 A 
BRANCH  35  36
ATOM     36  C   UNL     1      -9.191  -2.371  13.318  1.00  0.00     0.031 A 
ATOM     37  C   UNL     1     -10.613  -2.819  13.112  1.00  0.00     0.074 A 
ATOM     38  C   UNL     1      -8.936  -1.190  13.916  1.00  0.00     0.049 A 
ATOM     39  N   UNL     1     -11.725  -2.212  13.443  1.00  0.00    -0.248 NA
ATOM     40  C   UNL     1     -10.815  -4.104  12.424  1.00  0.00     0.031 C 
ATOM     41  C   UNL     1      -7.604  -0.617  14.122  1.00  0.00     0.029 A 
ATOM     42  N   UNL     1      -9.785  -0.251  14.448  1.00  0.00    -0.354 N 
ATOM     43  C   UNL     1     -12.755  -3.029  12.990  1.00  0.00     0.074 A 
ATOM     44  C   UNL     1     -12.136  -4.155  12.324  1.00  0.00     0.031 C 
ATOM     45  C   UNL     1      -7.724   0.565  14.747  1.00  0.00     0.029 A 
ATOM     46  C   UNL     1      -9.140   0.852  14.956  1.00  0.00     0.049 A 
ATOM     47  H   UNL     1     -10.763  -0.358  14.464  1.00  0.00     0.167 HD
ATOM     48  C   UNL     1     -14.092  -2.864  13.133  1.00  0.00     0.037 A 
ATOM     49  C   UNL     1      -9.631   1.974  15.517  1.00  0.00     0.037 A 
ATOM     50  C   UNL     1     -14.701  -1.757  13.825  1.00  0.00     0.049 A 
ATOM     51  C   UNL     1     -11.118   2.122  15.684  1.00  0.00     0.074 A 
ATOM     52  C   UNL     1     -16.043  -1.545  14.093  1.00  0.00     0.029 A 
ATOM     53  N   UNL     1     -14.013  -0.676  14.356  1.00  0.00    -0.354 N 
ATOM     54  N   UNL     1     -12.073   1.300  15.321  1.00  0.00    -0.248 NA
ATOM     55  C   UNL     1     -11.595   3.345  16.344  1.00  0.00     0.031 C 
ATOM     56  C   UNL     1     -16.170  -0.313  14.744  1.00  0.00     0.029 A 
ATOM     57  C   UNL     1     -14.904   0.219  14.927  1.00  0.00     0.049 A 
ATOM     58  H   UNL     1     -13.036  -0.561  14.330  1.00  0.00     0.167 HD
ATOM     59  C   UNL     1     -13.262   1.896  15.727  1.00  0.00     0.074 A 
ATOM     60  C   UNL     1     -12.905   3.139  16.378  1.00  0.00     0.031 C 
ATOM     61  C   UNL     1     -14.535   1.454  15.572  1.00  0.00     0.037 A 
BRANCH  48  62
ATOM     62  C   UNL     1     -14.996  -3.907  12.534  1.00  0.00     0.058 A 
ATOM     63  C   UNL     1     -15.103  -5.195  13.082  1.00  0.00     0.135 A 
ATOM     64  C   UNL     1     -15.809  -3.596  11.431  1.00  0.00     0.135 A 
ATOM     65  F   UNL     1     -14.340  -5.550  14.128  1.00  0.00    -0.206 F 
ATOM     66  C   UNL     1     -15.965  -6.145  12.544  1.00  0.00     0.059 A 
ATOM     67  C   UNL     1     -16.698  -4.523  10.893  1.00  0.00     0.059 A 
ATOM     68  F   UNL     1     -15.747  -2.379  10.867  1.00  0.00    -0.206 F 
ATOM     69  C   UNL     1     -16.759  -5.799  11.450  1.00  0.00     0.060 A 
BRANCH  69  70
ATOM     70  S   UNL     1     -17.884  -7.039  10.774  1.00  0.00     0.124 S 
ATOM     71  O   UNL     1     -16.953  -7.939  10.100  1.00  0.00    -0.237 OA
ATOM     72  O   UNL     1     -18.521  -7.571  11.975  1.00  0.00    -0.237 OA
ATOM     73  O   UNL     1     -18.756  -6.266   9.896  1.00  0.00    -0.744 OA
ENDBRANCH  69  70
ENDBRANCH  48  62
BRANCH  49  74
ATOM     74  C   UNL     1      -8.702   3.043  15.973  1.00  0.00     0.058 A 
ATOM     75  C   UNL     1      -8.503   3.297  17.337  1.00  0.00     0.135 A 
ATOM     76  C   UNL     1      -7.989   3.825  15.051  1.00  0.00     0.135 A 
ATOM     77  F   UNL     1      -9.166   2.579  18.256  1.00  0.00    -0.206 F 
ATOM     78  C   UNL     1      -7.643   4.300  17.774  1.00  0.00     0.059 A 
ATOM     79  C   UNL     1      -7.104   4.816  15.463  1.00  0.00     0.059 A 
ATOM     80  F   UNL     1      -8.129   3.609  13.734  1.00  0.00    -0.206 F 
ATOM     81  C   UNL     1      -6.947   5.054  16.828  1.00  0.00     0.060 A 
BRANCH  81  82
ATOM     82  S   UNL     1      -5.797   6.322  17.404  1.00  0.00     0.124 S 
ATOM     83  O   UNL     1      -6.711   7.371  17.838  1.00  0.00    -0.237 OA
ATOM     84  O   UNL     1      -5.075   5.624  18.463  1.00  0.00    -0.237 OA
ATOM     85  O   UNL     1      -5.008   6.622  16.213  1.00  0.00    -0.744 OA
ENDBRANCH  81  82
ENDBRANCH  49  74
BRANCH  61  86
ATOM     86  C   UNL     1     -15.635   2.308  16.138  1.00  0.00     0.058 A 
ATOM     87  C   UNL     1     -16.008   3.522  15.539  1.00  0.00     0.135 A 
ATOM     88  C   UNL     1     -16.352   1.889  17.270  1.00  0.00     0.135 A 
ATOM     89  F   UNL     1     -15.350   3.972  14.458  1.00  0.00    -0.206 F 
ATOM     90  C   UNL     1     -17.034   4.304  16.059  1.00  0.00     0.059 A 
ATOM     91  C   UNL     1     -17.400   2.641  17.791  1.00  0.00     0.059 A 
ATOM     92  F   UNL     1     -16.044   0.730  17.875  1.00  0.00    -0.206 F 
ATOM     93  C   UNL     1     -17.724   3.855  17.187  1.00  0.00     0.060 A 
BRANCH  93  94
ATOM     94  S   UNL     1     -19.069   4.867  17.839  1.00  0.00     0.124 S 
ATOM     95  O   UNL     1     -18.335   5.945  18.492  1.00  0.00    -0.237 OA
ATOM     96  O   UNL     1     -19.798   5.237  16.630  1.00  0.00    -0.237 OA
ATOM     97  O   UNL     1     -19.776   3.956  18.735  1.00  0.00    -0.744 OA
ENDBRANCH  93  94
ENDBRANCH  61  86
ENDBRANCH  35  36
ENDBRANCH  27  30
ENDBRANCH  25  26
ENDBRANCH  24  25
ENDBRANCH   1  24
TORSDOF 18
