REMARK SMILES Nc1nn(-c2ccc(Cl)cc2)nc1C(=O)NCCCNC(=O)c1ccc(-c2c3nc(c(-c4c(F)cc(S(=O)(=O)[O-])cc4F)c4ccc([nH]4)c(-c4c(F)cc(S(=O)(=O)[O-])cc4F)c4nc(c(-c5c(F)cc(S(=O)(=O)[O-])cc5F)c5ccc2[nH]5)C=C4)C=C3)cc1
REMARK SMILES IDX 19 1 18 2 17 3 16 4 14 5 15 6 13 8 2 9 3 10 4 11 12 12 1 13
REMARK SMILES IDX 5 16 6 17 11 18 7 19 10 20 8 21 9 22 20 23 21 24 22 26 23 27
REMARK SMILES IDX 24 28 88 29 25 30 87 31 26 32 27 33 28 34 81 35 29 36 86 37
REMARK SMILES IDX 80 38 82 39 30 40 85 41 79 42 78 43 31 45 65 46 44 47 64 48
REMARK SMILES IDX 45 49 48 50 63 51 83 52 46 53 47 54 62 56 84 57 49 58 32 59
REMARK SMILES IDX 33 60 42 61 34 62 35 63 41 64 43 65 36 66 37 67 38 68 39 69
REMARK SMILES IDX 40 70 66 71 67 72 76 73 68 74 69 75 75 76 77 77 70 78 71 79
REMARK SMILES IDX 72 80 73 81 74 82 50 83 51 84 60 85 52 86 53 87 59 88 61 89
REMARK SMILES IDX 54 90 55 91 56 92 57 93 58 94
REMARK H PARENT 16 7 1 14 1 15 20 25 82 44 48 55
REMARK Flexibility Score: inf
ROOT
ATOM      1  C   UNL     1       3.123   3.009  -1.198  1.00  0.00     0.118 C 
ENDROOT
BRANCH   1   2
ATOM      2  C   UNL     1       1.858   2.224  -0.969  1.00  0.00     0.042 C 
BRANCH   2   3
ATOM      3  C   UNL     1       2.028   1.104   0.038  1.00  0.00     0.118 C 
BRANCH   3   4
ATOM      4  N   UNL     1       2.126   1.506   1.421  1.00  0.00    -0.350 N 
ATOM      5  C   UNL     1       1.395   1.113   2.521  1.00  0.00     0.275 C 
ATOM      6  O   UNL     1       1.729   1.632   3.591  1.00  0.00    -0.267 OA
ATOM      7  H   UNL     1       2.829   2.169   1.609  1.00  0.00     0.163 HD
BRANCH   5   8
ATOM      8  C   UNL     1       0.284   0.149   2.455  1.00  0.00     0.194 A 
ATOM      9  C   UNL     1      -0.006  -0.997   1.644  1.00  0.00     0.179 A 
ATOM     10  N   UNL     1      -1.109  -1.593   2.076  1.00  0.00    -0.130 NA
ATOM     11  N   UNL     1      -1.417  -0.871   3.167  1.00  0.00    -0.149 N 
ATOM     12  N   UNL     1      -0.727   0.267   3.350  1.00  0.00    -0.141 NA
BRANCH   9  13
ATOM     13  N   UNL     1       0.644  -1.548   0.611  1.00  0.00    -0.380 N 
ATOM     14  H   UNL     1       0.281  -2.352   0.173  1.00  0.00     0.158 HD
ATOM     15  H   UNL     1       1.484  -1.149   0.289  1.00  0.00     0.158 HD
ENDBRANCH   9  13
BRANCH  11  16
ATOM     16  C   UNL     1      -2.343  -1.356   4.117  1.00  0.00     0.086 A 
ATOM     17  C   UNL     1      -3.058  -0.471   4.931  1.00  0.00     0.032 A 
ATOM     18  C   UNL     1      -2.507  -2.744   4.254  1.00  0.00     0.032 A 
ATOM     19  C   UNL     1      -3.970  -0.983   5.857  1.00  0.00     0.023 A 
ATOM     20  C   UNL     1      -3.376  -3.246   5.220  1.00  0.00     0.023 A 
ATOM     21  C   UNL     1      -4.116  -2.364   6.005  1.00  0.00     0.041 A 
ATOM     22  Cl  UNL     1      -5.217  -2.990   7.170  1.00  0.00    -0.084 Cl
ENDBRANCH  11  16
ENDBRANCH   5   8
ENDBRANCH   3   4
ENDBRANCH   2   3
ENDBRANCH   1   2
BRANCH   1  23
ATOM     23  N   UNL     1       4.181   2.252  -1.881  1.00  0.00    -0.352 N 
ATOM     24  C   UNL     1       5.289   2.775  -2.529  1.00  0.00     0.251 C 
ATOM     25  H   UNL     1       4.094   1.271  -1.879  1.00  0.00     0.163 HD
ATOM     26  O   UNL     1       5.978   2.081  -3.274  1.00  0.00    -0.269 OA
BRANCH  24  27
ATOM     27  C   UNL     1       5.615   4.188  -2.281  1.00  0.00     0.039 A 
ATOM     28  C   UNL     1       5.949   5.081  -3.303  1.00  0.00     0.014 A 
ATOM     29  C   UNL     1       5.446   4.626  -0.973  1.00  0.00     0.014 A 
ATOM     30  C   UNL     1       6.028   6.438  -2.995  1.00  0.00     0.010 A 
ATOM     31  C   UNL     1       5.273   5.954  -0.736  1.00  0.00     0.010 A 
ATOM     32  C   UNL     1       5.668   6.862  -1.707  1.00  0.00    -0.014 A 
BRANCH  32  33
ATOM     33  C   UNL     1       5.590   8.264  -1.327  1.00  0.00     0.031 A 
ATOM     34  C   UNL     1       4.601   9.048  -2.114  1.00  0.00     0.074 A 
ATOM     35  C   UNL     1       6.142   8.695  -0.168  1.00  0.00     0.049 A 
ATOM     36  N   UNL     1       4.837   9.964  -2.992  1.00  0.00    -0.248 NA
ATOM     37  C   UNL     1       3.186   8.631  -2.067  1.00  0.00     0.031 C 
ATOM     38  C   UNL     1       6.846   7.906   0.856  1.00  0.00     0.029 A 
ATOM     39  N   UNL     1       6.075   9.921   0.412  1.00  0.00    -0.354 N 
ATOM     40  C   UNL     1       3.586  10.434  -3.388  1.00  0.00     0.074 A 
ATOM     41  C   UNL     1       2.646   9.420  -2.999  1.00  0.00     0.031 C 
ATOM     42  C   UNL     1       6.912   8.605   2.010  1.00  0.00     0.029 A 
ATOM     43  C   UNL     1       6.425   9.947   1.764  1.00  0.00     0.049 A 
ATOM     44  H   UNL     1       5.802  10.727  -0.082  1.00  0.00     0.167 HD
ATOM     45  C   UNL     1       3.404  11.744  -3.724  1.00  0.00     0.037 A 
ATOM     46  C   UNL     1       6.280  11.000   2.610  1.00  0.00     0.037 A 
ATOM     47  C   UNL     1       4.678  12.396  -3.926  1.00  0.00     0.049 A 
ATOM     48  C   UNL     1       6.141  12.210   1.752  1.00  0.00     0.074 A 
ATOM     49  C   UNL     1       5.760  12.179  -4.758  1.00  0.00     0.029 A 
ATOM     50  N   UNL     1       5.145  13.194  -2.907  1.00  0.00    -0.354 N 
ATOM     51  N   UNL     1       7.095  12.652   0.974  1.00  0.00    -0.248 NA
ATOM     52  C   UNL     1       4.794  12.603   1.368  1.00  0.00     0.031 C 
ATOM     53  C   UNL     1       6.904  12.427  -3.943  1.00  0.00     0.029 A 
ATOM     54  C   UNL     1       6.461  12.873  -2.696  1.00  0.00     0.049 A 
ATOM     55  H   UNL     1       4.627  13.872  -2.417  1.00  0.00     0.167 HD
ATOM     56  C   UNL     1       6.459  13.005  -0.209  1.00  0.00     0.074 A 
ATOM     57  C   UNL     1       5.032  13.006   0.116  1.00  0.00     0.031 C 
ATOM     58  C   UNL     1       7.115  12.963  -1.408  1.00  0.00     0.037 A 
BRANCH  45  59
ATOM     59  C   UNL     1       2.138  12.541  -3.474  1.00  0.00     0.058 A 
ATOM     60  C   UNL     1       2.071  13.869  -3.950  1.00  0.00     0.135 A 
ATOM     61  C   UNL     1       1.123  12.179  -2.560  1.00  0.00     0.135 A 
ATOM     62  F   UNL     1       2.973  14.326  -4.835  1.00  0.00    -0.206 F 
ATOM     63  C   UNL     1       1.136  14.790  -3.478  1.00  0.00     0.059 A 
ATOM     64  C   UNL     1       0.149  13.067  -2.117  1.00  0.00     0.059 A 
ATOM     65  F   UNL     1       1.069  10.979  -1.975  1.00  0.00    -0.206 F 
ATOM     66  C   UNL     1       0.190  14.382  -2.545  1.00  0.00     0.060 A 
BRANCH  66  67
ATOM     67  S   UNL     1      -0.952  15.591  -1.856  1.00  0.00     0.124 S 
ATOM     68  O   UNL     1      -0.051  16.425  -1.070  1.00  0.00    -0.237 OA
ATOM     69  O   UNL     1      -1.504  16.201  -3.061  1.00  0.00    -0.237 OA
ATOM     70  O   UNL     1      -1.885  14.771  -1.091  1.00  0.00    -0.744 OA
ENDBRANCH  66  67
ENDBRANCH  45  59
BRANCH  46  71
ATOM     71  C   UNL     1       5.878  10.977   4.045  1.00  0.00     0.058 A 
ATOM     72  C   UNL     1       5.989  12.121   4.858  1.00  0.00     0.135 A 
ATOM     73  C   UNL     1       5.112   9.918   4.576  1.00  0.00     0.135 A 
ATOM     74  F   UNL     1       6.683  13.186   4.429  1.00  0.00    -0.206 F 
ATOM     75  C   UNL     1       5.340  12.228   6.097  1.00  0.00     0.059 A 
ATOM     76  C   UNL     1       4.463   9.999   5.808  1.00  0.00     0.059 A 
ATOM     77  F   UNL     1       4.894   8.801   3.865  1.00  0.00    -0.206 F 
ATOM     78  C   UNL     1       4.559  11.167   6.554  1.00  0.00     0.060 A 
BRANCH  78  79
ATOM     79  S   UNL     1       3.575  11.363   8.061  1.00  0.00     0.124 S 
ATOM     80  O   UNL     1       4.605  11.394   9.094  1.00  0.00    -0.237 OA
ATOM     81  O   UNL     1       2.880  12.622   7.816  1.00  0.00    -0.237 OA
ATOM     82  O   UNL     1       2.723  10.176   8.066  1.00  0.00    -0.744 OA
ENDBRANCH  78  79
ENDBRANCH  46  71
BRANCH  58  83
ATOM     83  C   UNL     1       8.614  12.793  -1.406  1.00  0.00     0.058 A 
ATOM     84  C   UNL     1       9.295  11.647  -0.953  1.00  0.00     0.135 A 
ATOM     85  C   UNL     1       9.380  13.771  -2.055  1.00  0.00     0.135 A 
ATOM     86  F   UNL     1       8.629  10.617  -0.414  1.00  0.00    -0.206 F 
ATOM     87  C   UNL     1      10.677  11.500  -1.106  1.00  0.00     0.059 A 
ATOM     88  C   UNL     1      10.752  13.633  -2.247  1.00  0.00     0.059 A 
ATOM     89  F   UNL     1       8.783  14.859  -2.568  1.00  0.00    -0.206 F 
ATOM     90  C   UNL     1      11.397  12.500  -1.758  1.00  0.00     0.060 A 
BRANCH  90  91
ATOM     91  S   UNL     1      13.172  12.289  -2.015  1.00  0.00     0.124 S 
ATOM     92  O   UNL     1      13.696  12.419  -0.660  1.00  0.00    -0.237 OA
ATOM     93  O   UNL     1      13.251  10.953  -2.600  1.00  0.00    -0.237 OA
ATOM     94  O   UNL     1      13.518  13.379  -2.925  1.00  0.00    -0.744 OA
ENDBRANCH  90  91
ENDBRANCH  58  83
ENDBRANCH  32  33
ENDBRANCH  24  27
ENDBRANCH   1  23
TORSDOF 15
