REMARK SMILES CCc1ccc(C(=O)NCc2ccc(C(=O)NCCCNC(=O)c3ccc(-c4c5nc(c(-c6c(F)cc(S(=O)(=O)[O-])cc6F)c6ccc([nH]6)c(-c6c(F)cc(S(=O)(=O)[O-])cc6F)c6nc(c(-c7c(F)cc(S(=O)(=O)[O-])cc7F)c7ccc4[nH]7)C=C6)C=C5)cc3)o2)cc1
REMARK SMILES IDX 18 1 17 2 15 3 16 4 14 6 11 7 12 8 90 9 13 10 10 11 9 12
REMARK SMILES IDX 7 13 8 14 6 16 3 17 4 18 92 19 5 20 91 21 2 22 1 23 19 24
REMARK SMILES IDX 20 25 21 26 22 27 23 29 24 30 25 31 89 32 26 33 88 34 27 35
REMARK SMILES IDX 28 36 29 37 82 38 30 39 87 40 81 41 83 42 31 43 86 44 80 45
REMARK SMILES IDX 79 46 32 48 66 49 45 50 65 51 46 52 49 53 64 54 84 55 47 56
REMARK SMILES IDX 48 57 63 59 85 60 50 61 33 62 34 63 43 64 35 65 36 66 42 67
REMARK SMILES IDX 44 68 37 69 38 70 39 71 40 72 41 73 67 74 68 75 77 76 69 77
REMARK SMILES IDX 70 78 76 79 78 80 71 81 72 82 73 83 74 84 75 85 51 86 52 87
REMARK SMILES IDX 61 88 53 89 54 90 60 91 62 92 55 93 56 94 57 95 58 96 59 97
REMARK H PARENT 17 5 9 15 21 28 83 47 49 58
REMARK Flexibility Score: inf
ROOT
ATOM      1  C   UNL     1      -4.928   9.801   2.452  1.00  0.00     0.118 C 
ENDROOT
BRANCH   1   2
ATOM      2  N   UNL     1      -3.789  10.674   2.258  1.00  0.00    -0.349 N 
ATOM      3  C   UNL     1      -2.488  10.402   1.914  1.00  0.00     0.286 C 
ATOM      4  O   UNL     1      -1.770  11.390   1.715  1.00  0.00    -0.266 OA
ATOM      5  H   UNL     1      -3.981  11.630   2.397  1.00  0.00     0.163 HD
BRANCH   3   6
ATOM      6  C   UNL     1      -2.007   9.042   1.772  1.00  0.00     0.191 A 
ATOM      7  C   UNL     1      -0.511   7.554   1.085  1.00  0.00     0.124 A 
ATOM      8  C   UNL     1      -1.508   6.844   1.715  1.00  0.00     0.048 A 
ATOM      9  O   UNL     1      -0.818   8.881   1.104  1.00  0.00    -0.454 OA
ATOM     10  C   UNL     1      -2.442   7.796   2.186  1.00  0.00     0.056 A 
BRANCH   7  11
ATOM     11  C   UNL     1       0.794   7.203   0.470  1.00  0.00     0.191 C 
BRANCH  11  12
ATOM     12  N   UNL     1       1.746   6.966   1.533  1.00  0.00    -0.345 N 
ATOM     13  C   UNL     1       2.219   5.859   2.177  1.00  0.00     0.251 C 
ATOM     14  O   UNL     1       3.086   6.058   3.033  1.00  0.00    -0.269 OA
ATOM     15  H   UNL     1       2.146   7.799   1.872  1.00  0.00     0.164 HD
BRANCH  13  16
ATOM     16  C   UNL     1       1.783   4.451   1.920  1.00  0.00     0.039 A 
ATOM     17  C   UNL     1       1.098   1.712   1.624  1.00  0.00    -0.048 A 
ATOM     18  C   UNL     1       2.207   2.084   2.385  1.00  0.00     0.004 A 
ATOM     19  C   UNL     1       0.333   2.712   1.022  1.00  0.00     0.004 A 
ATOM     20  C   UNL     1       2.539   3.436   2.534  1.00  0.00     0.014 A 
ATOM     21  C   UNL     1       0.674   4.061   1.169  1.00  0.00     0.014 A 
BRANCH  17  22
ATOM     22  C   UNL     1       0.738   0.264   1.424  1.00  0.00     0.032 C 
ATOM     23  C   UNL     1       1.181  -0.231   0.055  1.00  0.00     0.009 C 
ENDBRANCH  17  22
ENDBRANCH  13  16
ENDBRANCH  11  12
ENDBRANCH   7  11
ENDBRANCH   3   6
ENDBRANCH   1   2
BRANCH   1  24
ATOM     24  C   UNL     1      -5.239   9.599   3.932  1.00  0.00     0.042 C 
BRANCH  24  25
ATOM     25  C   UNL     1      -5.887  10.823   4.576  1.00  0.00     0.118 C 
BRANCH  25  26
ATOM     26  N   UNL     1      -7.191  11.119   3.992  1.00  0.00    -0.352 N 
ATOM     27  C   UNL     1      -8.435  11.151   4.567  1.00  0.00     0.251 C 
ATOM     28  H   UNL     1      -7.175  11.328   3.031  1.00  0.00     0.163 HD
ATOM     29  O   UNL     1      -9.428  11.169   3.845  1.00  0.00    -0.269 OA
BRANCH  27  30
ATOM     30  C   UNL     1      -8.585  11.164   6.037  1.00  0.00     0.039 A 
ATOM     31  C   UNL     1      -9.626  10.432   6.617  1.00  0.00     0.014 A 
ATOM     32  C   UNL     1      -7.735  11.928   6.841  1.00  0.00     0.014 A 
ATOM     33  C   UNL     1      -9.777  10.423   8.004  1.00  0.00     0.010 A 
ATOM     34  C   UNL     1      -7.838  11.854   8.227  1.00  0.00     0.010 A 
ATOM     35  C   UNL     1      -8.864  11.107   8.823  1.00  0.00    -0.014 A 
BRANCH  35  36
ATOM     36  C   UNL     1      -8.962  11.047  10.304  1.00  0.00     0.031 A 
ATOM     37  C   UNL     1      -9.210  12.300  11.100  1.00  0.00     0.074 A 
ATOM     38  C   UNL     1      -8.758   9.872  10.933  1.00  0.00     0.049 A 
ATOM     39  N   UNL     1      -9.254  12.458  12.397  1.00  0.00    -0.248 NA
ATOM     40  C   UNL     1      -9.408  13.544  10.338  1.00  0.00     0.031 C 
ATOM     41  C   UNL     1      -8.457   8.600  10.270  1.00  0.00     0.029 A 
ATOM     42  N   UNL     1      -8.758   9.556  12.268  1.00  0.00    -0.354 N 
ATOM     43  C   UNL     1      -9.466  13.815  12.608  1.00  0.00     0.074 A 
ATOM     44  C   UNL     1      -9.492  14.445  11.307  1.00  0.00     0.031 C 
ATOM     45  C   UNL     1      -8.321   7.641  11.199  1.00  0.00     0.029 A 
ATOM     46  C   UNL     1      -8.481   8.234  12.523  1.00  0.00     0.049 A 
ATOM     47  H   UNL     1      -8.940  10.215  12.977  1.00  0.00     0.167 HD
ATOM     48  C   UNL     1      -9.644  14.471  13.780  1.00  0.00     0.037 A 
ATOM     49  C   UNL     1      -8.355   7.574  13.691  1.00  0.00     0.037 A 
ATOM     50  C   UNL     1      -9.640  13.829  15.069  1.00  0.00     0.049 A 
ATOM     51  C   UNL     1      -8.561   8.324  14.978  1.00  0.00     0.074 A 
ATOM     52  C   UNL     1      -9.877  14.393  16.310  1.00  0.00     0.029 A 
ATOM     53  N   UNL     1      -9.382  12.483  15.285  1.00  0.00    -0.354 N 
ATOM     54  N   UNL     1      -8.832   9.595  15.156  1.00  0.00    -0.248 NA
ATOM     55  C   UNL     1      -8.454   7.551  16.223  1.00  0.00     0.031 C 
ATOM     56  C   UNL     1      -9.707  13.400  17.280  1.00  0.00     0.029 A 
ATOM     57  C   UNL     1      -9.427  12.203  16.641  1.00  0.00     0.049 A 
ATOM     58  H   UNL     1      -9.194  11.823  14.578  1.00  0.00     0.167 HD
ATOM     59  C   UNL     1      -8.953   9.770  16.530  1.00  0.00     0.074 A 
ATOM     60  C   UNL     1      -8.741   8.470  17.135  1.00  0.00     0.031 C 
ATOM     61  C   UNL     1      -9.218  10.902  17.228  1.00  0.00     0.037 A 
BRANCH  48  62
ATOM     62  C   UNL     1      -9.858  15.961  13.727  1.00  0.00     0.058 A 
ATOM     63  C   UNL     1     -11.036  16.521  13.207  1.00  0.00     0.135 A 
ATOM     64  C   UNL     1      -8.894  16.839  14.249  1.00  0.00     0.135 A 
ATOM     65  F   UNL     1     -11.986  15.732  12.680  1.00  0.00    -0.206 F 
ATOM     66  C   UNL     1     -11.240  17.897  13.184  1.00  0.00     0.059 A 
ATOM     67  C   UNL     1      -9.090  18.217  14.264  1.00  0.00     0.059 A 
ATOM     68  F   UNL     1      -7.748  16.359  14.758  1.00  0.00    -0.206 F 
ATOM     69  C   UNL     1     -10.262  18.737  13.718  1.00  0.00     0.060 A 
BRANCH  69  70
ATOM     70  S   UNL     1     -10.552  20.519  13.696  1.00  0.00     0.124 S 
ATOM     71  O   UNL     1     -10.411  20.819  12.274  1.00  0.00    -0.237 OA
ATOM     72  O   UNL     1     -11.905  20.620  14.233  1.00  0.00    -0.237 OA
ATOM     73  O   UNL     1      -9.498  21.047  14.556  1.00  0.00    -0.744 OA
ENDBRANCH  69  70
ENDBRANCH  48  62
BRANCH  49  74
ATOM     74  C   UNL     1      -8.032   6.121  13.689  1.00  0.00     0.058 A 
ATOM     75  C   UNL     1      -8.983   5.167  14.080  1.00  0.00     0.135 A 
ATOM     76  C   UNL     1      -6.774   5.657  13.273  1.00  0.00     0.135 A 
ATOM     77  F   UNL     1     -10.198   5.561  14.491  1.00  0.00    -0.206 F 
ATOM     78  C   UNL     1      -8.697   3.806  14.072  1.00  0.00     0.059 A 
ATOM     79  C   UNL     1      -6.473   4.299  13.230  1.00  0.00     0.059 A 
ATOM     80  F   UNL     1      -5.835   6.527  12.871  1.00  0.00    -0.206 F 
ATOM     81  C   UNL     1      -7.439   3.381  13.640  1.00  0.00     0.060 A 
BRANCH  81  82
ATOM     82  S   UNL     1      -7.098   1.609  13.579  1.00  0.00     0.124 S 
ATOM     83  O   UNL     1      -6.993   1.280  14.995  1.00  0.00    -0.237 OA
ATOM     84  O   UNL     1      -8.278   1.095  12.889  1.00  0.00    -0.237 OA
ATOM     85  O   UNL     1      -5.855   1.532  12.818  1.00  0.00    -0.744 OA
ENDBRANCH  81  82
ENDBRANCH  49  74
BRANCH  61  86
ATOM     86  C   UNL     1      -9.329  10.786  18.724  1.00  0.00     0.058 A 
ATOM     87  C   UNL     1      -8.207  10.563  19.536  1.00  0.00     0.135 A 
ATOM     88  C   UNL     1     -10.572  10.957  19.357  1.00  0.00     0.135 A 
ATOM     89  F   UNL     1      -6.996  10.386  18.982  1.00  0.00    -0.206 F 
ATOM     90  C   UNL     1      -8.315  10.488  20.921  1.00  0.00     0.059 A 
ATOM     91  C   UNL     1     -10.699  10.918  20.741  1.00  0.00     0.059 A 
ATOM     92  F   UNL     1     -11.677  11.184  18.628  1.00  0.00    -0.206 F 
ATOM     93  C   UNL     1      -9.566  10.671  21.514  1.00  0.00     0.060 A 
BRANCH  93  94
ATOM     94  S   UNL     1      -9.686  10.605  23.314  1.00  0.00     0.124 S 
ATOM     95  O   UNL     1      -9.511   9.179  23.569  1.00  0.00    -0.237 OA
ATOM     96  O   UNL     1      -8.582  11.464  23.732  1.00  0.00    -0.237 OA
ATOM     97  O   UNL     1     -11.020  11.133  23.586  1.00  0.00    -0.744 OA
ENDBRANCH  93  94
ENDBRANCH  61  86
ENDBRANCH  35  36
ENDBRANCH  27  30
ENDBRANCH  25  26
ENDBRANCH  24  25
ENDBRANCH   1  24
TORSDOF 17
