REMARK SMILES CC[NH2+][C@@]1(C(=O)NCCCNC(=O)c2ccc(-c3c4nc(c(-c5c(F)cc(S(=O)(=O)[O-])cc5F)c5ccc([nH]5)c(-c5c(F)cc(S(=O)(=O)[O-])cc5F)c5nc(c(-c6c(F)cc(S(=O)(=O)[O-])cc6F)c6ccc3[nH]6)C=C5)C=C4)cc2)CCC[C@@H](Sc2ncc(C)cn2)C1
REMARK SMILES IDX 9 1 8 2 7 3 5 4 6 5 4 7 80 8 92 9 81 10 83 11 82 12 3 13
REMARK SMILES IDX 2 16 1 17 84 18 85 19 86 20 91 21 87 22 90 23 88 24 89 25
REMARK SMILES IDX 10 26 11 27 12 28 13 30 14 31 15 32 79 33 16 34 78 35 17 36
REMARK SMILES IDX 18 37 19 38 72 39 20 40 77 41 71 42 73 43 21 44 76 45 70 46
REMARK SMILES IDX 69 47 22 49 56 50 35 51 55 52 36 53 39 54 54 55 74 56 37 57
REMARK SMILES IDX 38 58 53 60 75 61 40 62 23 63 24 64 33 65 25 66 26 67 32 68
REMARK SMILES IDX 34 69 27 70 28 71 29 72 30 73 31 74 57 75 58 76 67 77 59 78
REMARK SMILES IDX 60 79 66 80 68 81 61 82 62 83 63 84 64 85 65 86 41 87 42 88
REMARK SMILES IDX 51 89 43 90 44 91 50 92 52 93 45 94 46 95 47 96 48 97 49 98
REMARK H PARENT 7 6 3 14 3 15 11 29 73 48 39 59
REMARK Flexibility Score: inf
ROOT
ATOM      1  C   UNL     1      -1.998  -6.770  -1.684  1.00  0.00     0.042 C 
ENDROOT
BRANCH   1   2
ATOM      2  C   UNL     1      -0.533  -6.377  -1.615  1.00  0.00     0.118 C 
BRANCH   2   3
ATOM      3  N   UNL     1      -0.302  -4.988  -1.943  1.00  0.00    -0.351 N 
ATOM      4  C   UNL     1       0.452  -4.037  -1.338  1.00  0.00     0.281 C 
ATOM      5  O   UNL     1       1.065  -3.322  -2.149  1.00  0.00    -0.268 OA
ATOM      6  H   UNL     1      -0.775  -4.678  -2.748  1.00  0.00     0.163 HD
BRANCH   4   7
ATOM      7  C   UNL     1       0.609  -3.796   0.230  1.00  0.00     0.176 C 
ATOM      8  C   UNL     1       1.708  -4.702   0.836  1.00  0.00     0.079 C 
ATOM      9  C   UNL     1      -0.673  -3.843   1.094  1.00  0.00     0.094 C 
ATOM     10  C   UNL     1       1.295  -6.092   1.305  1.00  0.00     0.008 C 
ATOM     11  C   UNL     1      -1.147  -5.251   1.435  1.00  0.00     0.061 C 
ATOM     12  C   UNL     1      -0.059  -6.160   2.016  1.00  0.00     0.015 C 
BRANCH   7  13
ATOM     13  N   UNL     1       1.197  -2.402   0.393  1.00  0.00    -0.334 N 
ATOM     14  H   UNL     1       1.311  -2.228   1.392  1.00  0.00     0.347 HD
ATOM     15  H   UNL     1       2.069  -2.412  -0.136  1.00  0.00     0.347 HD
BRANCH  13  16
ATOM     16  C   UNL     1       0.413  -1.293  -0.168  1.00  0.00     0.257 C 
ATOM     17  C   UNL     1       0.946   0.023   0.384  1.00  0.00     0.071 C 
ENDBRANCH  13  16
ENDBRANCH   7  13
BRANCH  11  18
ATOM     18  S   UNL     1      -2.750  -5.267   2.333  1.00  0.00    -0.083 SA
BRANCH  18  19
ATOM     19  C   UNL     1      -2.197  -5.213   4.004  1.00  0.00     0.187 A 
ATOM     20  N   UNL     1      -1.602  -4.088   4.427  1.00  0.00    -0.231 NA
ATOM     21  N   UNL     1      -2.354  -6.329   4.734  1.00  0.00    -0.231 NA
ATOM     22  C   UNL     1      -1.155  -4.099   5.694  1.00  0.00     0.119 A 
ATOM     23  C   UNL     1      -1.893  -6.284   5.995  1.00  0.00     0.119 A 
ATOM     24  C   UNL     1      -1.268  -5.183   6.539  1.00  0.00    -0.014 A 
ATOM     25  C   UNL     1      -0.765  -5.170   7.939  1.00  0.00     0.048 C 
ENDBRANCH  18  19
ENDBRANCH  11  18
ENDBRANCH   4   7
ENDBRANCH   2   3
ENDBRANCH   1   2
BRANCH   1  26
ATOM     26  C   UNL     1      -2.452  -7.070  -3.097  1.00  0.00     0.118 C 
BRANCH  26  27
ATOM     27  N   UNL     1      -1.801  -8.261  -3.634  1.00  0.00    -0.352 N 
ATOM     28  C   UNL     1      -2.304  -9.522  -3.853  1.00  0.00     0.251 C 
ATOM     29  H   UNL     1      -0.855  -8.143  -3.879  1.00  0.00     0.163 HD
ATOM     30  O   UNL     1      -1.534 -10.454  -4.051  1.00  0.00    -0.269 OA
BRANCH  28  31
ATOM     31  C   UNL     1      -3.765  -9.743  -3.837  1.00  0.00     0.039 A 
ATOM     32  C   UNL     1      -4.280 -10.922  -3.297  1.00  0.00     0.014 A 
ATOM     33  C   UNL     1      -4.627  -8.780  -4.363  1.00  0.00     0.014 A 
ATOM     34  C   UNL     1      -5.664 -11.098  -3.226  1.00  0.00     0.010 A 
ATOM     35  C   UNL     1      -5.993  -8.892  -4.162  1.00  0.00     0.010 A 
ATOM     36  C   UNL     1      -6.531 -10.065  -3.622  1.00  0.00    -0.014 A 
BRANCH  36  37
ATOM     37  C   UNL     1      -8.005 -10.199  -3.530  1.00  0.00     0.031 A 
ATOM     38  C   UNL     1      -8.842 -10.065  -4.778  1.00  0.00     0.074 A 
ATOM     39  C   UNL     1      -8.589 -10.364  -2.327  1.00  0.00     0.049 A 
ATOM     40  N   UNL     1     -10.143 -10.050  -4.902  1.00  0.00    -0.248 NA
ATOM     41  C   UNL     1      -8.121  -9.881  -6.050  1.00  0.00     0.031 C 
ATOM     42  C   UNL     1      -7.884 -10.439  -1.044  1.00  0.00     0.029 A 
ATOM     43  N   UNL     1      -9.911 -10.488  -1.983  1.00  0.00    -0.354 N 
ATOM     44  C   UNL     1     -10.390  -9.834  -6.253  1.00  0.00     0.074 A 
ATOM     45  C   UNL     1      -9.111  -9.648  -6.897  1.00  0.00     0.031 C 
ATOM     46  C   UNL     1      -8.777 -10.630  -0.060  1.00  0.00     0.029 A 
ATOM     47  C   UNL     1     -10.118 -10.645  -0.632  1.00  0.00     0.049 A 
ATOM     48  H   UNL     1     -10.643 -10.467  -2.641  1.00  0.00     0.167 HD
ATOM     49  C   UNL     1     -11.575  -9.830  -6.907  1.00  0.00     0.037 A 
ATOM     50  C   UNL     1     -11.264 -10.776   0.065  1.00  0.00     0.037 A 
ATOM     51  C   UNL     1     -12.839 -10.060  -6.260  1.00  0.00     0.049 A 
ATOM     52  C   UNL     1     -12.569 -10.781  -0.686  1.00  0.00     0.074 A 
ATOM     53  C   UNL     1     -14.096 -10.141  -6.832  1.00  0.00     0.029 A 
ATOM     54  N   UNL     1     -13.005 -10.252  -4.896  1.00  0.00    -0.354 N 
ATOM     55  N   UNL     1     -12.780 -10.645  -1.974  1.00  0.00    -0.248 NA
ATOM     56  C   UNL     1     -13.791 -10.965   0.108  1.00  0.00     0.031 C 
ATOM     57  C   UNL     1     -15.027 -10.334  -5.808  1.00  0.00     0.029 A 
ATOM     58  C   UNL     1     -14.346 -10.433  -4.604  1.00  0.00     0.049 A 
ATOM     59  H   UNL     1     -12.277 -10.259  -4.234  1.00  0.00     0.167 HD
ATOM     60  C   UNL     1     -14.155 -10.756  -2.148  1.00  0.00     0.074 A 
ATOM     61  C   UNL     1     -14.722 -10.987  -0.835  1.00  0.00     0.031 C 
ATOM     62  C   UNL     1     -14.884 -10.675  -3.289  1.00  0.00     0.037 A 
BRANCH  49  63
ATOM     63  C   UNL     1     -11.558  -9.591  -8.392  1.00  0.00     0.058 A 
ATOM     64  C   UNL     1     -11.018 -10.531  -9.286  1.00  0.00     0.135 A 
ATOM     65  C   UNL     1     -12.122  -8.425  -8.935  1.00  0.00     0.135 A 
ATOM     66  F   UNL     1     -10.447 -11.655  -8.823  1.00  0.00    -0.206 F 
ATOM     67  C   UNL     1     -11.014 -10.313 -10.659  1.00  0.00     0.059 A 
ATOM     68  C   UNL     1     -12.158  -8.201 -10.309  1.00  0.00     0.059 A 
ATOM     69  F   UNL     1     -12.647  -7.489  -8.129  1.00  0.00    -0.206 F 
ATOM     70  C   UNL     1     -11.591  -9.146 -11.162  1.00  0.00     0.060 A 
BRANCH  70  71
ATOM     71  S   UNL     1     -11.598  -8.893 -12.949  1.00  0.00     0.124 S 
ATOM     72  O   UNL     1     -10.187  -8.626 -13.212  1.00  0.00    -0.237 OA
ATOM     73  O   UNL     1     -12.103 -10.171 -13.441  1.00  0.00    -0.237 OA
ATOM     74  O   UNL     1     -12.495  -7.756 -13.129  1.00  0.00    -0.744 OA
ENDBRANCH  70  71
ENDBRANCH  49  63
BRANCH  50  75
ATOM     75  C   UNL     1     -11.226 -10.936   1.544  1.00  0.00     0.058 A 
ATOM     76  C   UNL     1     -11.590 -12.148   2.150  1.00  0.00     0.135 A 
ATOM     77  C   UNL     1     -10.823  -9.885   2.382  1.00  0.00     0.135 A 
ATOM     78  F   UNL     1     -11.985 -13.184   1.394  1.00  0.00    -0.206 F 
ATOM     79  C   UNL     1     -11.583 -12.305   3.533  1.00  0.00     0.059 A 
ATOM     80  C   UNL     1     -10.778 -10.026   3.766  1.00  0.00     0.059 A 
ATOM     81  F   UNL     1     -10.446  -8.710   1.854  1.00  0.00    -0.206 F 
ATOM     82  C   UNL     1     -11.175 -11.236   4.333  1.00  0.00     0.060 A 
BRANCH  82  83
ATOM     83  S   UNL     1     -11.144 -11.460   6.125  1.00  0.00     0.124 S 
ATOM     84  O   UNL     1     -12.567 -11.479   6.443  1.00  0.00    -0.237 OA
ATOM     85  O   UNL     1     -10.442 -12.733   6.263  1.00  0.00    -0.237 OA
ATOM     86  O   UNL     1     -10.406 -10.292   6.598  1.00  0.00    -0.744 OA
ENDBRANCH  82  83
ENDBRANCH  50  75
BRANCH  62  87
ATOM     87  C   UNL     1     -16.369 -10.877  -3.176  1.00  0.00     0.058 A 
ATOM     88  C   UNL     1     -17.205  -9.914  -2.591  1.00  0.00     0.135 A 
ATOM     89  C   UNL     1     -16.969 -12.026  -3.718  1.00  0.00     0.135 A 
ATOM     90  F   UNL     1     -16.681  -8.801  -2.054  1.00  0.00    -0.206 F 
ATOM     91  C   UNL     1     -18.582 -10.095  -2.522  1.00  0.00     0.059 A 
ATOM     92  C   UNL     1     -18.346 -12.213  -3.690  1.00  0.00     0.059 A 
ATOM     93  F   UNL     1     -16.215 -12.972  -4.301  1.00  0.00    -0.206 F 
ATOM     94  C   UNL     1     -19.144 -11.247  -3.078  1.00  0.00     0.060 A 
BRANCH  94  95
ATOM     95  S   UNL     1     -20.935 -11.450  -3.014  1.00  0.00     0.124 S 
ATOM     96  O   UNL     1     -21.147 -11.747  -1.601  1.00  0.00    -0.237 OA
ATOM     97  O   UNL     1     -21.413 -10.148  -3.468  1.00  0.00    -0.237 OA
ATOM     98  O   UNL     1     -21.185 -12.558  -3.932  1.00  0.00    -0.744 OA
ENDBRANCH  94  95
ENDBRANCH  62  87
ENDBRANCH  36  37
ENDBRANCH  28  31
ENDBRANCH  26  27
ENDBRANCH   1  26
TORSDOF 17
