REMARK SMILES O=C(C[C@H](Cc1ccc(Cl)cc1)C(=O)Nc1cc(Cl)ccc1Cl)NCCCNC(=O)c1ccc(-c2c3nc(c(-c4c(F)cc(S(=O)(=O)[O-])cc4F)c4ccc([nH]4)c(-c4c(F)cc(S(=O)(=O)[O-])cc4F)c4nc(c(-c5c(F)cc(S(=O)(=O)[O-])cc5F)c5ccc2[nH]5)C=C4)C=C3)cc1
REMARK SMILES IDX 26 1 25 2 24 3 1 4 2 5 3 7 4 8 13 9 14 10 15 11 16 13 17 14
REMARK SMILES IDX 22 15 18 16 21 17 23 18 19 19 20 20 5 21 6 22 7 23 12 24
REMARK SMILES IDX 8 25 11 26 9 27 10 28 27 29 28 30 29 31 30 33 31 34 32 35
REMARK SMILES IDX 96 36 33 37 95 38 34 39 35 40 36 41 89 42 37 43 94 44 88 45
REMARK SMILES IDX 90 46 38 47 93 48 87 49 86 50 39 52 73 53 52 54 72 55 53 56
REMARK SMILES IDX 56 57 71 58 91 59 54 60 55 61 70 63 92 64 57 65 40 66 41 67
REMARK SMILES IDX 50 68 42 69 43 70 49 71 51 72 44 73 45 74 46 75 47 76 48 77
REMARK SMILES IDX 74 78 75 79 84 80 76 81 77 82 83 83 85 84 78 85 79 86 80 87
REMARK SMILES IDX 81 88 82 89 58 90 59 91 68 92 60 93 61 94 67 95 69 96 62 97
REMARK SMILES IDX 63 98 64 99 65 100 66 101
REMARK H PARENT 24 6 15 12 28 32 90 51 56 62
REMARK Flexibility Score: inf
ROOT
ATOM      1  C   UNL     1       2.401   1.059   3.857  1.00  0.00     0.042 C 
ENDROOT
BRANCH   1   2
ATOM      2  C   UNL     1       2.712   0.199   2.639  1.00  0.00     0.117 C 
BRANCH   2   3
ATOM      3  N   UNL     1       3.358   0.951   1.581  1.00  0.00    -0.356 N 
ATOM      4  O   UNL     1       5.134  -0.467   1.286  1.00  0.00    -0.275 OA
ATOM      5  C   UNL     1       4.483   0.505   0.930  1.00  0.00     0.220 C 
ATOM      6  H   UNL     1       2.974   1.819   1.317  1.00  0.00     0.163 HD
BRANCH   5   7
ATOM      7  C   UNL     1       4.864   1.335  -0.279  1.00  0.00     0.113 C 
BRANCH   7   8
ATOM      8  C   UNL     1       3.963   1.203  -1.529  1.00  0.00     0.092 C 
BRANCH   8   9
ATOM      9  C   UNL     1       4.738   0.770  -2.785  1.00  0.00     0.228 C 
ATOM     10  O   UNL     1       4.683   1.478  -3.799  1.00  0.00    -0.274 OA
ATOM     11  N   UNL     1       5.596  -0.289  -2.827  1.00  0.00    -0.324 N 
ATOM     12  H   UNL     1       6.130  -0.352  -3.651  1.00  0.00     0.169 HD
BRANCH  11  13
ATOM     13  C   UNL     1       5.841  -1.303  -1.891  1.00  0.00     0.061 A 
ATOM     14  C   UNL     1       4.803  -2.097  -1.410  1.00  0.00     0.048 A 
ATOM     15  C   UNL     1       7.156  -1.568  -1.474  1.00  0.00     0.064 A 
ATOM     16  C   UNL     1       5.050  -3.045  -0.417  1.00  0.00     0.043 A 
ATOM     17  C   UNL     1       7.402  -2.513  -0.475  1.00  0.00     0.024 A 
ATOM     18  Cl  UNL     1       8.495  -0.688  -2.123  1.00  0.00    -0.082 Cl
ATOM     19  Cl  UNL     1       3.743  -3.966   0.216  1.00  0.00    -0.084 Cl
ATOM     20  C   UNL     1       6.341  -3.237   0.072  1.00  0.00     0.022 A 
ENDBRANCH  11  13
ENDBRANCH   8   9
BRANCH   8  21
ATOM     21  C   UNL     1       2.592   0.526  -1.355  1.00  0.00     0.049 C 
BRANCH  21  22
ATOM     22  C   UNL     1       1.640   0.701  -2.516  1.00  0.00    -0.047 A 
ATOM     23  C   UNL     1       1.172   1.982  -2.848  1.00  0.00     0.005 A 
ATOM     24  C   UNL     1       1.164  -0.405  -3.232  1.00  0.00     0.005 A 
ATOM     25  C   UNL     1       0.254   2.158  -3.883  1.00  0.00     0.021 A 
ATOM     26  C   UNL     1       0.242  -0.228  -4.268  1.00  0.00     0.021 A 
ATOM     27  C   UNL     1      -0.207   1.052  -4.589  1.00  0.00     0.041 A 
ATOM     28  Cl  UNL     1      -1.347   1.266  -5.861  1.00  0.00    -0.084 Cl
ENDBRANCH  21  22
ENDBRANCH   8  21
ENDBRANCH   7   8
ENDBRANCH   5   7
ENDBRANCH   2   3
ENDBRANCH   1   2
BRANCH   1  29
ATOM     29  C   UNL     1       1.462   2.232   3.592  1.00  0.00     0.118 C 
BRANCH  29  30
ATOM     30  N   UNL     1       0.124   1.829   3.190  1.00  0.00    -0.352 N 
ATOM     31  C   UNL     1      -1.098   2.258   3.654  1.00  0.00     0.251 C 
ATOM     32  H   UNL     1       0.087   1.148   2.480  1.00  0.00     0.163 HD
ATOM     33  O   UNL     1      -2.117   1.692   3.266  1.00  0.00    -0.269 OA
BRANCH  31  34
ATOM     34  C   UNL     1      -1.193   3.364   4.636  1.00  0.00     0.039 A 
ATOM     35  C   UNL     1      -2.104   3.243   5.689  1.00  0.00     0.014 A 
ATOM     36  C   UNL     1      -0.408   4.516   4.529  1.00  0.00     0.014 A 
ATOM     37  C   UNL     1      -2.177   4.241   6.665  1.00  0.00     0.010 A 
ATOM     38  C   UNL     1      -0.424   5.471   5.547  1.00  0.00     0.010 A 
ATOM     39  C   UNL     1      -1.309   5.346   6.627  1.00  0.00    -0.014 A 
BRANCH  39  40
ATOM     40  C   UNL     1      -1.309   6.347   7.729  1.00  0.00     0.031 A 
ATOM     41  C   UNL     1      -1.672   7.786   7.471  1.00  0.00     0.074 A 
ATOM     42  C   UNL     1      -0.946   5.960   8.970  1.00  0.00     0.049 A 
ATOM     43  N   UNL     1      -1.748   8.781   8.319  1.00  0.00    -0.248 NA
ATOM     44  C   UNL     1      -1.962   8.164   6.080  1.00  0.00     0.031 C 
ATOM     45  C   UNL     1      -0.504   4.612   9.338  1.00  0.00     0.029 A 
ATOM     46  N   UNL     1      -0.895   6.657  10.151  1.00  0.00    -0.354 N 
ATOM     47  C   UNL     1      -2.092   9.899   7.566  1.00  0.00     0.074 A 
ATOM     48  C   UNL     1      -2.148   9.472   6.185  1.00  0.00     0.031 C 
ATOM     49  C   UNL     1      -0.268   4.571  10.659  1.00  0.00     0.029 A 
ATOM     50  C   UNL     1      -0.507   5.893  11.227  1.00  0.00     0.049 A 
ATOM     51  H   UNL     1      -1.116   7.614  10.222  1.00  0.00     0.167 HD
ATOM     52  C   UNL     1      -2.361  11.159   7.988  1.00  0.00     0.037 A 
ATOM     53  C   UNL     1      -0.364   6.216  12.527  1.00  0.00     0.037 A 
ATOM     54  C   UNL     1      -2.317  11.576   9.368  1.00  0.00     0.049 A 
ATOM     55  C   UNL     1      -0.689   7.615  12.974  1.00  0.00     0.074 A 
ATOM     56  C   UNL     1      -2.626  12.816   9.903  1.00  0.00     0.029 A 
ATOM     57  N   UNL     1      -1.937  10.770  10.431  1.00  0.00    -0.354 N 
ATOM     58  N   UNL     1      -1.085   8.640  12.257  1.00  0.00    -0.248 NA
ATOM     59  C   UNL     1      -0.563   7.897  14.410  1.00  0.00     0.031 C 
ATOM     60  C   UNL     1      -2.386  12.773  11.281  1.00  0.00     0.029 A 
ATOM     61  C   UNL     1      -1.985  11.490  11.615  1.00  0.00     0.049 A 
ATOM     62  H   UNL     1      -1.672   9.825  10.356  1.00  0.00     0.167 HD
ATOM     63  C   UNL     1      -1.282   9.681  13.159  1.00  0.00     0.074 A 
ATOM     64  C   UNL     1      -0.982   9.153  14.474  1.00  0.00     0.031 C 
ATOM     65  C   UNL     1      -1.678  10.957  12.920  1.00  0.00     0.037 A 
BRANCH  52  66
ATOM     66  C   UNL     1      -2.736  12.181   6.946  1.00  0.00     0.058 A 
ATOM     67  C   UNL     1      -3.955  12.114   6.251  1.00  0.00     0.135 A 
ATOM     68  C   UNL     1      -1.886  13.264   6.668  1.00  0.00     0.135 A 
ATOM     69  F   UNL     1      -4.801  11.094   6.465  1.00  0.00    -0.206 F 
ATOM     70  C   UNL     1      -4.303  13.065   5.297  1.00  0.00     0.059 A 
ATOM     71  C   UNL     1      -2.228  14.245   5.740  1.00  0.00     0.059 A 
ATOM     72  F   UNL     1      -0.709  13.381   7.302  1.00  0.00    -0.206 F 
ATOM     73  C   UNL     1      -3.433  14.128   5.049  1.00  0.00     0.060 A 
BRANCH  73  74
ATOM     74  S   UNL     1      -3.905  15.357   3.813  1.00  0.00     0.124 S 
ATOM     75  O   UNL     1      -3.740  14.601   2.575  1.00  0.00    -0.237 OA
ATOM     76  O   UNL     1      -5.281  15.664   4.188  1.00  0.00    -0.237 OA
ATOM     77  O   UNL     1      -2.944  16.436   4.022  1.00  0.00    -0.744 OA
ENDBRANCH  73  74
ENDBRANCH  52  66
BRANCH  53  78
ATOM     78  C   UNL     1       0.072   5.183  13.506  1.00  0.00     0.058 A 
ATOM     79  C   UNL     1      -0.812   4.682  14.473  1.00  0.00     0.135 A 
ATOM     80  C   UNL     1       1.378   4.669  13.487  1.00  0.00     0.135 A 
ATOM     81  F   UNL     1      -2.070   5.145  14.536  1.00  0.00    -0.206 F 
ATOM     82  C   UNL     1      -0.414   3.723  15.399  1.00  0.00     0.059 A 
ATOM     83  C   UNL     1       1.791   3.689  14.384  1.00  0.00     0.059 A 
ATOM     84  F   UNL     1       2.258   5.101  12.570  1.00  0.00    -0.206 F 
ATOM     85  C   UNL     1       0.891   3.231  15.344  1.00  0.00     0.060 A 
BRANCH  85  86
ATOM     86  S   UNL     1       1.384   1.951  16.519  1.00  0.00     0.124 S 
ATOM     87  O   UNL     1       1.486   2.713  17.758  1.00  0.00    -0.237 OA
ATOM     88  O   UNL     1       0.269   1.012  16.435  1.00  0.00    -0.237 OA
ATOM     89  O   UNL     1       2.646   1.463  15.972  1.00  0.00    -0.744 OA
ENDBRANCH  85  86
ENDBRANCH  53  78
BRANCH  65  90
ATOM     90  C   UNL     1      -1.843  11.858  14.115  1.00  0.00     0.058 A 
ATOM     91  C   UNL     1      -0.745  12.304  14.867  1.00  0.00     0.135 A 
ATOM     92  C   UNL     1      -3.122  12.280  14.514  1.00  0.00     0.135 A 
ATOM     93  F   UNL     1       0.501  11.930  14.532  1.00  0.00    -0.206 F 
ATOM     94  C   UNL     1      -0.912  13.090  16.003  1.00  0.00     0.059 A 
ATOM     95  C   UNL     1      -3.310  13.094  15.626  1.00  0.00     0.059 A 
ATOM     96  F   UNL     1      -4.208  11.898  13.822  1.00  0.00    -0.206 F 
ATOM     97  C   UNL     1      -2.200  13.474  16.379  1.00  0.00     0.060 A 
BRANCH  97  98
ATOM     98  S   UNL     1      -2.407  14.476  17.866  1.00  0.00     0.124 S 
ATOM     99  O   UNL     1      -2.183  13.490  18.918  1.00  0.00    -0.237 OA
ATOM    100  O   UNL     1      -1.365  15.487  17.710  1.00  0.00    -0.237 OA
ATOM    101  O   UNL     1      -3.775  14.973  17.752  1.00  0.00    -0.744 OA
ENDBRANCH  97  98
ENDBRANCH  65  90
ENDBRANCH  39  40
ENDBRANCH  31  34
ENDBRANCH  29  30
ENDBRANCH   1  29
TORSDOF 18
