REMARK SMILES NS(=O)(=O)c1ccc(-n2nc(C(=O)NCCCNC(=O)c3ccc(-c4c5nc(c(-c6c(F)cc(S(=O)(=O)[O-])cc6F)c6ccc([nH]6)c(-c6c(F)cc(S(=O)(=O)[O-])cc6F)c6nc(c(-c7c(F)cc(S(=O)(=O)[O-])cc7F)c7ccc4[nH]7)C=C6)C=C5)cc3)cc2-c2cc3ccccc3s2)cc1
REMARK SMILES IDX 16 1 15 2 14 3 12 4 13 5 11 7 9 8 10 9 88 10 87 11 8 12 5 13
REMARK SMILES IDX 6 14 99 15 7 16 98 17 2 18 3 19 4 20 1 21 89 24 90 25 97 26
REMARK SMILES IDX 91 27 96 28 92 29 95 30 93 31 94 32 17 33 18 34 19 35 20 37
REMARK SMILES IDX 21 38 22 39 86 40 23 41 85 42 24 43 25 44 26 45 79 46 27 47
REMARK SMILES IDX 84 48 78 49 80 50 28 51 83 52 77 53 76 54 29 56 63 57 42 58
REMARK SMILES IDX 62 59 43 60 46 61 61 62 81 63 44 64 45 65 60 67 82 68 47 69
REMARK SMILES IDX 30 70 31 71 40 72 32 73 33 74 39 75 41 76 34 77 35 78 36 79
REMARK SMILES IDX 37 80 38 81 64 82 65 83 74 84 66 85 67 86 73 87 75 88 68 89
REMARK SMILES IDX 69 90 70 91 71 92 72 93 48 94 49 95 58 96 50 97 51 98 57 99
REMARK SMILES IDX 59 100 52 101 53 102 54 103 55 104 56 105
REMARK H PARENT 14 6 1 22 1 23 18 36 80 55 46 66
REMARK Flexibility Score: inf
ROOT
ATOM      1  C   UNL     1       3.608  -7.424   9.071  1.00  0.00     0.042 C 
ENDROOT
BRANCH   1   2
ATOM      2  C   UNL     1       2.137  -7.297   8.654  1.00  0.00     0.118 C 
BRANCH   2   3
ATOM      3  N   UNL     1       1.463  -6.186   9.318  1.00  0.00    -0.351 N 
ATOM      4  C   UNL     1       1.198  -4.891   8.900  1.00  0.00     0.271 C 
ATOM      5  O   UNL     1       0.453  -4.216   9.611  1.00  0.00    -0.267 OA
ATOM      6  H   UNL     1       1.139  -6.393  10.224  1.00  0.00     0.163 HD
BRANCH   4   7
ATOM      7  C   UNL     1       1.735  -4.398   7.616  1.00  0.00     0.151 A 
ATOM      8  N   UNL     1       1.664  -3.512   5.657  1.00  0.00    -0.231 N 
ATOM      9  N   UNL     1       1.154  -3.404   6.915  1.00  0.00    -0.162 NA
ATOM     10  C   UNL     1       2.573  -4.544   5.584  1.00  0.00     0.085 A 
ATOM     11  C   UNL     1       2.852  -4.859   6.900  1.00  0.00     0.066 A 
BRANCH   8  12
ATOM     12  C   UNL     1       1.318  -2.560   4.673  1.00  0.00     0.065 A 
ATOM     13  C   UNL     1       0.746  -0.594   2.792  1.00  0.00     0.082 A 
ATOM     14  C   UNL     1       0.756  -1.941   2.409  1.00  0.00     0.024 A 
ATOM     15  C   UNL     1       1.012  -0.223   4.111  1.00  0.00     0.024 A 
ATOM     16  C   UNL     1       1.070  -2.928   3.348  1.00  0.00     0.030 A 
ATOM     17  C   UNL     1       1.265  -1.211   5.060  1.00  0.00     0.030 A 
BRANCH  13  18
ATOM     18  S   UNL     1       0.435   0.664   1.593  1.00  0.00     0.238 S 
ATOM     19  O   UNL     1       1.173   1.859   1.955  1.00  0.00    -0.207 OA
ATOM     20  O   UNL     1      -0.968   0.675   1.278  1.00  0.00    -0.207 OA
BRANCH  18  21
ATOM     21  N   UNL     1       1.217   0.091   0.216  1.00  0.00    -0.225 NA
ATOM     22  H   UNL     1       1.095   0.758  -0.546  1.00  0.00     0.137 HD
ATOM     23  H   UNL     1       0.818  -0.808  -0.052  1.00  0.00     0.137 HD
ENDBRANCH  18  21
ENDBRANCH  13  18
ENDBRANCH   8  12
BRANCH  10  24
ATOM     24  C   UNL     1       3.064  -5.314   4.476  1.00  0.00     0.054 A 
ATOM     25  C   UNL     1       4.390  -5.688   4.296  1.00  0.00     0.031 A 
ATOM     26  S   UNL     1       2.105  -6.676   3.982  1.00  0.00    -0.134 S 
ATOM     27  C   UNL     1       4.508  -7.056   4.778  1.00  0.00    -0.007 A 
ATOM     28  C   UNL     1       3.263  -7.700   4.768  1.00  0.00     0.035 A 
ATOM     29  C   UNL     1       5.602  -7.736   5.362  1.00  0.00     0.009 A 
ATOM     30  C   UNL     1       3.060  -8.958   5.357  1.00  0.00     0.019 A 
ATOM     31  C   UNL     1       5.397  -8.966   5.998  1.00  0.00     0.001 A 
ATOM     32  C   UNL     1       4.138  -9.560   6.009  1.00  0.00     0.001 A 
ENDBRANCH  10  24
ENDBRANCH   4   7
ENDBRANCH   2   3
ENDBRANCH   1   2
BRANCH   1  33
ATOM     33  C   UNL     1       3.796  -8.338  10.268  1.00  0.00     0.118 C 
BRANCH  33  34
ATOM     34  N   UNL     1       3.566  -9.757   9.957  1.00  0.00    -0.352 N 
ATOM     35  C   UNL     1       3.658 -10.847  10.812  1.00  0.00     0.251 C 
ATOM     36  H   UNL     1       3.314  -9.960   9.027  1.00  0.00     0.163 HD
ATOM     37  O   UNL     1       3.788 -11.982  10.368  1.00  0.00    -0.269 OA
BRANCH  35  38
ATOM     38  C   UNL     1       3.589 -10.602  12.265  1.00  0.00     0.039 A 
ATOM     39  C   UNL     1       4.401 -11.266  13.190  1.00  0.00     0.014 A 
ATOM     40  C   UNL     1       2.717  -9.605  12.678  1.00  0.00     0.014 A 
ATOM     41  C   UNL     1       4.393 -10.834  14.518  1.00  0.00     0.010 A 
ATOM     42  C   UNL     1       2.884  -9.037  13.907  1.00  0.00     0.010 A 
ATOM     43  C   UNL     1       3.648  -9.694  14.861  1.00  0.00    -0.014 A 
BRANCH  43  44
ATOM     44  C   UNL     1       3.753  -9.047  16.167  1.00  0.00     0.031 A 
ATOM     45  C   UNL     1       5.145  -8.631  16.501  1.00  0.00     0.074 A 
ATOM     46  C   UNL     1       2.656  -8.597  16.826  1.00  0.00     0.049 A 
ATOM     47  N   UNL     1       5.925  -9.111  17.412  1.00  0.00    -0.248 NA
ATOM     48  C   UNL     1       5.833  -7.713  15.570  1.00  0.00     0.031 C 
ATOM     49  C   UNL     1       1.253  -8.651  16.385  1.00  0.00     0.029 A 
ATOM     50  N   UNL     1       2.562  -7.867  17.970  1.00  0.00    -0.354 N 
ATOM     51  C   UNL     1       7.085  -8.339  17.352  1.00  0.00     0.074 A 
ATOM     52  C   UNL     1       7.075  -7.724  16.056  1.00  0.00     0.031 C 
ATOM     53  C   UNL     1       0.510  -7.780  17.102  1.00  0.00     0.029 A 
ATOM     54  C   UNL     1       1.329  -7.236  18.167  1.00  0.00     0.049 A 
ATOM     55  H   UNL     1       3.305  -7.789  18.611  1.00  0.00     0.167 HD
ATOM     56  C   UNL     1       7.767  -8.016  18.489  1.00  0.00     0.037 A 
ATOM     57  C   UNL     1       1.029  -6.312  19.120  1.00  0.00     0.037 A 
ATOM     58  C   UNL     1       7.361  -8.880  19.576  1.00  0.00     0.049 A 
ATOM     59  C   UNL     1       2.093  -6.412  20.155  1.00  0.00     0.074 A 
ATOM     60  C   UNL     1       7.324 -10.248  19.770  1.00  0.00     0.029 A 
ATOM     61  N   UNL     1       6.516  -8.348  20.521  1.00  0.00    -0.354 N 
ATOM     62  N   UNL     1       2.264  -7.456  20.919  1.00  0.00    -0.248 NA
ATOM     63  C   UNL     1       3.261  -5.561  19.986  1.00  0.00     0.031 C 
ATOM     64  C   UNL     1       6.101 -10.488  20.466  1.00  0.00     0.029 A 
ATOM     65  C   UNL     1       5.515  -9.255  20.752  1.00  0.00     0.049 A 
ATOM     66  H   UNL     1       6.613  -7.470  20.956  1.00  0.00     0.167 HD
ATOM     67  C   UNL     1       3.638  -7.638  20.964  1.00  0.00     0.074 A 
ATOM     68  C   UNL     1       4.203  -6.402  20.422  1.00  0.00     0.031 C 
ATOM     69  C   UNL     1       4.177  -8.880  21.149  1.00  0.00     0.037 A 
BRANCH  56  70
ATOM     70  C   UNL     1       8.443  -6.674  18.745  1.00  0.00     0.058 A 
ATOM     71  C   UNL     1       9.082  -6.469  19.990  1.00  0.00     0.135 A 
ATOM     72  C   UNL     1       8.254  -5.502  17.977  1.00  0.00     0.135 A 
ATOM     73  F   UNL     1       9.351  -7.505  20.801  1.00  0.00    -0.206 F 
ATOM     74  C   UNL     1       9.387  -5.200  20.483  1.00  0.00     0.059 A 
ATOM     75  C   UNL     1       8.594  -4.231  18.430  1.00  0.00     0.059 A 
ATOM     76  F   UNL     1       7.662  -5.498  16.780  1.00  0.00    -0.206 F 
ATOM     77  C   UNL     1       9.116  -4.084  19.701  1.00  0.00     0.060 A 
BRANCH  77  78
ATOM     78  S   UNL     1       9.416  -2.439  20.366  1.00  0.00     0.124 S 
ATOM     79  O   UNL     1       8.406  -2.363  21.414  1.00  0.00    -0.237 OA
ATOM     80  O   UNL     1      10.801  -2.547  20.814  1.00  0.00    -0.237 OA
ATOM     81  O   UNL     1       9.202  -1.569  19.214  1.00  0.00    -0.744 OA
ENDBRANCH  77  78
ENDBRANCH  56  70
BRANCH  57  82
ATOM     82  C   UNL     1       0.110  -5.138  19.060  1.00  0.00     0.058 A 
ATOM     83  C   UNL     1      -0.239  -4.428  20.226  1.00  0.00     0.135 A 
ATOM     84  C   UNL     1      -0.194  -4.502  17.840  1.00  0.00     0.135 A 
ATOM     85  F   UNL     1       0.020  -4.949  21.435  1.00  0.00    -0.206 F 
ATOM     86  C   UNL     1      -0.790  -3.140  20.186  1.00  0.00     0.059 A 
ATOM     87  C   UNL     1      -0.750  -3.222  17.775  1.00  0.00     0.059 A 
ATOM     88  F   UNL     1       0.132  -5.070  16.669  1.00  0.00    -0.206 F 
ATOM     89  C   UNL     1      -1.017  -2.533  18.953  1.00  0.00     0.060 A 
BRANCH  89  90
ATOM     90  S   UNL     1      -1.540  -0.799  18.896  1.00  0.00     0.124 S 
ATOM     91  O   UNL     1      -2.907  -0.877  19.401  1.00  0.00    -0.237 OA
ATOM     92  O   UNL     1      -0.573  -0.154  19.778  1.00  0.00    -0.237 OA
ATOM     93  O   UNL     1      -1.416  -0.454  17.482  1.00  0.00    -0.744 OA
ENDBRANCH  89  90
ENDBRANCH  57  82
BRANCH  69  94
ATOM     94  C   UNL     1       3.280  -9.990  21.633  1.00  0.00     0.058 A 
ATOM     95  C   UNL     1       2.166 -10.502  20.942  1.00  0.00     0.135 A 
ATOM     96  C   UNL     1       3.665 -10.657  22.805  1.00  0.00     0.135 A 
ATOM     97  F   UNL     1       1.792  -9.993  19.759  1.00  0.00    -0.206 F 
ATOM     98  C   UNL     1       1.440 -11.595  21.427  1.00  0.00     0.059 A 
ATOM     99  C   UNL     1       2.981 -11.767  23.286  1.00  0.00     0.059 A 
ATOM    100  F   UNL     1       4.757 -10.257  23.479  1.00  0.00    -0.206 F 
ATOM    101  C   UNL     1       1.857 -12.220  22.603  1.00  0.00     0.060 A 
BRANCH 101 102
ATOM    102  S   UNL     1       0.949 -13.654  23.218  1.00  0.00     0.124 S 
ATOM    103  O   UNL     1      -0.312 -13.057  23.646  1.00  0.00    -0.237 OA
ATOM    104  O   UNL     1       0.877 -14.514  22.041  1.00  0.00    -0.237 OA
ATOM    105  O   UNL     1       1.796 -14.158  24.296  1.00  0.00    -0.744 OA
ENDBRANCH 101 102
ENDBRANCH  69  94
ENDBRANCH  43  44
ENDBRANCH  35  38
ENDBRANCH  33  34
ENDBRANCH   1  33
TORSDOF 17
