REMARK SMILES CCc1nc(C)c(C(=O)NCCCNC(=O)c2ccc(-c3c4nc(c(-c5c(F)cc(S(=O)(=O)[O-])cc5F)c5ccc([nH]5)c(-c5c(F)cc(S(=O)(=O)[O-])cc5F)c5nc(c(-c6c(F)cc(S(=O)(=O)[O-])cc6F)c6ccc3[nH]6)C=C5)C=C4)cc2)c(SCc2cnc(Cl)s2)n1
REMARK SMILES IDX 12 1 11 2 10 3 8 4 9 5 7 7 3 8 4 9 92 10 5 11 83 12 6 13
REMARK SMILES IDX 2 14 1 15 84 16 85 17 86 18 87 19 91 20 88 21 89 22 90 23
REMARK SMILES IDX 13 24 14 25 15 26 16 28 17 29 18 30 82 31 19 32 81 33 20 34
REMARK SMILES IDX 21 35 22 36 75 37 23 38 80 39 74 40 76 41 24 42 79 43 73 44
REMARK SMILES IDX 72 45 25 47 59 48 38 49 58 50 39 51 42 52 57 53 77 54 40 55
REMARK SMILES IDX 41 56 56 58 78 59 43 60 26 61 27 62 36 63 28 64 29 65 35 66
REMARK SMILES IDX 37 67 30 68 31 69 32 70 33 71 34 72 60 73 61 74 70 75 62 76
REMARK SMILES IDX 63 77 69 78 71 79 64 80 65 81 66 82 67 83 68 84 44 85 45 86
REMARK SMILES IDX 54 87 46 88 47 89 53 90 55 91 48 92 49 93 50 94 51 95 52 96
REMARK H PARENT 10 6 14 27 76 46 42 57
REMARK Flexibility Score: inf
ROOT
ATOM      1  C   UNL     1      -0.037  -8.356  -1.499  1.00  0.00     0.042 C 
ENDROOT
BRANCH   1   2
ATOM      2  C   UNL     1       0.367  -7.615  -0.217  1.00  0.00     0.118 C 
BRANCH   2   3
ATOM      3  N   UNL     1       1.762  -7.213  -0.331  1.00  0.00    -0.352 N 
ATOM      4  C   UNL     1       2.369  -6.034  -0.675  1.00  0.00     0.255 C 
ATOM      5  O   UNL     1       3.526  -6.107  -1.090  1.00  0.00    -0.269 OA
ATOM      6  H   UNL     1       2.397  -7.935  -0.118  1.00  0.00     0.163 HD
BRANCH   4   7
ATOM      7  C   UNL     1       1.782  -4.697  -0.480  1.00  0.00     0.093 A 
ATOM      8  C   UNL     1       1.027  -2.059  -0.464  1.00  0.00     0.129 A 
ATOM      9  N   UNL     1       0.261  -2.933  -1.117  1.00  0.00    -0.237 NA
ATOM     10  N   UNL     1       2.116  -2.413   0.220  1.00  0.00    -0.226 NA
ATOM     11  C   UNL     1       0.661  -4.228  -1.164  1.00  0.00     0.055 A 
ATOM     12  C   UNL     1       2.499  -3.720   0.217  1.00  0.00     0.113 A 
ATOM     13  C   UNL     1      -0.193  -5.019  -2.099  1.00  0.00     0.068 C 
BRANCH   8  14
ATOM     14  C   UNL     1       0.751  -0.602  -0.718  1.00  0.00     0.074 C 
ATOM     15  C   UNL     1       1.272   0.340   0.355  1.00  0.00     0.012 C 
ENDBRANCH   8  14
BRANCH  12  16
ATOM     16  S   UNL     1       4.044  -3.820   1.119  1.00  0.00    -0.100 SA
BRANCH  16  17
ATOM     17  C   UNL     1       4.187  -5.469   1.848  1.00  0.00     0.125 C 
BRANCH  17  18
ATOM     18  C   UNL     1       3.044  -6.028   2.630  1.00  0.00     0.036 A 
ATOM     19  C   UNL     1       2.792  -7.370   2.870  1.00  0.00     0.129 A 
ATOM     20  S   UNL     1       1.873  -5.091   3.469  1.00  0.00    -0.107 S 
ATOM     21  N   UNL     1       1.670  -7.656   3.621  1.00  0.00    -0.233 NA
ATOM     22  C   UNL     1       1.117  -6.524   3.974  1.00  0.00     0.183 A 
ATOM     23  Cl  UNL     1      -0.318  -6.456   4.911  1.00  0.00    -0.051 Cl
ENDBRANCH  17  18
ENDBRANCH  16  17
ENDBRANCH  12  16
ENDBRANCH   4   7
ENDBRANCH   2   3
ENDBRANCH   1   2
BRANCH   1  24
ATOM     24  C   UNL     1       0.487  -9.789  -1.567  1.00  0.00     0.118 C 
BRANCH  24  25
ATOM     25  N   UNL     1      -0.482 -10.737  -1.050  1.00  0.00    -0.352 N 
ATOM     26  C   UNL     1      -1.251 -11.651  -1.733  1.00  0.00     0.251 C 
ATOM     27  H   UNL     1      -0.606 -10.725  -0.073  1.00  0.00     0.163 HD
ATOM     28  O   UNL     1      -2.213 -12.167  -1.171  1.00  0.00    -0.269 OA
BRANCH  26  29
ATOM     29  C   UNL     1      -0.938 -12.006  -3.140  1.00  0.00     0.039 A 
ATOM     30  C   UNL     1      -1.988 -12.168  -4.050  1.00  0.00     0.014 A 
ATOM     31  C   UNL     1       0.379 -12.228  -3.556  1.00  0.00     0.014 A 
ATOM     32  C   UNL     1      -1.714 -12.497  -5.383  1.00  0.00     0.010 A 
ATOM     33  C   UNL     1       0.654 -12.484  -4.898  1.00  0.00     0.010 A 
ATOM     34  C   UNL     1      -0.389 -12.631  -5.825  1.00  0.00    -0.014 A 
BRANCH  34  35
ATOM     35  C   UNL     1      -0.065 -12.944  -7.242  1.00  0.00     0.031 A 
ATOM     36  C   UNL     1       0.624 -14.238  -7.588  1.00  0.00     0.074 A 
ATOM     37  C   UNL     1      -0.322 -12.039  -8.207  1.00  0.00     0.049 A 
ATOM     38  N   UNL     1       1.094 -14.644  -8.740  1.00  0.00    -0.248 NA
ATOM     39  C   UNL     1       0.835 -15.189  -6.485  1.00  0.00     0.031 C 
ATOM     40  C   UNL     1      -0.961 -10.738  -7.998  1.00  0.00     0.029 A 
ATOM     41  N   UNL     1      -0.064 -12.069  -9.555  1.00  0.00    -0.354 N 
ATOM     42  C   UNL     1       1.673 -15.885  -8.497  1.00  0.00     0.074 A 
ATOM     43  C   UNL     1       1.536 -16.143  -7.080  1.00  0.00     0.031 C 
ATOM     44  C   UNL     1      -1.062 -10.103  -9.178  1.00  0.00     0.029 A 
ATOM     45  C   UNL     1      -0.459 -10.931 -10.219  1.00  0.00     0.049 A 
ATOM     46  H   UNL     1       0.363 -12.833 -10.005  1.00  0.00     0.167 HD
ATOM     47  C   UNL     1       2.248 -16.741  -9.377  1.00  0.00     0.037 A 
ATOM     48  C   UNL     1      -0.339 -10.587 -11.516  1.00  0.00     0.037 A 
ATOM     49  C   UNL     1       2.357 -16.491 -10.790  1.00  0.00     0.049 A 
ATOM     50  C   UNL     1       0.322 -11.543 -12.472  1.00  0.00     0.074 A 
ATOM     51  C   UNL     1       2.874 -17.316 -11.774  1.00  0.00     0.029 A 
ATOM     52  N   UNL     1       1.940 -15.329 -11.423  1.00  0.00    -0.354 N 
ATOM     53  N   UNL     1       0.827 -12.729 -12.232  1.00  0.00    -0.248 NA
ATOM     54  C   UNL     1       0.433 -11.112 -13.872  1.00  0.00     0.031 C 
ATOM     55  C   UNL     1       2.802 -16.637 -12.996  1.00  0.00     0.029 A 
ATOM     56  C   UNL     1       2.205 -15.406 -12.780  1.00  0.00     0.049 A 
ATOM     57  H   UNL     1       1.518 -14.562 -10.973  1.00  0.00     0.167 HD
ATOM     58  C   UNL     1       1.294 -13.198 -13.455  1.00  0.00     0.074 A 
ATOM     59  C   UNL     1       1.005 -12.169 -14.434  1.00  0.00     0.031 C 
ATOM     60  C   UNL     1       1.905 -14.374 -13.741  1.00  0.00     0.037 A 
BRANCH  47  61
ATOM     61  C   UNL     1       2.802 -18.027  -8.828  1.00  0.00     0.058 A 
ATOM     62  C   UNL     1       1.960 -19.051  -8.361  1.00  0.00     0.135 A 
ATOM     63  C   UNL     1       4.188 -18.244  -8.771  1.00  0.00     0.135 A 
ATOM     64  F   UNL     1       0.627 -18.891  -8.381  1.00  0.00    -0.206 F 
ATOM     65  C   UNL     1       2.473 -20.224  -7.817  1.00  0.00     0.059 A 
ATOM     66  C   UNL     1       4.723 -19.422  -8.255  1.00  0.00     0.059 A 
ATOM     67  F   UNL     1       5.038 -17.301  -9.207  1.00  0.00    -0.206 F 
ATOM     68  C   UNL     1       3.857 -20.396  -7.761  1.00  0.00     0.060 A 
BRANCH  68  69
ATOM     69  S   UNL     1       4.509 -21.911  -7.027  1.00  0.00     0.124 S 
ATOM     70  O   UNL     1       4.312 -21.651  -5.604  1.00  0.00    -0.237 OA
ATOM     71  O   UNL     1       3.652 -22.938  -7.608  1.00  0.00    -0.237 OA
ATOM     72  O   UNL     1       5.899 -21.933  -7.474  1.00  0.00    -0.744 OA
ENDBRANCH  68  69
ENDBRANCH  47  61
BRANCH  48  73
ATOM     73  C   UNL     1      -0.879  -9.286 -11.991  1.00  0.00     0.058 A 
ATOM     74  C   UNL     1      -2.037  -9.239 -12.781  1.00  0.00     0.135 A 
ATOM     75  C   UNL     1      -0.270  -8.069 -11.648  1.00  0.00     0.135 A 
ATOM     76  F   UNL     1      -2.650 -10.377 -13.140  1.00  0.00    -0.206 F 
ATOM     77  C   UNL     1      -2.571  -8.032 -13.221  1.00  0.00     0.059 A 
ATOM     78  C   UNL     1      -0.797  -6.848 -12.059  1.00  0.00     0.059 A 
ATOM     79  F   UNL     1       0.832  -8.061 -10.882  1.00  0.00    -0.206 F 
ATOM     80  C   UNL     1      -1.945  -6.841 -12.851  1.00  0.00     0.060 A 
BRANCH  80  81
ATOM     81  S   UNL     1      -2.682  -5.277 -13.375  1.00  0.00     0.124 S 
ATOM     82  O   UNL     1      -2.320  -5.240 -14.787  1.00  0.00    -0.237 OA
ATOM     83  O   UNL     1      -4.096  -5.490 -13.082  1.00  0.00    -0.237 OA
ATOM     84  O   UNL     1      -2.016  -4.293 -12.525  1.00  0.00    -0.744 OA
ENDBRANCH  80  81
ENDBRANCH  48  73
BRANCH  60  85
ATOM     85  C   UNL     1       2.279 -14.627 -15.174  1.00  0.00     0.058 A 
ATOM     86  C   UNL     1       3.384 -13.998 -15.766  1.00  0.00     0.135 A 
ATOM     87  C   UNL     1       1.562 -15.559 -15.942  1.00  0.00     0.135 A 
ATOM     88  F   UNL     1       4.096 -13.092 -15.076  1.00  0.00    -0.206 F 
ATOM     89  C   UNL     1       3.760 -14.274 -17.076  1.00  0.00     0.059 A 
ATOM     90  C   UNL     1       1.934 -15.867 -17.246  1.00  0.00     0.059 A 
ATOM     91  F   UNL     1       0.501 -16.193 -15.418  1.00  0.00    -0.206 F 
ATOM     92  C   UNL     1       3.031 -15.214 -17.807  1.00  0.00     0.060 A 
BRANCH  92  93
ATOM     93  S   UNL     1       3.559 -15.604 -19.489  1.00  0.00     0.124 S 
ATOM     94  O   UNL     1       3.098 -14.429 -20.222  1.00  0.00    -0.237 OA
ATOM     95  O   UNL     1       5.006 -15.731 -19.342  1.00  0.00    -0.237 OA
ATOM     96  O   UNL     1       2.855 -16.847 -19.787  1.00  0.00    -0.744 OA
ENDBRANCH  92  93
ENDBRANCH  60  85
ENDBRANCH  34  35
ENDBRANCH  26  29
ENDBRANCH  24  25
ENDBRANCH   1  24
TORSDOF 17
