REMARK SMILES Cc1ccc(S(=O)(=O)Nc2ccc(N3CCCCCC3)cc2C(=O)NCCCNC(=O)c2ccc(-c3c4nc(c(-c5c(F)cc(S(=O)(=O)[O-])cc5F)c5ccc([nH]5)c(-c5c(F)cc(S(=O)(=O)[O-])cc5F)c5nc(c(-c6c(F)cc(S(=O)(=O)[O-])cc6F)c6ccc3[nH]6)C=C5)C=C4)cc2)cc1
REMARK SMILES IDX 26 1 25 2 23 3 24 4 22 6 10 7 11 8 12 9 21 10 13 11 9 12
REMARK SMILES IDX 6 14 7 15 8 16 5 17 1 18 2 19 3 20 99 21 4 22 98 23 14 24
REMARK SMILES IDX 15 25 16 26 17 27 18 28 20 30 19 31 27 33 28 34 29 35 30 36
REMARK SMILES IDX 31 38 32 39 33 40 97 41 34 42 96 43 35 44 36 45 37 46 90 47
REMARK SMILES IDX 38 48 95 49 89 50 91 51 39 52 94 53 88 54 87 55 40 57 74 58
REMARK SMILES IDX 53 59 73 60 54 61 57 62 72 63 92 64 55 65 56 66 71 68 93 69
REMARK SMILES IDX 58 70 41 71 42 72 51 73 43 74 44 75 50 76 52 77 45 78 46 79
REMARK SMILES IDX 47 80 48 81 49 82 75 83 76 84 85 85 77 86 78 87 84 88 86 89
REMARK SMILES IDX 79 90 80 91 81 92 82 93 83 94 59 95 60 96 69 97 61 98 62 99
REMARK SMILES IDX 68 100 70 101 63 102 64 103 65 104 66 105 67 106
REMARK H PARENT 25 5 9 13 29 37 91 56 57 67
REMARK Flexibility Score: 90.00
ROOT
ATOM      1  C   UNL     1      -0.043   3.115  -3.748  1.00  0.00     0.118 C 
ENDROOT
BRANCH   1   2
ATOM      2  N   UNL     1      -1.185   2.244  -3.470  1.00  0.00    -0.352 N 
ATOM      3  C   UNL     1      -2.195   2.211  -2.539  1.00  0.00     0.253 C 
ATOM      4  O   UNL     1      -3.038   1.317  -2.669  1.00  0.00    -0.269 OA
ATOM      5  H   UNL     1      -1.244   1.496  -4.108  1.00  0.00     0.163 HD
BRANCH   3   6
ATOM      6  C   UNL     1      -2.329   3.130  -1.364  1.00  0.00     0.066 A 
ATOM      7  C   UNL     1      -3.150   2.769  -0.273  1.00  0.00     0.062 A 
ATOM      8  C   UNL     1      -3.240   3.613   0.841  1.00  0.00     0.030 A 
ATOM      9  C   UNL     1      -2.480   4.785   0.909  1.00  0.00     0.028 A 
ATOM     10  C   UNL     1      -1.661   4.356  -1.295  1.00  0.00     0.042 A 
ATOM     11  C   UNL     1      -1.664   5.177  -0.155  1.00  0.00     0.038 A 
BRANCH   7  12
ATOM     12  N   UNL     1      -3.889   1.534  -0.258  1.00  0.00    -0.279 N 
ATOM     13  H   UNL     1      -4.626   1.385  -0.895  1.00  0.00     0.180 HD
BRANCH  12  14
ATOM     14  S   UNL     1      -3.474   0.340   0.870  1.00  0.00     0.261 S 
ATOM     15  O   UNL     1      -4.151  -0.874   0.457  1.00  0.00    -0.201 OA
ATOM     16  O   UNL     1      -3.659   0.864   2.207  1.00  0.00    -0.201 OA
BRANCH  14  17
ATOM     17  C   UNL     1      -1.727   0.114   0.621  1.00  0.00     0.087 A 
ATOM     18  C   UNL     1       2.505  -0.422   0.120  1.00  0.00     0.044 C 
ATOM     19  C   UNL     1       1.026  -0.223   0.271  1.00  0.00    -0.051 A 
ATOM     20  C   UNL     1       0.121  -1.127  -0.305  1.00  0.00     0.005 A 
ATOM     21  C   UNL     1       0.539   0.829   1.056  1.00  0.00     0.005 A 
ATOM     22  C   UNL     1      -1.256  -0.957  -0.139  1.00  0.00     0.022 A 
ATOM     23  C   UNL     1      -0.832   0.989   1.244  1.00  0.00     0.022 A 
ENDBRANCH  14  17
ENDBRANCH  12  14
ENDBRANCH   7  12
BRANCH  11  24
ATOM     24  N   UNL     1      -0.861   6.322  -0.073  1.00  0.00    -0.372 N 
BRANCH  24  25
ATOM     25  C   UNL     1       0.086   6.368   1.046  1.00  0.00     0.116 C 
BRANCH  25  26
ATOM     26  C   UNL     1      -0.162   7.595   1.920  1.00  0.00     0.021 C 
BRANCH  26  27
ATOM     27  C   UNL     1       0.309   8.912   1.310  1.00  0.00     0.002 C 
BRANCH  27  28
ATOM     28  C   UNL     1      -0.308   9.242  -0.046  1.00  0.00     0.002 CG0
ATOM     29  G   UNL     1       0.218   8.340  -1.155  1.00  0.00     0.000 G0
ENDBRANCH  27  28
ENDBRANCH  26  27
ENDBRANCH  25  26
ENDBRANCH  24  25
BRANCH  24  30
ATOM     30  C   UNL     1      -0.522   7.017  -1.321  1.00  0.00     0.116 C 
BRANCH  30  31
ATOM     31  C   UNL     1       0.218   8.340  -1.155  1.00  0.00     0.021 CG0
ATOM     32  G   UNL     1      -0.308   9.242  -0.046  1.00  0.00     0.000 G0
ENDBRANCH  30  31
ENDBRANCH  24  30
ENDBRANCH  11  24
ENDBRANCH   3   6
ENDBRANCH   1   2
BRANCH   1  33
ATOM     33  C   UNL     1       1.075   3.000  -2.714  1.00  0.00     0.042 C 
BRANCH  33  34
ATOM     34  C   UNL     1       2.229   2.147  -3.223  1.00  0.00     0.118 C 
BRANCH  34  35
ATOM     35  N   UNL     1       3.270   2.910  -3.903  1.00  0.00    -0.352 N 
ATOM     36  C   UNL     1       4.448   2.437  -4.459  1.00  0.00     0.251 C 
ATOM     37  H   UNL     1       3.117   3.880  -3.975  1.00  0.00     0.163 HD
ATOM     38  O   UNL     1       5.351   3.187  -4.781  1.00  0.00    -0.269 OA
BRANCH  36  39
ATOM     39  C   UNL     1       4.521   0.988  -4.744  1.00  0.00     0.039 A 
ATOM     40  C   UNL     1       4.541   0.596  -6.087  1.00  0.00     0.014 A 
ATOM     41  C   UNL     1       4.277   0.069  -3.729  1.00  0.00     0.014 A 
ATOM     42  C   UNL     1       4.129  -0.690  -6.432  1.00  0.00     0.010 A 
ATOM     43  C   UNL     1       3.779  -1.170  -4.079  1.00  0.00     0.010 A 
ATOM     44  C   UNL     1       3.666  -1.540  -5.431  1.00  0.00    -0.014 A 
BRANCH  44  45
ATOM     45  C   UNL     1       2.978  -2.805  -5.676  1.00  0.00     0.031 A 
ATOM     46  C   UNL     1       3.605  -4.084  -5.255  1.00  0.00     0.074 A 
ATOM     47  C   UNL     1       1.708  -2.810  -6.139  1.00  0.00     0.049 A 
ATOM     48  N   UNL     1       3.189  -5.259  -5.591  1.00  0.00    -0.248 NA
ATOM     49  C   UNL     1       4.809  -4.127  -4.434  1.00  0.00     0.031 C 
ATOM     50  C   UNL     1       0.734  -3.890  -6.006  1.00  0.00     0.029 A 
ATOM     51  N   UNL     1       1.088  -1.899  -6.987  1.00  0.00    -0.354 N 
ATOM     52  C   UNL     1       3.866  -6.189  -4.831  1.00  0.00     0.074 A 
ATOM     53  C   UNL     1       4.896  -5.431  -4.161  1.00  0.00     0.031 C 
ATOM     54  C   UNL     1      -0.256  -3.704  -6.890  1.00  0.00     0.029 A 
ATOM     55  C   UNL     1       0.127  -2.593  -7.742  1.00  0.00     0.049 A 
ATOM     56  H   UNL     1       1.286  -0.936  -7.048  1.00  0.00     0.167 HD
ATOM     57  C   UNL     1       3.396  -7.470  -4.764  1.00  0.00     0.037 A 
ATOM     58  C   UNL     1       0.206  -2.670  -9.105  1.00  0.00     0.037 A 
ATOM     59  C   UNL     1       2.285  -7.668  -5.697  1.00  0.00     0.049 A 
ATOM     60  C   UNL     1       0.381  -4.073  -9.640  1.00  0.00     0.074 A 
ATOM     61  C   UNL     1       0.908  -7.662  -5.539  1.00  0.00     0.029 A 
ATOM     62  N   UNL     1       2.522  -7.619  -7.067  1.00  0.00    -0.354 N 
ATOM     63  N   UNL     1       0.734  -5.096  -8.912  1.00  0.00    -0.248 NA
ATOM     64  C   UNL     1       0.193  -4.433 -11.044  1.00  0.00     0.031 C 
ATOM     65  C   UNL     1       0.318  -7.548  -6.822  1.00  0.00     0.029 A 
ATOM     66  C   UNL     1       1.333  -7.500  -7.761  1.00  0.00     0.049 A 
ATOM     67  H   UNL     1       3.413  -7.663  -7.484  1.00  0.00     0.167 HD
ATOM     68  C   UNL     1       0.877  -6.203  -9.707  1.00  0.00     0.074 A 
ATOM     69  C   UNL     1       0.489  -5.745 -11.028  1.00  0.00     0.031 C 
ATOM     70  C   UNL     1       1.321  -7.397  -9.214  1.00  0.00     0.037 A 
BRANCH  57  71
ATOM     71  C   UNL     1       3.748  -8.451  -3.656  1.00  0.00     0.058 A 
ATOM     72  C   UNL     1       2.821  -9.434  -3.239  1.00  0.00     0.135 A 
ATOM     73  C   UNL     1       4.944  -8.436  -2.912  1.00  0.00     0.135 A 
ATOM     74  F   UNL     1       1.683  -9.656  -3.911  1.00  0.00    -0.206 F 
ATOM     75  C   UNL     1       3.008 -10.235  -2.109  1.00  0.00     0.059 A 
ATOM     76  C   UNL     1       5.132  -9.183  -1.743  1.00  0.00     0.059 A 
ATOM     77  F   UNL     1       6.012  -7.740  -3.320  1.00  0.00    -0.206 F 
ATOM     78  C   UNL     1       4.150 -10.073  -1.339  1.00  0.00     0.060 A 
BRANCH  78  79
ATOM     79  S   UNL     1       4.336 -11.041   0.170  1.00  0.00     0.124 S 
ATOM     80  O   UNL     1       3.110 -10.722   0.894  1.00  0.00    -0.237 OA
ATOM     81  O   UNL     1       4.432 -12.400  -0.351  1.00  0.00    -0.237 OA
ATOM     82  O   UNL     1       5.560 -10.511   0.765  1.00  0.00    -0.744 OA
ENDBRANCH  78  79
ENDBRANCH  57  71
BRANCH  58  83
ATOM     83  C   UNL     1       0.749  -1.434  -9.728  1.00  0.00     0.058 A 
ATOM     84  C   UNL     1      -0.060  -0.283  -9.672  1.00  0.00     0.135 A 
ATOM     85  C   UNL     1       2.131  -1.255  -9.888  1.00  0.00     0.135 A 
ATOM     86  F   UNL     1      -1.392  -0.405  -9.550  1.00  0.00    -0.206 F 
ATOM     87  C   UNL     1       0.492   0.986  -9.564  1.00  0.00     0.059 A 
ATOM     88  C   UNL     1       2.706   0.013  -9.793  1.00  0.00     0.059 A 
ATOM     89  F   UNL     1       2.946  -2.317  -9.965  1.00  0.00    -0.206 F 
ATOM     90  C   UNL     1       1.880   1.110  -9.540  1.00  0.00     0.060 A 
BRANCH  90  91
ATOM     91  S   UNL     1       2.569   2.673  -8.946  1.00  0.00     0.124 S 
ATOM     92  O   UNL     1       1.949   3.645  -9.839  1.00  0.00    -0.237 OA
ATOM     93  O   UNL     1       2.090   2.692  -7.564  1.00  0.00    -0.237 OA
ATOM     94  O   UNL     1       4.006   2.491  -9.109  1.00  0.00    -0.744 OA
ENDBRANCH  90  91
ENDBRANCH  58  83
BRANCH  70  95
ATOM     95  C   UNL     1       1.704  -8.604 -10.040  1.00  0.00     0.058 A 
ATOM     96  C   UNL     1       2.238  -8.531 -11.338  1.00  0.00     0.135 A 
ATOM     97  C   UNL     1       1.661  -9.901  -9.473  1.00  0.00     0.135 A 
ATOM     98  F   UNL     1       2.444  -7.351 -11.941  1.00  0.00    -0.206 F 
ATOM     99  C   UNL     1       2.630  -9.665 -12.054  1.00  0.00     0.059 A 
ATOM    100  C   UNL     1       2.097 -11.040 -10.148  1.00  0.00     0.059 A 
ATOM    101  F   UNL     1       1.202 -10.105  -8.228  1.00  0.00    -0.206 F 
ATOM    102  C   UNL     1       2.553 -10.916 -11.452  1.00  0.00     0.060 A 
BRANCH 102 103
ATOM    103  S   UNL     1       3.106 -12.383 -12.343  1.00  0.00     0.124 S 
ATOM    104  O   UNL     1       1.853 -12.868 -12.911  1.00  0.00    -0.237 OA
ATOM    105  O   UNL     1       4.064 -11.842 -13.303  1.00  0.00    -0.237 OA
ATOM    106  O   UNL     1       3.687 -13.208 -11.289  1.00  0.00    -0.744 OA
ENDBRANCH 102 103
ENDBRANCH  70  95
ENDBRANCH  44  45
ENDBRANCH  36  39
ENDBRANCH  34  35
ENDBRANCH  33  34
ENDBRANCH   1  33
TORSDOF 17
