REMARK SMILES Cc1cccc(-c2cccnc2C(=O)NCCCNC(=O)c2ccc(-c3c4nc(c(-c5c(F)cc(S(=O)(=O)[O-])cc5F)c5ccc([nH]5)c(-c5c(F)cc(S(=O)(=O)[O-])cc5F)c5nc(c(-c6c(F)cc(S(=O)(=O)[O-])cc6F)c6ccc3[nH]6)C=C5)C=C4)cc2)c1
REMARK SMILES IDX 18 1 17 2 16 3 15 4 13 5 14 6 12 8 7 9 8 10 9 11 11 12 10 13
REMARK SMILES IDX 6 14 1 15 2 16 3 17 88 18 4 19 5 20 19 21 20 22 21 24 22 25
REMARK SMILES IDX 23 26 87 27 24 28 86 29 25 30 26 31 27 32 80 33 28 34 85 35
REMARK SMILES IDX 79 36 81 37 29 38 84 39 78 40 77 41 30 43 64 44 43 45 63 46
REMARK SMILES IDX 44 47 47 48 62 49 82 50 45 51 46 52 61 54 83 55 48 56 31 57
REMARK SMILES IDX 32 58 41 59 33 60 34 61 40 62 42 63 35 64 36 65 37 66 38 67
REMARK SMILES IDX 39 68 65 69 66 70 75 71 67 72 68 73 74 74 76 75 69 76 70 77
REMARK SMILES IDX 71 78 72 79 73 80 49 81 50 82 59 83 51 84 52 85 58 86 60 87
REMARK SMILES IDX 53 88 54 89 55 90 56 91 57 92
REMARK H PARENT 15 7 19 23 81 42 47 53
REMARK Flexibility Score: inf
ROOT
ATOM      1  C   UNL     1       0.611  -0.835   2.804  1.00  0.00     0.118 C 
ENDROOT
BRANCH   1   2
ATOM      2  C   UNL     1      -0.277   0.375   2.522  1.00  0.00     0.042 C 
BRANCH   2   3
ATOM      3  C   UNL     1      -1.599  -0.048   1.913  1.00  0.00     0.118 C 
BRANCH   3   4
ATOM      4  N   UNL     1      -2.689   0.872   2.166  1.00  0.00    -0.351 N 
ATOM      5  C   UNL     1      -3.269   1.982   1.622  1.00  0.00     0.270 C 
ATOM      6  O   UNL     1      -4.333   2.287   2.187  1.00  0.00    -0.267 OA
ATOM      7  H   UNL     1      -3.161   0.616   2.991  1.00  0.00     0.163 HD
BRANCH   5   8
ATOM      8  C   UNL     1      -2.797   2.898   0.511  1.00  0.00     0.135 A 
ATOM      9  C   UNL     1      -2.018   2.642  -0.622  1.00  0.00     0.013 A 
ATOM     10  C   UNL     1      -1.865   3.711  -1.546  1.00  0.00     0.013 A 
ATOM     11  C   UNL     1      -2.439   4.957  -1.341  1.00  0.00     0.021 A 
ATOM     12  N   UNL     1      -3.344   4.150   0.711  1.00  0.00    -0.250 NA
ATOM     13  C   UNL     1      -3.164   5.129  -0.192  1.00  0.00     0.112 A 
BRANCH   9  14
ATOM     14  C   UNL     1      -1.315   1.413  -0.983  1.00  0.00    -0.016 A 
ATOM     15  C   UNL     1       2.328   0.265  -1.157  1.00  0.00     0.044 C 
ATOM     16  C   UNL     1       0.832   0.267  -1.299  1.00  0.00    -0.051 A 
ATOM     17  C   UNL     1       0.140  -0.882  -1.693  1.00  0.00     0.003 A 
ATOM     18  C   UNL     1       0.095   1.398  -0.933  1.00  0.00     0.012 A 
ATOM     19  C   UNL     1      -1.255  -0.874  -1.786  1.00  0.00     0.001 A 
ATOM     20  C   UNL     1      -1.981   0.277  -1.460  1.00  0.00     0.009 A 
ENDBRANCH   9  14
ENDBRANCH   5   8
ENDBRANCH   3   4
ENDBRANCH   2   3
ENDBRANCH   1   2
BRANCH   1  21
ATOM     21  N   UNL     1       1.272  -1.417   1.642  1.00  0.00    -0.352 N 
ATOM     22  C   UNL     1       2.187  -2.466   1.593  1.00  0.00     0.251 C 
ATOM     23  H   UNL     1       1.040  -1.014   0.774  1.00  0.00     0.163 HD
ATOM     24  O   UNL     1       2.763  -2.777   0.571  1.00  0.00    -0.269 OA
BRANCH  22  25
ATOM     25  C   UNL     1       2.376  -3.229   2.848  1.00  0.00     0.039 A 
ATOM     26  C   UNL     1       1.734  -4.468   2.937  1.00  0.00     0.014 A 
ATOM     27  C   UNL     1       2.734  -2.513   3.982  1.00  0.00     0.014 A 
ATOM     28  C   UNL     1       1.198  -4.861   4.160  1.00  0.00     0.010 A 
ATOM     29  C   UNL     1       2.099  -2.845   5.162  1.00  0.00     0.010 A 
ATOM     30  C   UNL     1       1.268  -3.981   5.237  1.00  0.00    -0.014 A 
BRANCH  30  31
ATOM     31  C   UNL     1       0.375  -4.031   6.398  1.00  0.00     0.031 A 
ATOM     32  C   UNL     1       0.943  -3.994   7.771  1.00  0.00     0.074 A 
ATOM     33  C   UNL     1      -0.963  -3.882   6.231  1.00  0.00     0.049 A 
ATOM     34  N   UNL     1       0.242  -4.034   8.852  1.00  0.00    -0.248 NA
ATOM     35  C   UNL     1       2.382  -3.974   8.040  1.00  0.00     0.031 C 
ATOM     36  C   UNL     1      -1.920  -3.370   7.213  1.00  0.00     0.029 A 
ATOM     37  N   UNL     1      -1.770  -4.372   5.198  1.00  0.00    -0.354 N 
ATOM     38  C   UNL     1       1.071  -3.729   9.905  1.00  0.00     0.074 A 
ATOM     39  C   UNL     1       2.401  -3.818   9.367  1.00  0.00     0.031 C 
ATOM     40  C   UNL     1      -3.155  -3.766   6.878  1.00  0.00     0.029 A 
ATOM     41  C   UNL     1      -3.026  -4.684   5.764  1.00  0.00     0.049 A 
ATOM     42  H   UNL     1      -1.511  -4.480   4.255  1.00  0.00     0.167 HD
ATOM     43  C   UNL     1       0.508  -3.306  11.071  1.00  0.00     0.037 A 
ATOM     44  C   UNL     1      -3.515  -5.960   5.767  1.00  0.00     0.037 A 
ATOM     45  C   UNL     1      -0.900  -3.708  11.128  1.00  0.00     0.049 A 
ATOM     46  C   UNL     1      -3.724  -6.557   7.142  1.00  0.00     0.074 A 
ATOM     47  C   UNL     1      -2.108  -3.039  11.043  1.00  0.00     0.029 A 
ATOM     48  N   UNL     1      -1.201  -5.067  11.040  1.00  0.00    -0.354 N 
ATOM     49  N   UNL     1      -3.298  -6.016   8.250  1.00  0.00    -0.248 NA
ATOM     50  C   UNL     1      -4.404  -7.829   7.377  1.00  0.00     0.031 C 
ATOM     51  C   UNL     1      -3.123  -4.005  10.789  1.00  0.00     0.029 A 
ATOM     52  C   UNL     1      -2.539  -5.261  10.764  1.00  0.00     0.049 A 
ATOM     53  H   UNL     1      -0.545  -5.792  11.160  1.00  0.00     0.167 HD
ATOM     54  C   UNL     1      -3.534  -6.865   9.302  1.00  0.00     0.074 A 
ATOM     55  C   UNL     1      -4.281  -7.959   8.710  1.00  0.00     0.031 C 
ATOM     56  C   UNL     1      -3.057  -6.611  10.559  1.00  0.00     0.037 A 
BRANCH  43  57
ATOM     57  C   UNL     1       1.175  -2.378  12.076  1.00  0.00     0.058 A 
ATOM     58  C   UNL     1       0.468  -1.933  13.217  1.00  0.00     0.135 A 
ATOM     59  C   UNL     1       2.441  -1.768  11.910  1.00  0.00     0.135 A 
ATOM     60  F   UNL     1      -0.756  -2.401  13.501  1.00  0.00    -0.206 F 
ATOM     61  C   UNL     1       0.963  -0.958  14.095  1.00  0.00     0.059 A 
ATOM     62  C   UNL     1       2.973  -0.828  12.796  1.00  0.00     0.059 A 
ATOM     63  F   UNL     1       3.216  -1.991  10.844  1.00  0.00    -0.206 F 
ATOM     64  C   UNL     1       2.218  -0.407  13.875  1.00  0.00     0.060 A 
BRANCH  64  65
ATOM     65  S   UNL     1       2.843   0.880  14.971  1.00  0.00     0.124 S 
ATOM     66  O   UNL     1       1.950   1.993  14.668  1.00  0.00    -0.237 OA
ATOM     67  O   UNL     1       2.683   0.273  16.288  1.00  0.00    -0.237 OA
ATOM     68  O   UNL     1       4.226   1.057  14.534  1.00  0.00    -0.744 OA
ENDBRANCH  64  65
ENDBRANCH  43  57
BRANCH  44  69
ATOM     69  C   UNL     1      -3.179  -6.714   4.531  1.00  0.00     0.058 A 
ATOM     70  C   UNL     1      -3.826  -6.313   3.347  1.00  0.00     0.135 A 
ATOM     71  C   UNL     1      -1.957  -7.391   4.411  1.00  0.00     0.135 A 
ATOM     72  F   UNL     1      -5.014  -5.689   3.411  1.00  0.00    -0.206 F 
ATOM     73  C   UNL     1      -3.194  -6.391   2.113  1.00  0.00     0.059 A 
ATOM     74  C   UNL     1      -1.309  -7.490   3.179  1.00  0.00     0.059 A 
ATOM     75  F   UNL     1      -1.301  -7.800   5.507  1.00  0.00    -0.206 F 
ATOM     76  C   UNL     1      -1.901  -6.907   2.057  1.00  0.00     0.060 A 
BRANCH  76  77
ATOM     77  S   UNL     1      -0.928  -6.558   0.572  1.00  0.00     0.124 S 
ATOM     78  O   UNL     1      -1.706  -7.221  -0.468  1.00  0.00    -0.237 OA
ATOM     79  O   UNL     1      -0.953  -5.097   0.551  1.00  0.00    -0.237 OA
ATOM     80  O   UNL     1       0.369  -7.154   0.871  1.00  0.00    -0.744 OA
ENDBRANCH  76  77
ENDBRANCH  44  69
BRANCH  56  81
ATOM     81  C   UNL     1      -3.062  -7.584  11.723  1.00  0.00     0.058 A 
ATOM     82  C   UNL     1      -3.030  -8.984  11.594  1.00  0.00     0.135 A 
ATOM     83  C   UNL     1      -2.962  -7.101  13.052  1.00  0.00     0.135 A 
ATOM     84  F   UNL     1      -2.990  -9.575  10.392  1.00  0.00    -0.206 F 
ATOM     85  C   UNL     1      -2.985  -9.842  12.698  1.00  0.00     0.059 A 
ATOM     86  C   UNL     1      -2.855  -7.937  14.162  1.00  0.00     0.059 A 
ATOM     87  F   UNL     1      -2.949  -5.785  13.317  1.00  0.00    -0.206 F 
ATOM     88  C   UNL     1      -2.899  -9.311  13.979  1.00  0.00     0.060 A 
BRANCH  88  89
ATOM     89  S   UNL     1      -2.781 -10.404  15.408  1.00  0.00     0.124 S 
ATOM     90  O   UNL     1      -4.180 -10.510  15.811  1.00  0.00    -0.237 OA
ATOM     91  O   UNL     1      -2.196 -11.618  14.846  1.00  0.00    -0.237 OA
ATOM     92  O   UNL     1      -1.913  -9.664  16.319  1.00  0.00    -0.744 OA
ENDBRANCH  88  89
ENDBRANCH  56  81
ENDBRANCH  30  31
ENDBRANCH  22  25
ENDBRANCH   1  21
TORSDOF 14
