REMARK SMILES O=C(NCCCNC(=O)[C@@H](c1ccccc1)N1C(=O)/C(=C\c2ccc(-c3ccc(F)cc3)o2)SC1=S)c1ccc(-c2c3nc(c(-c4c(F)cc(S(=O)(=O)[O-])cc4F)c4ccc([nH]4)c(-c4c(F)cc(S(=O)(=O)[O-])cc4F)c4nc(c(-c5c(F)cc(S(=O)(=O)[O-])cc5F)c5ccc2[nH]5)C=C4)C=C3)cc1
REMARK SMILES IDX 5 1 4 2 3 3 1 4 2 5 37 7 38 8 102 9 39 10 101 11 40 12 41 13
REMARK SMILES IDX 42 14 95 15 43 16 100 17 94 18 96 19 44 20 99 21 93 22 92 23
REMARK SMILES IDX 45 25 79 26 58 27 78 28 59 29 62 30 77 31 97 32 60 33 61 34
REMARK SMILES IDX 76 36 98 37 63 38 46 39 47 40 56 41 48 42 49 43 55 44 57 45
REMARK SMILES IDX 50 46 51 47 52 48 53 49 54 50 80 51 81 52 90 53 82 54 83 55
REMARK SMILES IDX 89 56 91 57 84 58 85 59 86 60 87 61 88 62 64 63 65 64 74 65
REMARK SMILES IDX 66 66 67 67 73 68 75 69 68 70 69 71 70 72 71 73 72 74 6 75
REMARK SMILES IDX 7 76 8 77 9 79 10 80 11 81 12 82 16 83 13 84 15 85 14 86
REMARK SMILES IDX 17 87 18 88 35 89 19 90 20 91 34 92 36 93 21 94 22 95 23 96
REMARK SMILES IDX 33 97 24 98 25 99 26 100 27 101 32 102 28 103 31 104 29 105
REMARK SMILES IDX 30 106
REMARK H PARENT 3 6 96 24 62 35 7 78
REMARK Flexibility Score: inf
ROOT
ATOM      1  C   UNL     1       4.584   1.083   2.349  1.00  0.00     0.042 C 
ENDROOT
BRANCH   1   2
ATOM      2  C   UNL     1       4.389  -0.087   1.394  1.00  0.00     0.118 C 
BRANCH   2   3
ATOM      3  N   UNL     1       2.982  -0.338   1.116  1.00  0.00    -0.352 N 
ATOM      4  O   UNL     1       1.063  -0.266  -0.052  1.00  0.00    -0.269 OA
ATOM      5  C   UNL     1       2.291  -0.233  -0.066  1.00  0.00     0.251 C 
ATOM      6  H   UNL     1       2.446  -0.625   1.891  1.00  0.00     0.163 HD
BRANCH   5   7
ATOM      7  C   UNL     1       3.019  -0.073  -1.344  1.00  0.00     0.039 A 
ATOM      8  C   UNL     1       4.170  -0.819  -1.609  1.00  0.00     0.014 A 
ATOM      9  C   UNL     1       2.517   0.804  -2.311  1.00  0.00     0.014 A 
ATOM     10  C   UNL     1       4.889  -0.594  -2.777  1.00  0.00     0.010 A 
ATOM     11  C   UNL     1       3.196   0.966  -3.522  1.00  0.00     0.010 A 
ATOM     12  C   UNL     1       4.399   0.284  -3.756  1.00  0.00    -0.014 A 
BRANCH  12  13
ATOM     13  C   UNL     1       5.123   0.406  -5.045  1.00  0.00     0.031 A 
ATOM     14  C   UNL     1       5.780   1.694  -5.453  1.00  0.00     0.074 A 
ATOM     15  C   UNL     1       5.199  -0.678  -5.842  1.00  0.00     0.049 A 
ATOM     16  N   UNL     1       6.466   1.959  -6.535  1.00  0.00    -0.248 NA
ATOM     17  C   UNL     1       5.645   2.835  -4.535  1.00  0.00     0.031 C 
ATOM     18  C   UNL     1       4.577  -1.975  -5.559  1.00  0.00     0.029 A 
ATOM     19  N   UNL     1       5.838  -0.872  -7.039  1.00  0.00    -0.354 N 
ATOM     20  C   UNL     1       6.827   3.297  -6.442  1.00  0.00     0.074 A 
ATOM     21  C   UNL     1       6.267   3.797  -5.204  1.00  0.00     0.031 C 
ATOM     22  C   UNL     1       4.899  -2.840  -6.531  1.00  0.00     0.029 A 
ATOM     23  C   UNL     1       5.703  -2.148  -7.532  1.00  0.00     0.049 A 
ATOM     24  H   UNL     1       6.345  -0.166  -7.501  1.00  0.00     0.167 HD
ATOM     25  C   UNL     1       7.562   4.037  -7.308  1.00  0.00     0.037 A 
ATOM     26  C   UNL     1       6.162  -2.700  -8.670  1.00  0.00     0.037 A 
ATOM     27  C   UNL     1       8.131   3.524  -8.529  1.00  0.00     0.049 A 
ATOM     28  C   UNL     1       6.979  -1.862  -9.607  1.00  0.00     0.074 A 
ATOM     29  C   UNL     1       8.926   4.183  -9.451  1.00  0.00     0.029 A 
ATOM     30  N   UNL     1       7.964   2.229  -9.000  1.00  0.00    -0.354 N 
ATOM     31  N   UNL     1       7.339  -0.607  -9.484  1.00  0.00    -0.248 NA
ATOM     32  C   UNL     1       7.451  -2.511 -10.837  1.00  0.00     0.031 C 
ATOM     33  C   UNL     1       9.211   3.295 -10.496  1.00  0.00     0.029 A 
ATOM     34  C   UNL     1       8.624   2.074 -10.207  1.00  0.00     0.049 A 
ATOM     35  H   UNL     1       7.451   1.524  -8.542  1.00  0.00     0.167 HD
ATOM     36  C   UNL     1       8.084  -0.314 -10.620  1.00  0.00     0.074 A 
ATOM     37  C   UNL     1       8.141  -1.531 -11.406  1.00  0.00     0.031 C 
ATOM     38  C   UNL     1       8.663   0.858 -10.979  1.00  0.00     0.037 A 
BRANCH  25  39
ATOM     39  C   UNL     1       7.782   5.486  -6.974  1.00  0.00     0.058 A 
ATOM     40  C   UNL     1       8.668   5.884  -5.961  1.00  0.00     0.135 A 
ATOM     41  C   UNL     1       7.121   6.491  -7.699  1.00  0.00     0.135 A 
ATOM     42  F   UNL     1       9.315   4.964  -5.229  1.00  0.00    -0.206 F 
ATOM     43  C   UNL     1       8.872   7.227  -5.660  1.00  0.00     0.059 A 
ATOM     44  C   UNL     1       7.325   7.842  -7.428  1.00  0.00     0.059 A 
ATOM     45  F   UNL     1       6.263   6.165  -8.678  1.00  0.00    -0.206 F 
ATOM     46  C   UNL     1       8.191   8.199  -6.396  1.00  0.00     0.060 A 
BRANCH  46  47
ATOM     47  S   UNL     1       8.456   9.938  -5.988  1.00  0.00     0.124 S 
ATOM     48  O   UNL     1       7.669  10.071  -4.766  1.00  0.00    -0.237 OA
ATOM     49  O   UNL     1       9.904  10.005  -5.818  1.00  0.00    -0.237 OA
ATOM     50  O   UNL     1       7.932  10.644  -7.153  1.00  0.00    -0.744 OA
ENDBRANCH  46  47
ENDBRANCH  25  39
BRANCH  26  51
ATOM     51  C   UNL     1       5.845  -4.119  -8.973  1.00  0.00     0.058 A 
ATOM     52  C   UNL     1       6.827  -5.114  -8.881  1.00  0.00     0.135 A 
ATOM     53  C   UNL     1       4.539  -4.512  -9.306  1.00  0.00     0.135 A 
ATOM     54  F   UNL     1       8.089  -4.785  -8.568  1.00  0.00    -0.206 F 
ATOM     55  C   UNL     1       6.528  -6.453  -9.111  1.00  0.00     0.059 A 
ATOM     56  C   UNL     1       4.211  -5.846  -9.518  1.00  0.00     0.059 A 
ATOM     57  F   UNL     1       3.562  -3.596  -9.386  1.00  0.00    -0.206 F 
ATOM     58  C   UNL     1       5.215  -6.809  -9.425  1.00  0.00     0.060 A 
BRANCH  58  59
ATOM     59  S   UNL     1       4.815  -8.556  -9.649  1.00  0.00     0.124 S 
ATOM     60  O   UNL     1       5.313  -8.799 -10.998  1.00  0.00    -0.237 OA
ATOM     61  O   UNL     1       5.565  -9.187  -8.568  1.00  0.00    -0.237 OA
ATOM     62  O   UNL     1       3.364  -8.588  -9.494  1.00  0.00    -0.744 OA
ENDBRANCH  58  59
ENDBRANCH  26  51
BRANCH  38  63
ATOM     63  C   UNL     1       9.415   0.872 -12.279  1.00  0.00     0.058 A 
ATOM     64  C   UNL     1       8.743   0.903 -13.511  1.00  0.00     0.135 A 
ATOM     65  C   UNL     1      10.817   0.889 -12.290  1.00  0.00     0.135 A 
ATOM     66  F   UNL     1       7.402   0.879 -13.550  1.00  0.00    -0.206 F 
ATOM     67  C   UNL     1       9.439   0.929 -14.713  1.00  0.00     0.059 A 
ATOM     68  C   UNL     1      11.533   0.936 -13.483  1.00  0.00     0.059 A 
ATOM     69  F   UNL     1      11.504   0.868 -11.138  1.00  0.00    -0.206 F 
ATOM     70  C   UNL     1      10.836   0.944 -14.690  1.00  0.00     0.060 A 
BRANCH  70  71
ATOM     71  S   UNL     1      11.731   1.005 -16.256  1.00  0.00     0.124 S 
ATOM     72  O   UNL     1      11.635  -0.380 -16.703  1.00  0.00    -0.237 OA
ATOM     73  O   UNL     1      10.957   1.975 -17.025  1.00  0.00    -0.237 OA
ATOM     74  O   UNL     1      13.066   1.449 -15.864  1.00  0.00    -0.744 OA
ENDBRANCH  70  71
ENDBRANCH  38  63
ENDBRANCH  12  13
ENDBRANCH   5   7
ENDBRANCH   2   3
ENDBRANCH   1   2
BRANCH   1  75
ATOM     75  C   UNL     1       4.104   0.790   3.764  1.00  0.00     0.117 C 
BRANCH  75  76
ATOM     76  N   UNL     1       4.932  -0.208   4.415  1.00  0.00    -0.354 N 
ATOM     77  C   UNL     1       5.920  -0.069   5.352  1.00  0.00     0.247 C 
ATOM     78  H   UNL     1       4.754  -1.136   4.138  1.00  0.00     0.163 HD
ATOM     79  O   UNL     1       6.646  -1.048   5.561  1.00  0.00    -0.272 OA
BRANCH  77  80
ATOM     80  C   UNL     1       6.215   1.309   6.042  1.00  0.00     0.211 C 
BRANCH  80  81
ATOM     81  C   UNL     1       6.990   2.150   5.006  1.00  0.00    -0.016 A 
ATOM     82  C   UNL     1       8.249   1.675   4.580  1.00  0.00     0.006 A 
ATOM     83  C   UNL     1       6.492   3.307   4.382  1.00  0.00     0.006 A 
ATOM     84  C   UNL     1       8.973   2.326   3.579  1.00  0.00     0.000 A 
ATOM     85  C   UNL     1       7.235   3.979   3.405  1.00  0.00     0.000 A 
ATOM     86  C   UNL     1       8.470   3.485   2.998  1.00  0.00     0.000 A 
ENDBRANCH  80  81
BRANCH  80  87
ATOM     87  N   UNL     1       4.992   1.915   6.630  1.00  0.00    -0.276 N 
ATOM     88  C   UNL     1       4.008   1.070   7.118  1.00  0.00     0.267 C 
ATOM     89  C   UNL     1       4.893   3.156   7.210  1.00  0.00     0.149 C 
ATOM     90  O   UNL     1       4.145  -0.125   7.345  1.00  0.00    -0.268 OA
ATOM     91  C   UNL     1       2.773   1.836   7.441  1.00  0.00     0.084 C 
ATOM     92  S   UNL     1       3.184   3.511   7.492  1.00  0.00    -0.054 SA
ATOM     93  S   UNL     1       6.096   4.203   7.696  1.00  0.00    -0.052 S 
ATOM     94  C   UNL     1       1.533   1.374   7.656  1.00  0.00     0.068 C 
BRANCH  94  95
ATOM     95  C   UNL     1       1.206  -0.007   7.748  1.00  0.00     0.128 A 
ATOM     96  C   UNL     1       1.678  -0.950   8.654  1.00  0.00     0.051 A 
ATOM     97  O   UNL     1       0.256  -0.625   6.961  1.00  0.00    -0.457 OA
ATOM     98  C   UNL     1       1.014  -2.168   8.403  1.00  0.00     0.051 A 
ATOM     99  C   UNL     1       0.153  -1.928   7.359  1.00  0.00     0.134 A 
BRANCH  99 100
ATOM    100  C   UNL     1      -0.813  -2.767   6.665  1.00  0.00     0.017 A 
ATOM    101  C   UNL     1      -0.924  -2.750   5.268  1.00  0.00     0.015 A 
ATOM    102  C   UNL     1      -1.614  -3.657   7.401  1.00  0.00     0.015 A 
ATOM    103  C   UNL     1      -1.808  -3.619   4.619  1.00  0.00     0.040 A 
ATOM    104  C   UNL     1      -2.505  -4.515   6.754  1.00  0.00     0.040 A 
ATOM    105  C   UNL     1      -2.590  -4.492   5.368  1.00  0.00     0.123 A 
ATOM    106  F   UNL     1      -3.434  -5.326   4.747  1.00  0.00    -0.207 F 
ENDBRANCH  99 100
ENDBRANCH  94  95
ENDBRANCH  80  87
ENDBRANCH  77  80
ENDBRANCH  75  76
ENDBRANCH   1  75
TORSDOF 17
