REMARK SMILES CC[C@@]1(C(=O)NCCCNC(=O)c2ccc(-c3c4nc(c(-c5c(F)cc(S(=O)(=O)[O-])cc5F)c5ccc([nH]5)c(-c5c(F)cc(S(=O)(=O)[O-])cc5F)c5nc(c(-c6c(F)cc(S(=O)(=O)[O-])cc6F)c6ccc3[nH]6)C=C5)C=C4)cc2)CCC[N@@H+](Cc2ccc(C3CC3)cc2)C1
REMARK SMILES IDX 8 1 7 2 6 3 4 4 5 5 3 7 79 8 93 9 80 10 82 11 81 12 2 14
REMARK SMILES IDX 1 15 83 16 84 17 85 18 92 19 86 20 91 21 87 22 88 23 89 24
REMARK SMILES IDX 90 25 9 26 10 27 11 28 12 30 13 31 14 32 78 33 15 34 77 35
REMARK SMILES IDX 16 36 17 37 18 38 71 39 19 40 76 41 70 42 72 43 20 44 75 45
REMARK SMILES IDX 69 46 68 47 21 49 55 50 34 51 54 52 35 53 38 54 53 55 73 56
REMARK SMILES IDX 36 57 37 58 52 60 74 61 39 62 22 63 23 64 32 65 24 66 25 67
REMARK SMILES IDX 31 68 33 69 26 70 27 71 28 72 29 73 30 74 56 75 57 76 66 77
REMARK SMILES IDX 58 78 59 79 65 80 67 81 60 82 61 83 62 84 63 85 64 86 40 87
REMARK SMILES IDX 41 88 50 89 42 90 43 91 49 92 51 93 44 94 45 95 46 96 47 97
REMARK SMILES IDX 48 98
REMARK H PARENT 6 6 82 13 10 29 72 48 38 59
REMARK Flexibility Score: inf
ROOT
ATOM      1  C   UNL     1      -1.734   0.813   1.521  1.00  0.00     0.042 C 
ENDROOT
BRANCH   1   2
ATOM      2  C   UNL     1      -1.666  -0.516   0.798  1.00  0.00     0.117 C 
BRANCH   2   3
ATOM      3  N   UNL     1      -0.551  -0.620  -0.119  1.00  0.00    -0.355 N 
ATOM      4  C   UNL     1       0.478  -1.493  -0.232  1.00  0.00     0.231 C 
ATOM      5  O   UNL     1       1.084  -1.422  -1.314  1.00  0.00    -0.274 OA
ATOM      6  H   UNL     1      -0.538   0.091  -0.800  1.00  0.00     0.163 HD
BRANCH   4   7
ATOM      7  C   UNL     1       1.029  -2.422   0.883  1.00  0.00     0.098 C 
ATOM      8  C   UNL     1       1.363  -3.790   0.223  1.00  0.00     0.028 C 
ATOM      9  C   UNL     1       0.139  -2.744   2.091  1.00  0.00     0.279 C 
ATOM     10  C   UNL     1       0.085  -4.581  -0.089  1.00  0.00     0.063 C 
ATOM     11  N   UNL     1      -1.091  -3.480   1.768  1.00  0.00    -0.330 N 
ATOM     12  C   UNL     1      -0.802  -4.770   1.149  1.00  0.00     0.262 C 
ATOM     13  H   UNL     1      -1.579  -2.933   1.060  1.00  0.00     0.348 HD
BRANCH   7  14
ATOM     14  C   UNL     1       2.353  -1.711   1.341  1.00  0.00     0.019 C 
ATOM     15  C   UNL     1       2.854  -2.003   2.752  1.00  0.00     0.005 C 
ENDBRANCH   7  14
BRANCH  11  16
ATOM     16  C   UNL     1      -2.066  -3.539   2.878  1.00  0.00     0.299 C 
BRANCH  16  17
ATOM     17  C   UNL     1      -1.602  -4.156   4.176  1.00  0.00     0.006 A 
ATOM     18  C   UNL     1      -2.117  -5.378   4.610  1.00  0.00     0.010 A 
ATOM     19  C   UNL     1      -0.670  -3.506   4.994  1.00  0.00     0.010 A 
ATOM     20  C   UNL     1      -1.638  -5.970   5.785  1.00  0.00     0.004 A 
ATOM     21  C   UNL     1      -0.166  -4.122   6.138  1.00  0.00     0.004 A 
ATOM     22  C   UNL     1      -0.618  -5.381   6.553  1.00  0.00    -0.045 A 
BRANCH  22  23
ATOM     23  C   UNL     1      -0.057  -6.101   7.762  1.00  0.00     0.019 C 
ATOM     24  C   UNL     1       1.379  -5.905   8.193  1.00  0.00     0.009 C 
ATOM     25  C   UNL     1       0.262  -5.347   9.029  1.00  0.00     0.009 C 
ENDBRANCH  22  23
ENDBRANCH  16  17
ENDBRANCH  11  16
ENDBRANCH   4   7
ENDBRANCH   2   3
ENDBRANCH   1   2
BRANCH   1  26
ATOM     26  C   UNL     1      -2.274   1.924   0.641  1.00  0.00     0.118 C 
BRANCH  26  27
ATOM     27  N   UNL     1      -3.647   1.669   0.209  1.00  0.00    -0.352 N 
ATOM     28  C   UNL     1      -4.814   2.317   0.521  1.00  0.00     0.251 C 
ATOM     29  H   UNL     1      -3.750   0.907  -0.407  1.00  0.00     0.163 HD
ATOM     30  O   UNL     1      -5.892   1.795   0.238  1.00  0.00    -0.269 OA
BRANCH  28  31
ATOM     31  C   UNL     1      -4.777   3.623   1.207  1.00  0.00     0.039 A 
ATOM     32  C   UNL     1      -5.724   3.904   2.195  1.00  0.00     0.014 A 
ATOM     33  C   UNL     1      -3.808   4.571   0.877  1.00  0.00     0.014 A 
ATOM     34  C   UNL     1      -5.643   5.102   2.905  1.00  0.00     0.010 A 
ATOM     35  C   UNL     1      -3.659   5.708   1.659  1.00  0.00     0.010 A 
ATOM     36  C   UNL     1      -4.579   5.990   2.677  1.00  0.00    -0.014 A 
BRANCH  36  37
ATOM     37  C   UNL     1      -4.401   7.215   3.495  1.00  0.00     0.031 A 
ATOM     38  C   UNL     1      -4.414   8.569   2.839  1.00  0.00     0.074 A 
ATOM     39  C   UNL     1      -4.146   7.097   4.813  1.00  0.00     0.049 A 
ATOM     40  N   UNL     1      -4.200   9.745   3.371  1.00  0.00    -0.248 NA
ATOM     41  C   UNL     1      -4.668   8.607   1.389  1.00  0.00     0.031 C 
ATOM     42  C   UNL     1      -4.045   5.832   5.546  1.00  0.00     0.029 A 
ATOM     43  N   UNL     1      -3.913   8.052   5.770  1.00  0.00    -0.354 N 
ATOM     44  C   UNL     1      -4.277  10.654   2.322  1.00  0.00     0.074 A 
ATOM     45  C   UNL     1      -4.497   9.891   1.115  1.00  0.00     0.031 C 
ATOM     46  C   UNL     1      -3.798   6.090   6.839  1.00  0.00     0.029 A 
ATOM     47  C   UNL     1      -3.676   7.532   7.021  1.00  0.00     0.049 A 
ATOM     48  H   UNL     1      -3.915   9.018   5.580  1.00  0.00     0.167 HD
ATOM     49  C   UNL     1      -4.197  12.005   2.368  1.00  0.00     0.037 A 
ATOM     50  C   UNL     1      -3.380   8.148   8.182  1.00  0.00     0.037 A 
ATOM     51  C   UNL     1      -4.002  12.754   3.582  1.00  0.00     0.049 A 
ATOM     52  C   UNL     1      -3.295   9.649   8.208  1.00  0.00     0.074 A 
ATOM     53  C   UNL     1      -3.981  14.127   3.750  1.00  0.00     0.029 A 
ATOM     54  N   UNL     1      -3.786  12.194   4.833  1.00  0.00    -0.354 N 
ATOM     55  N   UNL     1      -3.456  10.500   7.222  1.00  0.00    -0.248 NA
ATOM     56  C   UNL     1      -2.995  10.276   9.502  1.00  0.00     0.031 C 
ATOM     57  C   UNL     1      -3.694  14.398   5.092  1.00  0.00     0.029 A 
ATOM     58  C   UNL     1      -3.597  13.194   5.773  1.00  0.00     0.049 A 
ATOM     59  H   UNL     1      -3.770  11.229   5.025  1.00  0.00     0.167 HD
ATOM     60  C   UNL     1      -3.294  11.763   7.780  1.00  0.00     0.074 A 
ATOM     61  C   UNL     1      -3.045  11.565   9.193  1.00  0.00     0.031 C 
ATOM     62  C   UNL     1      -3.345  12.977   7.177  1.00  0.00     0.037 A 
BRANCH  49  63
ATOM     63  C   UNL     1      -4.319  12.759   1.071  1.00  0.00     0.058 A 
ATOM     64  C   UNL     1      -5.529  12.816   0.359  1.00  0.00     0.135 A 
ATOM     65  C   UNL     1      -3.222  13.464   0.550  1.00  0.00     0.135 A 
ATOM     66  F   UNL     1      -6.607  12.149   0.800  1.00  0.00    -0.206 F 
ATOM     67  C   UNL     1      -5.638  13.519  -0.837  1.00  0.00     0.059 A 
ATOM     68  C   UNL     1      -3.317  14.200  -0.628  1.00  0.00     0.059 A 
ATOM     69  F   UNL     1      -2.041  13.444   1.187  1.00  0.00    -0.206 F 
ATOM     70  C   UNL     1      -4.526  14.210  -1.321  1.00  0.00     0.060 A 
BRANCH  70  71
ATOM     71  S   UNL     1      -4.689  15.124  -2.869  1.00  0.00     0.124 S 
ATOM     72  O   UNL     1      -4.770  14.038  -3.841  1.00  0.00    -0.237 OA
ATOM     73  O   UNL     1      -5.921  15.877  -2.657  1.00  0.00    -0.237 OA
ATOM     74  O   UNL     1      -3.470  15.924  -2.923  1.00  0.00    -0.744 OA
ENDBRANCH  70  71
ENDBRANCH  49  63
BRANCH  50  75
ATOM     75  C   UNL     1      -3.155   7.342   9.412  1.00  0.00     0.058 A 
ATOM     76  C   UNL     1      -4.074   7.367  10.472  1.00  0.00     0.135 A 
ATOM     77  C   UNL     1      -2.031   6.511   9.544  1.00  0.00     0.135 A 
ATOM     78  F   UNL     1      -5.162   8.149  10.398  1.00  0.00    -0.206 F 
ATOM     79  C   UNL     1      -3.881   6.610  11.623  1.00  0.00     0.059 A 
ATOM     80  C   UNL     1      -1.830   5.723  10.673  1.00  0.00     0.059 A 
ATOM     81  F   UNL     1      -1.130   6.436   8.551  1.00  0.00    -0.206 F 
ATOM     82  C   UNL     1      -2.757   5.787  11.712  1.00  0.00     0.060 A 
BRANCH  82  83
ATOM     83  S   UNL     1      -2.545   4.768  13.187  1.00  0.00     0.124 S 
ATOM     84  O   UNL     1      -2.197   5.769  14.189  1.00  0.00    -0.237 OA
ATOM     85  O   UNL     1      -3.862   4.154  13.327  1.00  0.00    -0.237 OA
ATOM     86  O   UNL     1      -1.472   3.851  12.811  1.00  0.00    -0.744 OA
ENDBRANCH  82  83
ENDBRANCH  50  75
BRANCH  62  87
ATOM     87  C   UNL     1      -3.145  14.189   8.046  1.00  0.00     0.058 A 
ATOM     88  C   UNL     1      -1.888  14.512   8.580  1.00  0.00     0.135 A 
ATOM     89  C   UNL     1      -4.212  15.066   8.301  1.00  0.00     0.135 A 
ATOM     90  F   UNL     1      -0.837  13.704   8.373  1.00  0.00    -0.206 F 
ATOM     91  C   UNL     1      -1.701  15.650   9.358  1.00  0.00     0.059 A 
ATOM     92  C   UNL     1      -4.040  16.226   9.049  1.00  0.00     0.059 A 
ATOM     93  F   UNL     1      -5.433  14.809   7.804  1.00  0.00    -0.206 F 
ATOM     94  C   UNL     1      -2.783  16.504   9.583  1.00  0.00     0.060 A 
BRANCH  94  95
ATOM     95  S   UNL     1      -2.516  17.995  10.563  1.00  0.00     0.124 S 
ATOM     96  O   UNL     1      -2.362  17.442  11.905  1.00  0.00    -0.237 OA
ATOM     97  O   UNL     1      -1.308  18.551   9.963  1.00  0.00    -0.237 OA
ATOM     98  O   UNL     1      -3.733  18.771  10.341  1.00  0.00    -0.744 OA
ENDBRANCH  94  95
ENDBRANCH  62  87
ENDBRANCH  36  37
ENDBRANCH  28  31
ENDBRANCH  26  27
ENDBRANCH   1  26
TORSDOF 17
