REMARK SMILES O=C(COc1ccccc1/C=N/N1[C@@H](S)N=N[C@H]1[C@@H]1C=C(c2ccccc2)N=N1)NCCCNC(=O)c1ccc(-c2c3nc(c(-c4c(F)cc(S(=O)(=O)[O-])cc4F)c4ccc([nH]4)c(-c4c(F)cc(S(=O)(=O)[O-])cc4F)c4nc(c(-c5c(F)cc(S(=O)(=O)[O-])cc5F)c5ccc2[nH]5)C=C4)C=C3)cc1
REMARK SMILES IDX 1 1 2 2 30 3 3 5 4 6 5 7 6 8 10 9 7 10 9 11 8 12 11 13 12 14
REMARK SMILES IDX 13 15 14 16 18 17 16 18 17 19 15 20 19 22 20 23 29 24 21 25
REMARK SMILES IDX 28 26 22 27 23 28 27 29 24 30 26 31 25 32 31 33 32 34 33 35
REMARK SMILES IDX 34 36 35 37 36 39 37 40 38 41 102 42 39 43 101 44 40 45
REMARK SMILES IDX 41 46 42 47 95 48 43 49 100 50 94 51 96 52 44 53 99 54 93 55
REMARK SMILES IDX 92 56 45 58 79 59 58 60 78 61 59 62 62 63 77 64 97 65 60 66
REMARK SMILES IDX 61 67 76 69 98 70 63 71 46 72 47 73 56 74 48 75 49 76 55 77
REMARK SMILES IDX 57 78 50 79 51 80 52 81 53 82 54 83 80 84 81 85 90 86 82 87
REMARK SMILES IDX 83 88 89 89 91 90 84 91 85 92 86 93 87 94 88 95 64 96 65 97
REMARK SMILES IDX 74 98 66 99 67 100 73 101 75 102 68 103 69 104 70 105 71 106
REMARK SMILES IDX 72 107
REMARK H PARENT 30 4 15 21 34 38 96 57 62 68
REMARK Flexibility Score: inf
ROOT
ATOM      1  O   UNL     1       1.319   0.582   0.162  1.00  0.00    -0.271 OA
ATOM      2  C   UNL     1       2.076  -0.107   0.840  1.00  0.00     0.257 C 
ATOM      3  N   UNL     1       2.528  -1.450   0.622  1.00  0.00    -0.353 N 
ATOM      4  H   UNL     1       3.088  -1.693   1.395  1.00  0.00     0.163 HD
ENDROOT
BRANCH   2   5
ATOM      5  C   UNL     1       2.421   0.708   2.100  1.00  0.00     0.329 C 
BRANCH   5   6
ATOM      6  O   UNL     1       1.286   0.784   2.983  1.00  0.00    -0.483 OA
BRANCH   6   7
ATOM      7  C   UNL     1       1.199  -0.445   3.585  1.00  0.00     0.128 A 
ATOM      8  C   UNL     1       2.053  -0.608   4.687  1.00  0.00     0.047 A 
ATOM      9  C   UNL     1       0.493  -1.500   2.958  1.00  0.00     0.037 A 
ATOM     10  C   UNL     1       2.290  -1.880   5.160  1.00  0.00     0.004 A 
ATOM     11  C   UNL     1       0.764  -2.779   3.441  1.00  0.00     0.013 A 
ATOM     12  C   UNL     1       1.652  -2.959   4.537  1.00  0.00     0.001 A 
BRANCH   9  13
ATOM     13  C   UNL     1      -0.275  -1.145   1.682  1.00  0.00     0.145 C 
ATOM     14  N   UNL     1      -0.141  -1.729   0.506  1.00  0.00    -0.180 NA
BRANCH  14  15
ATOM     15  N   UNL     1      -0.423  -0.817  -0.568  1.00  0.00    -0.233 NA
ATOM     16  C   UNL     1      -1.601  -1.076  -1.411  1.00  0.00     0.298 C 
ATOM     17  C   UNL     1       0.590  -0.464  -1.754  1.00  0.00     0.274 C 
ATOM     18  N   UNL     1      -1.480  -0.232  -2.631  1.00  0.00    -0.153 NA
ATOM     19  N   UNL     1      -0.291   0.160  -2.798  1.00  0.00    -0.161 NA
BRANCH  16  20
ATOM     20  S   UNL     1      -3.171  -0.907  -0.493  1.00  0.00    -0.128 SA
ATOM     21  H   UNL     1      -3.286   0.364  -0.022  1.00  0.00     0.106 HD
ENDBRANCH  16  20
BRANCH  17  22
ATOM     22  C   UNL     1       2.271   0.253  -2.042  1.00  0.00     0.202 C 
ATOM     23  C   UNL     1       3.649  -0.245  -1.534  1.00  0.00     0.037 C 
ATOM     24  N   UNL     1       2.460   1.716  -1.644  1.00  0.00    -0.177 NA
ATOM     25  C   UNL     1       4.284   0.718  -0.853  1.00  0.00     0.091 C 
ATOM     26  N   UNL     1       3.563   1.891  -0.981  1.00  0.00    -0.155 NA
BRANCH  25  27
ATOM     27  C   UNL     1       5.411   0.453   0.161  1.00  0.00     0.002 A 
ATOM     28  C   UNL     1       5.236  -0.408   1.272  1.00  0.00     0.010 A 
ATOM     29  C   UNL     1       6.686   1.011   0.126  1.00  0.00     0.010 A 
ATOM     30  C   UNL     1       6.114  -0.598   2.349  1.00  0.00     0.001 A 
ATOM     31  C   UNL     1       7.641   0.763   1.162  1.00  0.00     0.001 A 
ATOM     32  C   UNL     1       7.343  -0.003   2.292  1.00  0.00     0.000 A 
ENDBRANCH  25  27
ENDBRANCH  17  22
ENDBRANCH  14  15
ENDBRANCH   9  13
ENDBRANCH   6   7
ENDBRANCH   5   6
ENDBRANCH   2   5
BRANCH   3  33
ATOM     33  C   UNL     1       2.503  -2.728  -0.361  1.00  0.00     0.117 C 
BRANCH  33  34
ATOM     34  C   UNL     1       2.550  -2.987  -1.962  1.00  0.00     0.042 C 
BRANCH  34  35
ATOM     35  C   UNL     1       3.757  -3.244  -2.900  1.00  0.00     0.118 C 
BRANCH  35  36
ATOM     36  N   UNL     1       4.613  -4.377  -2.635  1.00  0.00    -0.352 N 
ATOM     37  C   UNL     1       5.818  -4.613  -3.275  1.00  0.00     0.251 C 
ATOM     38  H   UNL     1       4.319  -5.024  -1.954  1.00  0.00     0.163 HD
ATOM     39  O   UNL     1       6.163  -5.787  -3.491  1.00  0.00    -0.269 OA
BRANCH  37  40
ATOM     40  C   UNL     1       6.688  -3.492  -3.701  1.00  0.00     0.039 A 
ATOM     41  C   UNL     1       7.520  -3.607  -4.820  1.00  0.00     0.014 A 
ATOM     42  C   UNL     1       6.696  -2.311  -2.954  1.00  0.00     0.014 A 
ATOM     43  C   UNL     1       8.313  -2.522  -5.197  1.00  0.00     0.010 A 
ATOM     44  C   UNL     1       7.387  -1.200  -3.397  1.00  0.00     0.010 A 
ATOM     45  C   UNL     1       8.237  -1.307  -4.490  1.00  0.00    -0.014 A 
BRANCH  45  46
ATOM     46  C   UNL     1       8.961  -0.129  -4.980  1.00  0.00     0.031 A 
ATOM     47  C   UNL     1       8.713   0.164  -6.416  1.00  0.00     0.074 A 
ATOM     48  C   UNL     1       9.667   0.736  -4.213  1.00  0.00     0.049 A 
ATOM     49  N   UNL     1       9.497  -0.088  -7.411  1.00  0.00    -0.248 NA
ATOM     50  C   UNL     1       7.375   0.626  -6.822  1.00  0.00     0.031 C 
ATOM     51  C   UNL     1       9.734   0.782  -2.747  1.00  0.00     0.029 A 
ATOM     52  N   UNL     1      10.418   1.822  -4.576  1.00  0.00    -0.354 N 
ATOM     53  C   UNL     1       8.874   0.470  -8.524  1.00  0.00     0.074 A 
ATOM     54  C   UNL     1       7.498   0.666  -8.153  1.00  0.00     0.031 C 
ATOM     55  C   UNL     1      10.270   1.957  -2.349  1.00  0.00     0.029 A 
ATOM     56  C   UNL     1      10.767   2.660  -3.518  1.00  0.00     0.049 A 
ATOM     57  H   UNL     1      10.690   1.996  -5.506  1.00  0.00     0.167 HD
ATOM     58  C   UNL     1       9.622   1.033  -9.514  1.00  0.00     0.037 A 
ATOM     59  C   UNL     1      11.444   3.834  -3.578  1.00  0.00     0.037 A 
ATOM     60  C   UNL     1      11.013   0.686  -9.355  1.00  0.00     0.049 A 
ATOM     61  C   UNL     1      12.259   3.813  -4.814  1.00  0.00     0.074 A 
ATOM     62  C   UNL     1      11.823  -0.402  -9.587  1.00  0.00     0.029 A 
ATOM     63  N   UNL     1      11.677   1.511  -8.488  1.00  0.00    -0.354 N 
ATOM     64  N   UNL     1      13.241   2.976  -5.011  1.00  0.00    -0.248 NA
ATOM     65  C   UNL     1      11.781   4.512  -6.001  1.00  0.00     0.031 C 
ATOM     66  C   UNL     1      12.954  -0.254  -8.727  1.00  0.00     0.029 A 
ATOM     67  C   UNL     1      12.830   0.941  -8.024  1.00  0.00     0.049 A 
ATOM     68  H   UNL     1      11.362   2.407  -8.229  1.00  0.00     0.167 HD
ATOM     69  C   UNL     1      13.202   2.727  -6.366  1.00  0.00     0.074 A 
ATOM     70  C   UNL     1      12.422   3.815  -6.941  1.00  0.00     0.031 C 
ATOM     71  C   UNL     1      13.491   1.491  -6.861  1.00  0.00     0.037 A 
BRANCH  58  72
ATOM     72  C   UNL     1       9.241   2.279 -10.297  1.00  0.00     0.058 A 
ATOM     73  C   UNL     1      10.064   2.690 -11.370  1.00  0.00     0.135 A 
ATOM     74  C   UNL     1       8.302   3.238  -9.857  1.00  0.00     0.135 A 
ATOM     75  F   UNL     1      11.005   1.869 -11.863  1.00  0.00    -0.206 F 
ATOM     76  C   UNL     1       9.996   3.972 -11.922  1.00  0.00     0.059 A 
ATOM     77  C   UNL     1       8.184   4.503 -10.427  1.00  0.00     0.059 A 
ATOM     78  F   UNL     1       7.519   3.039  -8.792  1.00  0.00    -0.206 F 
ATOM     79  C   UNL     1       9.056   4.875 -11.435  1.00  0.00     0.060 A 
BRANCH  79  80
ATOM     80  S   UNL     1       9.002   6.548 -12.102  1.00  0.00     0.124 S 
ATOM     81  O   UNL     1      10.252   7.104 -11.597  1.00  0.00    -0.237 OA
ATOM     82  O   UNL     1       8.946   6.298 -13.539  1.00  0.00    -0.237 OA
ATOM     83  O   UNL     1       7.782   7.100 -11.521  1.00  0.00    -0.744 OA
ENDBRANCH  79  80
ENDBRANCH  58  72
BRANCH  59  84
ATOM     84  C   UNL     1      11.268   5.072  -2.773  1.00  0.00     0.058 A 
ATOM     85  C   UNL     1      12.234   6.096  -2.790  1.00  0.00     0.135 A 
ATOM     86  C   UNL     1      10.011   5.411  -2.236  1.00  0.00     0.135 A 
ATOM     87  F   UNL     1      13.459   5.861  -3.286  1.00  0.00    -0.206 F 
ATOM     88  C   UNL     1      11.947   7.400  -2.374  1.00  0.00     0.059 A 
ATOM     89  C   UNL     1       9.703   6.704  -1.812  1.00  0.00     0.059 A 
ATOM     90  F   UNL     1       9.017   4.511  -2.199  1.00  0.00    -0.206 F 
ATOM     91  C   UNL     1      10.667   7.702  -1.913  1.00  0.00     0.060 A 
BRANCH  91  92
ATOM     92  S   UNL     1      10.236   9.426  -1.569  1.00  0.00     0.124 S 
ATOM     93  O   UNL     1      11.007   9.693  -0.360  1.00  0.00    -0.237 OA
ATOM     94  O   UNL     1      10.691  10.106  -2.777  1.00  0.00    -0.237 OA
ATOM     95  O   UNL     1       8.788   9.383  -1.389  1.00  0.00    -0.744 OA
ENDBRANCH  91  92
ENDBRANCH  59  84
BRANCH  71  96
ATOM     96  C   UNL     1      14.450   0.632  -6.097  1.00  0.00     0.058 A 
ATOM     97  C   UNL     1      14.213   0.058  -4.838  1.00  0.00     0.135 A 
ATOM     98  C   UNL     1      15.670   0.332  -6.725  1.00  0.00     0.135 A 
ATOM     99  F   UNL     1      13.045   0.242  -4.204  1.00  0.00    -0.206 F 
ATOM    100  C   UNL     1      15.165  -0.758  -4.220  1.00  0.00     0.059 A 
ATOM    101  C   UNL     1      16.617  -0.499  -6.142  1.00  0.00     0.059 A 
ATOM    102  F   UNL     1      15.938   0.826  -7.945  1.00  0.00    -0.206 F 
ATOM    103  C   UNL     1      16.364  -1.032  -4.882  1.00  0.00     0.060 A 
BRANCH 103 104
ATOM    104  S   UNL     1      17.573  -2.130  -4.112  1.00  0.00     0.124 S 
ATOM    105  O   UNL     1      18.053  -1.325  -2.995  1.00  0.00    -0.237 OA
ATOM    106  O   UNL     1      16.763  -3.291  -3.756  1.00  0.00    -0.237 OA
ATOM    107  O   UNL     1      18.548  -2.365  -5.176  1.00  0.00    -0.744 OA
ENDBRANCH 103 104
ENDBRANCH  71  96
ENDBRANCH  45  46
ENDBRANCH  37  40
ENDBRANCH  35  36
ENDBRANCH  34  35
ENDBRANCH  33  34
ENDBRANCH   3  33
TORSDOF 20
