REMARK SMILES CO[C@H]1CN(C(=O)c2cn(C(C)C)cc(C(=O)NCCCNC(=O)c3ccc(-c4c5nc(c(-c6c(F)cc(S(=O)(=O)[O-])cc6F)c6ccc([nH]6)c(-c6c(F)cc(S(=O)(=O)[O-])cc6F)c6nc(c(-c7c(F)cc(S(=O)(=O)[O-])cc7F)c7ccc4[nH]7)C=C6)C=C5)cc3)c2=O)CC[C@H]1[NH3+]
REMARK SMILES IDX 20 1 19 2 18 3 16 4 17 5 15 7 8 8 9 9 91 10 10 11 92 12
REMARK SMILES IDX 14 13 6 14 7 15 5 16 3 17 4 18 95 19 94 20 93 21 2 22 1 23
REMARK SMILES IDX 96 24 11 28 12 29 13 30 21 31 22 32 23 33 24 35 25 36 26 37
REMARK SMILES IDX 90 38 27 39 89 40 28 41 29 42 30 43 83 44 31 45 88 46 82 47
REMARK SMILES IDX 84 48 32 49 87 50 81 51 80 52 33 54 67 55 46 56 66 57 47 58
REMARK SMILES IDX 50 59 65 60 85 61 48 62 49 63 64 65 86 66 51 67 34 68 35 69
REMARK SMILES IDX 44 70 36 71 37 72 43 73 45 74 38 75 39 76 40 77 41 78 42 79
REMARK SMILES IDX 68 80 69 81 78 82 70 83 71 84 77 85 79 86 72 87 73 88 74 89
REMARK SMILES IDX 75 90 76 91 52 92 53 93 62 94 54 95 55 96 61 97 63 98 56 99
REMARK SMILES IDX 57 100 58 101 59 102 60 103
REMARK H PARENT 18 6 96 25 96 26 96 27 22 34 84 53 50 64
REMARK Flexibility Score: inf
ROOT
ATOM      1  C   UNL     1       0.006   8.451  -0.656  1.00  0.00     0.042 C 
ENDROOT
BRANCH   1   2
ATOM      2  C   UNL     1      -0.966   7.447  -0.040  1.00  0.00     0.118 C 
BRANCH   2   3
ATOM      3  N   UNL     1      -2.304   7.594  -0.586  1.00  0.00    -0.352 N 
ATOM      4  C   UNL     1      -2.977   6.935  -1.567  1.00  0.00     0.256 C 
ATOM      5  O   UNL     1      -4.138   7.308  -1.770  1.00  0.00    -0.269 OA
ATOM      6  H   UNL     1      -2.828   8.312  -0.162  1.00  0.00     0.163 HD
BRANCH   4   7
ATOM      7  C   UNL     1      -2.427   5.770  -2.312  1.00  0.00     0.104 A 
ATOM      8  C   UNL     1      -0.692   4.101  -3.130  1.00  0.00     0.104 A 
ATOM      9  C   UNL     1      -1.707   3.362  -3.598  1.00  0.00     0.103 A 
ATOM     10  C   UNL     1      -1.006   5.461  -2.627  1.00  0.00     0.207 A 
ATOM     11  N   UNL     1      -3.042   3.746  -3.534  1.00  0.00    -0.350 N 
ATOM     12  O   UNL     1      -0.103   6.278  -2.496  1.00  0.00    -0.288 OA
ATOM     13  C   UNL     1      -3.333   4.913  -2.826  1.00  0.00     0.103 A 
BRANCH   8  14
ATOM     14  C   UNL     1       0.682   3.558  -3.197  1.00  0.00     0.259 C 
ATOM     15  O   UNL     1       1.095   3.090  -4.257  1.00  0.00    -0.269 OA
BRANCH  14  16
ATOM     16  N   UNL     1       1.422   3.537  -2.022  1.00  0.00    -0.335 N 
ATOM     17  C   UNL     1       1.136   2.507   0.199  1.00  0.00     0.195 C 
ATOM     18  C   UNL     1       0.888   3.751  -0.670  1.00  0.00     0.158 C 
ATOM     19  C   UNL     1       2.646   2.131   0.237  1.00  0.00     0.213 C 
ATOM     20  C   UNL     1       3.155   1.976  -1.211  1.00  0.00     0.089 C 
ATOM     21  C   UNL     1       2.842   3.197  -2.080  1.00  0.00     0.126 C 
BRANCH  17  22
ATOM     22  O   UNL     1       0.473   2.517   1.469  1.00  0.00    -0.373 OA
ATOM     23  C   UNL     1       0.715   3.631   2.311  1.00  0.00     0.195 C 
ENDBRANCH  17  22
BRANCH  19  24
ATOM     24  N   UNL     1       3.505   3.072   0.977  1.00  0.00    -0.353 N 
ATOM     25  H   UNL     1       3.491   3.980   0.513  1.00  0.00     0.344 HD
ATOM     26  H   UNL     1       4.460   2.716   0.998  1.00  0.00     0.344 HD
ATOM     27  H   UNL     1       3.158   3.171   1.931  1.00  0.00     0.344 HD
ENDBRANCH  19  24
ENDBRANCH  14  16
ENDBRANCH   8  14
BRANCH  11  28
ATOM     28  C   UNL     1      -4.122   2.976  -4.199  1.00  0.00     0.080 C 
ATOM     29  C   UNL     1      -3.930   2.992  -5.716  1.00  0.00     0.031 C 
ATOM     30  C   UNL     1      -4.205   1.553  -3.651  1.00  0.00     0.031 C 
ENDBRANCH  11  28
ENDBRANCH   4   7
ENDBRANCH   2   3
ENDBRANCH   1   2
BRANCH   1  31
ATOM     31  C   UNL     1      -0.186   9.874  -0.152  1.00  0.00     0.118 C 
BRANCH  31  32
ATOM     32  N   UNL     1       0.368  10.078   1.180  1.00  0.00    -0.352 N 
ATOM     33  C   UNL     1       1.378  10.923   1.581  1.00  0.00     0.251 C 
ATOM     34  H   UNL     1      -0.037   9.535   1.895  1.00  0.00     0.163 HD
ATOM     35  O   UNL     1       1.832  10.836   2.719  1.00  0.00    -0.269 OA
BRANCH  33  36
ATOM     36  C   UNL     1       1.937  11.907   0.627  1.00  0.00     0.039 A 
ATOM     37  C   UNL     1       1.094  12.691  -0.163  1.00  0.00     0.014 A 
ATOM     38  C   UNL     1       3.324  12.016   0.496  1.00  0.00     0.014 A 
ATOM     39  C   UNL     1       1.628  13.442  -1.206  1.00  0.00     0.010 A 
ATOM     40  C   UNL     1       3.862  12.836  -0.500  1.00  0.00     0.010 A 
ATOM     41  C   UNL     1       3.016  13.511  -1.396  1.00  0.00    -0.014 A 
BRANCH  41  42
ATOM     42  C   UNL     1       3.570  14.262  -2.553  1.00  0.00     0.031 A 
ATOM     43  C   UNL     1       4.324  13.541  -3.639  1.00  0.00     0.074 A 
ATOM     44  C   UNL     1       3.367  15.590  -2.644  1.00  0.00     0.049 A 
ATOM     45  N   UNL     1       4.939  14.032  -4.685  1.00  0.00    -0.248 NA
ATOM     46  C   UNL     1       4.406  12.075  -3.532  1.00  0.00     0.031 C 
ATOM     47  C   UNL     1       2.634  16.400  -1.669  1.00  0.00     0.029 A 
ATOM     48  N   UNL     1       3.748  16.491  -3.606  1.00  0.00    -0.354 N 
ATOM     49  C   UNL     1       5.509  12.946  -5.339  1.00  0.00     0.074 A 
ATOM     50  C   UNL     1       5.178  11.769  -4.565  1.00  0.00     0.031 C 
ATOM     51  C   UNL     1       2.591  17.670  -2.098  1.00  0.00     0.029 A 
ATOM     52  C   UNL     1       3.346  17.778  -3.342  1.00  0.00     0.049 A 
ATOM     53  H   UNL     1       4.261  16.239  -4.407  1.00  0.00     0.167 HD
ATOM     54  C   UNL     1       6.238  12.932  -6.481  1.00  0.00     0.037 A 
ATOM     55  C   UNL     1       3.581  18.923  -4.009  1.00  0.00     0.037 A 
ATOM     56  C   UNL     1       6.531  14.103  -7.269  1.00  0.00     0.049 A 
ATOM     57  C   UNL     1       4.403  18.887  -5.263  1.00  0.00     0.074 A 
ATOM     58  C   UNL     1       7.230  14.187  -8.461  1.00  0.00     0.029 A 
ATOM     59  N   UNL     1       6.138  15.394  -6.947  1.00  0.00    -0.354 N 
ATOM     60  N   UNL     1       4.954  17.854  -5.856  1.00  0.00    -0.248 NA
ATOM     61  C   UNL     1       4.647  20.170  -5.933  1.00  0.00     0.031 C 
ATOM     62  C   UNL     1       7.289  15.534  -8.841  1.00  0.00     0.029 A 
ATOM     63  C   UNL     1       6.595  16.284  -7.905  1.00  0.00     0.049 A 
ATOM     64  H   UNL     1       5.610  15.641  -6.153  1.00  0.00     0.167 HD
ATOM     65  C   UNL     1       5.618  18.363  -6.965  1.00  0.00     0.074 A 
ATOM     66  C   UNL     1       5.374  19.792  -6.977  1.00  0.00     0.031 C 
ATOM     67  C   UNL     1       6.368  17.707  -7.885  1.00  0.00     0.037 A 
BRANCH  54  68
ATOM     68  C   UNL     1       6.796  11.611  -6.935  1.00  0.00     0.058 A 
ATOM     69  C   UNL     1       5.985  10.615  -7.501  1.00  0.00     0.135 A 
ATOM     70  C   UNL     1       8.171  11.347  -6.821  1.00  0.00     0.135 A 
ATOM     71  F   UNL     1       4.662  10.808  -7.619  1.00  0.00    -0.206 F 
ATOM     72  C   UNL     1       6.512   9.395  -7.914  1.00  0.00     0.059 A 
ATOM     73  C   UNL     1       8.724  10.143  -7.248  1.00  0.00     0.059 A 
ATOM     74  F   UNL     1       8.993  12.264  -6.286  1.00  0.00    -0.206 F 
ATOM     75  C   UNL     1       7.883   9.166  -7.779  1.00  0.00     0.060 A 
BRANCH  75  76
ATOM     76  S   UNL     1       8.554   7.576  -8.310  1.00  0.00     0.124 S 
ATOM     77  O   UNL     1       8.095   6.695  -7.240  1.00  0.00    -0.237 OA
ATOM     78  O   UNL     1       7.916   7.383  -9.608  1.00  0.00    -0.237 OA
ATOM     79  O   UNL     1       9.994   7.811  -8.352  1.00  0.00    -0.744 OA
ENDBRANCH  75  76
ENDBRANCH  54  68
BRANCH  55  80
ATOM     80  C   UNL     1       3.037  20.197  -3.474  1.00  0.00     0.058 A 
ATOM     81  C   UNL     1       1.942  20.826  -4.082  1.00  0.00     0.135 A 
ATOM     82  C   UNL     1       3.554  20.766  -2.299  1.00  0.00     0.135 A 
ATOM     83  F   UNL     1       1.423  20.324  -5.212  1.00  0.00    -0.206 F 
ATOM     84  C   UNL     1       1.367  21.968  -3.536  1.00  0.00     0.059 A 
ATOM     85  C   UNL     1       2.981  21.894  -1.722  1.00  0.00     0.059 A 
ATOM     86  F   UNL     1       4.593  20.191  -1.675  1.00  0.00    -0.206 F 
ATOM     87  C   UNL     1       1.885  22.487  -2.347  1.00  0.00     0.060 A 
BRANCH  87  88
ATOM     88  S   UNL     1       1.062  23.903  -1.587  1.00  0.00     0.124 S 
ATOM     89  O   UNL     1       1.476  24.991  -2.466  1.00  0.00    -0.237 OA
ATOM     90  O   UNL     1      -0.344  23.519  -1.667  1.00  0.00    -0.237 OA
ATOM     91  O   UNL     1       1.619  23.931  -0.238  1.00  0.00    -0.744 OA
ENDBRANCH  87  88
ENDBRANCH  55  80
BRANCH  67  92
ATOM     92  C   UNL     1       6.988  18.539  -8.972  1.00  0.00     0.058 A 
ATOM     93  C   UNL     1       8.095  19.363  -8.717  1.00  0.00     0.135 A 
ATOM     94  C   UNL     1       6.484  18.500 -10.282  1.00  0.00     0.135 A 
ATOM     95  F   UNL     1       8.608  19.440  -7.479  1.00  0.00    -0.206 F 
ATOM     96  C   UNL     1       8.663  20.145  -9.717  1.00  0.00     0.059 A 
ATOM     97  C   UNL     1       7.051  19.256 -11.302  1.00  0.00     0.059 A 
ATOM     98  F   UNL     1       5.433  17.719 -10.579  1.00  0.00    -0.206 F 
ATOM     99  C   UNL     1       8.130  20.089 -11.006  1.00  0.00     0.060 A 
BRANCH  99 100
ATOM    100  S   UNL     1       8.877  21.107 -12.296  1.00  0.00     0.124 S 
ATOM    101  O   UNL     1       8.362  22.430 -11.959  1.00  0.00    -0.237 OA
ATOM    102  O   UNL     1      10.304  20.905 -12.070  1.00  0.00    -0.237 OA
ATOM    103  O   UNL     1       8.356  20.526 -13.530  1.00  0.00    -0.744 OA
ENDBRANCH  99 100
ENDBRANCH  67  92
ENDBRANCH  41  42
ENDBRANCH  33  36
ENDBRANCH  31  32
ENDBRANCH   1  31
TORSDOF 18
