REMARK SMILES Cc1ccc([C@@H]2[C@H](C(=O)NCCCNC(=O)c3ccc(-c4c5nc(c(-c6c(F)cc(S(=O)(=O)[O-])cc6F)c6ccc([nH]6)c(-c6c(F)cc(S(=O)(=O)[O-])cc6F)c6nc(c(-c7c(F)cc(S(=O)(=O)[O-])cc7F)c7ccc4[nH]7)C=C6)C=C5)cc3)c3ccccc3C(=O)N2c2ccccc2)cc1
REMARK SMILES IDX 13 1 12 2 11 3 10 4 8 5 9 6 7 8 6 9 91 10 83 11 89 12 84 13
REMARK SMILES IDX 88 14 90 15 85 16 87 17 86 18 5 19 1 20 2 21 3 22 99 23 4 24
REMARK SMILES IDX 98 25 92 26 93 27 97 28 94 29 96 30 95 31 14 32 15 33 16 35
REMARK SMILES IDX 17 36 18 37 82 38 19 39 81 40 20 41 21 42 22 43 75 44 23 45
REMARK SMILES IDX 80 46 74 47 76 48 24 49 79 50 73 51 72 52 25 54 59 55 38 56
REMARK SMILES IDX 58 57 39 58 42 59 57 60 77 61 40 62 41 63 56 65 78 66 43 67
REMARK SMILES IDX 26 68 27 69 36 70 28 71 29 72 35 73 37 74 30 75 31 76 32 77
REMARK SMILES IDX 33 78 34 79 60 80 61 81 70 82 62 83 63 84 69 85 71 86 64 87
REMARK SMILES IDX 65 88 66 89 67 90 68 91 44 92 45 93 54 94 46 95 47 96 53 97
REMARK SMILES IDX 55 98 48 99 49 100 50 101 51 102 52 103
REMARK H PARENT 10 7 14 34 76 53 42 64
REMARK Flexibility Score: inf
ROOT
ATOM      1  C   UNL     1      -4.371  -4.934   6.605  1.00  0.00     0.118 C 
ENDROOT
BRANCH   1   2
ATOM      2  C   UNL     1      -4.147  -3.487   6.183  1.00  0.00     0.042 C 
BRANCH   2   3
ATOM      3  C   UNL     1      -2.719  -3.178   5.761  1.00  0.00     0.117 C 
BRANCH   3   4
ATOM      4  N   UNL     1      -2.618  -3.014   4.314  1.00  0.00    -0.355 N 
ATOM      5  C   UNL     1      -2.007  -1.918   3.763  1.00  0.00     0.230 C 
ATOM      6  O   UNL     1      -0.800  -1.978   3.519  1.00  0.00    -0.274 OA
ATOM      7  H   UNL     1      -2.996  -3.704   3.722  1.00  0.00     0.163 HD
BRANCH   5   8
ATOM      8  C   UNL     1      -2.838  -0.697   3.348  1.00  0.00     0.137 C 
ATOM      9  C   UNL     1      -2.844  -0.550   1.785  1.00  0.00     0.138 C 
ATOM     10  N   UNL     1      -3.877  -1.431   1.210  1.00  0.00    -0.300 N 
ATOM     11  C   UNL     1      -4.285  -0.603   3.848  1.00  0.00    -0.020 A 
ATOM     12  C   UNL     1      -5.155  -0.919   1.483  1.00  0.00     0.259 C 
ATOM     13  C   UNL     1      -4.560  -0.401   5.206  1.00  0.00     0.005 A 
ATOM     14  C   UNL     1      -5.376  -0.662   2.946  1.00  0.00     0.044 A 
ATOM     15  O   UNL     1      -6.049  -0.772   0.658  1.00  0.00    -0.269 OA
ATOM     16  C   UNL     1      -5.881  -0.346   5.663  1.00  0.00     0.000 A 
ATOM     17  C   UNL     1      -6.695  -0.564   3.404  1.00  0.00     0.014 A 
ATOM     18  C   UNL     1      -6.945  -0.428   4.767  1.00  0.00     0.001 A 
BRANCH   9  19
ATOM     19  C   UNL     1      -1.530  -0.265   1.062  1.00  0.00    -0.024 A 
ATOM     20  C   UNL     1       2.495   0.373  -0.391  1.00  0.00     0.044 C 
ATOM     21  C   UNL     1       1.056   0.244   0.007  1.00  0.00    -0.051 A 
ATOM     22  C   UNL     1       0.237  -0.746  -0.544  1.00  0.00     0.004 A 
ATOM     23  C   UNL     1       0.536   1.057   1.012  1.00  0.00     0.004 A 
ATOM     24  C   UNL     1      -1.061  -0.958  -0.058  1.00  0.00     0.006 A 
ATOM     25  C   UNL     1      -0.735   0.803   1.530  1.00  0.00     0.006 A 
ENDBRANCH   9  19
BRANCH  10  26
ATOM     26  C   UNL     1      -3.776  -2.880   1.166  1.00  0.00     0.045 A 
ATOM     27  C   UNL     1      -4.950  -3.663   1.218  1.00  0.00     0.026 A 
ATOM     28  C   UNL     1      -2.563  -3.576   1.188  1.00  0.00     0.026 A 
ATOM     29  C   UNL     1      -4.911  -5.053   1.373  1.00  0.00     0.002 A 
ATOM     30  C   UNL     1      -2.519  -4.974   1.301  1.00  0.00     0.002 A 
ATOM     31  C   UNL     1      -3.691  -5.710   1.419  1.00  0.00     0.000 A 
ENDBRANCH  10  26
ENDBRANCH   5   8
ENDBRANCH   3   4
ENDBRANCH   2   3
ENDBRANCH   1   2
BRANCH   1  32
ATOM     32  N   UNL     1      -4.591  -5.049   8.042  1.00  0.00    -0.352 N 
ATOM     33  C   UNL     1      -5.242  -6.049   8.744  1.00  0.00     0.251 C 
ATOM     34  H   UNL     1      -4.227  -4.315   8.588  1.00  0.00     0.163 HD
ATOM     35  O   UNL     1      -5.567  -5.937   9.906  1.00  0.00    -0.269 OA
BRANCH  33  36
ATOM     36  C   UNL     1      -5.415  -7.333   8.037  1.00  0.00     0.039 A 
ATOM     37  C   UNL     1      -4.583  -8.389   8.426  1.00  0.00     0.014 A 
ATOM     38  C   UNL     1      -6.154  -7.381   6.859  1.00  0.00     0.014 A 
ATOM     39  C   UNL     1      -4.352  -9.432   7.536  1.00  0.00     0.010 A 
ATOM     40  C   UNL     1      -5.854  -8.367   5.943  1.00  0.00     0.010 A 
ATOM     41  C   UNL     1      -4.925  -9.365   6.266  1.00  0.00    -0.014 A 
BRANCH  41  42
ATOM     42  C   UNL     1      -4.546 -10.252   5.176  1.00  0.00     0.031 A 
ATOM     43  C   UNL     1      -5.441 -11.360   4.787  1.00  0.00     0.074 A 
ATOM     44  C   UNL     1      -3.409 -10.020   4.487  1.00  0.00     0.049 A 
ATOM     45  N   UNL     1      -5.038 -12.443   4.214  1.00  0.00    -0.248 NA
ATOM     46  C   UNL     1      -6.877 -11.345   5.048  1.00  0.00     0.031 C 
ATOM     47  C   UNL     1      -3.005 -10.622   3.221  1.00  0.00     0.029 A 
ATOM     48  N   UNL     1      -2.281  -9.315   4.912  1.00  0.00    -0.354 N 
ATOM     49  C   UNL     1      -6.154 -13.126   3.791  1.00  0.00     0.074 A 
ATOM     50  C   UNL     1      -7.275 -12.437   4.387  1.00  0.00     0.031 C 
ATOM     51  C   UNL     1      -1.677 -10.485   3.078  1.00  0.00     0.029 A 
ATOM     52  C   UNL     1      -1.162  -9.921   4.314  1.00  0.00     0.049 A 
ATOM     53  H   UNL     1      -2.272  -8.538   5.517  1.00  0.00     0.167 HD
ATOM     54  C   UNL     1      -6.032 -14.115   2.862  1.00  0.00     0.037 A 
ATOM     55  C   UNL     1      -0.184 -10.492   5.077  1.00  0.00     0.037 A 
ATOM     56  C   UNL     1      -4.640 -14.310   2.474  1.00  0.00     0.049 A 
ATOM     57  C   UNL     1      -0.037 -11.981   4.857  1.00  0.00     0.074 A 
ATOM     58  C   UNL     1      -3.890 -13.804   1.425  1.00  0.00     0.029 A 
ATOM     59  N   UNL     1      -3.731 -14.829   3.391  1.00  0.00    -0.354 N 
ATOM     60  N   UNL     1      -0.952 -12.734   4.310  1.00  0.00    -0.248 NA
ATOM     61  C   UNL     1       1.155 -12.740   5.225  1.00  0.00     0.031 C 
ATOM     62  C   UNL     1      -2.521 -13.964   1.741  1.00  0.00     0.029 A 
ATOM     63  C   UNL     1      -2.435 -14.589   2.972  1.00  0.00     0.049 A 
ATOM     64  H   UNL     1      -3.976 -15.299   4.221  1.00  0.00     0.167 HD
ATOM     65  C   UNL     1      -0.516 -14.036   4.261  1.00  0.00     0.074 A 
ATOM     66  C   UNL     1       0.819 -13.981   4.827  1.00  0.00     0.031 C 
ATOM     67  C   UNL     1      -1.292 -15.042   3.752  1.00  0.00     0.037 A 
BRANCH  54  68
ATOM     68  C   UNL     1      -7.223 -14.639   2.099  1.00  0.00     0.058 A 
ATOM     69  C   UNL     1      -7.158 -14.856   0.707  1.00  0.00     0.135 A 
ATOM     70  C   UNL     1      -8.479 -14.886   2.686  1.00  0.00     0.135 A 
ATOM     71  F   UNL     1      -6.013 -14.718   0.026  1.00  0.00    -0.206 F 
ATOM     72  C   UNL     1      -8.274 -15.192  -0.059  1.00  0.00     0.059 A 
ATOM     73  C   UNL     1      -9.623 -15.178   1.935  1.00  0.00     0.059 A 
ATOM     74  F   UNL     1      -8.631 -14.852   4.020  1.00  0.00    -0.206 F 
ATOM     75  C   UNL     1      -9.511 -15.320   0.557  1.00  0.00     0.060 A 
BRANCH  75  76
ATOM     76  S   UNL     1     -10.955 -15.644  -0.474  1.00  0.00     0.124 S 
ATOM     77  O   UNL     1     -10.831 -14.624  -1.512  1.00  0.00    -0.237 OA
ATOM     78  O   UNL     1     -10.717 -17.018  -0.903  1.00  0.00    -0.237 OA
ATOM     79  O   UNL     1     -12.075 -15.457   0.444  1.00  0.00    -0.744 OA
ENDBRANCH  75  76
ENDBRANCH  54  68
BRANCH  55  80
ATOM     80  C   UNL     1       0.059  -9.765   6.355  1.00  0.00     0.058 A 
ATOM     81  C   UNL     1       0.603  -8.467   6.276  1.00  0.00     0.135 A 
ATOM     82  C   UNL     1      -0.601 -10.114   7.541  1.00  0.00     0.135 A 
ATOM     83  F   UNL     1       1.256  -8.082   5.166  1.00  0.00    -0.206 F 
ATOM     84  C   UNL     1       0.372  -7.509   7.258  1.00  0.00     0.059 A 
ATOM     85  C   UNL     1      -0.839  -9.169   8.545  1.00  0.00     0.059 A 
ATOM     86  F   UNL     1      -1.140 -11.334   7.680  1.00  0.00    -0.206 F 
ATOM     87  C   UNL     1      -0.404  -7.854   8.362  1.00  0.00     0.060 A 
BRANCH  87  88
ATOM     88  S   UNL     1      -0.962  -6.522   9.453  1.00  0.00     0.124 S 
ATOM     89  O   UNL     1       0.293  -6.066  10.039  1.00  0.00    -0.237 OA
ATOM     90  O   UNL     1      -1.589  -5.593   8.512  1.00  0.00    -0.237 OA
ATOM     91  O   UNL     1      -1.877  -7.197  10.364  1.00  0.00    -0.744 OA
ENDBRANCH  87  88
ENDBRANCH  55  80
BRANCH  67  92
ATOM     92  C   UNL     1      -1.016 -16.531   3.823  1.00  0.00     0.058 A 
ATOM     93  C   UNL     1      -0.239 -17.150   4.816  1.00  0.00     0.135 A 
ATOM     94  C   UNL     1      -1.670 -17.422   2.931  1.00  0.00     0.135 A 
ATOM     95  F   UNL     1       0.344 -16.440   5.792  1.00  0.00    -0.206 F 
ATOM     96  C   UNL     1      -0.069 -18.536   4.883  1.00  0.00     0.059 A 
ATOM     97  C   UNL     1      -1.563 -18.807   3.017  1.00  0.00     0.059 A 
ATOM     98  F   UNL     1      -2.459 -16.975   1.942  1.00  0.00    -0.206 F 
ATOM     99  C   UNL     1      -0.737 -19.358   3.981  1.00  0.00     0.060 A 
BRANCH  99 100
ATOM    100  S   UNL     1      -0.583 -21.148   4.107  1.00  0.00     0.124 S 
ATOM    101  O   UNL     1       0.573 -21.401   3.252  1.00  0.00    -0.237 OA
ATOM    102  O   UNL     1      -0.367 -21.355   5.536  1.00  0.00    -0.237 OA
ATOM    103  O   UNL     1      -1.863 -21.630   3.599  1.00  0.00    -0.744 OA
ENDBRANCH  99 100
ENDBRANCH  67  92
ENDBRANCH  41  42
ENDBRANCH  33  36
ENDBRANCH   1  32
TORSDOF 15
