REMARK SMILES C[NH+]1CCN(c2nc3c(cc2F)c(=O)c(C(=O)NCCCNC(=O)c2ccc(-c4c5nc(c(-c6c(F)cc(S(=O)(=O)[O-])cc6F)c6ccc([nH]6)c(-c6c(F)cc(S(=O)(=O)[O-])cc6F)c6nc(c(-c7c(F)cc(S(=O)(=O)[O-])cc7F)c7ccc4[nH]7)C=C6)C=C5)cc2)cn3-c2ccc(F)cc2F)CC1
REMARK SMILES IDX 21 1 20 2 19 3 18 4 16 5 17 6 15 8 6 9 7 10 11 11 8 12 10 13
REMARK SMILES IDX 12 14 9 15 92 16 13 17 91 18 14 19 5 20 1 21 2 22 3 23
REMARK SMILES IDX 102 24 4 26 101 27 93 28 94 29 99 30 95 31 98 32 100 33
REMARK SMILES IDX 96 34 97 35 22 36 23 37 24 39 25 40 26 41 90 42 27 43 89 44
REMARK SMILES IDX 28 45 29 46 30 47 83 48 31 49 88 50 82 51 84 52 32 53 87 54
REMARK SMILES IDX 81 55 80 56 33 58 67 59 46 60 66 61 47 62 50 63 65 64 85 65
REMARK SMILES IDX 48 66 49 67 64 69 86 70 51 71 34 72 35 73 44 74 36 75 37 76
REMARK SMILES IDX 43 77 45 78 38 79 39 80 40 81 41 82 42 83 68 84 69 85 78 86
REMARK SMILES IDX 70 87 71 88 77 89 79 90 72 91 73 92 74 93 75 94 76 95 52 96
REMARK SMILES IDX 53 97 62 98 54 99 55 100 61 101 63 102 56 103 57 104 58 105
REMARK SMILES IDX 59 106 60 107
REMARK H PARENT 18 7 2 25 22 38 84 57 50 68
REMARK Flexibility Score: inf
ROOT
ATOM      1  C   UNL     1      -9.640  -0.466   6.728  1.00  0.00     0.118 C 
ENDROOT
BRANCH   1   2
ATOM      2  C   UNL     1      -8.492  -0.588   5.739  1.00  0.00     0.042 C 
BRANCH   2   3
ATOM      3  C   UNL     1      -8.917  -1.161   4.388  1.00  0.00     0.118 C 
BRANCH   3   4
ATOM      4  N   UNL     1      -9.574  -0.156   3.569  1.00  0.00    -0.352 N 
ATOM      5  C   UNL     1      -9.117   0.667   2.590  1.00  0.00     0.256 C 
ATOM      6  O   UNL     1      -9.959   1.396   2.054  1.00  0.00    -0.269 OA
ATOM      7  H   UNL     1     -10.534  -0.053   3.760  1.00  0.00     0.163 HD
BRANCH   5   8
ATOM      8  C   UNL     1      -7.713   0.661   2.093  1.00  0.00     0.104 A 
ATOM      9  C   UNL     1      -2.912  -0.102   0.610  1.00  0.00     0.167 A 
ATOM     10  N   UNL     1      -3.974   0.543   0.065  1.00  0.00    -0.209 NA
ATOM     11  C   UNL     1      -3.005  -0.708   1.866  1.00  0.00     0.166 A 
ATOM     12  C   UNL     1      -5.151   0.595   0.741  1.00  0.00     0.151 A 
ATOM     13  C   UNL     1      -4.171  -0.605   2.596  1.00  0.00     0.059 A 
ATOM     14  F   UNL     1      -1.957  -1.349   2.406  1.00  0.00    -0.203 F 
ATOM     15  C   UNL     1      -5.252   0.065   2.026  1.00  0.00     0.069 A 
ATOM     16  N   UNL     1      -6.311   1.194   0.149  1.00  0.00    -0.297 N 
ATOM     17  C   UNL     1      -6.482   0.257   2.805  1.00  0.00     0.203 A 
ATOM     18  C   UNL     1      -7.514   1.135   0.849  1.00  0.00     0.111 A 
ATOM     19  O   UNL     1      -6.410   0.106   4.016  1.00  0.00    -0.288 OA
BRANCH   9  20
ATOM     20  N   UNL     1      -1.748  -0.111  -0.112  1.00  0.00    -0.343 N 
ATOM     21  C   UNL     1       2.489   0.105   0.141  1.00  0.00     0.332 C 
ATOM     22  N   UNL     1       1.125   0.019  -0.377  1.00  0.00    -0.334 N 
ATOM     23  C   UNL     1       0.334   1.208   0.028  1.00  0.00     0.283 C 
ATOM     24  C   UNL     1       0.457  -1.200   0.135  1.00  0.00     0.283 C 
ATOM     25  H   UNL     1       1.179  -0.019  -1.395  1.00  0.00     0.347 HD
ATOM     26  C   UNL     1      -1.130   1.159  -0.484  1.00  0.00     0.179 C 
ATOM     27  C   UNL     1      -0.993  -1.330  -0.372  1.00  0.00     0.179 C 
ENDBRANCH   9  20
BRANCH  16  28
ATOM     28  C   UNL     1      -6.284   1.780  -1.152  1.00  0.00     0.083 A 
ATOM     29  C   UNL     1      -5.878   1.030  -2.270  1.00  0.00     0.033 A 
ATOM     30  C   UNL     1      -6.664   3.118  -1.356  1.00  0.00     0.150 A 
ATOM     31  C   UNL     1      -5.859   1.605  -3.543  1.00  0.00     0.041 A 
ATOM     32  C   UNL     1      -6.633   3.702  -2.618  1.00  0.00     0.080 A 
ATOM     33  F   UNL     1      -7.048   3.873  -0.315  1.00  0.00    -0.205 F 
ATOM     34  C   UNL     1      -6.232   2.936  -3.702  1.00  0.00     0.126 A 
ATOM     35  F   UNL     1      -6.202   3.485  -4.923  1.00  0.00    -0.207 F 
ENDBRANCH  16  28
ENDBRANCH   5   8
ENDBRANCH   3   4
ENDBRANCH   2   3
ENDBRANCH   1   2
BRANCH   1  36
ATOM     36  N   UNL     1     -10.015  -1.758   7.284  1.00  0.00    -0.352 N 
ATOM     37  C   UNL     1      -9.825  -2.236   8.557  1.00  0.00     0.251 C 
ATOM     38  H   UNL     1     -10.468  -2.373   6.663  1.00  0.00     0.163 HD
ATOM     39  O   UNL     1      -9.983  -3.431   8.793  1.00  0.00    -0.269 OA
BRANCH  37  40
ATOM     40  C   UNL     1      -9.420  -1.310   9.637  1.00  0.00     0.039 A 
ATOM     41  C   UNL     1      -8.393  -1.683  10.506  1.00  0.00     0.014 A 
ATOM     42  C   UNL     1     -10.070  -0.082   9.798  1.00  0.00     0.014 A 
ATOM     43  C   UNL     1      -7.987  -0.803  11.511  1.00  0.00     0.010 A 
ATOM     44  C   UNL     1      -9.616   0.823  10.752  1.00  0.00     0.010 A 
ATOM     45  C   UNL     1      -8.586   0.461  11.632  1.00  0.00    -0.014 A 
BRANCH  45  46
ATOM     46  C   UNL     1      -8.194   1.385  12.723  1.00  0.00     0.031 A 
ATOM     47  C   UNL     1      -9.166   1.667  13.836  1.00  0.00     0.074 A 
ATOM     48  C   UNL     1      -6.983   1.974  12.706  1.00  0.00     0.049 A 
ATOM     49  N   UNL     1      -9.010   2.416  14.896  1.00  0.00    -0.248 NA
ATOM     50  C   UNL     1     -10.494   1.038  13.737  1.00  0.00     0.031 C 
ATOM     51  C   UNL     1      -5.978   1.808  11.654  1.00  0.00     0.029 A 
ATOM     52  N   UNL     1      -6.389   2.828  13.601  1.00  0.00    -0.354 N 
ATOM     53  C   UNL     1     -10.210   2.337  15.591  1.00  0.00     0.074 A 
ATOM     54  C   UNL     1     -11.111   1.532  14.799  1.00  0.00     0.031 C 
ATOM     55  C   UNL     1      -4.881   2.512  11.981  1.00  0.00     0.029 A 
ATOM     56  C   UNL     1      -5.111   3.194  13.252  1.00  0.00     0.049 A 
ATOM     57  H   UNL     1      -6.837   3.149  14.416  1.00  0.00     0.167 HD
ATOM     58  C   UNL     1     -10.519   2.854  16.803  1.00  0.00     0.037 A 
ATOM     59  C   UNL     1      -4.223   3.981  13.892  1.00  0.00     0.037 A 
ATOM     60  C   UNL     1      -9.609   3.635  17.594  1.00  0.00     0.049 A 
ATOM     61  C   UNL     1      -4.604   4.581  15.220  1.00  0.00     0.074 A 
ATOM     62  C   UNL     1      -9.803   4.161  18.858  1.00  0.00     0.029 A 
ATOM     63  N   UNL     1      -8.333   4.005  17.195  1.00  0.00    -0.354 N 
ATOM     64  N   UNL     1      -5.714   4.429  15.903  1.00  0.00    -0.248 NA
ATOM     65  C   UNL     1      -3.617   5.459  15.866  1.00  0.00     0.031 C 
ATOM     66  C   UNL     1      -8.660   4.885  19.206  1.00  0.00     0.029 A 
ATOM     67  C   UNL     1      -7.738   4.778  18.176  1.00  0.00     0.049 A 
ATOM     68  H   UNL     1      -7.913   3.755  16.340  1.00  0.00     0.167 HD
ATOM     69  C   UNL     1      -5.553   5.176  17.065  1.00  0.00     0.074 A 
ATOM     70  C   UNL     1      -4.233   5.770  16.999  1.00  0.00     0.031 C 
ATOM     71  C   UNL     1      -6.420   5.355  18.091  1.00  0.00     0.037 A 
BRANCH  58  72
ATOM     72  C   UNL     1     -11.885   2.563  17.356  1.00  0.00     0.058 A 
ATOM     73  C   UNL     1     -12.227   1.278  17.808  1.00  0.00     0.135 A 
ATOM     74  C   UNL     1     -12.847   3.578  17.473  1.00  0.00     0.135 A 
ATOM     75  F   UNL     1     -11.349   0.268  17.702  1.00  0.00    -0.206 F 
ATOM     76  C   UNL     1     -13.484   1.003  18.334  1.00  0.00     0.059 A 
ATOM     77  C   UNL     1     -14.103   3.331  18.021  1.00  0.00     0.059 A 
ATOM     78  F   UNL     1     -12.572   4.822  17.053  1.00  0.00    -0.206 F 
ATOM     79  C   UNL     1     -14.415   2.037  18.438  1.00  0.00     0.060 A 
BRANCH  79  80
ATOM     80  S   UNL     1     -16.038   1.661  19.134  1.00  0.00     0.124 S 
ATOM     81  O   UNL     1     -16.632   0.857  18.071  1.00  0.00    -0.237 OA
ATOM     82  O   UNL     1     -15.692   0.941  20.355  1.00  0.00    -0.237 OA
ATOM     83  O   UNL     1     -16.637   2.977  19.334  1.00  0.00    -0.744 OA
ENDBRANCH  79  80
ENDBRANCH  58  72
BRANCH  59  84
ATOM     84  C   UNL     1      -2.876   4.211  13.307  1.00  0.00     0.058 A 
ATOM     85  C   UNL     1      -1.735   3.631  13.882  1.00  0.00     0.135 A 
ATOM     86  C   UNL     1      -2.700   4.991  12.154  1.00  0.00     0.135 A 
ATOM     87  F   UNL     1      -1.850   2.883  14.990  1.00  0.00    -0.206 F 
ATOM     88  C   UNL     1      -0.467   3.822  13.341  1.00  0.00     0.059 A 
ATOM     89  C   UNL     1      -1.445   5.180  11.582  1.00  0.00     0.059 A 
ATOM     90  F   UNL     1      -3.760   5.558  11.558  1.00  0.00    -0.206 F 
ATOM     91  C   UNL     1      -0.333   4.595  12.187  1.00  0.00     0.060 A 
BRANCH  91  92
ATOM     92  S   UNL     1       1.312   4.792  11.466  1.00  0.00     0.124 S 
ATOM     93  O   UNL     1       1.965   5.646  12.451  1.00  0.00    -0.237 OA
ATOM     94  O   UNL     1       1.784   3.412  11.404  1.00  0.00    -0.237 OA
ATOM     95  O   UNL     1       1.042   5.412  10.173  1.00  0.00    -0.744 OA
ENDBRANCH  91  92
ENDBRANCH  59  84
BRANCH  71  96
ATOM     96  C   UNL     1      -5.989   6.230  19.233  1.00  0.00     0.058 A 
ATOM     97  C   UNL     1      -5.994   7.628  19.115  1.00  0.00     0.135 A 
ATOM     98  C   UNL     1      -5.704   5.675  20.491  1.00  0.00     0.135 A 
ATOM     99  F   UNL     1      -6.252   8.206  17.931  1.00  0.00    -0.206 F 
ATOM    100  C   UNL     1      -5.745   8.447  20.211  1.00  0.00     0.059 A 
ATOM    101  C   UNL     1      -5.475   6.475  21.605  1.00  0.00     0.059 A 
ATOM    102  F   UNL     1      -5.696   4.342  20.655  1.00  0.00    -0.206 F 
ATOM    103  C   UNL     1      -5.503   7.861  21.455  1.00  0.00     0.060 A 
BRANCH 103 104
ATOM    104  S   UNL     1      -5.284   8.941  22.885  1.00  0.00     0.124 S 
ATOM    105  O   UNL     1      -3.979   9.534  22.611  1.00  0.00    -0.237 OA
ATOM    106  O   UNL     1      -6.427   9.842  22.770  1.00  0.00    -0.237 OA
ATOM    107  O   UNL     1      -5.329   8.022  24.018  1.00  0.00    -0.744 OA
ENDBRANCH 103 104
ENDBRANCH  71  96
ENDBRANCH  45  46
ENDBRANCH  37  40
ENDBRANCH   1  36
TORSDOF 15
