REMARK SMILES CN(c1ccccc1)c1nc(OCC(=O)NCCCNC(=O)c2ccc(-c3c4nc(c(-c5c(F)cc(S(=O)(=O)[O-])cc5F)c5ccc([nH]5)c(-c5c(F)cc(S(=O)(=O)[O-])cc5F)c5nc(c(-c6c(F)cc(S(=O)(=O)[O-])cc6F)c6ccc3[nH]6)C=C5)C=C4)cc2)cc(-c2ccncc2)n1
REMARK SMILES IDX 17 1 16 2 14 3 15 4 13 6 12 7 11 8 9 9 10 10 97 11 90 12
REMARK SMILES IDX 89 13 2 14 1 15 3 16 4 17 8 18 5 19 7 20 6 21 91 22 92 23
REMARK SMILES IDX 96 24 93 25 95 26 94 27 18 28 19 29 20 30 21 31 22 33 23 34
REMARK SMILES IDX 24 35 88 36 25 37 87 38 26 39 27 40 28 41 81 42 29 43 86 44
REMARK SMILES IDX 80 45 82 46 30 47 85 48 79 49 78 50 31 52 65 53 44 54 64 55
REMARK SMILES IDX 45 56 48 57 63 58 83 59 46 60 47 61 62 63 84 64 49 65 32 66
REMARK SMILES IDX 33 67 42 68 34 69 35 70 41 71 43 72 36 73 37 74 38 75 39 76
REMARK SMILES IDX 40 77 66 78 67 79 76 80 68 81 69 82 75 83 77 84 70 85 71 86
REMARK SMILES IDX 72 87 73 88 74 89 50 90 51 91 60 92 52 93 53 94 59 95 61 96
REMARK SMILES IDX 54 97 55 98 56 99 57 100 58 101
REMARK H PARENT 16 5 20 32 82 51 48 62
REMARK Flexibility Score: inf
ROOT
ATOM      1  C   UNL     1      -2.377   3.833  -5.711  1.00  0.00     0.117 C 
ENDROOT
BRANCH   1   2
ATOM      2  N   UNL     1      -1.068   4.161  -6.246  1.00  0.00    -0.353 N 
ATOM      3  C   UNL     1      -0.144   3.324  -6.795  1.00  0.00     0.258 C 
ATOM      4  O   UNL     1       0.915   3.798  -7.212  1.00  0.00    -0.271 OA
ATOM      5  H   UNL     1      -0.816   5.111  -6.208  1.00  0.00     0.163 HD
BRANCH   3   6
ATOM      6  C   UNL     1      -0.437   1.823  -6.896  1.00  0.00     0.331 C 
BRANCH   6   7
ATOM      7  O   UNL     1      -0.681   1.147  -5.678  1.00  0.00    -0.467 OA
BRANCH   7   8
ATOM      8  C   UNL     1       0.342   1.036  -4.782  1.00  0.00     0.219 A 
ATOM      9  C   UNL     1       0.868   0.252  -2.670  1.00  0.00     0.233 A 
ATOM     10  N   UNL     1      -0.027   0.405  -3.664  1.00  0.00    -0.177 NA
ATOM     11  N   UNL     1       2.119   0.737  -2.749  1.00  0.00    -0.212 NA
ATOM     12  C   UNL     1       2.479   1.335  -3.900  1.00  0.00     0.080 A 
ATOM     13  C   UNL     1       1.616   1.494  -4.963  1.00  0.00     0.097 A 
BRANCH   9  14
ATOM     14  N   UNL     1       0.477  -0.492  -1.545  1.00  0.00    -0.314 N 
ATOM     15  C   UNL     1       0.975   0.009  -0.272  1.00  0.00     0.153 C 
BRANCH  14  16
ATOM     16  C   UNL     1      -0.434  -1.560  -1.569  1.00  0.00     0.043 A 
ATOM     17  C   UNL     1      -0.370  -2.503  -2.613  1.00  0.00     0.026 A 
ATOM     18  C   UNL     1      -1.426  -1.744  -0.597  1.00  0.00     0.026 A 
ATOM     19  C   UNL     1      -1.250  -3.584  -2.686  1.00  0.00     0.002 A 
ATOM     20  C   UNL     1      -2.321  -2.820  -0.672  1.00  0.00     0.002 A 
ATOM     21  C   UNL     1      -2.230  -3.740  -1.713  1.00  0.00     0.000 A 
ENDBRANCH  14  16
ENDBRANCH   9  14
BRANCH  12  22
ATOM     22  C   UNL     1       3.876   1.763  -4.021  1.00  0.00     0.004 A 
ATOM     23  C   UNL     1       4.202   3.087  -4.344  1.00  0.00     0.030 A 
ATOM     24  C   UNL     1       4.918   0.838  -3.908  1.00  0.00     0.030 A 
ATOM     25  C   UNL     1       5.529   3.414  -4.565  1.00  0.00     0.111 A 
ATOM     26  C   UNL     1       6.213   1.260  -4.157  1.00  0.00     0.111 A 
ATOM     27  N   UNL     1       6.542   2.525  -4.494  1.00  0.00    -0.265 NA
ENDBRANCH  12  22
ENDBRANCH   7   8
ENDBRANCH   6   7
ENDBRANCH   3   6
ENDBRANCH   1   2
BRANCH   1  28
ATOM     28  C   UNL     1      -2.437   3.949  -4.192  1.00  0.00     0.042 C 
BRANCH  28  29
ATOM     29  C   UNL     1      -2.126   5.340  -3.645  1.00  0.00     0.118 C 
BRANCH  29  30
ATOM     30  N   UNL     1      -3.029   6.369  -4.146  1.00  0.00    -0.352 N 
ATOM     31  C   UNL     1      -3.854   7.234  -3.472  1.00  0.00     0.251 C 
ATOM     32  H   UNL     1      -3.050   6.458  -5.126  1.00  0.00     0.163 HD
ATOM     33  O   UNL     1      -4.655   7.917  -4.112  1.00  0.00    -0.269 OA
BRANCH  31  34
ATOM     34  C   UNL     1      -3.809   7.340  -1.997  1.00  0.00     0.039 A 
ATOM     35  C   UNL     1      -5.012   7.443  -1.292  1.00  0.00     0.014 A 
ATOM     36  C   UNL     1      -2.595   7.365  -1.306  1.00  0.00     0.014 A 
ATOM     37  C   UNL     1      -4.999   7.497   0.104  1.00  0.00     0.010 A 
ATOM     38  C   UNL     1      -2.587   7.340   0.088  1.00  0.00     0.010 A 
ATOM     39  C   UNL     1      -3.788   7.404   0.810  1.00  0.00    -0.014 A 
BRANCH  39  40
ATOM     40  C   UNL     1      -3.762   7.357   2.296  1.00  0.00     0.031 A 
ATOM     41  C   UNL     1      -3.073   8.442   3.081  1.00  0.00     0.074 A 
ATOM     42  C   UNL     1      -4.306   6.304   2.938  1.00  0.00     0.049 A 
ATOM     43  N   UNL     1      -2.889   8.536   4.374  1.00  0.00    -0.248 NA
ATOM     44  C   UNL     1      -2.494   9.555   2.312  1.00  0.00     0.031 C 
ATOM     45  C   UNL     1      -4.964   5.167   2.290  1.00  0.00     0.029 A 
ATOM     46  N   UNL     1      -4.384   6.010   4.277  1.00  0.00    -0.354 N 
ATOM     47  C   UNL     1      -2.167   9.707   4.571  1.00  0.00     0.074 A 
ATOM     48  C   UNL     1      -1.898  10.261   3.262  1.00  0.00     0.031 C 
ATOM     49  C   UNL     1      -5.399   4.314   3.230  1.00  0.00     0.029 A 
ATOM     50  C   UNL     1      -5.014   4.816   4.545  1.00  0.00     0.049 A 
ATOM     51  H   UNL     1      -4.024   6.598   4.979  1.00  0.00     0.167 HD
ATOM     52  C   UNL     1      -1.783  10.281   5.737  1.00  0.00     0.037 A 
ATOM     53  C   UNL     1      -5.245   4.189   5.716  1.00  0.00     0.037 A 
ATOM     54  C   UNL     1      -2.068   9.733   7.039  1.00  0.00     0.049 A 
ATOM     55  C   UNL     1      -4.792   4.837   6.997  1.00  0.00     0.074 A 
ATOM     56  C   UNL     1      -1.766  10.264   8.281  1.00  0.00     0.029 A 
ATOM     57  N   UNL     1      -2.716   8.528   7.269  1.00  0.00    -0.354 N 
ATOM     58  N   UNL     1      -4.163   5.976   7.167  1.00  0.00    -0.248 NA
ATOM     59  C   UNL     1      -5.085   4.119   8.245  1.00  0.00     0.031 C 
ATOM     60  C   UNL     1      -2.183   9.357   9.259  1.00  0.00     0.029 A 
ATOM     61  C   UNL     1      -2.801   8.287   8.631  1.00  0.00     0.049 A 
ATOM     62  H   UNL     1      -3.065   7.931   6.567  1.00  0.00     0.167 HD
ATOM     63  C   UNL     1      -4.013   6.125   8.542  1.00  0.00     0.074 A 
ATOM     64  C   UNL     1      -4.627   4.966   9.156  1.00  0.00     0.031 C 
ATOM     65  C   UNL     1      -3.422   7.132   9.232  1.00  0.00     0.037 A 
BRANCH  52  66
ATOM     66  C   UNL     1      -1.013  11.573   5.661  1.00  0.00     0.058 A 
ATOM     67  C   UNL     1      -1.616  12.768   5.234  1.00  0.00     0.135 A 
ATOM     68  C   UNL     1       0.333  11.629   6.059  1.00  0.00     0.135 A 
ATOM     69  F   UNL     1      -2.896  12.773   4.829  1.00  0.00    -0.206 F 
ATOM     70  C   UNL     1      -0.905  13.962   5.174  1.00  0.00     0.059 A 
ATOM     71  C   UNL     1       1.054  12.819   6.038  1.00  0.00     0.059 A 
ATOM     72  F   UNL     1       0.960  10.519   6.478  1.00  0.00    -0.206 F 
ATOM     73  C   UNL     1       0.430  13.978   5.579  1.00  0.00     0.060 A 
BRANCH  73  74
ATOM     74  S   UNL     1       1.335  15.538   5.499  1.00  0.00     0.124 S 
ATOM     75  O   UNL     1       1.496  15.707   4.058  1.00  0.00    -0.237 OA
ATOM     76  O   UNL     1       0.413  16.466   6.146  1.00  0.00    -0.237 OA
ATOM     77  O   UNL     1       2.562  15.259   6.238  1.00  0.00    -0.744 OA
ENDBRANCH  73  74
ENDBRANCH  52  66
BRANCH  53  78
ATOM     78  C   UNL     1      -5.956   2.882   5.732  1.00  0.00     0.058 A 
ATOM     79  C   UNL     1      -7.252   2.772   6.258  1.00  0.00     0.135 A 
ATOM     80  C   UNL     1      -5.361   1.720   5.216  1.00  0.00     0.135 A 
ATOM     81  F   UNL     1      -7.862   3.851   6.770  1.00  0.00    -0.206 F 
ATOM     82  C   UNL     1      -7.926   1.555   6.289  1.00  0.00     0.059 A 
ATOM     83  C   UNL     1      -6.025   0.498   5.210  1.00  0.00     0.059 A 
ATOM     84  F   UNL     1      -4.128   1.774   4.686  1.00  0.00    -0.206 F 
ATOM     85  C   UNL     1      -7.304   0.423   5.759  1.00  0.00     0.060 A 
BRANCH  85  86
ATOM     86  S   UNL     1      -8.205  -1.142   5.764  1.00  0.00     0.124 S 
ATOM     87  O   UNL     1      -8.181  -1.491   7.179  1.00  0.00    -0.237 OA
ATOM     88  O   UNL     1      -9.503  -0.749   5.224  1.00  0.00    -0.237 OA
ATOM     89  O   UNL     1      -7.404  -1.993   4.889  1.00  0.00    -0.744 OA
ENDBRANCH  85  86
ENDBRANCH  53  78
BRANCH  65  90
ATOM     90  C   UNL     1      -3.443   7.051  10.735  1.00  0.00     0.058 A 
ATOM     91  C   UNL     1      -2.659   6.123  11.439  1.00  0.00     0.135 A 
ATOM     92  C   UNL     1      -4.221   7.950  11.483  1.00  0.00     0.135 A 
ATOM     93  F   UNL     1      -1.902   5.236  10.774  1.00  0.00    -0.206 F 
ATOM     94  C   UNL     1      -2.665   6.074  12.829  1.00  0.00     0.059 A 
ATOM     95  C   UNL     1      -4.218   7.940  12.874  1.00  0.00     0.059 A 
ATOM     96  F   UNL     1      -4.982   8.866  10.861  1.00  0.00    -0.206 F 
ATOM     97  C   UNL     1      -3.445   6.989  13.538  1.00  0.00     0.060 A 
BRANCH  97  98
ATOM     98  S   UNL     1      -3.416   6.935  15.343  1.00  0.00     0.124 S 
ATOM     99  O   UNL     1      -4.178   5.721  15.614  1.00  0.00    -0.237 OA
ATOM    100  O   UNL     1      -1.987   6.865  15.629  1.00  0.00    -0.237 OA
ATOM    101  O   UNL     1      -4.066   8.184  15.731  1.00  0.00    -0.744 OA
ENDBRANCH  97  98
ENDBRANCH  65  90
ENDBRANCH  39  40
ENDBRANCH  31  34
ENDBRANCH  29  30
ENDBRANCH  28  29
ENDBRANCH   1  28
TORSDOF 18
