REMARK SMILES CC[N@@H+](C/C(Cl)=C/Cl)C[C@@H](C)C(=O)NCCCNC(=O)c1ccc(-c2c3nc(c(-c4c(F)cc(S(=O)(=O)[O-])cc4F)c4ccc([nH]4)c(-c4c(F)cc(S(=O)(=O)[O-])cc4F)c4nc(c(-c5c(F)cc(S(=O)(=O)[O-])cc5F)c5ccc2[nH]5)C=C4)C=C3)cc1
REMARK SMILES IDX 15 1 14 2 12 3 13 4 10 6 11 7 9 8 3 9 2 11 1 12 4 13 5 14
REMARK SMILES IDX 6 15 7 16 8 17 16 18 17 19 18 20 19 21 20 23 21 24 22 25
REMARK SMILES IDX 86 26 23 27 85 28 24 29 25 30 26 31 79 32 27 33 84 34 78 35
REMARK SMILES IDX 80 36 28 37 83 38 77 39 76 40 29 42 63 43 42 44 62 45 43 46
REMARK SMILES IDX 46 47 61 48 81 49 44 50 45 51 60 53 82 54 47 55 30 56 31 57
REMARK SMILES IDX 40 58 32 59 33 60 39 61 41 62 34 63 35 64 36 65 37 66 38 67
REMARK SMILES IDX 64 68 65 69 74 70 66 71 67 72 73 73 75 74 68 75 69 76 70 77
REMARK SMILES IDX 71 78 72 79 48 80 49 81 58 82 50 83 51 84 57 85 59 86 52 87
REMARK SMILES IDX 53 88 54 89 55 90 56 91
REMARK H PARENT 14 5 3 10 18 22 80 41 46 52
REMARK Flexibility Score: inf
ROOT
ATOM      1  C   UNL     1       4.811  -0.255   0.169  1.00  0.00     0.117 C 
ENDROOT
BRANCH   1   2
ATOM      2  N   UNL     1       5.338  -0.420   1.509  1.00  0.00    -0.356 N 
ATOM      3  C   UNL     1       4.702  -0.654   2.686  1.00  0.00     0.228 C 
ATOM      4  O   UNL     1       5.390  -0.685   3.709  1.00  0.00    -0.275 OA
ATOM      5  H   UNL     1       6.317  -0.351   1.577  1.00  0.00     0.163 HD
BRANCH   3   6
ATOM      6  C   UNL     1       3.198  -0.893   2.751  1.00  0.00     0.130 C 
ATOM      7  C   UNL     1       2.825  -2.142   1.953  1.00  0.00     0.024 C 
BRANCH   6   8
ATOM      8  C   UNL     1       2.430   0.417   2.473  1.00  0.00     0.275 C 
BRANCH   8   9
ATOM      9  N   UNL     1       0.965   0.440   2.481  1.00  0.00    -0.330 N 
ATOM     10  H   UNL     1       0.842   1.419   2.221  1.00  0.00     0.348 HD
BRANCH   9  11
ATOM     11  C   UNL     1       0.237  -0.160   1.371  1.00  0.00     0.259 C 
ATOM     12  C   UNL     1       0.647   0.349  -0.008  1.00  0.00     0.071 C 
ENDBRANCH   9  11
BRANCH   9  13
ATOM     13  C   UNL     1       0.322   0.355   3.796  1.00  0.00     0.312 C 
BRANCH  13  14
ATOM     14  C   UNL     1       0.483  -0.914   4.600  1.00  0.00     0.083 C 
ATOM     15  Cl  UNL     1       1.315  -0.714   6.115  1.00  0.00    -0.082 Cl
ATOM     16  C   UNL     1       0.005  -2.105   4.218  1.00  0.00     0.102 C 
ATOM     17  Cl  UNL     1       0.200  -3.588   5.055  1.00  0.00    -0.091 Cl
ENDBRANCH  13  14
ENDBRANCH   9  13
ENDBRANCH   8   9
ENDBRANCH   6   8
ENDBRANCH   3   6
ENDBRANCH   1   2
BRANCH   1  18
ATOM     18  C   UNL     1       5.065   1.142  -0.370  1.00  0.00     0.042 C 
BRANCH  18  19
ATOM     19  C   UNL     1       6.537   1.418  -0.621  1.00  0.00     0.118 C 
BRANCH  19  20
ATOM     20  N   UNL     1       7.101   0.519  -1.620  1.00  0.00    -0.352 N 
ATOM     21  C   UNL     1       7.665   0.815  -2.838  1.00  0.00     0.251 C 
ATOM     22  H   UNL     1       7.074  -0.438  -1.390  1.00  0.00     0.163 HD
ATOM     23  O   UNL     1       7.872  -0.076  -3.651  1.00  0.00    -0.269 OA
BRANCH  21  24
ATOM     24  C   UNL     1       8.004   2.217  -3.150  1.00  0.00     0.039 A 
ATOM     25  C   UNL     1       7.715   2.727  -4.417  1.00  0.00     0.014 A 
ATOM     26  C   UNL     1       8.593   3.029  -2.177  1.00  0.00     0.014 A 
ATOM     27  C   UNL     1       7.960   4.074  -4.685  1.00  0.00     0.010 A 
ATOM     28  C   UNL     1       8.736   4.388  -2.411  1.00  0.00     0.010 A 
ATOM     29  C   UNL     1       8.440   4.922  -3.673  1.00  0.00    -0.014 A 
BRANCH  29  30
ATOM     30  C   UNL     1       8.678   6.366  -3.909  1.00  0.00     0.031 A 
ATOM     31  C   UNL     1      10.067   6.923  -3.747  1.00  0.00     0.074 A 
ATOM     32  C   UNL     1       7.641   7.181  -4.185  1.00  0.00     0.049 A 
ATOM     33  N   UNL     1      10.469   8.166  -3.790  1.00  0.00    -0.248 NA
ATOM     34  C   UNL     1      11.141   5.956  -3.460  1.00  0.00     0.031 C 
ATOM     35  C   UNL     1       6.244   6.761  -4.317  1.00  0.00     0.029 A 
ATOM     36  N   UNL     1       7.599   8.537  -4.388  1.00  0.00    -0.354 N 
ATOM     37  C   UNL     1      11.831   8.130  -3.514  1.00  0.00     0.074 A 
ATOM     38  C   UNL     1      12.175   6.753  -3.243  1.00  0.00     0.031 C 
ATOM     39  C   UNL     1       5.487   7.833  -4.602  1.00  0.00     0.029 A 
ATOM     40  C   UNL     1       6.334   9.021  -4.627  1.00  0.00     0.049 A 
ATOM     41  H   UNL     1       8.399   9.110  -4.365  1.00  0.00     0.167 HD
ATOM     42  C   UNL     1      12.721   9.151  -3.516  1.00  0.00     0.037 A 
ATOM     43  C   UNL     1       5.907  10.282  -4.830  1.00  0.00     0.037 A 
ATOM     44  C   UNL     1      12.372  10.513  -3.821  1.00  0.00     0.049 A 
ATOM     45  C   UNL     1       6.914  11.401  -4.827  1.00  0.00     0.074 A 
ATOM     46  C   UNL     1      13.204  11.614  -3.910  1.00  0.00     0.029 A 
ATOM     47  N   UNL     1      11.085  10.959  -4.087  1.00  0.00    -0.354 N 
ATOM     48  N   UNL     1       8.210  11.343  -4.624  1.00  0.00    -0.248 NA
ATOM     49  C   UNL     1       6.405  12.754  -5.085  1.00  0.00     0.031 C 
ATOM     50  C   UNL     1      12.414  12.735  -4.182  1.00  0.00     0.029 A 
ATOM     51  C   UNL     1      11.098  12.324  -4.321  1.00  0.00     0.049 A 
ATOM     52  H   UNL     1      10.283  10.390  -4.107  1.00  0.00     0.167 HD
ATOM     53  C   UNL     1       8.675  12.646  -4.763  1.00  0.00     0.074 A 
ATOM     54  C   UNL     1       7.523  13.467  -5.076  1.00  0.00     0.031 C 
ATOM     55  C   UNL     1       9.940  13.121  -4.644  1.00  0.00     0.037 A 
BRANCH  42  56
ATOM     56  C   UNL     1      14.153   8.830  -3.184  1.00  0.00     0.058 A 
ATOM     57  C   UNL     1      14.959   8.068  -4.047  1.00  0.00     0.135 A 
ATOM     58  C   UNL     1      14.737   9.311  -2.002  1.00  0.00     0.135 A 
ATOM     59  F   UNL     1      14.448   7.566  -5.183  1.00  0.00    -0.206 F 
ATOM     60  C   UNL     1      16.281   7.769  -3.735  1.00  0.00     0.059 A 
ATOM     61  C   UNL     1      16.068   9.052  -1.685  1.00  0.00     0.059 A 
ATOM     62  F   UNL     1      14.014  10.042  -1.139  1.00  0.00    -0.206 F 
ATOM     63  C   UNL     1      16.827   8.267  -2.552  1.00  0.00     0.060 A 
BRANCH  63  64
ATOM     64  S   UNL     1      18.547   7.877  -2.168  1.00  0.00     0.124 S 
ATOM     65  O   UNL     1      18.454   6.460  -1.826  1.00  0.00    -0.237 OA
ATOM     66  O   UNL     1      19.223   8.183  -3.424  1.00  0.00    -0.237 OA
ATOM     67  O   UNL     1      18.859   8.770  -1.057  1.00  0.00    -0.744 OA
ENDBRANCH  63  64
ENDBRANCH  42  56
BRANCH  43  68
ATOM     68  C   UNL     1       4.464  10.550  -5.074  1.00  0.00     0.058 A 
ATOM     69  C   UNL     1       4.011  10.964  -6.336  1.00  0.00     0.135 A 
ATOM     70  C   UNL     1       3.508  10.385  -4.060  1.00  0.00     0.135 A 
ATOM     71  F   UNL     1       4.886  11.140  -7.337  1.00  0.00    -0.206 F 
ATOM     72  C   UNL     1       2.667  11.224  -6.580  1.00  0.00     0.059 A 
ATOM     73  C   UNL     1       2.154  10.612  -4.286  1.00  0.00     0.059 A 
ATOM     74  F   UNL     1       3.885   9.972  -2.840  1.00  0.00    -0.206 F 
ATOM     75  C   UNL     1       1.744  11.043  -5.548  1.00  0.00     0.060 A 
BRANCH  75  76
ATOM     76  S   UNL     1      -0.004  11.339  -5.889  1.00  0.00     0.124 S 
ATOM     77  O   UNL     1      -0.041  12.793  -5.994  1.00  0.00    -0.237 OA
ATOM     78  O   UNL     1      -0.202  10.603  -7.133  1.00  0.00    -0.237 OA
ATOM     79  O   UNL     1      -0.674  10.773  -4.721  1.00  0.00    -0.744 OA
ENDBRANCH  75  76
ENDBRANCH  43  68
BRANCH  55  80
ATOM     80  C   UNL     1      10.157  14.587  -4.897  1.00  0.00     0.058 A 
ATOM     81  C   UNL     1       9.728  15.568  -3.990  1.00  0.00     0.135 A 
ATOM     82  C   UNL     1      10.861  15.011  -6.038  1.00  0.00     0.135 A 
ATOM     83  F   UNL     1       9.046  15.217  -2.888  1.00  0.00    -0.206 F 
ATOM     84  C   UNL     1       9.968  16.919  -4.216  1.00  0.00     0.059 A 
ATOM     85  C   UNL     1      11.139  16.353  -6.267  1.00  0.00     0.059 A 
ATOM     86  F   UNL     1      11.303  14.112  -6.932  1.00  0.00    -0.206 F 
ATOM     87  C   UNL     1      10.678  17.302  -5.356  1.00  0.00     0.060 A 
BRANCH  87  88
ATOM     88  S   UNL     1      11.016  19.055  -5.616  1.00  0.00     0.124 S 
ATOM     89  O   UNL     1       9.698  19.556  -5.990  1.00  0.00    -0.237 OA
ATOM     90  O   UNL     1      11.505  19.476  -4.306  1.00  0.00    -0.237 OA
ATOM     91  O   UNL     1      12.014  19.056  -6.681  1.00  0.00    -0.744 OA
ENDBRANCH  87  88
ENDBRANCH  55  80
ENDBRANCH  29  30
ENDBRANCH  21  24
ENDBRANCH  19  20
ENDBRANCH  18  19
ENDBRANCH   1  18
TORSDOF 18
