REMARK SMILES CSc1ccc([C@H]2[NH2+][C@@H](C(=O)NCCCNC(=O)c3ccc(-c4c5nc(c(-c6c(F)cc(S(=O)(=O)[O-])cc6F)c6ccc([nH]6)c(-c6c(F)cc(S(=O)(=O)[O-])cc6F)c6nc(c(-c7c(F)cc(S(=O)(=O)[O-])cc7F)c7ccc4[nH]7)C=C6)C=C5)cc3)C(C)(C)S2)cc1
REMARK SMILES IDX 14 1 13 2 12 3 10 4 11 5 9 7 7 8 8 9 88 10 85 13 86 14 87 15
REMARK SMILES IDX 6 16 3 17 4 18 90 19 5 20 89 21 2 22 1 23 15 24 16 25 17 26
REMARK SMILES IDX 18 28 19 29 20 30 84 31 21 32 83 33 22 34 23 35 24 36 77 37
REMARK SMILES IDX 25 38 82 39 76 40 78 41 26 42 81 43 75 44 74 45 27 47 61 48
REMARK SMILES IDX 40 49 60 50 41 51 44 52 59 53 79 54 42 55 43 56 58 58 80 59
REMARK SMILES IDX 45 60 28 61 29 62 38 63 30 64 31 65 37 66 39 67 32 68 33 69
REMARK SMILES IDX 34 70 35 71 36 72 62 73 63 74 72 75 64 76 65 77 71 78 73 79
REMARK SMILES IDX 66 80 67 81 68 82 69 83 70 84 46 85 47 86 56 87 48 88 49 89
REMARK SMILES IDX 55 90 57 91 50 92 51 93 52 94 53 95 54 96
REMARK H PARENT 12 6 8 11 8 12 16 27 78 46 44 57
REMARK Flexibility Score: inf
ROOT
ATOM      1  C   UNL     1       4.124  -0.843   8.583  1.00  0.00     0.042 C 
ENDROOT
BRANCH   1   2
ATOM      2  C   UNL     1       4.387  -1.871   7.489  1.00  0.00     0.118 C 
BRANCH   2   3
ATOM      3  N   UNL     1       4.789  -3.169   8.013  1.00  0.00    -0.351 N 
ATOM      4  C   UNL     1       4.261  -4.424   7.966  1.00  0.00     0.279 C 
ATOM      5  O   UNL     1       4.883  -5.292   8.592  1.00  0.00    -0.268 OA
ATOM      6  H   UNL     1       5.635  -3.131   8.515  1.00  0.00     0.163 HD
BRANCH   4   7
ATOM      7  C   UNL     1       2.951  -4.805   7.244  1.00  0.00     0.289 C 
ATOM      8  C   UNL     1       1.514  -4.367   5.383  1.00  0.00     0.274 C 
ATOM      9  N   UNL     1       2.892  -4.284   5.863  1.00  0.00    -0.320 N 
ATOM     10  S   UNL     1       0.368  -4.546   6.772  1.00  0.00    -0.081 SA
ATOM     11  H   UNL     1       3.201  -3.312   5.851  1.00  0.00     0.348 HD
ATOM     12  H   UNL     1       3.502  -4.837   5.260  1.00  0.00     0.348 HD
ATOM     13  C   UNL     1       1.666  -4.544   8.058  1.00  0.00     0.077 C 
ATOM     14  C   UNL     1       1.565  -3.218   8.805  1.00  0.00     0.030 C 
ATOM     15  C   UNL     1       1.403  -5.686   9.049  1.00  0.00     0.030 C 
BRANCH   8  16
ATOM     16  C   UNL     1       1.179  -3.192   4.479  1.00  0.00     0.020 A 
ATOM     17  C   UNL     1       0.659  -1.019   2.727  1.00  0.00     0.007 A 
ATOM     18  C   UNL     1       0.650  -2.334   2.256  1.00  0.00     0.015 A 
ATOM     19  C   UNL     1       0.907  -0.796   4.083  1.00  0.00     0.015 A 
ATOM     20  C   UNL     1       0.917  -3.406   3.118  1.00  0.00     0.012 A 
ATOM     21  C   UNL     1       1.159  -1.867   4.948  1.00  0.00     0.012 A 
BRANCH  17  22
ATOM     22  S   UNL     1       0.299   0.396   1.700  1.00  0.00    -0.130 SA
ATOM     23  C   UNL     1       1.087  -0.067   0.136  1.00  0.00     0.091 C 
ENDBRANCH  17  22
ENDBRANCH   8  16
ENDBRANCH   4   7
ENDBRANCH   2   3
ENDBRANCH   1   2
BRANCH   1  24
ATOM     24  C   UNL     1       5.361  -0.421   9.358  1.00  0.00     0.118 C 
BRANCH  24  25
ATOM     25  N   UNL     1       6.184   0.511   8.608  1.00  0.00    -0.352 N 
ATOM     26  C   UNL     1       6.410   1.852   8.808  1.00  0.00     0.251 C 
ATOM     27  H   UNL     1       6.654   0.122   7.835  1.00  0.00     0.163 HD
ATOM     28  O   UNL     1       6.957   2.497   7.916  1.00  0.00    -0.269 OA
BRANCH  26  29
ATOM     29  C   UNL     1       5.998   2.529  10.064  1.00  0.00     0.039 A 
ATOM     30  C   UNL     1       5.554   3.853   9.995  1.00  0.00     0.014 A 
ATOM     31  C   UNL     1       6.105   1.907  11.311  1.00  0.00     0.014 A 
ATOM     32  C   UNL     1       5.190   4.532  11.162  1.00  0.00     0.010 A 
ATOM     33  C   UNL     1       5.651   2.550  12.461  1.00  0.00     0.010 A 
ATOM     34  C   UNL     1       5.218   3.881  12.406  1.00  0.00    -0.014 A 
BRANCH  34  35
ATOM     35  C   UNL     1       4.851   4.601  13.655  1.00  0.00     0.031 A 
ATOM     36  C   UNL     1       5.880   4.820  14.736  1.00  0.00     0.074 A 
ATOM     37  C   UNL     1       3.588   5.037  13.832  1.00  0.00     0.049 A 
ATOM     38  N   UNL     1       5.751   5.426  15.889  1.00  0.00    -0.248 NA
ATOM     39  C   UNL     1       7.221   4.259  14.505  1.00  0.00     0.031 C 
ATOM     40  C   UNL     1       2.481   4.832  12.895  1.00  0.00     0.029 A 
ATOM     41  N   UNL     1       3.022   5.747  14.861  1.00  0.00    -0.354 N 
ATOM     42  C   UNL     1       6.982   5.302  16.524  1.00  0.00     0.074 A 
ATOM     43  C   UNL     1       7.828   4.516  15.654  1.00  0.00     0.031 C 
ATOM     44  C   UNL     1       1.381   5.434  13.375  1.00  0.00     0.029 A 
ATOM     45  C   UNL     1       1.696   6.050  14.660  1.00  0.00     0.049 A 
ATOM     46  H   UNL     1       3.519   6.015  15.668  1.00  0.00     0.167 HD
ATOM     47  C   UNL     1       7.385   5.820  17.710  1.00  0.00     0.037 A 
ATOM     48  C   UNL     1       0.836   6.758  15.418  1.00  0.00     0.037 A 
ATOM     49  C   UNL     1       6.559   6.641  18.555  1.00  0.00     0.049 A 
ATOM     50  C   UNL     1       1.324   7.379  16.697  1.00  0.00     0.074 A 
ATOM     51  C   UNL     1       6.890   7.260  19.747  1.00  0.00     0.029 A 
ATOM     52  N   UNL     1       5.237   6.967  18.289  1.00  0.00    -0.354 N 
ATOM     53  N   UNL     1       2.510   7.301  17.252  1.00  0.00    -0.248 NA
ATOM     54  C   UNL     1       0.362   8.202  17.444  1.00  0.00     0.031 C 
ATOM     55  C   UNL     1       5.760   7.944  20.214  1.00  0.00     0.029 A 
ATOM     56  C   UNL     1       4.737   7.777  19.295  1.00  0.00     0.049 A 
ATOM     57  H   UNL     1       4.729   6.666  17.502  1.00  0.00     0.167 HD
ATOM     58  C   UNL     1       2.445   8.084  18.399  1.00  0.00     0.074 A 
ATOM     59  C   UNL     1       1.107   8.638  18.451  1.00  0.00     0.031 C 
ATOM     60  C   UNL     1       3.405   8.325  19.326  1.00  0.00     0.037 A 
BRANCH  47  61
ATOM     61  C   UNL     1       8.793   5.525  18.152  1.00  0.00     0.058 A 
ATOM     62  C   UNL     1       9.900   6.108  17.515  1.00  0.00     0.135 A 
ATOM     63  C   UNL     1       9.039   4.664  19.233  1.00  0.00     0.135 A 
ATOM     64  F   UNL     1       9.723   6.925  16.464  1.00  0.00    -0.206 F 
ATOM     65  C   UNL     1      11.203   5.821  17.910  1.00  0.00     0.059 A 
ATOM     66  C   UNL     1      10.333   4.383  19.663  1.00  0.00     0.059 A 
ATOM     67  F   UNL     1       8.017   4.080  19.879  1.00  0.00    -0.206 F 
ATOM     68  C   UNL     1      11.409   4.952  18.983  1.00  0.00     0.060 A 
BRANCH  68  69
ATOM     69  S   UNL     1      13.104   4.583  19.483  1.00  0.00     0.124 S 
ATOM     70  O   UNL     1      13.514   3.643  18.444  1.00  0.00    -0.237 OA
ATOM     71  O   UNL     1      13.740   5.895  19.436  1.00  0.00    -0.237 OA
ATOM     72  O   UNL     1      12.947   4.014  20.818  1.00  0.00    -0.744 OA
ENDBRANCH  68  69
ENDBRANCH  47  61
BRANCH  48  73
ATOM     73  C   UNL     1      -0.560   6.965  14.954  1.00  0.00     0.058 A 
ATOM     74  C   UNL     1      -0.977   8.212  14.464  1.00  0.00     0.135 A 
ATOM     75  C   UNL     1      -1.497   5.921  14.971  1.00  0.00     0.135 A 
ATOM     76  F   UNL     1      -0.116   9.241  14.432  1.00  0.00    -0.206 F 
ATOM     77  C   UNL     1      -2.278   8.423  14.021  1.00  0.00     0.059 A 
ATOM     78  C   UNL     1      -2.798   6.102  14.513  1.00  0.00     0.059 A 
ATOM     79  F   UNL     1      -1.140   4.705  15.412  1.00  0.00    -0.206 F 
ATOM     80  C   UNL     1      -3.182   7.360  14.049  1.00  0.00     0.060 A 
BRANCH  80  81
ATOM     81  S   UNL     1      -4.854   7.625  13.419  1.00  0.00     0.124 S 
ATOM     82  O   UNL     1      -5.471   8.353  14.522  1.00  0.00    -0.237 OA
ATOM     83  O   UNL     1      -4.609   8.396  12.204  1.00  0.00    -0.237 OA
ATOM     84  O   UNL     1      -5.347   6.268  13.201  1.00  0.00    -0.744 OA
ENDBRANCH  80  81
ENDBRANCH  48  73
BRANCH  60  85
ATOM     85  C   UNL     1       3.051   9.253  20.452  1.00  0.00     0.058 A 
ATOM     86  C   UNL     1       2.204   8.854  21.497  1.00  0.00     0.135 A 
ATOM     87  C   UNL     1       3.582  10.552  20.494  1.00  0.00     0.135 A 
ATOM     88  F   UNL     1       1.669   7.623  21.500  1.00  0.00    -0.206 F 
ATOM     89  C   UNL     1       1.863   9.725  22.527  1.00  0.00     0.059 A 
ATOM     90  C   UNL     1       3.274  11.432  21.527  1.00  0.00     0.059 A 
ATOM     91  F   UNL     1       4.408  10.977  19.525  1.00  0.00    -0.206 F 
ATOM     92  C   UNL     1       2.398  11.014  22.529  1.00  0.00     0.060 A 
BRANCH  92  93
ATOM     93  S   UNL     1       1.954  12.139  23.870  1.00  0.00     0.124 S 
ATOM     94  O   UNL     1       0.628  12.582  23.452  1.00  0.00    -0.237 OA
ATOM     95  O   UNL     1       1.992  11.268  25.040  1.00  0.00    -0.237 OA
ATOM     96  O   UNL     1       3.002  13.154  23.819  1.00  0.00    -0.744 OA
ENDBRANCH  92  93
ENDBRANCH  60  85
ENDBRANCH  34  35
ENDBRANCH  26  29
ENDBRANCH  24  25
ENDBRANCH   1  24
TORSDOF 15
