REMARK SMILES COc1cnc(SCC(=O)NCCCNC(=O)c2ccc(-c3c4nc(c(-c5c(F)cc(S(=O)(=O)[O-])cc5F)c5ccc([nH]5)c(-c5c(F)cc(S(=O)(=O)[O-])cc5F)c5nc(c(-c6c(F)cc(S(=O)(=O)[O-])cc6F)c6ccc3[nH]6)C=C5)C=C4)cc2)[nH]c1=O
REMARK SMILES IDX 13 1 12 2 11 3 9 4 10 5 8 7 7 8 6 9 3 10 4 11 85 12 5 13
REMARK SMILES IDX 84 14 86 15 2 17 1 18 14 19 15 20 16 21 17 23 18 24 19 25
REMARK SMILES IDX 83 26 20 27 82 28 21 29 22 30 23 31 76 32 24 33 81 34 75 35
REMARK SMILES IDX 77 36 25 37 80 38 74 39 73 40 26 42 60 43 39 44 59 45 40 46
REMARK SMILES IDX 43 47 58 48 78 49 41 50 42 51 57 53 79 54 44 55 27 56 28 57
REMARK SMILES IDX 37 58 29 59 30 60 36 61 38 62 31 63 32 64 33 65 34 66 35 67
REMARK SMILES IDX 61 68 62 69 71 70 63 71 64 72 70 73 72 74 65 75 66 76 67 77
REMARK SMILES IDX 68 78 69 79 45 80 46 81 55 82 47 83 48 84 54 85 56 86 49 87
REMARK SMILES IDX 50 88 51 89 52 90 53 91
REMARK H PARENT 11 6 84 16 15 22 77 41 43 52
REMARK Flexibility Score: inf
ROOT
ATOM      1  C   UNL     1       3.469  -7.864   2.071  1.00  0.00     0.042 C 
ENDROOT
BRANCH   1   2
ATOM      2  C   UNL     1       2.455  -8.798   1.419  1.00  0.00     0.117 C 
BRANCH   2   3
ATOM      3  N   UNL     1       1.103  -8.281   1.512  1.00  0.00    -0.355 N 
ATOM      4  C   UNL     1       0.291  -7.761   0.547  1.00  0.00     0.230 C 
ATOM      5  O   UNL     1      -0.861  -7.467   0.879  1.00  0.00    -0.274 OA
ATOM      6  H   UNL     1       0.709  -8.310   2.414  1.00  0.00     0.163 HD
BRANCH   4   7
ATOM      7  C   UNL     1       0.742  -7.679  -0.900  1.00  0.00     0.178 C 
BRANCH   7   8
ATOM      8  S   UNL     1       2.161  -6.595  -1.200  1.00  0.00    -0.078 SA
BRANCH   8   9
ATOM      9  C   UNL     1       1.569  -5.060  -0.663  1.00  0.00     0.168 A 
ATOM     10  C   UNL     1       0.904  -2.537   0.160  1.00  0.00     0.202 A 
ATOM     11  C   UNL     1       0.053  -3.573   0.102  1.00  0.00     0.166 A 
ATOM     12  C   UNL     1       2.304  -2.823  -0.283  1.00  0.00     0.293 A 
ATOM     13  N   UNL     1       0.345  -4.840  -0.337  1.00  0.00    -0.229 NA
ATOM     14  N   UNL     1       2.546  -4.117  -0.644  1.00  0.00    -0.298 N 
ATOM     15  O   UNL     1       3.192  -1.979  -0.339  1.00  0.00    -0.265 OA
ATOM     16  H   UNL     1       3.461  -4.375  -0.899  1.00  0.00     0.172 HD
BRANCH  10  17
ATOM     17  O   UNL     1       0.477  -1.318   0.656  1.00  0.00    -0.490 OA
ATOM     18  C   UNL     1       1.041  -0.174   0.026  1.00  0.00     0.278 C 
ENDBRANCH  10  17
ENDBRANCH   8   9
ENDBRANCH   7   8
ENDBRANCH   4   7
ENDBRANCH   2   3
ENDBRANCH   1   2
BRANCH   1  19
ATOM     19  C   UNL     1       3.282  -7.692   3.575  1.00  0.00     0.118 C 
BRANCH  19  20
ATOM     20  N   UNL     1       3.513  -8.924   4.316  1.00  0.00    -0.352 N 
ATOM     21  C   UNL     1       4.383  -9.185   5.347  1.00  0.00     0.251 C 
ATOM     22  H   UNL     1       2.960  -9.688   4.035  1.00  0.00     0.163 HD
ATOM     23  O   UNL     1       4.547 -10.346   5.711  1.00  0.00    -0.269 OA
BRANCH  21  24
ATOM     24  C   UNL     1       5.131  -8.089   6.005  1.00  0.00     0.039 A 
ATOM     25  C   UNL     1       6.463  -8.307   6.371  1.00  0.00     0.014 A 
ATOM     26  C   UNL     1       4.522  -6.866   6.298  1.00  0.00     0.014 A 
ATOM     27  C   UNL     1       7.193  -7.285   6.985  1.00  0.00     0.010 A 
ATOM     28  C   UNL     1       5.275  -5.821   6.830  1.00  0.00     0.010 A 
ATOM     29  C   UNL     1       6.614  -6.024   7.197  1.00  0.00    -0.014 A 
BRANCH  29  30
ATOM     30  C   UNL     1       7.379  -4.919   7.835  1.00  0.00     0.031 A 
ATOM     31  C   UNL     1       6.921  -4.348   9.152  1.00  0.00     0.074 A 
ATOM     32  C   UNL     1       8.453  -4.395   7.211  1.00  0.00     0.049 A 
ATOM     33  N   UNL     1       7.412  -3.346   9.836  1.00  0.00    -0.248 NA
ATOM     34  C   UNL     1       5.735  -4.966   9.769  1.00  0.00     0.031 C 
ATOM     35  C   UNL     1       8.973  -4.830   5.912  1.00  0.00     0.029 A 
ATOM     36  N   UNL     1       9.297  -3.377   7.580  1.00  0.00    -0.354 N 
ATOM     37  C   UNL     1       6.591  -3.207  10.950  1.00  0.00     0.074 A 
ATOM     38  C   UNL     1       5.534  -4.185  10.819  1.00  0.00     0.031 C 
ATOM     39  C   UNL     1      10.058  -4.101   5.606  1.00  0.00     0.029 A 
ATOM     40  C   UNL     1      10.289  -3.120   6.662  1.00  0.00     0.049 A 
ATOM     41  H   UNL     1       9.200  -2.877   8.422  1.00  0.00     0.167 HD
ATOM     42  C   UNL     1       6.718  -2.359  11.999  1.00  0.00     0.037 A 
ATOM     43  C   UNL     1      11.270  -2.196   6.668  1.00  0.00     0.037 A 
ATOM     44  C   UNL     1       7.786  -1.402  12.135  1.00  0.00     0.049 A 
ATOM     45  C   UNL     1      11.393  -1.265   7.845  1.00  0.00     0.074 A 
ATOM     46  C   UNL     1       8.032  -0.529  13.181  1.00  0.00     0.029 A 
ATOM     47  N   UNL     1       8.787  -1.192  11.197  1.00  0.00    -0.354 N 
ATOM     48  N   UNL     1      10.637  -1.182   8.915  1.00  0.00    -0.248 NA
ATOM     49  C   UNL     1      12.509  -0.311   7.824  1.00  0.00     0.031 C 
ATOM     50  C   UNL     1       9.151   0.242  12.853  1.00  0.00     0.029 A 
ATOM     51  C   UNL     1       9.643  -0.194  11.633  1.00  0.00     0.049 A 
ATOM     52  H   UNL     1       8.876  -1.680  10.347  1.00  0.00     0.167 HD
ATOM     53  C   UNL     1      11.213  -0.198   9.713  1.00  0.00     0.074 A 
ATOM     54  C   UNL     1      12.381   0.281   9.003  1.00  0.00     0.031 C 
ATOM     55  C   UNL     1      10.814   0.262  10.925  1.00  0.00     0.037 A 
BRANCH  42  56
ATOM     56  C   UNL     1       5.677  -2.430  13.086  1.00  0.00     0.058 A 
ATOM     57  C   UNL     1       5.572  -3.541  13.939  1.00  0.00     0.135 A 
ATOM     58  C   UNL     1       4.793  -1.359  13.299  1.00  0.00     0.135 A 
ATOM     59  F   UNL     1       6.379  -4.601  13.773  1.00  0.00    -0.206 F 
ATOM     60  C   UNL     1       4.607  -3.603  14.939  1.00  0.00     0.059 A 
ATOM     61  C   UNL     1       3.843  -1.385  14.316  1.00  0.00     0.059 A 
ATOM     62  F   UNL     1       4.848  -0.271  12.516  1.00  0.00    -0.206 F 
ATOM     63  C   UNL     1       3.747  -2.519  15.121  1.00  0.00     0.060 A 
BRANCH  63  64
ATOM     64  S   UNL     1       2.506  -2.615  16.428  1.00  0.00     0.124 S 
ATOM     65  O   UNL     1       1.575  -3.593  15.874  1.00  0.00    -0.237 OA
ATOM     66  O   UNL     1       3.292  -3.066  17.571  1.00  0.00    -0.237 OA
ATOM     67  O   UNL     1       2.000  -1.249  16.518  1.00  0.00    -0.744 OA
ENDBRANCH  63  64
ENDBRANCH  42  56
BRANCH  43  68
ATOM     68  C   UNL     1      12.235  -2.126   5.537  1.00  0.00     0.058 A 
ATOM     69  C   UNL     1      13.579  -2.491   5.707  1.00  0.00     0.135 A 
ATOM     70  C   UNL     1      11.833  -1.696   4.262  1.00  0.00     0.135 A 
ATOM     71  F   UNL     1      14.014  -2.903   6.907  1.00  0.00    -0.206 F 
ATOM     72  C   UNL     1      14.495  -2.412   4.663  1.00  0.00     0.059 A 
ATOM     73  C   UNL     1      12.724  -1.637   3.195  1.00  0.00     0.059 A 
ATOM     74  F   UNL     1      10.555  -1.352   4.039  1.00  0.00    -0.206 F 
ATOM     75  C   UNL     1      14.057  -1.986   3.409  1.00  0.00     0.060 A 
BRANCH  75  76
ATOM     76  S   UNL     1      15.246  -1.930   2.050  1.00  0.00     0.124 S 
ATOM     77  O   UNL     1      16.069  -0.786   2.426  1.00  0.00    -0.237 OA
ATOM     78  O   UNL     1      15.885  -3.238   2.150  1.00  0.00    -0.237 OA
ATOM     79  O   UNL     1      14.402  -1.741   0.874  1.00  0.00    -0.744 OA
ENDBRANCH  75  76
ENDBRANCH  43  68
BRANCH  55  80
ATOM     80  C   UNL     1      11.684   1.289  11.599  1.00  0.00     0.058 A 
ATOM     81  C   UNL     1      11.785   2.608  11.132  1.00  0.00     0.135 A 
ATOM     82  C   UNL     1      12.402   0.950  12.759  1.00  0.00     0.135 A 
ATOM     83  F   UNL     1      11.123   2.987  10.027  1.00  0.00    -0.206 F 
ATOM     84  C   UNL     1      12.596   3.545  11.767  1.00  0.00     0.059 A 
ATOM     85  C   UNL     1      13.191   1.878  13.430  1.00  0.00     0.059 A 
ATOM     86  F   UNL     1      12.331  -0.294  13.259  1.00  0.00    -0.206 F 
ATOM     87  C   UNL     1      13.296   3.169  12.915  1.00  0.00     0.060 A 
BRANCH  87  88
ATOM     88  S   UNL     1      14.335   4.395  13.738  1.00  0.00     0.124 S 
ATOM     89  O   UNL     1      15.460   4.494  12.814  1.00  0.00    -0.237 OA
ATOM     90  O   UNL     1      13.458   5.560  13.794  1.00  0.00    -0.237 OA
ATOM     91  O   UNL     1      14.633   3.779  15.027  1.00  0.00    -0.744 OA
ENDBRANCH  87  88
ENDBRANCH  55  80
ENDBRANCH  29  30
ENDBRANCH  21  24
ENDBRANCH  19  20
ENDBRANCH   1  19
TORSDOF 16
