REMARK SMILES O=C(NCCCNC(=O)c1ccc2c(=O)n(CCC[NH+]3CCOCC3)c(=O)[nH]c2c1)c1ccc(-c2c3nc(c(-c4c(F)cc(S(=O)(=O)[O-])cc4F)c4ccc([nH]4)c(-c4c(F)cc(S(=O)(=O)[O-])cc4F)c4nc(c(-c5c(F)cc(S(=O)(=O)[O-])cc5F)c5ccc2[nH]5)C=C4)C=C3)cc1
REMARK SMILES IDX 5 1 4 2 3 3 1 4 2 5 31 7 32 8 96 9 33 10 95 11 34 12 35 13
REMARK SMILES IDX 36 14 89 15 37 16 94 17 88 18 90 19 38 20 93 21 87 22 86 23
REMARK SMILES IDX 39 25 73 26 52 27 72 28 53 29 56 30 71 31 91 32 54 33 55 34
REMARK SMILES IDX 70 36 92 37 57 38 40 39 41 40 50 41 42 42 43 43 49 44 51 45
REMARK SMILES IDX 44 46 45 47 46 48 47 49 48 50 74 51 75 52 84 53 76 54 77 55
REMARK SMILES IDX 83 56 85 57 78 58 79 59 80 60 81 61 82 62 58 63 59 64 68 65
REMARK SMILES IDX 60 66 61 67 67 68 69 69 62 70 63 71 64 72 65 73 66 74 6 75
REMARK SMILES IDX 7 76 8 77 9 79 10 80 11 81 30 82 12 83 29 84 13 85 28 86
REMARK SMILES IDX 14 87 26 88 15 90 16 91 27 92 17 93 18 94 19 95 20 96 21 97
REMARK SMILES IDX 25 98 22 100 24 101 23 102
REMARK H PARENT 3 6 90 24 56 35 7 78 28 89 20 99
REMARK Flexibility Score: inf
ROOT
ATOM      1  C   UNL     1       4.899  -2.082  -1.458  1.00  0.00     0.042 C 
ENDROOT
BRANCH   1   2
ATOM      2  C   UNL     1       4.618  -0.639  -1.054  1.00  0.00     0.118 C 
BRANCH   2   3
ATOM      3  N   UNL     1       3.196  -0.353  -0.962  1.00  0.00    -0.352 N 
ATOM      4  O   UNL     1       1.212   0.064  -0.017  1.00  0.00    -0.269 OA
ATOM      5  C   UNL     1       2.436   0.086   0.091  1.00  0.00     0.251 C 
ATOM      6  H   UNL     1       2.693  -0.498  -1.797  1.00  0.00     0.163 HD
BRANCH   5   7
ATOM      7  C   UNL     1       3.060   0.578   1.341  1.00  0.00     0.039 A 
ATOM      8  C   UNL     1       2.393   0.356   2.551  1.00  0.00     0.014 A 
ATOM      9  C   UNL     1       4.241   1.324   1.331  1.00  0.00     0.014 A 
ATOM     10  C   UNL     1       2.913   0.870   3.740  1.00  0.00     0.010 A 
ATOM     11  C   UNL     1       4.809   1.756   2.526  1.00  0.00     0.010 A 
ATOM     12  C   UNL     1       4.128   1.573   3.738  1.00  0.00    -0.014 A 
BRANCH  12  13
ATOM     13  C   UNL     1       4.642   2.215   4.973  1.00  0.00     0.031 A 
ATOM     14  C   UNL     1       4.735   3.717   5.045  1.00  0.00     0.074 A 
ATOM     15  C   UNL     1       5.038   1.462   6.016  1.00  0.00     0.049 A 
ATOM     16  N   UNL     1       5.181   4.473   6.015  1.00  0.00    -0.248 NA
ATOM     17  C   UNL     1       4.300   4.469   3.856  1.00  0.00     0.031 C 
ATOM     18  C   UNL     1       5.032  -0.001   6.054  1.00  0.00     0.029 A 
ATOM     19  N   UNL     1       5.517   1.825   7.250  1.00  0.00    -0.354 N 
ATOM     20  C   UNL     1       5.101   5.778   5.545  1.00  0.00     0.074 A 
ATOM     21  C   UNL     1       4.625   5.710   4.182  1.00  0.00     0.031 C 
ATOM     22  C   UNL     1       5.447  -0.410   7.264  1.00  0.00     0.029 A 
ATOM     23  C   UNL     1       5.776   0.758   8.077  1.00  0.00     0.049 A 
ATOM     24  H   UNL     1       5.662   2.761   7.517  1.00  0.00     0.167 HD
ATOM     25  C   UNL     1       5.364   6.934   6.199  1.00  0.00     0.037 A 
ATOM     26  C   UNL     1       6.218   0.727   9.350  1.00  0.00     0.037 A 
ATOM     27  C   UNL     1       5.774   7.000   7.573  1.00  0.00     0.049 A 
ATOM     28  C   UNL     1       6.494   2.020  10.065  1.00  0.00     0.074 A 
ATOM     29  C   UNL     1       5.980   8.121   8.356  1.00  0.00     0.029 A 
ATOM     30  N   UNL     1       6.034   5.896   8.372  1.00  0.00    -0.354 N 
ATOM     31  N   UNL     1       6.355   3.248   9.624  1.00  0.00    -0.248 NA
ATOM     32  C   UNL     1       6.991   1.928  11.444  1.00  0.00     0.031 C 
ATOM     33  C   UNL     1       6.396   7.695   9.622  1.00  0.00     0.029 A 
ATOM     34  C   UNL     1       6.422   6.309   9.634  1.00  0.00     0.049 A 
ATOM     35  H   UNL     1       5.955   4.959   8.084  1.00  0.00     0.167 HD
ATOM     36  C   UNL     1       6.739   4.075  10.673  1.00  0.00     0.074 A 
ATOM     37  C   UNL     1       7.105   3.209  11.775  1.00  0.00     0.031 C 
ATOM     38  C   UNL     1       6.787   5.429  10.717  1.00  0.00     0.037 A 
BRANCH  25  39
ATOM     39  C   UNL     1       5.192   8.215   5.432  1.00  0.00     0.058 A 
ATOM     40  C   UNL     1       3.920   8.695   5.081  1.00  0.00     0.135 A 
ATOM     41  C   UNL     1       6.309   8.970   5.040  1.00  0.00     0.135 A 
ATOM     42  F   UNL     1       2.820   8.002   5.417  1.00  0.00    -0.206 F 
ATOM     43  C   UNL     1       3.762   9.854   4.330  1.00  0.00     0.059 A 
ATOM     44  C   UNL     1       6.173  10.147   4.311  1.00  0.00     0.059 A 
ATOM     45  F   UNL     1       7.547   8.556   5.351  1.00  0.00    -0.206 F 
ATOM     46  C   UNL     1       4.896  10.569   3.942  1.00  0.00     0.060 A 
BRANCH  46  47
ATOM     47  S   UNL     1       4.677  12.056   2.943  1.00  0.00     0.124 S 
ATOM     48  O   UNL     1       4.357  11.483   1.639  1.00  0.00    -0.237 OA
ATOM     49  O   UNL     1       3.577  12.733   3.624  1.00  0.00    -0.237 OA
ATOM     50  O   UNL     1       5.972  12.722   3.035  1.00  0.00    -0.744 OA
ENDBRANCH  46  47
ENDBRANCH  25  39
BRANCH  26  51
ATOM     51  C   UNL     1       6.375  -0.582  10.033  1.00  0.00     0.058 A 
ATOM     52  C   UNL     1       5.435  -1.009  10.982  1.00  0.00     0.135 A 
ATOM     53  C   UNL     1       7.420  -1.458   9.703  1.00  0.00     0.135 A 
ATOM     54  F   UNL     1       4.423  -0.202  11.333  1.00  0.00    -0.206 F 
ATOM     55  C   UNL     1       5.517  -2.266  11.572  1.00  0.00     0.059 A 
ATOM     56  C   UNL     1       7.514  -2.727  10.268  1.00  0.00     0.059 A 
ATOM     57  F   UNL     1       8.336  -1.099   8.791  1.00  0.00    -0.206 F 
ATOM     58  C   UNL     1       6.555  -3.123  11.200  1.00  0.00     0.060 A 
BRANCH  58  59
ATOM     59  S   UNL     1       6.592  -4.788  11.900  1.00  0.00     0.124 S 
ATOM     60  O   UNL     1       6.995  -4.520  13.276  1.00  0.00    -0.237 OA
ATOM     61  O   UNL     1       5.213  -5.228  11.712  1.00  0.00    -0.237 OA
ATOM     62  O   UNL     1       7.580  -5.476  11.074  1.00  0.00    -0.744 OA
ENDBRANCH  58  59
ENDBRANCH  26  51
BRANCH  38  63
ATOM     63  C   UNL     1       7.265   6.073  11.985  1.00  0.00     0.058 A 
ATOM     64  C   UNL     1       8.632   6.143  12.288  1.00  0.00     0.135 A 
ATOM     65  C   UNL     1       6.364   6.735  12.835  1.00  0.00     0.135 A 
ATOM     66  F   UNL     1       9.530   5.519  11.509  1.00  0.00    -0.206 F 
ATOM     67  C   UNL     1       9.094   6.859  13.386  1.00  0.00     0.059 A 
ATOM     68  C   UNL     1       6.806   7.472  13.929  1.00  0.00     0.059 A 
ATOM     69  F   UNL     1       5.047   6.703  12.580  1.00  0.00    -0.206 F 
ATOM     70  C   UNL     1       8.174   7.531  14.194  1.00  0.00     0.060 A 
BRANCH  70  71
ATOM     71  S   UNL     1       8.798   8.533  15.560  1.00  0.00     0.124 S 
ATOM     72  O   UNL     1       9.216   7.508  16.511  1.00  0.00    -0.237 OA
ATOM     73  O   UNL     1       9.875   9.288  14.926  1.00  0.00    -0.237 OA
ATOM     74  O   UNL     1       7.637   9.324  15.959  1.00  0.00    -0.744 OA
ENDBRANCH  70  71
ENDBRANCH  38  63
ENDBRANCH  12  13
ENDBRANCH   5   7
ENDBRANCH   2   3
ENDBRANCH   1   2
BRANCH   1  75
ATOM     75  C   UNL     1       4.287  -2.487  -2.794  1.00  0.00     0.118 C 
BRANCH  75  76
ATOM     76  N   UNL     1       4.787  -1.671  -3.892  1.00  0.00    -0.352 N 
ATOM     77  C   UNL     1       5.721  -1.989  -4.838  1.00  0.00     0.251 C 
ATOM     78  H   UNL     1       4.401  -0.768  -3.962  1.00  0.00     0.163 HD
ATOM     79  O   UNL     1       6.214  -1.128  -5.566  1.00  0.00    -0.269 OA
BRANCH  77  80
ATOM     80  C   UNL     1       6.142  -3.388  -4.993  1.00  0.00     0.041 A 
ATOM     81  C   UNL     1       5.189  -4.363  -5.321  1.00  0.00     0.015 A 
ATOM     82  C   UNL     1       7.493  -3.717  -4.827  1.00  0.00     0.040 A 
ATOM     83  C   UNL     1       5.587  -5.687  -5.462  1.00  0.00     0.017 A 
ATOM     84  C   UNL     1       7.872  -5.051  -4.931  1.00  0.00     0.056 A 
ATOM     85  C   UNL     1       6.931  -6.017  -5.267  1.00  0.00     0.064 A 
ATOM     86  N   UNL     1       9.183  -5.446  -4.680  1.00  0.00    -0.307 N 
ATOM     87  C   UNL     1       7.394  -7.398  -5.425  1.00  0.00     0.264 A 
ATOM     88  C   UNL     1       9.578  -6.756  -4.590  1.00  0.00     0.328 A 
ATOM     89  H   UNL     1       9.865  -4.745  -4.561  1.00  0.00     0.171 HD
ATOM     90  O   UNL     1       6.705  -8.170  -6.086  1.00  0.00    -0.268 OA
ATOM     91  N   UNL     1       8.605  -7.718  -4.830  1.00  0.00    -0.260 N 
ATOM     92  O   UNL     1      10.753  -7.006  -4.328  1.00  0.00    -0.248 OA
BRANCH  91  93
ATOM     93  C   UNL     1       8.957  -9.132  -4.696  1.00  0.00     0.137 C 
BRANCH  93  94
ATOM     94  C   UNL     1       8.219  -9.870  -3.562  1.00  0.00     0.083 C 
BRANCH  94  95
ATOM     95  C   UNL     1       6.699 -10.110  -3.672  1.00  0.00     0.264 C 
BRANCH  95  96
ATOM     96  N   UNL     1       6.096 -11.085  -4.586  1.00  0.00    -0.331 N 
ATOM     97  C   UNL     1       5.639 -12.331  -3.951  1.00  0.00     0.291 C 
ATOM     98  C   UNL     1       6.767 -11.407  -5.848  1.00  0.00     0.291 C 
ATOM     99  H   UNL     1       5.298 -10.512  -4.861  1.00  0.00     0.348 HD
ATOM    100  C   UNL     1       6.751 -13.380  -3.825  1.00  0.00     0.221 C 
ATOM    101  C   UNL     1       7.848 -12.494  -5.720  1.00  0.00     0.221 C 
ATOM    102  O   UNL     1       7.333 -13.682  -5.102  1.00  0.00    -0.370 OA
ENDBRANCH  95  96
ENDBRANCH  94  95
ENDBRANCH  93  94
ENDBRANCH  91  93
ENDBRANCH  77  80
ENDBRANCH  75  76
ENDBRANCH   1  75
TORSDOF 17
