REMARK SMILES O=C(CCC(=O)N1CCCn2nc(-c3ccccc3)cc21)NCCCNC(=O)c1ccc(-c2c3nc(c(-c4c(F)cc(S(=O)(=O)[O-])cc4F)c4ccc([nH]4)c(-c4c(F)cc(S(=O)(=O)[O-])cc4F)c4nc(c(-c5c(F)cc(S(=O)(=O)[O-])cc5F)c5ccc2[nH]5)C=C4)C=C3)cc1
REMARK SMILES IDX 23 1 22 2 1 3 2 4 3 6 4 7 5 8 6 9 7 10 8 11 21 12 9 13 11 14
REMARK SMILES IDX 20 15 10 16 12 17 13 18 14 19 15 20 19 21 16 22 18 23 17 24
REMARK SMILES IDX 24 25 25 26 26 27 27 28 28 30 29 31 30 32 94 33 31 34 93 35
REMARK SMILES IDX 32 36 33 37 34 38 87 39 35 40 92 41 86 42 88 43 36 44 91 45
REMARK SMILES IDX 85 46 84 47 37 49 71 50 50 51 70 52 51 53 54 54 69 55 89 56
REMARK SMILES IDX 52 57 53 58 68 60 90 61 55 62 38 63 39 64 48 65 40 66 41 67
REMARK SMILES IDX 47 68 49 69 42 70 43 71 44 72 45 73 46 74 72 75 73 76 82 77
REMARK SMILES IDX 74 78 75 79 81 80 83 81 76 82 77 83 78 84 79 85 80 86 56 87
REMARK SMILES IDX 57 88 66 89 58 90 59 91 65 92 67 93 60 94 61 95 62 96 63 97
REMARK SMILES IDX 64 98
REMARK H PARENT 22 5 26 29 88 48 54 59
REMARK Flexibility Score: inf
ROOT
ATOM      1  C   UNL     1       1.662   0.707   2.571  1.00  0.00     0.117 C 
ENDROOT
BRANCH   1   2
ATOM      2  N   UNL     1       2.618  -0.172   1.909  1.00  0.00    -0.356 N 
ATOM      3  O   UNL     1       1.302  -0.466   0.053  1.00  0.00    -0.275 OA
ATOM      4  C   UNL     1       2.379  -0.625   0.623  1.00  0.00     0.220 C 
ATOM      5  H   UNL     1       3.438  -0.446   2.379  1.00  0.00     0.163 HD
BRANCH   4   6
ATOM      6  C   UNL     1       3.609  -1.126  -0.126  1.00  0.00     0.110 C 
BRANCH   6   7
ATOM      7  C   UNL     1       3.727  -0.488  -1.528  1.00  0.00     0.110 C 
BRANCH   7   8
ATOM      8  C   UNL     1       4.710   0.678  -1.675  1.00  0.00     0.228 C 
ATOM      9  O   UNL     1       5.857   0.503  -2.093  1.00  0.00    -0.274 OA
BRANCH   8  10
ATOM     10  N   UNL     1       4.272   2.028  -1.366  1.00  0.00    -0.297 N 
ATOM     11  C   UNL     1       2.978   2.249  -0.690  1.00  0.00     0.129 C 
ATOM     12  C   UNL     1       5.001   3.195  -1.667  1.00  0.00     0.134 A 
ATOM     13  C   UNL     1       3.080   3.384   0.307  1.00  0.00     0.046 C 
ATOM     14  N   UNL     1       4.585   4.426  -1.229  1.00  0.00    -0.249 N 
ATOM     15  C   UNL     1       6.151   3.457  -2.386  1.00  0.00     0.077 A 
ATOM     16  C   UNL     1       3.426   4.662  -0.402  1.00  0.00     0.148 C 
ATOM     17  N   UNL     1       5.317   5.447  -1.624  1.00  0.00    -0.171 NA
ATOM     18  C   UNL     1       6.307   4.882  -2.322  1.00  0.00     0.095 A 
BRANCH  18  19
ATOM     19  C   UNL     1       7.268   5.806  -2.898  1.00  0.00     0.002 A 
ATOM     20  C   UNL     1       8.088   6.551  -2.037  1.00  0.00     0.010 A 
ATOM     21  C   UNL     1       7.142   6.190  -4.237  1.00  0.00     0.010 A 
ATOM     22  C   UNL     1       8.753   7.685  -2.504  1.00  0.00     0.001 A 
ATOM     23  C   UNL     1       7.805   7.329  -4.699  1.00  0.00     0.001 A 
ATOM     24  C   UNL     1       8.600   8.080  -3.831  1.00  0.00     0.000 A 
ENDBRANCH  18  19
ENDBRANCH   8  10
ENDBRANCH   7   8
ENDBRANCH   6   7
ENDBRANCH   4   6
ENDBRANCH   1   2
BRANCH   1  25
ATOM     25  C   UNL     1       2.081   1.276   3.931  1.00  0.00     0.042 C 
BRANCH  25  26
ATOM     26  C   UNL     1       3.472   1.897   4.066  1.00  0.00     0.118 C 
BRANCH  26  27
ATOM     27  N   UNL     1       3.602   3.234   3.516  1.00  0.00    -0.352 N 
ATOM     28  C   UNL     1       4.520   4.231   3.774  1.00  0.00     0.251 C 
ATOM     29  H   UNL     1       2.920   3.469   2.846  1.00  0.00     0.163 HD
ATOM     30  O   UNL     1       4.536   5.211   3.033  1.00  0.00    -0.269 OA
BRANCH  28  31
ATOM     31  C   UNL     1       5.358   4.199   4.998  1.00  0.00     0.039 A 
ATOM     32  C   UNL     1       5.417   5.373   5.762  1.00  0.00     0.014 A 
ATOM     33  C   UNL     1       5.964   3.036   5.470  1.00  0.00     0.014 A 
ATOM     34  C   UNL     1       5.941   5.340   7.055  1.00  0.00     0.010 A 
ATOM     35  C   UNL     1       6.425   2.985   6.784  1.00  0.00     0.010 A 
ATOM     36  C   UNL     1       6.373   4.124   7.602  1.00  0.00    -0.014 A 
BRANCH  36  37
ATOM     37  C   UNL     1       6.672   3.997   9.050  1.00  0.00     0.031 A 
ATOM     38  C   UNL     1       8.057   3.652   9.510  1.00  0.00     0.074 A 
ATOM     39  C   UNL     1       5.654   4.087   9.931  1.00  0.00     0.049 A 
ATOM     40  N   UNL     1       8.482   3.385  10.716  1.00  0.00    -0.248 NA
ATOM     41  C   UNL     1       9.093   3.559   8.470  1.00  0.00     0.031 C 
ATOM     42  C   UNL     1       4.253   4.350   9.580  1.00  0.00     0.029 A 
ATOM     43  N   UNL     1       5.627   3.950  11.295  1.00  0.00    -0.354 N 
ATOM     44  C   UNL     1       9.830   3.074  10.582  1.00  0.00     0.074 A 
ATOM     45  C   UNL     1      10.139   3.142   9.169  1.00  0.00     0.031 C 
ATOM     46  C   UNL     1       3.512   4.372  10.699  1.00  0.00     0.029 A 
ATOM     47  C   UNL     1       4.372   4.095  11.842  1.00  0.00     0.049 A 
ATOM     48  H   UNL     1       6.430   3.766  11.833  1.00  0.00     0.167 HD
ATOM     49  C   UNL     1      10.727   2.776  11.552  1.00  0.00     0.037 A 
ATOM     50  C   UNL     1       3.962   4.011  13.123  1.00  0.00     0.037 A 
ATOM     51  C   UNL     1      10.403   2.740  12.954  1.00  0.00     0.049 A 
ATOM     52  C   UNL     1       4.987   3.735  14.186  1.00  0.00     0.074 A 
ATOM     53  C   UNL     1      11.240   2.499  14.030  1.00  0.00     0.029 A 
ATOM     54  N   UNL     1       9.135   2.960  13.477  1.00  0.00    -0.354 N 
ATOM     55  N   UNL     1       6.270   3.493  14.045  1.00  0.00    -0.248 NA
ATOM     56  C   UNL     1       4.519   3.730  15.578  1.00  0.00     0.031 C 
ATOM     57  C   UNL     1      10.473   2.551  15.200  1.00  0.00     0.029 A 
ATOM     58  C   UNL     1       9.165   2.858  14.857  1.00  0.00     0.049 A 
ATOM     59  H   UNL     1       8.332   3.159  12.943  1.00  0.00     0.167 HD
ATOM     60  C   UNL     1       6.768   3.328  15.331  1.00  0.00     0.074 A 
ATOM     61  C   UNL     1       5.650   3.511  16.236  1.00  0.00     0.031 C 
ATOM     62  C   UNL     1       8.034   3.050  15.729  1.00  0.00     0.037 A 
BRANCH  49  63
ATOM     63  C   UNL     1      12.136   2.472  11.123  1.00  0.00     0.058 A 
ATOM     64  C   UNL     1      12.982   3.473  10.616  1.00  0.00     0.135 A 
ATOM     65  C   UNL     1      12.652   1.170  11.220  1.00  0.00     0.135 A 
ATOM     66  F   UNL     1      12.534   4.732  10.484  1.00  0.00    -0.206 F 
ATOM     67  C   UNL     1      14.272   3.186  10.181  1.00  0.00     0.059 A 
ATOM     68  C   UNL     1      13.950   0.865  10.817  1.00  0.00     0.059 A 
ATOM     69  F   UNL     1      11.889   0.174  11.696  1.00  0.00    -0.206 F 
ATOM     70  C   UNL     1      14.744   1.877  10.279  1.00  0.00     0.060 A 
BRANCH  70  71
ATOM     71  S   UNL     1      16.410   1.514   9.685  1.00  0.00     0.124 S 
ATOM     72  O   UNL     1      16.208   1.524   8.239  1.00  0.00    -0.237 OA
ATOM     73  O   UNL     1      17.185   2.626  10.224  1.00  0.00    -0.237 OA
ATOM     74  O   UNL     1      16.701   0.208  10.269  1.00  0.00    -0.744 OA
ENDBRANCH  70  71
ENDBRANCH  49  63
BRANCH  50  75
ATOM     75  C   UNL     1       2.532   4.236  13.463  1.00  0.00     0.058 A 
ATOM     76  C   UNL     1       2.122   5.418  14.097  1.00  0.00     0.135 A 
ATOM     77  C   UNL     1       1.543   3.298  13.127  1.00  0.00     0.135 A 
ATOM     78  F   UNL     1       3.030   6.344  14.438  1.00  0.00    -0.206 F 
ATOM     79  C   UNL     1       0.784   5.662  14.393  1.00  0.00     0.059 A 
ATOM     80  C   UNL     1       0.196   3.528  13.395  1.00  0.00     0.059 A 
ATOM     81  F   UNL     1       1.880   2.161  12.499  1.00  0.00    -0.206 F 
ATOM     82  C   UNL     1      -0.173   4.711  14.034  1.00  0.00     0.060 A 
BRANCH  82  83
ATOM     83  S   UNL     1      -1.915   5.067  14.355  1.00  0.00     0.124 S 
ATOM     84  O   UNL     1      -2.001   4.839  15.792  1.00  0.00    -0.237 OA
ATOM     85  O   UNL     1      -2.030   6.455  13.918  1.00  0.00    -0.237 OA
ATOM     86  O   UNL     1      -2.612   4.097  13.516  1.00  0.00    -0.744 OA
ENDBRANCH  82  83
ENDBRANCH  50  75
BRANCH  62  87
ATOM     87  C   UNL     1       8.273   2.951  17.207  1.00  0.00     0.058 A 
ATOM     88  C   UNL     1       7.862   1.830  17.942  1.00  0.00     0.135 A 
ATOM     89  C   UNL     1       8.958   3.973  17.884  1.00  0.00     0.135 A 
ATOM     90  F   UNL     1       7.197   0.832  17.338  1.00  0.00    -0.206 F 
ATOM     91  C   UNL     1       8.102   1.733  19.308  1.00  0.00     0.059 A 
ATOM     92  C   UNL     1       9.229   3.886  19.244  1.00  0.00     0.059 A 
ATOM     93  F   UNL     1       9.378   5.061  17.219  1.00  0.00    -0.206 F 
ATOM     94  C   UNL     1       8.787   2.768  19.950  1.00  0.00     0.060 A 
BRANCH  94  95
ATOM     95  S   UNL     1       9.121   2.619  21.717  1.00  0.00     0.124 S 
ATOM     96  O   UNL     1       7.819   2.945  22.288  1.00  0.00    -0.237 OA
ATOM     97  O   UNL     1       9.537   1.225  21.841  1.00  0.00    -0.237 OA
ATOM     98  O   UNL     1      10.174   3.603  21.945  1.00  0.00    -0.744 OA
ENDBRANCH  94  95
ENDBRANCH  62  87
ENDBRANCH  36  37
ENDBRANCH  28  31
ENDBRANCH  26  27
ENDBRANCH  25  26
ENDBRANCH   1  25
TORSDOF 17
