REMARK SMILES CC(C)[C@@H](CNC(=O)[C@@H]1CC[C@@H]2CCCC[C@@H]2[NH2+]1)C(=O)NCCCNC(=O)c1ccc(-c2c3nc(c(-c4c(F)cc(S(=O)(=O)[O-])cc4F)c4ccc([nH]4)c(-c4c(F)cc(S(=O)(=O)[O-])cc4F)c4nc(c(-c5c(F)cc(S(=O)(=O)[O-])cc5F)c5ccc2[nH]5)C=C4)C=C3)cc1
REMARK SMILES IDX 23 1 22 2 21 3 19 4 20 5 4 7 2 8 1 9 3 10 5 11 6 12 7 13
REMARK SMILES IDX 8 15 9 16 10 17 18 18 11 19 17 20 12 23 16 24 13 25 15 26
REMARK SMILES IDX 14 27 24 28 25 29 26 30 27 32 28 33 29 34 93 35 30 36 92 37
REMARK SMILES IDX 31 38 32 39 33 40 86 41 34 42 91 43 85 44 87 45 35 46 90 47
REMARK SMILES IDX 84 48 83 49 36 51 70 52 49 53 69 54 50 55 53 56 68 57 88 58
REMARK SMILES IDX 51 59 52 60 67 62 89 63 54 64 37 65 38 66 47 67 39 68 40 69
REMARK SMILES IDX 46 70 48 71 41 72 42 73 43 74 44 75 45 76 71 77 72 78 81 79
REMARK SMILES IDX 73 80 74 81 80 82 82 83 75 84 76 85 77 86 78 87 79 88 55 89
REMARK SMILES IDX 56 90 65 91 57 92 58 93 64 94 66 95 59 96 60 97 61 98 62 99
REMARK SMILES IDX 63 100
REMARK H PARENT 21 6 6 14 18 21 18 22 25 31 87 50 53 61
REMARK Flexibility Score: inf
ROOT
ATOM      1  C   UNL     1       1.314   3.389   3.276  1.00  0.00     0.042 C 
ENDROOT
BRANCH   1   2
ATOM      2  C   UNL     1       0.022   2.634   3.022  1.00  0.00     0.117 C 
BRANCH   2   3
ATOM      3  N   UNL     1      -0.773   3.216   1.956  1.00  0.00    -0.356 N 
ATOM      4  C   UNL     1      -1.255   2.667   0.810  1.00  0.00     0.225 C 
ATOM      5  O   UNL     1      -2.049   3.337   0.143  1.00  0.00    -0.275 OA
ATOM      6  H   UNL     1      -1.001   4.165   2.084  1.00  0.00     0.163 HD
BRANCH   4   7
ATOM      7  C   UNL     1      -0.858   1.271   0.344  1.00  0.00     0.100 C 
BRANCH   7   8
ATOM      8  C   UNL     1       0.683   1.103   0.206  1.00  0.00    -0.003 C 
ATOM      9  C   UNL     1       1.101  -0.292  -0.254  1.00  0.00     0.008 C 
ATOM     10  C   UNL     1       1.249   2.149  -0.774  1.00  0.00     0.008 C 
ENDBRANCH   7   8
BRANCH   7  11
ATOM     11  C   UNL     1      -1.692   0.176   1.053  1.00  0.00     0.129 C 
BRANCH  11  12
ATOM     12  N   UNL     1      -1.479  -0.004   2.476  1.00  0.00    -0.350 N 
ATOM     13  C   UNL     1      -2.310   0.091   3.552  1.00  0.00     0.278 C 
ATOM     14  H   UNL     1      -0.553  -0.240   2.711  1.00  0.00     0.163 HD
ATOM     15  O   UNL     1      -1.842  -0.357   4.609  1.00  0.00    -0.268 OA
BRANCH  13  16
ATOM     16  C   UNL     1      -3.792   0.585   3.484  1.00  0.00     0.272 C 
ATOM     17  C   UNL     1      -4.131   1.864   2.718  1.00  0.00     0.076 C 
ATOM     18  N   UNL     1      -4.394   0.609   4.852  1.00  0.00    -0.333 N 
ATOM     19  C   UNL     1      -3.871   3.144   3.497  1.00  0.00     0.016 C 
ATOM     20  C   UNL     1      -4.225   1.856   5.626  1.00  0.00     0.186 C 
ATOM     21  H   UNL     1      -3.973  -0.148   5.389  1.00  0.00     0.347 HD
ATOM     22  H   UNL     1      -5.400   0.517   4.706  1.00  0.00     0.347 HD
ATOM     23  C   UNL     1      -4.625   3.109   4.826  1.00  0.00     0.048 C 
ATOM     24  C   UNL     1      -2.829   1.975   6.253  1.00  0.00     0.065 C 
ATOM     25  C   UNL     1      -4.408   4.395   5.640  1.00  0.00     0.010 C 
ATOM     26  C   UNL     1      -2.607   3.285   6.995  1.00  0.00     0.006 C 
ATOM     27  C   UNL     1      -2.989   4.512   6.172  1.00  0.00     0.001 C 
ENDBRANCH  13  16
ENDBRANCH  11  12
ENDBRANCH   7  11
ENDBRANCH   4   7
ENDBRANCH   2   3
ENDBRANCH   1   2
BRANCH   1  28
ATOM     28  C   UNL     1       1.104   4.744   3.931  1.00  0.00     0.118 C 
BRANCH  28  29
ATOM     29  N   UNL     1       0.403   4.648   5.205  1.00  0.00    -0.352 N 
ATOM     30  C   UNL     1       0.672   5.211   6.425  1.00  0.00     0.251 C 
ATOM     31  H   UNL     1      -0.402   4.081   5.186  1.00  0.00     0.163 HD
ATOM     32  O   UNL     1      -0.034   5.004   7.399  1.00  0.00    -0.269 OA
BRANCH  30  33
ATOM     33  C   UNL     1       1.862   6.035   6.591  1.00  0.00     0.039 A 
ATOM     34  C   UNL     1       2.682   5.765   7.689  1.00  0.00     0.014 A 
ATOM     35  C   UNL     1       2.168   7.030   5.666  1.00  0.00     0.014 A 
ATOM     36  C   UNL     1       3.869   6.462   7.824  1.00  0.00     0.010 A 
ATOM     37  C   UNL     1       3.400   7.644   5.741  1.00  0.00     0.010 A 
ATOM     38  C   UNL     1       4.249   7.366   6.823  1.00  0.00    -0.014 A 
BRANCH  38  39
ATOM     39  C   UNL     1       5.546   8.052   6.888  1.00  0.00     0.031 A 
ATOM     40  C   UNL     1       5.567   9.542   7.014  1.00  0.00     0.074 A 
ATOM     41  C   UNL     1       6.665   7.319   6.746  1.00  0.00     0.049 A 
ATOM     42  N   UNL     1       6.584  10.355   6.964  1.00  0.00    -0.248 NA
ATOM     43  C   UNL     1       4.263  10.213   7.173  1.00  0.00     0.031 C 
ATOM     44  C   UNL     1       6.709   5.863   6.568  1.00  0.00     0.029 A 
ATOM     45  N   UNL     1       7.978   7.696   6.718  1.00  0.00    -0.354 N 
ATOM     46  C   UNL     1       6.045  11.630   7.061  1.00  0.00     0.074 A 
ATOM     47  C   UNL     1       4.608  11.490   7.107  1.00  0.00     0.031 C 
ATOM     48  C   UNL     1       7.988   5.469   6.475  1.00  0.00     0.029 A 
ATOM     49  C   UNL     1       8.845   6.645   6.537  1.00  0.00     0.049 A 
ATOM     50  H   UNL     1       8.275   8.629   6.817  1.00  0.00     0.167 HD
ATOM     51  C   UNL     1       6.704  12.807   7.131  1.00  0.00     0.037 A 
ATOM     52  C   UNL     1      10.185   6.647   6.422  1.00  0.00     0.037 A 
ATOM     53  C   UNL     1       8.139  12.899   7.111  1.00  0.00     0.049 A 
ATOM     54  C   UNL     1      10.894   7.969   6.516  1.00  0.00     0.074 A 
ATOM     55  C   UNL     1       8.933  14.023   7.228  1.00  0.00     0.029 A 
ATOM     56  N   UNL     1       8.994  11.813   6.964  1.00  0.00    -0.354 N 
ATOM     57  N   UNL     1      10.380   9.168   6.665  1.00  0.00    -0.248 NA
ATOM     58  C   UNL     1      12.357   7.943   6.436  1.00  0.00     0.031 C 
ATOM     59  C   UNL     1      10.267  13.622   7.104  1.00  0.00     0.029 A 
ATOM     60  C   UNL     1      10.309  12.242   6.968  1.00  0.00     0.049 A 
ATOM     61  H   UNL     1       8.706  10.876   6.870  1.00  0.00     0.167 HD
ATOM     62  C   UNL     1      11.459  10.040   6.722  1.00  0.00     0.074 A 
ATOM     63  C   UNL     1      12.653   9.224   6.607  1.00  0.00     0.031 C 
ATOM     64  C   UNL     1      11.468  11.390   6.855  1.00  0.00     0.037 A 
BRANCH  51  65
ATOM     65  C   UNL     1       5.884  14.062   7.235  1.00  0.00     0.058 A 
ATOM     66  C   UNL     1       5.118  14.355   8.376  1.00  0.00     0.135 A 
ATOM     67  C   UNL     1       5.868  14.992   6.183  1.00  0.00     0.135 A 
ATOM     68  F   UNL     1       5.074  13.491   9.403  1.00  0.00    -0.206 F 
ATOM     69  C   UNL     1       4.345  15.509   8.459  1.00  0.00     0.059 A 
ATOM     70  C   UNL     1       5.128  16.169   6.258  1.00  0.00     0.059 A 
ATOM     71  F   UNL     1       6.571  14.758   5.064  1.00  0.00    -0.206 F 
ATOM     72  C   UNL     1       4.360  16.412   7.395  1.00  0.00     0.060 A 
BRANCH  72  73
ATOM     73  S   UNL     1       3.366  17.912   7.528  1.00  0.00     0.124 S 
ATOM     74  O   UNL     1       2.014  17.379   7.398  1.00  0.00    -0.237 OA
ATOM     75  O   UNL     1       3.727  18.407   8.852  1.00  0.00    -0.237 OA
ATOM     76  O   UNL     1       3.829  18.727   6.409  1.00  0.00    -0.744 OA
ENDBRANCH  72  73
ENDBRANCH  51  65
BRANCH  52  77
ATOM     77  C   UNL     1      10.919   5.369   6.235  1.00  0.00     0.058 A 
ATOM     78  C   UNL     1      11.731   4.848   7.253  1.00  0.00     0.135 A 
ATOM     79  C   UNL     1      10.795   4.621   5.053  1.00  0.00     0.135 A 
ATOM     80  F   UNL     1      11.877   5.522   8.405  1.00  0.00    -0.206 F 
ATOM     81  C   UNL     1      12.413   3.645   7.100  1.00  0.00     0.059 A 
ATOM     82  C   UNL     1      11.445   3.402   4.886  1.00  0.00     0.059 A 
ATOM     83  F   UNL     1      10.008   5.059   4.058  1.00  0.00    -0.206 F 
ATOM     84  C   UNL     1      12.262   2.928   5.912  1.00  0.00     0.060 A 
BRANCH  84  85
ATOM     85  S   UNL     1      13.122   1.350   5.739  1.00  0.00     0.124 S 
ATOM     86  O   UNL     1      14.507   1.785   5.601  1.00  0.00    -0.237 OA
ATOM     87  O   UNL     1      12.784   0.679   6.990  1.00  0.00    -0.237 OA
ATOM     88  O   UNL     1      12.521   0.769   4.542  1.00  0.00    -0.744 OA
ENDBRANCH  84  85
ENDBRANCH  52  77
BRANCH  64  89
ATOM     89  C   UNL     1      12.812  12.056   6.918  1.00  0.00     0.058 A 
ATOM     90  C   UNL     1      13.629  12.174   5.784  1.00  0.00     0.135 A 
ATOM     91  C   UNL     1      13.259  12.632   8.118  1.00  0.00     0.135 A 
ATOM     92  F   UNL     1      13.248  11.632   4.616  1.00  0.00    -0.206 F 
ATOM     93  C   UNL     1      14.857  12.819   5.843  1.00  0.00     0.059 A 
ATOM     94  C   UNL     1      14.468  13.312   8.191  1.00  0.00     0.059 A 
ATOM     95  F   UNL     1      12.506  12.556   9.227  1.00  0.00    -0.206 F 
ATOM     96  C   UNL     1      15.266  13.389   7.051  1.00  0.00     0.060 A 
BRANCH  96  97
ATOM     97  S   UNL     1      16.846  14.257   7.103  1.00  0.00     0.124 S 
ATOM     98  O   UNL     1      17.791  13.148   7.040  1.00  0.00    -0.237 OA
ATOM     99  O   UNL     1      16.776  15.101   5.913  1.00  0.00    -0.237 OA
ATOM    100  O   UNL     1      16.799  14.972   8.375  1.00  0.00    -0.744 OA
ENDBRANCH  96  97
ENDBRANCH  64  89
ENDBRANCH  38  39
ENDBRANCH  30  33
ENDBRANCH  28  29
ENDBRANCH   1  28
TORSDOF 17
