REMARK SMILES COc1ccc(/C=C2/C(=O)N(c3ccccc3)C(=O)[NH+]=C2NCCCNC(=O)c2ccc(-c3c4nc(c(-c5c(F)cc(S(=O)(=O)[O-])cc5F)c5ccc([nH]5)c(-c5c(F)cc(S(=O)(=O)[O-])cc5F)c5nc(c(-c6c(F)cc(S(=O)(=O)[O-])cc6F)c6ccc3[nH]6)C=C5)C=C4)cc2)cc1C(=O)[O-]
REMARK SMILES IDX 25 1 24 2 23 3 22 4 7 5 8 6 9 7 21 8 10 9 11 10 20 11 18 12
REMARK SMILES IDX 19 15 6 16 3 17 4 18 96 19 5 20 95 21 2 22 1 23 97 24 98 25
REMARK SMILES IDX 99 26 12 27 13 28 17 29 14 30 16 31 15 32 26 33 27 34 28 36
REMARK SMILES IDX 29 37 30 38 94 39 31 40 93 41 32 42 33 43 34 44 87 45 35 46
REMARK SMILES IDX 92 47 86 48 88 49 36 50 91 51 85 52 84 53 37 55 71 56 50 57
REMARK SMILES IDX 70 58 51 59 54 60 69 61 89 62 52 63 53 64 68 66 90 67 55 68
REMARK SMILES IDX 38 69 39 70 48 71 40 72 41 73 47 74 49 75 42 76 43 77 44 78
REMARK SMILES IDX 45 79 46 80 72 81 73 82 82 83 74 84 75 85 81 86 83 87 76 88
REMARK SMILES IDX 77 89 78 90 79 91 80 92 56 93 57 94 66 95 58 96 59 97 65 98
REMARK SMILES IDX 67 99 60 100 61 101 62 102 63 103 64 104
REMARK H PARENT 20 13 22 14 26 35 88 54 54 65
REMARK Flexibility Score: inf
ROOT
ATOM      1  C   UNL     1      -1.390  -1.898   2.237  1.00  0.00     0.119 C 
ENDROOT
BRANCH   1   2
ATOM      2  C   UNL     1       0.278  -2.338   2.602  1.00  0.00     0.059 C 
BRANCH   2   3
ATOM      3  C   UNL     1       1.595  -2.157   4.350  1.00  0.00     0.195 C 
BRANCH   3   4
ATOM      4  N   UNL     1       1.292  -2.471   5.910  1.00  0.00    -0.305 N 
ATOM      5  C   UNL     1       1.169  -5.202   4.576  1.00  0.00     0.030 C 
ATOM      6  C   UNL     1       1.373  -5.007   5.888  1.00  0.00     0.129 C 
ATOM      7  C   UNL     1       1.758  -6.093   6.811  1.00  0.00     0.328 C 
ATOM      8  C   UNL     1       1.114  -3.691   6.530  1.00  0.00     0.236 C 
ATOM      9  O   UNL     1       2.457  -7.030   6.436  1.00  0.00    -0.249 OA
ATOM     10  N   UNL     1       1.211  -5.918   8.073  1.00  0.00    -0.155 N 
ATOM     11  N   UNL     1       0.612  -3.668   7.732  1.00  0.00    -0.209 N 
ATOM     12  C   UNL     1       0.331  -4.873   8.338  1.00  0.00     0.448 C 
ATOM     13  H   UNL     1       0.439  -2.816   8.193  1.00  0.00     0.270 HD
ATOM     14  H   UNL     1       1.227  -1.683   6.496  1.00  0.00     0.256 HD
ATOM     15  O   UNL     1      -0.648  -4.991   9.071  1.00  0.00    -0.212 OA
BRANCH   5  16
ATOM     16  C   UNL     1       0.822  -4.020   3.787  1.00  0.00    -0.024 A 
ATOM     17  C   UNL     1       1.148  -0.493   3.076  1.00  0.00     0.127 A 
ATOM     18  C   UNL     1      -0.147  -1.071   4.196  1.00  0.00     0.048 A 
ATOM     19  C   UNL     1       2.317  -1.668   2.387  1.00  0.00     0.040 A 
ATOM     20  C   UNL     1      -0.396  -2.853   4.458  1.00  0.00     0.012 A 
ATOM     21  C   UNL     1       2.127  -3.423   2.695  1.00  0.00     0.022 A 
BRANCH  17  22
ATOM     22  O   UNL     1       1.204   0.845   2.825  1.00  0.00    -0.496 OA
ATOM     23  C   UNL     1       1.139   1.098   1.418  1.00  0.00     0.278 C 
ENDBRANCH  17  22
BRANCH  19  24
ATOM     24  C   UNL     1       3.477  -1.254   1.607  1.00  0.00     0.075 C 
ATOM     25  O   UNL     1       4.619  -1.205   2.013  1.00  0.00    -0.545 OA
ATOM     26  O   UNL     1       3.122  -1.068   0.330  1.00  0.00    -0.545 OA
ENDBRANCH  19  24
ENDBRANCH   5  16
BRANCH  10  27
ATOM     27  C   UNL     1       1.393  -6.927   9.043  1.00  0.00     0.111 A 
ATOM     28  C   UNL     1       0.394  -7.864   9.316  1.00  0.00     0.044 A 
ATOM     29  C   UNL     1       2.593  -6.947   9.763  1.00  0.00     0.044 A 
ATOM     30  C   UNL     1       0.605  -8.830  10.301  1.00  0.00     0.004 A 
ATOM     31  C   UNL     1       2.790  -7.898  10.762  1.00  0.00     0.004 A 
ATOM     32  C   UNL     1       1.799  -8.843  11.025  1.00  0.00     0.000 A 
ENDBRANCH  10  27
ENDBRANCH   3   4
ENDBRANCH   2   3
ENDBRANCH   1   2
BRANCH   1  33
ATOM     33  N   UNL     1      -1.833  -0.495   2.325  1.00  0.00    -0.352 N 
ATOM     34  C   UNL     1      -2.294   0.382   1.390  1.00  0.00     0.251 C 
ATOM     35  H   UNL     1      -1.788  -0.119   3.234  1.00  0.00     0.163 HD
ATOM     36  O   UNL     1      -2.393   1.577   1.642  1.00  0.00    -0.269 OA
BRANCH  34  37
ATOM     37  C   UNL     1      -2.724  -0.141   0.100  1.00  0.00     0.039 A 
ATOM     38  C   UNL     1      -2.295   0.476  -1.076  1.00  0.00     0.014 A 
ATOM     39  C   UNL     1      -3.588  -1.237   0.094  1.00  0.00     0.014 A 
ATOM     40  C   UNL     1      -2.704  -0.053  -2.292  1.00  0.00     0.010 A 
ATOM     41  C   UNL     1      -3.948  -1.794  -1.111  1.00  0.00     0.010 A 
ATOM     42  C   UNL     1      -3.516  -1.195  -2.304  1.00  0.00    -0.014 A 
BRANCH  42  43
ATOM     43  C   UNL     1      -4.011  -1.789  -3.552  1.00  0.00     0.031 A 
ATOM     44  C   UNL     1      -5.475  -1.680  -3.844  1.00  0.00     0.074 A 
ATOM     45  C   UNL     1      -3.174  -2.546  -4.278  1.00  0.00     0.049 A 
ATOM     46  N   UNL     1      -6.188  -2.322  -4.724  1.00  0.00    -0.248 NA
ATOM     47  C   UNL     1      -6.249  -0.763  -2.986  1.00  0.00     0.031 C 
ATOM     48  C   UNL     1      -1.746  -2.730  -4.004  1.00  0.00     0.029 A 
ATOM     49  N   UNL     1      -3.412  -3.339  -5.365  1.00  0.00    -0.354 N 
ATOM     50  C   UNL     1      -7.498  -1.912  -4.509  1.00  0.00     0.074 A 
ATOM     51  C   UNL     1      -7.488  -1.001  -3.387  1.00  0.00     0.031 C 
ATOM     52  C   UNL     1      -1.237  -3.594  -4.897  1.00  0.00     0.029 A 
ATOM     53  C   UNL     1      -2.309  -4.047  -5.775  1.00  0.00     0.049 A 
ATOM     54  H   UNL     1      -4.288  -3.397  -5.811  1.00  0.00     0.167 HD
ATOM     55  C   UNL     1      -8.602  -2.264  -5.205  1.00  0.00     0.037 A 
ATOM     56  C   UNL     1      -2.198  -4.974  -6.744  1.00  0.00     0.037 A 
ATOM     57  C   UNL     1      -8.558  -3.159  -6.329  1.00  0.00     0.049 A 
ATOM     58  C   UNL     1      -3.432  -5.318  -7.532  1.00  0.00     0.074 A 
ATOM     59  C   UNL     1      -9.588  -3.562  -7.156  1.00  0.00     0.029 A 
ATOM     60  N   UNL     1      -7.404  -3.787  -6.783  1.00  0.00    -0.354 N 
ATOM     61  N   UNL     1      -4.661  -4.886  -7.361  1.00  0.00    -0.248 NA
ATOM     62  C   UNL     1      -3.272  -6.259  -8.645  1.00  0.00     0.031 C 
ATOM     63  C   UNL     1      -9.060  -4.451  -8.098  1.00  0.00     0.029 A 
ATOM     64  C   UNL     1      -7.694  -4.573  -7.881  1.00  0.00     0.049 A 
ATOM     65  H   UNL     1      -6.510  -3.685  -6.382  1.00  0.00     0.167 HD
ATOM     66  C   UNL     1      -5.415  -5.475  -8.366  1.00  0.00     0.074 A 
ATOM     67  C   UNL     1      -4.503  -6.297  -9.139  1.00  0.00     0.031 C 
ATOM     68  C   UNL     1      -6.739  -5.350  -8.632  1.00  0.00     0.037 A 
BRANCH  55  69
ATOM     69  C   UNL     1      -9.916  -1.678  -4.771  1.00  0.00     0.058 A 
ATOM     70  C   UNL     1     -10.196  -0.310  -4.924  1.00  0.00     0.135 A 
ATOM     71  C   UNL     1     -10.906  -2.485  -4.190  1.00  0.00     0.135 A 
ATOM     72  F   UNL     1      -9.277   0.513  -5.454  1.00  0.00    -0.206 F 
ATOM     73  C   UNL     1     -11.395   0.243  -4.485  1.00  0.00     0.059 A 
ATOM     74  C   UNL     1     -12.125  -1.959  -3.769  1.00  0.00     0.059 A 
ATOM     75  F   UNL     1     -10.691  -3.798  -4.012  1.00  0.00    -0.206 F 
ATOM     76  C   UNL     1     -12.352  -0.590  -3.905  1.00  0.00     0.060 A 
BRANCH  76  77
ATOM     77  S   UNL     1     -13.900   0.143  -3.335  1.00  0.00     0.124 S 
ATOM     78  O   UNL     1     -13.470   0.817  -2.114  1.00  0.00    -0.237 OA
ATOM     79  O   UNL     1     -14.261   1.018  -4.447  1.00  0.00    -0.237 OA
ATOM     80  O   UNL     1     -14.772  -1.011  -3.143  1.00  0.00    -0.744 OA
ENDBRANCH  76  77
ENDBRANCH  55  69
BRANCH  56  81
ATOM     81  C   UNL     1      -0.878  -5.588  -7.036  1.00  0.00     0.058 A 
ATOM     82  C   UNL     1      -0.166  -5.230  -8.190  1.00  0.00     0.135 A 
ATOM     83  C   UNL     1      -0.275  -6.495  -6.152  1.00  0.00     0.135 A 
ATOM     84  F   UNL     1      -0.699  -4.360  -9.062  1.00  0.00    -0.206 F 
ATOM     85  C   UNL     1       1.090  -5.758  -8.466  1.00  0.00     0.059 A 
ATOM     86  C   UNL     1       0.990  -7.023  -6.395  1.00  0.00     0.059 A 
ATOM     87  F   UNL     1      -0.902  -6.848  -5.018  1.00  0.00    -0.206 F 
ATOM     88  C   UNL     1       1.661  -6.654  -7.560  1.00  0.00     0.060 A 
BRANCH  88  89
ATOM     89  S   UNL     1       3.318  -7.288  -7.902  1.00  0.00     0.124 S 
ATOM     90  O   UNL     1       3.054  -8.229  -8.984  1.00  0.00    -0.237 OA
ATOM     91  O   UNL     1       4.041  -6.075  -8.271  1.00  0.00    -0.237 OA
ATOM     92  O   UNL     1       3.717  -7.883  -6.629  1.00  0.00    -0.744 OA
ENDBRANCH  88  89
ENDBRANCH  56  81
BRANCH  68  93
ATOM     93  C   UNL     1      -7.266  -6.073  -9.834  1.00  0.00     0.058 A 
ATOM     94  C   UNL     1      -7.528  -7.449  -9.804  1.00  0.00     0.135 A 
ATOM     95  C   UNL     1      -7.619  -5.353 -10.986  1.00  0.00     0.135 A 
ATOM     96  F   UNL     1      -7.199  -8.177  -8.725  1.00  0.00    -0.206 F 
ATOM     97  C   UNL     1      -8.128  -8.091 -10.880  1.00  0.00     0.059 A 
ATOM     98  C   UNL     1      -8.240  -5.970 -12.064  1.00  0.00     0.059 A 
ATOM     99  F   UNL     1      -7.393  -4.031 -11.053  1.00  0.00    -0.206 F 
ATOM    100  C   UNL     1      -8.491  -7.340 -12.001  1.00  0.00     0.060 A 
BRANCH 100 101
ATOM    101  S   UNL     1      -9.350  -8.168 -13.354  1.00  0.00     0.124 S 
ATOM    102  O   UNL     1      -8.260  -8.904 -13.986  1.00  0.00    -0.237 OA
ATOM    103  O   UNL     1     -10.337  -8.979 -12.646  1.00  0.00    -0.237 OA
ATOM    104  O   UNL     1      -9.899  -7.063 -14.133  1.00  0.00    -0.744 OA
ENDBRANCH 100 101
ENDBRANCH  68  93
ENDBRANCH  42  43
ENDBRANCH  34  37
ENDBRANCH   1  33
TORSDOF 16
