REMARK SMILES CC1=Nc2c(c(C)nn2-c2ccc(F)cc2)[C@H](c2ccc(C(=O)NCCCNC(=O)c3ccc(-c4c5nc(c(-c6c(F)cc(S(=O)(=O)[O-])cc6F)c6ccc([nH]6)c(-c6c(F)cc(S(=O)(=O)[O-])cc6F)c6nc(c(-c7c(F)cc(S(=O)(=O)[O-])cc7F)c7ccc4[nH]7)C=C6)C=C5)cc3)cc2)S1
REMARK SMILES IDX 26 1 25 2 24 3 22 4 23 5 21 7 18 8 19 9 98 10 20 11 97 12
REMARK SMILES IDX 17 13 1 14 2 15 3 16 99 17 4 18 5 19 9 20 6 21 8 22 7 23
REMARK SMILES IDX 10 24 11 25 16 26 12 27 15 28 13 29 14 30 27 31 28 32 29 33
REMARK SMILES IDX 30 35 31 36 32 37 96 38 33 39 95 40 34 41 35 42 36 43 89 44
REMARK SMILES IDX 37 45 94 46 88 47 90 48 38 49 93 50 87 51 86 52 39 54 73 55
REMARK SMILES IDX 52 56 72 57 53 58 56 59 71 60 91 61 54 62 55 63 70 65 92 66
REMARK SMILES IDX 57 67 40 68 41 69 50 70 42 71 43 72 49 73 51 74 44 75 45 76
REMARK SMILES IDX 46 77 47 78 48 79 74 80 75 81 84 82 76 83 77 84 83 85 85 86
REMARK SMILES IDX 78 87 79 88 80 89 81 90 82 91 58 92 59 93 68 94 60 95 61 96
REMARK SMILES IDX 67 97 69 98 62 99 63 100 64 101 65 102 66 103
REMARK H PARENT 24 6 28 34 90 53 56 64
REMARK Flexibility Score: inf
ROOT
ATOM      1  C   UNL     1       1.875  -0.130   7.205  1.00  0.00     0.042 C 
ENDROOT
BRANCH   1   2
ATOM      2  C   UNL     1       0.425   0.296   7.471  1.00  0.00     0.118 C 
BRANCH   2   3
ATOM      3  N   UNL     1       0.330   1.671   7.938  1.00  0.00    -0.352 N 
ATOM      4  C   UNL     1      -0.013   2.822   7.273  1.00  0.00     0.251 C 
ATOM      5  O   UNL     1      -0.166   3.858   7.916  1.00  0.00    -0.269 OA
ATOM      6  H   UNL     1       0.549   1.797   8.890  1.00  0.00     0.163 HD
BRANCH   4   7
ATOM      7  C   UNL     1      -0.269   2.839   5.811  1.00  0.00     0.039 A 
ATOM      8  C   UNL     1      -0.881   2.920   3.049  1.00  0.00    -0.030 A 
ATOM      9  C   UNL     1      -1.585   3.715   3.972  1.00  0.00     0.006 A 
ATOM     10  C   UNL     1       0.161   2.116   3.537  1.00  0.00     0.006 A 
ATOM     11  C   UNL     1      -1.273   3.686   5.334  1.00  0.00     0.014 A 
ATOM     12  C   UNL     1       0.469   2.090   4.897  1.00  0.00     0.014 A 
BRANCH   8  13
ATOM     13  C   UNL     1      -1.218   3.015   1.570  1.00  0.00     0.119 C 
ATOM     14  C   UNL     1       0.847  -0.141  -0.140  1.00  0.00     0.075 C 
ATOM     15  C   UNL     1       0.373   1.266   0.118  1.00  0.00     0.074 C 
ATOM     16  N   UNL     1       1.184   2.237  -0.158  1.00  0.00    -0.227 NA
ATOM     17  S   UNL     1      -1.276   1.401   0.717  1.00  0.00    -0.098 SA
ATOM     18  C   UNL     1       0.813   3.498   0.169  1.00  0.00     0.161 A 
ATOM     19  C   UNL     1      -0.212   3.928   0.980  1.00  0.00     0.038 A 
ATOM     20  N   UNL     1       1.535   4.628  -0.176  1.00  0.00    -0.215 N 
ATOM     21  C   UNL     1      -0.014   5.328   1.108  1.00  0.00     0.067 A 
ATOM     22  N   UNL     1       1.093   5.733   0.472  1.00  0.00    -0.171 NA
ATOM     23  C   UNL     1      -0.827   6.316   1.863  1.00  0.00     0.069 C 
BRANCH  20  24
ATOM     24  C   UNL     1       2.595   4.702  -1.108  1.00  0.00     0.067 A 
ATOM     25  C   UNL     1       2.511   3.978  -2.307  1.00  0.00     0.031 A 
ATOM     26  C   UNL     1       3.721   5.480  -0.819  1.00  0.00     0.031 A 
ATOM     27  C   UNL     1       3.564   4.026  -3.216  1.00  0.00     0.041 A 
ATOM     28  C   UNL     1       4.795   5.479  -1.712  1.00  0.00     0.041 A 
ATOM     29  C   UNL     1       4.703   4.759  -2.901  1.00  0.00     0.123 A 
ATOM     30  F   UNL     1       5.731   4.769  -3.760  1.00  0.00    -0.207 F 
ENDBRANCH  20  24
ENDBRANCH   8  13
ENDBRANCH   4   7
ENDBRANCH   2   3
ENDBRANCH   1   2
BRANCH   1  31
ATOM     31  C   UNL     1       2.600  -0.538   8.473  1.00  0.00     0.118 C 
BRANCH  31  32
ATOM     32  N   UNL     1       2.107  -1.806   9.021  1.00  0.00    -0.352 N 
ATOM     33  C   UNL     1       2.470  -2.444  10.200  1.00  0.00     0.251 C 
ATOM     34  H   UNL     1       1.426  -2.268   8.479  1.00  0.00     0.163 HD
ATOM     35  O   UNL     1       2.255  -3.631  10.356  1.00  0.00    -0.269 OA
BRANCH  33  36
ATOM     36  C   UNL     1       3.118  -1.640  11.253  1.00  0.00     0.039 A 
ATOM     37  C   UNL     1       4.145  -2.136  12.062  1.00  0.00     0.014 A 
ATOM     38  C   UNL     1       2.689  -0.328  11.382  1.00  0.00     0.014 A 
ATOM     39  C   UNL     1       4.774  -1.263  12.949  1.00  0.00     0.010 A 
ATOM     40  C   UNL     1       3.475   0.571  12.033  1.00  0.00     0.010 A 
ATOM     41  C   UNL     1       4.432   0.096  12.915  1.00  0.00    -0.014 A 
BRANCH  41  42
ATOM     42  C   UNL     1       5.061   1.099  13.757  1.00  0.00     0.031 A 
ATOM     43  C   UNL     1       6.519   1.272  13.535  1.00  0.00     0.074 A 
ATOM     44  C   UNL     1       4.313   1.993  14.444  1.00  0.00     0.049 A 
ATOM     45  N   UNL     1       7.483   0.956  14.333  1.00  0.00    -0.248 NA
ATOM     46  C   UNL     1       6.971   1.693  12.199  1.00  0.00     0.031 C 
ATOM     47  C   UNL     1       2.849   2.154  14.458  1.00  0.00     0.029 A 
ATOM     48  N   UNL     1       4.722   3.048  15.190  1.00  0.00    -0.354 N 
ATOM     49  C   UNL     1       8.654   1.361  13.696  1.00  0.00     0.074 A 
ATOM     50  C   UNL     1       8.296   1.583  12.320  1.00  0.00     0.031 C 
ATOM     51  C   UNL     1       2.526   3.364  14.965  1.00  0.00     0.029 A 
ATOM     52  C   UNL     1       3.732   3.983  15.477  1.00  0.00     0.049 A 
ATOM     53  H   UNL     1       5.650   3.146  15.505  1.00  0.00     0.167 HD
ATOM     54  C   UNL     1       9.761   1.717  14.408  1.00  0.00     0.037 A 
ATOM     55  C   UNL     1       3.918   5.191  16.067  1.00  0.00     0.037 A 
ATOM     56  C   UNL     1       9.613   1.349  15.796  1.00  0.00     0.049 A 
ATOM     57  C   UNL     1       5.234   5.116  16.762  1.00  0.00     0.074 A 
ATOM     58  C   UNL     1       9.435   0.156  16.468  1.00  0.00     0.029 A 
ATOM     59  N   UNL     1       9.231   2.338  16.672  1.00  0.00    -0.354 N 
ATOM     60  N   UNL     1       5.475   4.318  17.770  1.00  0.00    -0.248 NA
ATOM     61  C   UNL     1       6.409   5.559  16.026  1.00  0.00     0.031 C 
ATOM     62  C   UNL     1       8.511   0.458  17.510  1.00  0.00     0.029 A 
ATOM     63  C   UNL     1       8.237   1.827  17.467  1.00  0.00     0.049 A 
ATOM     64  H   UNL     1       9.603   3.248  16.720  1.00  0.00     0.167 HD
ATOM     65  C   UNL     1       6.758   3.834  17.548  1.00  0.00     0.074 A 
ATOM     66  C   UNL     1       7.310   4.693  16.501  1.00  0.00     0.031 C 
ATOM     67  C   UNL     1       7.145   2.608  18.012  1.00  0.00     0.037 A 
BRANCH  54  68
ATOM     68  C   UNL     1      10.815   2.708  13.966  1.00  0.00     0.058 A 
ATOM     69  C   UNL     1      10.624   3.688  12.969  1.00  0.00     0.135 A 
ATOM     70  C   UNL     1      11.972   2.872  14.761  1.00  0.00     0.135 A 
ATOM     71  F   UNL     1       9.546   3.715  12.179  1.00  0.00    -0.206 F 
ATOM     72  C   UNL     1      11.488   4.763  12.794  1.00  0.00     0.059 A 
ATOM     73  C   UNL     1      12.820   3.974  14.639  1.00  0.00     0.059 A 
ATOM     74  F   UNL     1      12.263   1.994  15.734  1.00  0.00    -0.206 F 
ATOM     75  C   UNL     1      12.560   4.922  13.659  1.00  0.00     0.060 A 
BRANCH  75  76
ATOM     76  S   UNL     1      13.521   6.439  13.536  1.00  0.00     0.124 S 
ATOM     77  O   UNL     1      14.183   6.260  12.248  1.00  0.00    -0.237 OA
ATOM     78  O   UNL     1      12.477   7.458  13.579  1.00  0.00    -0.237 OA
ATOM     79  O   UNL     1      14.390   6.382  14.706  1.00  0.00    -0.744 OA
ENDBRANCH  75  76
ENDBRANCH  54  68
BRANCH  55  80
ATOM     80  C   UNL     1       3.227   6.478  15.777  1.00  0.00     0.058 A 
ATOM     81  C   UNL     1       2.634   6.732  14.523  1.00  0.00     0.135 A 
ATOM     82  C   UNL     1       3.387   7.593  16.621  1.00  0.00     0.135 A 
ATOM     83  F   UNL     1       2.467   5.752  13.624  1.00  0.00    -0.206 F 
ATOM     84  C   UNL     1       2.279   8.016  14.108  1.00  0.00     0.059 A 
ATOM     85  C   UNL     1       3.043   8.892  16.224  1.00  0.00     0.059 A 
ATOM     86  F   UNL     1       3.950   7.445  17.830  1.00  0.00    -0.206 F 
ATOM     87  C   UNL     1       2.519   9.096  14.950  1.00  0.00     0.060 A 
BRANCH  87  88
ATOM     88  S   UNL     1       2.225  10.760  14.304  1.00  0.00     0.124 S 
ATOM     89  O   UNL     1       3.167  10.818  13.190  1.00  0.00    -0.237 OA
ATOM     90  O   UNL     1       0.814  10.699  13.934  1.00  0.00    -0.237 OA
ATOM     91  O   UNL     1       2.537  11.627  15.435  1.00  0.00    -0.744 OA
ENDBRANCH  87  88
ENDBRANCH  55  80
BRANCH  67  92
ATOM     92  C   UNL     1       6.254   1.888  18.995  1.00  0.00     0.058 A 
ATOM     93  C   UNL     1       6.805   1.521  20.231  1.00  0.00     0.135 A 
ATOM     94  C   UNL     1       4.987   1.363  18.679  1.00  0.00     0.135 A 
ATOM     95  F   UNL     1       8.034   1.945  20.570  1.00  0.00    -0.206 F 
ATOM     96  C   UNL     1       6.152   0.653  21.100  1.00  0.00     0.059 A 
ATOM     97  C   UNL     1       4.298   0.515  19.550  1.00  0.00     0.059 A 
ATOM     98  F   UNL     1       4.425   1.590  17.486  1.00  0.00    -0.206 F 
ATOM     99  C   UNL     1       4.901   0.147  20.750  1.00  0.00     0.060 A 
BRANCH  99 100
ATOM    100  S   UNL     1       4.113  -1.028  21.869  1.00  0.00     0.124 S 
ATOM    101  O   UNL     1       4.997  -2.186  21.763  1.00  0.00    -0.237 OA
ATOM    102  O   UNL     1       4.156  -0.320  23.145  1.00  0.00    -0.237 OA
ATOM    103  O   UNL     1       2.779  -1.210  21.305  1.00  0.00    -0.744 OA
ENDBRANCH  99 100
ENDBRANCH  67  92
ENDBRANCH  41  42
ENDBRANCH  33  36
ENDBRANCH  31  32
ENDBRANCH   1  31
TORSDOF 15
