REMARK SMILES Cc1cccc(NC(=O)[C@H]2CCCCC[C@@H]2[NH3+])c1C(=O)NCCCNC(=O)c1ccc(-c2c3nc(c(-c4c(F)cc(S(=O)(=O)[O-])cc4F)c4ccc([nH]4)c(-c4c(F)cc(S(=O)(=O)[O-])cc4F)c4nc(c(-c5c(F)cc(S(=O)(=O)[O-])cc5F)c5ccc2[nH]5)C=C4)C=C3)cc1
REMARK SMILES IDX 22 1 21 2 19 3 20 4 18 6 1 7 2 8 3 9 4 10 6 11 5 12 7 13
REMARK SMILES IDX 8 14 9 16 10 17 11 18 12 19 13 20 16 22 15 23 14 24 17 26
REMARK SMILES IDX 23 30 24 31 25 32 26 33 27 35 28 36 29 37 93 38 30 39 92 40
REMARK SMILES IDX 31 41 32 42 33 43 86 44 34 45 91 46 85 47 87 48 35 49 90 50
REMARK SMILES IDX 84 51 83 52 36 54 70 55 49 56 69 57 50 58 53 59 68 60 88 61
REMARK SMILES IDX 51 62 52 63 67 65 89 66 54 67 37 68 38 69 47 70 39 71 40 72
REMARK SMILES IDX 46 73 48 74 41 75 42 76 43 77 44 78 45 79 71 80 72 81 81 82
REMARK SMILES IDX 73 83 74 84 80 85 82 86 75 87 76 88 77 89 78 90 79 91 55 92
REMARK SMILES IDX 56 93 65 94 57 95 58 96 64 97 66 98 59 99 60 100 61 101
REMARK SMILES IDX 62 102 63 103
REMARK H PARENT 21 5 7 15 17 27 17 28 17 29 25 34 87 53 53 64
REMARK Flexibility Score: 90.00
ROOT
ATOM      1  C   UNL     1      -5.423   7.525   3.591  1.00  0.00     0.118 C 
ENDROOT
BRANCH   1   2
ATOM      2  N   UNL     1      -6.140   6.228   3.436  1.00  0.00    -0.352 N 
ATOM      3  C   UNL     1      -6.052   5.087   2.651  1.00  0.00     0.253 C 
ATOM      4  O   UNL     1      -6.627   4.048   2.985  1.00  0.00    -0.269 OA
ATOM      5  H   UNL     1      -6.889   6.162   4.071  1.00  0.00     0.163 HD
BRANCH   3   6
ATOM      6  C   UNL     1      -5.261   5.027   1.389  1.00  0.00     0.066 A 
ATOM      7  C   UNL     1      -6.277   7.249   0.581  1.00  0.00     0.045 C 
ATOM      8  C   UNL     1      -5.261   6.143   0.522  1.00  0.00    -0.036 A 
ATOM      9  C   UNL     1      -4.332   6.206  -0.520  1.00  0.00     0.004 A 
ATOM     10  C   UNL     1      -3.523   5.121  -0.794  1.00  0.00     0.002 A 
ATOM     11  C   UNL     1      -4.580   3.828   0.990  1.00  0.00     0.054 A 
ATOM     12  C   UNL     1      -3.683   3.937  -0.077  1.00  0.00     0.027 A 
BRANCH  11  13
ATOM     13  N   UNL     1      -4.830   2.580   1.649  1.00  0.00    -0.325 N 
ATOM     14  C   UNL     1      -4.534   1.252   1.412  1.00  0.00     0.233 C 
ATOM     15  H   UNL     1      -5.343   2.700   2.481  1.00  0.00     0.169 HD
ATOM     16  O   UNL     1      -4.824   0.436   2.296  1.00  0.00    -0.274 OA
BRANCH  14  17
ATOM     17  C   UNL     1      -3.909   0.743   0.096  1.00  0.00     0.137 C 
BRANCH  17  18
ATOM     18  C   UNL     1      -3.236  -0.650   0.169  1.00  0.00     0.020 C 
BRANCH  18  19
ATOM     19  C   UNL     1      -4.121  -1.877   0.364  1.00  0.00     0.001 C 
BRANCH  19  20
ATOM     20  C   UNL     1      -4.736  -2.464  -0.900  1.00  0.00     0.000 CG0
ATOM     21  G   UNL     1      -5.332  -1.489  -1.905  1.00  0.00     0.000 G0
ENDBRANCH  19  20
ENDBRANCH  18  19
ENDBRANCH  17  18
BRANCH  17  22
ATOM     22  C   UNL     1      -4.889   0.943  -1.081  1.00  0.00     0.193 C 
BRANCH  22  23
ATOM     23  C   UNL     1      -5.901  -0.200  -1.314  1.00  0.00     0.066 C 
BRANCH  23  24
ATOM     24  C   UNL     1      -5.332  -1.489  -1.905  1.00  0.00     0.006 CG0
ATOM     25  G   UNL     1      -4.736  -2.464  -0.900  1.00  0.00     0.000 G0
ENDBRANCH  23  24
ENDBRANCH  22  23
BRANCH  22  26
ATOM     26  N   UNL     1      -4.144   1.247  -2.321  1.00  0.00    -0.354 N 
ATOM     27  H   UNL     1      -3.571   0.444  -2.580  1.00  0.00     0.344 HD
ATOM     28  H   UNL     1      -3.544   2.057  -2.167  1.00  0.00     0.344 HD
ATOM     29  H   UNL     1      -4.803   1.450  -3.073  1.00  0.00     0.344 HD
ENDBRANCH  22  26
ENDBRANCH  17  22
ENDBRANCH  14  17
ENDBRANCH  11  13
ENDBRANCH   3   6
ENDBRANCH   1   2
BRANCH   1  30
ATOM     30  C   UNL     1      -6.275   8.910   3.504  1.00  0.00     0.042 C 
BRANCH  30  31
ATOM     31  C   UNL     1      -6.678   9.608   4.879  1.00  0.00     0.118 C 
BRANCH  31  32
ATOM     32  N   UNL     1      -7.615  10.859   5.054  1.00  0.00    -0.352 N 
ATOM     33  C   UNL     1      -8.589  11.368   6.015  1.00  0.00     0.251 C 
ATOM     34  H   UNL     1      -7.516  11.478   4.295  1.00  0.00     0.163 HD
ATOM     35  O   UNL     1      -8.254  12.462   6.508  1.00  0.00    -0.269 OA
BRANCH  33  36
ATOM     36  C   UNL     1     -10.006  10.877   6.523  1.00  0.00     0.039 A 
ATOM     37  C   UNL     1     -10.397  11.031   7.895  1.00  0.00     0.014 A 
ATOM     38  C   UNL     1     -10.960  10.197   5.778  1.00  0.00     0.014 A 
ATOM     39  C   UNL     1     -11.296  10.081   8.534  1.00  0.00     0.010 A 
ATOM     40  C   UNL     1     -11.839   9.253   6.402  1.00  0.00     0.010 A 
ATOM     41  C   UNL     1     -11.824   9.014   7.785  1.00  0.00    -0.014 A 
BRANCH  41  42
ATOM     42  C   UNL     1     -12.072   7.602   8.323  1.00  0.00     0.031 A 
ATOM     43  C   UNL     1     -13.424   7.121   8.582  1.00  0.00     0.074 A 
ATOM     44  C   UNL     1     -11.189   6.564   8.480  1.00  0.00     0.049 A 
ATOM     45  N   UNL     1     -13.807   6.531   9.669  1.00  0.00    -0.248 NA
ATOM     46  C   UNL     1     -14.418   7.173   7.527  1.00  0.00     0.031 C 
ATOM     47  C   UNL     1     -11.338   5.135   8.817  1.00  0.00     0.029 A 
ATOM     48  N   UNL     1      -9.830   6.567   8.272  1.00  0.00    -0.354 N 
ATOM     49  C   UNL     1     -14.957   5.852   9.325  1.00  0.00     0.074 A 
ATOM     50  C   UNL     1     -15.397   6.455   8.080  1.00  0.00     0.031 C 
ATOM     51  C   UNL     1     -10.133   4.613   9.155  1.00  0.00     0.029 A 
ATOM     52  C   UNL     1      -9.154   5.680   9.102  1.00  0.00     0.049 A 
ATOM     53  H   UNL     1      -9.382   7.138   7.606  1.00  0.00     0.167 HD
ATOM     54  C   UNL     1     -15.292   4.655   9.902  1.00  0.00     0.037 A 
ATOM     55  C   UNL     1      -8.308   6.182  10.062  1.00  0.00     0.037 A 
ATOM     56  C   UNL     1     -14.179   4.079  10.684  1.00  0.00     0.049 A 
ATOM     57  C   UNL     1      -8.956   6.028  11.416  1.00  0.00     0.074 A 
ATOM     58  C   UNL     1     -13.365   2.963  10.524  1.00  0.00     0.029 A 
ATOM     59  N   UNL     1     -13.559   4.827  11.672  1.00  0.00    -0.354 N 
ATOM     60  N   UNL     1      -9.955   5.222  11.629  1.00  0.00    -0.248 NA
ATOM     61  C   UNL     1      -8.622   6.813  12.603  1.00  0.00     0.031 C 
ATOM     62  C   UNL     1     -12.275   3.048  11.441  1.00  0.00     0.029 A 
ATOM     63  C   UNL     1     -12.428   4.206  12.178  1.00  0.00     0.049 A 
ATOM     64  H   UNL     1     -13.886   5.703  11.980  1.00  0.00     0.167 HD
ATOM     65  C   UNL     1     -10.501   5.469  12.850  1.00  0.00     0.074 A 
ATOM     66  C   UNL     1      -9.596   6.434  13.452  1.00  0.00     0.031 C 
ATOM     67  C   UNL     1     -11.676   4.885  13.229  1.00  0.00     0.037 A 
BRANCH  54  68
ATOM     68  C   UNL     1     -16.530   3.866   9.490  1.00  0.00     0.058 A 
ATOM     69  C   UNL     1     -16.667   2.488   9.761  1.00  0.00     0.135 A 
ATOM     70  C   UNL     1     -17.662   4.443   8.869  1.00  0.00     0.135 A 
ATOM     71  F   UNL     1     -15.762   1.821  10.488  1.00  0.00    -0.206 F 
ATOM     72  C   UNL     1     -17.768   1.733   9.343  1.00  0.00     0.059 A 
ATOM     73  C   UNL     1     -18.733   3.700   8.368  1.00  0.00     0.059 A 
ATOM     74  F   UNL     1     -17.819   5.773   8.799  1.00  0.00    -0.206 F 
ATOM     75  C   UNL     1     -18.784   2.340   8.619  1.00  0.00     0.060 A 
BRANCH  75  76
ATOM     76  S   UNL     1     -20.212   1.365   8.114  1.00  0.00     0.124 S 
ATOM     77  O   UNL     1     -19.598   0.279   7.357  1.00  0.00    -0.237 OA
ATOM     78  O   UNL     1     -20.793   0.994   9.400  1.00  0.00    -0.237 OA
ATOM     79  O   UNL     1     -21.004   2.302   7.321  1.00  0.00    -0.744 OA
ENDBRANCH  75  76
ENDBRANCH  54  68
BRANCH  55  80
ATOM     80  C   UNL     1      -7.427   7.391   9.640  1.00  0.00     0.058 A 
ATOM     81  C   UNL     1      -6.498   7.084   8.625  1.00  0.00     0.135 A 
ATOM     82  C   UNL     1      -8.179   8.514   9.350  1.00  0.00     0.135 A 
ATOM     83  F   UNL     1      -5.328   6.518   8.947  1.00  0.00    -0.206 F 
ATOM     84  C   UNL     1      -6.799   7.273   7.273  1.00  0.00     0.059 A 
ATOM     85  C   UNL     1      -8.515   8.686   8.002  1.00  0.00     0.059 A 
ATOM     86  F   UNL     1      -8.973   9.054  10.291  1.00  0.00    -0.206 F 
ATOM     87  C   UNL     1      -7.982   7.920   6.983  1.00  0.00     0.060 A 
BRANCH  87  88
ATOM     88  S   UNL     1      -9.018   7.417   5.379  1.00  0.00     0.124 S 
ATOM     89  O   UNL     1      -8.115   6.416   4.838  1.00  0.00    -0.237 OA
ATOM     90  O   UNL     1     -10.258   6.857   5.846  1.00  0.00    -0.237 OA
ATOM     91  O   UNL     1      -9.155   8.610   4.551  1.00  0.00    -0.744 OA
ENDBRANCH  87  88
ENDBRANCH  55  80
BRANCH  67  92
ATOM     92  C   UNL     1     -12.239   4.950  14.623  1.00  0.00     0.058 A 
ATOM     93  C   UNL     1     -11.423   5.002  15.765  1.00  0.00     0.135 A 
ATOM     94  C   UNL     1     -13.625   4.823  14.871  1.00  0.00     0.135 A 
ATOM     95  F   UNL     1     -10.085   4.954  15.669  1.00  0.00    -0.206 F 
ATOM     96  C   UNL     1     -11.951   5.059  17.053  1.00  0.00     0.059 A 
ATOM     97  C   UNL     1     -14.171   4.831  16.146  1.00  0.00     0.059 A 
ATOM     98  F   UNL     1     -14.523   4.685  13.887  1.00  0.00    -0.206 F 
ATOM     99  C   UNL     1     -13.329   4.990  17.231  1.00  0.00     0.060 A 
BRANCH  99 100
ATOM    100  S   UNL     1     -14.011   5.079  18.890  1.00  0.00     0.124 S 
ATOM    101  O   UNL     1     -13.130   4.187  19.637  1.00  0.00    -0.237 OA
ATOM    102  O   UNL     1     -13.870   6.501  19.184  1.00  0.00    -0.237 OA
ATOM    103  O   UNL     1     -15.381   4.604  18.724  1.00  0.00    -0.744 OA
ENDBRANCH  99 100
ENDBRANCH  67  92
ENDBRANCH  41  42
ENDBRANCH  33  36
ENDBRANCH  31  32
ENDBRANCH  30  31
ENDBRANCH   1  30
TORSDOF 16
