REMARK SMILES O=C(NCCCNC(=O)c1cccc(NC(=O)c2ccc(N3C(=O)CCC3=O)cc2)c1)c1ccc(-c2c3nc(c(-c4c(F)cc(S(=O)(=O)[O-])cc4F)c4ccc([nH]4)c(-c4c(F)cc(S(=O)(=O)[O-])cc4F)c4nc(c(-c5c(F)cc(S(=O)(=O)[O-])cc5F)c5ccc2[nH]5)C=C4)C=C3)cc1
REMARK SMILES IDX 5 1 4 2 3 3 1 4 2 5 32 7 33 8 97 9 34 10 96 11 35 12 36 13
REMARK SMILES IDX 37 14 90 15 38 16 95 17 89 18 91 19 39 20 94 21 88 22 87 23
REMARK SMILES IDX 40 25 74 26 53 27 73 28 54 29 57 30 72 31 92 32 55 33 56 34
REMARK SMILES IDX 71 36 93 37 58 38 41 39 42 40 51 41 43 42 44 43 50 44 52 45
REMARK SMILES IDX 45 46 46 47 47 48 48 49 49 50 75 51 76 52 85 53 77 54 78 55
REMARK SMILES IDX 84 56 86 57 79 58 80 59 81 60 82 61 83 62 59 63 60 64 69 65
REMARK SMILES IDX 61 66 62 67 68 68 70 69 63 70 64 71 65 72 66 73 67 74 6 75
REMARK SMILES IDX 7 76 8 77 9 79 10 80 11 81 31 82 12 83 14 84 13 85 15 86
REMARK SMILES IDX 16 87 17 89 18 90 19 91 30 92 20 93 29 94 21 95 22 96 23 97
REMARK SMILES IDX 27 98 24 99 25 100 26 101 28 102
REMARK H PARENT 3 6 91 24 57 35 7 78 15 88
REMARK Flexibility Score: inf
ROOT
ATOM      1  C   UNL     1       5.042  -0.190   2.262  1.00  0.00     0.042 C 
ENDROOT
BRANCH   1   2
ATOM      2  C   UNL     1       4.643  -0.752   0.904  1.00  0.00     0.118 C 
BRANCH   2   3
ATOM      3  N   UNL     1       3.201  -0.786   0.711  1.00  0.00    -0.352 N 
ATOM      4  O   UNL     1       1.190  -0.095  -0.018  1.00  0.00    -0.269 OA
ATOM      5  C   UNL     1       2.410  -0.061  -0.146  1.00  0.00     0.251 C 
ATOM      6  H   UNL     1       2.719  -1.427   1.282  1.00  0.00     0.163 HD
BRANCH   5   7
ATOM      7  C   UNL     1       3.026   0.773  -1.199  1.00  0.00     0.039 A 
ATOM      8  C   UNL     1       4.089   0.290  -1.967  1.00  0.00     0.014 A 
ATOM      9  C   UNL     1       2.514   2.051  -1.437  1.00  0.00     0.014 A 
ATOM     10  C   UNL     1       4.733   1.131  -2.869  1.00  0.00     0.010 A 
ATOM     11  C   UNL     1       3.104   2.861  -2.408  1.00  0.00     0.010 A 
ATOM     12  C   UNL     1       4.236   2.418  -3.112  1.00  0.00    -0.014 A 
BRANCH  12  13
ATOM     13  C   UNL     1       4.858   3.275  -4.152  1.00  0.00     0.031 A 
ATOM     14  C   UNL     1       5.489   4.588  -3.788  1.00  0.00     0.074 A 
ATOM     15  C   UNL     1       4.809   2.878  -5.438  1.00  0.00     0.049 A 
ATOM     16  N   UNL     1       5.981   5.512  -4.572  1.00  0.00    -0.248 NA
ATOM     17  C   UNL     1       5.564   4.912  -2.355  1.00  0.00     0.031 C 
ATOM     18  C   UNL     1       4.219   1.623  -5.908  1.00  0.00     0.029 A 
ATOM     19  N   UNL     1       5.242   3.492  -6.585  1.00  0.00    -0.354 N 
ATOM     20  C   UNL     1       6.400   6.539  -3.734  1.00  0.00     0.074 A 
ATOM     21  C   UNL     1       6.080   6.132  -2.381  1.00  0.00     0.031 C 
ATOM     22  C   UNL     1       4.325   1.560  -7.242  1.00  0.00     0.029 A 
ATOM     23  C   UNL     1       4.925   2.798  -7.727  1.00  0.00     0.049 A 
ATOM     24  H   UNL     1       5.731   4.347  -6.589  1.00  0.00     0.167 HD
ATOM     25  C   UNL     1       6.995   7.710  -4.068  1.00  0.00     0.037 A 
ATOM     26  C   UNL     1       5.055   3.134  -9.025  1.00  0.00     0.037 A 
ATOM     27  C   UNL     1       7.300   8.097  -5.422  1.00  0.00     0.049 A 
ATOM     28  C   UNL     1       5.676   4.453  -9.378  1.00  0.00     0.074 A 
ATOM     29  C   UNL     1       7.937   9.242  -5.867  1.00  0.00     0.029 A 
ATOM     30  N   UNL     1       6.969   7.361  -6.553  1.00  0.00    -0.354 N 
ATOM     31  N   UNL     1       6.106   5.397  -8.575  1.00  0.00    -0.248 NA
ATOM     32  C   UNL     1       5.834   4.756 -10.806  1.00  0.00     0.031 C 
ATOM     33  C   UNL     1       7.933   9.230  -7.265  1.00  0.00     0.029 A 
ATOM     34  C   UNL     1       7.360   8.042  -7.694  1.00  0.00     0.049 A 
ATOM     35  H   UNL     1       6.522   6.484  -6.545  1.00  0.00     0.167 HD
ATOM     36  C   UNL     1       6.613   6.395  -9.398  1.00  0.00     0.074 A 
ATOM     37  C   UNL     1       6.433   5.941 -10.762  1.00  0.00     0.031 C 
ATOM     38  C   UNL     1       7.185   7.574  -9.050  1.00  0.00     0.037 A 
BRANCH  25  39
ATOM     39  C   UNL     1       7.309   8.674  -2.953  1.00  0.00     0.058 A 
ATOM     40  C   UNL     1       8.283   8.399  -1.979  1.00  0.00     0.135 A 
ATOM     41  C   UNL     1       6.619   9.894  -2.856  1.00  0.00     0.135 A 
ATOM     42  F   UNL     1       8.971   7.247  -2.015  1.00  0.00    -0.206 F 
ATOM     43  C   UNL     1       8.519   9.270  -0.919  1.00  0.00     0.059 A 
ATOM     44  C   UNL     1       6.863  10.796  -1.824  1.00  0.00     0.059 A 
ATOM     45  F   UNL     1       5.684  10.217  -3.764  1.00  0.00    -0.206 F 
ATOM     46  C   UNL     1       7.795  10.461  -0.844  1.00  0.00     0.060 A 
BRANCH  46  47
ATOM     47  S   UNL     1       8.071  11.552   0.568  1.00  0.00     0.124 S 
ATOM     48  O   UNL     1       7.430  10.800   1.643  1.00  0.00    -0.237 OA
ATOM     49  O   UNL     1       9.527  11.624   0.627  1.00  0.00    -0.237 OA
ATOM     50  O   UNL     1       7.399  12.788   0.181  1.00  0.00    -0.744 OA
ENDBRANCH  46  47
ENDBRANCH  25  39
BRANCH  26  51
ATOM     51  C   UNL     1       4.559   2.193 -10.062  1.00  0.00     0.058 A 
ATOM     52  C   UNL     1       5.447   1.448 -10.849  1.00  0.00     0.135 A 
ATOM     53  C   UNL     1       3.184   1.948 -10.215  1.00  0.00     0.135 A 
ATOM     54  F   UNL     1       6.770   1.649 -10.742  1.00  0.00    -0.206 F 
ATOM     55  C   UNL     1       4.992   0.485 -11.743  1.00  0.00     0.059 A 
ATOM     56  C   UNL     1       2.706   0.972 -11.082  1.00  0.00     0.059 A 
ATOM     57  F   UNL     1       2.295   2.622  -9.468  1.00  0.00    -0.206 F 
ATOM     58  C   UNL     1       3.620   0.244 -11.842  1.00  0.00     0.060 A 
BRANCH  58  59
ATOM     59  S   UNL     1       3.050  -1.080 -12.929  1.00  0.00     0.124 S 
ATOM     60  O   UNL     1       3.308  -0.510 -14.247  1.00  0.00    -0.237 OA
ATOM     61  O   UNL     1       3.912  -2.190 -12.534  1.00  0.00    -0.237 OA
ATOM     62  O   UNL     1       1.643  -1.230 -12.570  1.00  0.00    -0.744 OA
ENDBRANCH  58  59
ENDBRANCH  26  51
BRANCH  38  63
ATOM     63  C   UNL     1       7.713   8.452 -10.151  1.00  0.00     0.058 A 
ATOM     64  C   UNL     1       6.863   9.198 -10.980  1.00  0.00     0.135 A 
ATOM     65  C   UNL     1       9.099   8.631 -10.299  1.00  0.00     0.135 A 
ATOM     66  F   UNL     1       5.531   9.054 -10.889  1.00  0.00    -0.206 F 
ATOM     67  C   UNL     1       7.368  10.099 -11.912  1.00  0.00     0.059 A 
ATOM     68  C   UNL     1       9.625   9.546 -11.205  1.00  0.00     0.059 A 
ATOM     69  F   UNL     1       9.955   7.942  -9.528  1.00  0.00    -0.206 F 
ATOM     70  C   UNL     1       8.751  10.277 -12.007  1.00  0.00     0.060 A 
BRANCH  70  71
ATOM     71  S   UNL     1       9.388  11.518 -13.153  1.00  0.00     0.124 S 
ATOM     72  O   UNL     1       9.131  10.887 -14.444  1.00  0.00    -0.237 OA
ATOM     73  O   UNL     1       8.565  12.682 -12.840  1.00  0.00    -0.237 OA
ATOM     74  O   UNL     1      10.795  11.634 -12.781  1.00  0.00    -0.744 OA
ENDBRANCH  70  71
ENDBRANCH  38  63
ENDBRANCH  12  13
ENDBRANCH   5   7
ENDBRANCH   2   3
ENDBRANCH   1   2
BRANCH   1  75
ATOM     75  C   UNL     1       4.519  -0.987   3.448  1.00  0.00     0.118 C 
BRANCH  75  76
ATOM     76  N   UNL     1       4.930  -2.381   3.395  1.00  0.00    -0.352 N 
ATOM     77  C   UNL     1       5.745  -3.106   4.221  1.00  0.00     0.251 C 
ATOM     78  H   UNL     1       4.560  -2.889   2.637  1.00  0.00     0.163 HD
ATOM     79  O   UNL     1       6.156  -4.201   3.845  1.00  0.00    -0.269 OA
BRANCH  77  80
ATOM     80  C   UNL     1       6.123  -2.614   5.561  1.00  0.00     0.041 A 
ATOM     81  C   UNL     1       7.401  -2.923   6.032  1.00  0.00     0.014 A 
ATOM     82  C   UNL     1       5.207  -1.958   6.395  1.00  0.00     0.040 A 
ATOM     83  C   UNL     1       7.744  -2.599   7.337  1.00  0.00     0.003 A 
ATOM     84  C   UNL     1       5.574  -1.547   7.680  1.00  0.00     0.042 A 
ATOM     85  C   UNL     1       6.826  -1.939   8.158  1.00  0.00     0.026 A 
BRANCH  84  86
ATOM     86  N   UNL     1       4.629  -0.769   8.383  1.00  0.00    -0.322 N 
ATOM     87  C   UNL     1       4.674  -0.061   9.563  1.00  0.00     0.255 C 
ATOM     88  H   UNL     1       3.753  -0.725   7.936  1.00  0.00     0.170 HD
ATOM     89  O   UNL     1       3.659   0.472  10.006  1.00  0.00    -0.269 OA
BRANCH  87  90
ATOM     90  C   UNL     1       5.917   0.060  10.332  1.00  0.00     0.040 A 
ATOM     91  C   UNL     1       6.001  -0.628  11.539  1.00  0.00     0.016 A 
ATOM     92  C   UNL     1       7.017   0.760   9.832  1.00  0.00     0.016 A 
ATOM     93  C   UNL     1       7.234  -0.727  12.184  1.00  0.00     0.027 A 
ATOM     94  C   UNL     1       8.247   0.669  10.497  1.00  0.00     0.027 A 
ATOM     95  C   UNL     1       8.386  -0.119  11.654  1.00  0.00     0.052 A 
BRANCH  95  96
ATOM     96  N   UNL     1       9.657  -0.343  12.254  1.00  0.00    -0.251 N 
ATOM     97  C   UNL     1      10.726   0.516  12.166  1.00  0.00     0.234 C 
ATOM     98  C   UNL     1       9.981  -1.488  12.947  1.00  0.00     0.234 C 
ATOM     99  O   UNL     1      10.799   1.602  11.603  1.00  0.00    -0.274 OA
ATOM    100  C   UNL     1      11.865  -0.036  12.968  1.00  0.00     0.111 C 
ATOM    101  C   UNL     1      11.409  -1.410  13.390  1.00  0.00     0.111 C 
ATOM    102  O   UNL     1       9.303  -2.488  13.145  1.00  0.00    -0.274 OA
ENDBRANCH  95  96
ENDBRANCH  87  90
ENDBRANCH  84  86
ENDBRANCH  77  80
ENDBRANCH  75  76
ENDBRANCH   1  75
TORSDOF 16
