REMARK SMILES COc1ccc(-n2ccnc2C[N@@H+]2CCn3nc(C(=O)NCCCNC(=O)c4ccc(-c5c6nc(c(-c7c(F)cc(S(=O)(=O)[O-])cc7F)c7ccc([nH]7)c(-c7c(F)cc(S(=O)(=O)[O-])cc7F)c7nc(c(-c8c(F)cc(S(=O)(=O)[O-])cc8F)c8ccc5[nH]8)C=C7)C=C6)cc4)cc3C2)cc1
REMARK SMILES IDX 22 1 21 2 19 3 20 4 18 6 13 7 14 8 96 9 15 11 95 12 16 13
REMARK SMILES IDX 94 14 17 15 12 16 11 17 7 18 8 19 9 20 10 21 6 22 3 23 4 24
REMARK SMILES IDX 98 25 5 26 97 27 2 28 1 29 23 30 24 31 25 32 26 33 27 35
REMARK SMILES IDX 28 36 29 37 93 38 30 39 92 40 31 41 32 42 33 43 86 44 34 45
REMARK SMILES IDX 91 46 85 47 87 48 35 49 90 50 84 51 83 52 36 54 70 55 49 56
REMARK SMILES IDX 69 57 50 58 53 59 68 60 88 61 51 62 52 63 67 65 89 66 54 67
REMARK SMILES IDX 37 68 38 69 47 70 39 71 40 72 46 73 48 74 41 75 42 76 43 77
REMARK SMILES IDX 44 78 45 79 71 80 72 81 81 82 73 83 74 84 80 85 82 86 75 87
REMARK SMILES IDX 76 88 77 89 78 90 79 91 55 92 56 93 65 94 57 95 58 96 64 97
REMARK SMILES IDX 66 98 59 99 60 100 61 101 62 102 63 103
REMARK H PARENT 21 5 13 10 25 34 87 53 53 64
REMARK Flexibility Score: inf
ROOT
ATOM      1  C   UNL     1      -1.669   4.649  -1.792  1.00  0.00     0.118 C 
ENDROOT
BRANCH   1   2
ATOM      2  N   UNL     1      -1.561   3.268  -1.327  1.00  0.00    -0.351 N 
ATOM      3  C   UNL     1      -1.350   2.690  -0.085  1.00  0.00     0.271 C 
ATOM      4  O   UNL     1      -1.425   1.460  -0.040  1.00  0.00    -0.267 OA
ATOM      5  H   UNL     1      -1.660   2.607  -2.050  1.00  0.00     0.163 HD
BRANCH   3   6
ATOM      6  C   UNL     1      -0.973   3.488   1.100  1.00  0.00     0.150 A 
ATOM      7  N   UNL     1       0.949   6.753   3.259  1.00  0.00    -0.322 N 
ATOM      8  C   UNL     1       1.902   5.688   3.648  1.00  0.00     0.286 C 
ATOM      9  C   UNL     1      -0.445   6.292   3.467  1.00  0.00     0.319 C 
ATOM     10  H   UNL     1       1.213   7.526   3.869  1.00  0.00     0.348 HD
ATOM     11  C   UNL     1       1.469   4.207   3.509  1.00  0.00     0.206 C 
ATOM     12  C   UNL     1      -0.669   5.076   2.642  1.00  0.00     0.094 A 
ATOM     13  N   UNL     1       0.254   4.082   2.731  1.00  0.00    -0.257 N 
ATOM     14  C   UNL     1      -1.499   4.717   1.601  1.00  0.00     0.065 A 
ATOM     15  N   UNL     1       0.034   3.064   1.899  1.00  0.00    -0.167 NA
BRANCH   7  16
ATOM     16  C   UNL     1       1.054   7.298   1.882  1.00  0.00     0.339 C 
BRANCH  16  17
ATOM     17  C   UNL     1       2.396   7.608   1.288  1.00  0.00     0.168 A 
ATOM     18  N   UNL     1       3.238   6.689   0.664  1.00  0.00    -0.299 N 
ATOM     19  C   UNL     1       4.291   7.410   0.147  1.00  0.00     0.113 A 
ATOM     20  C   UNL     1       4.029   8.723   0.435  1.00  0.00     0.132 A 
ATOM     21  N   UNL     1       2.884   8.835   1.171  1.00  0.00    -0.236 NA
BRANCH  18  22
ATOM     22  C   UNL     1       3.055   5.313   0.400  1.00  0.00     0.047 A 
ATOM     23  C   UNL     1       2.830   2.652  -0.406  1.00  0.00     0.119 A 
ATOM     24  C   UNL     1       1.853   3.575  -0.748  1.00  0.00     0.048 A 
ATOM     25  C   UNL     1       3.944   3.056   0.317  1.00  0.00     0.048 A 
ATOM     26  C   UNL     1       1.934   4.898  -0.307  1.00  0.00     0.030 A 
ATOM     27  C   UNL     1       4.076   4.398   0.695  1.00  0.00     0.030 A 
BRANCH  23  28
ATOM     28  O   UNL     1       2.743   1.387  -0.910  1.00  0.00    -0.497 OA
ATOM     29  C   UNL     1       2.045   0.507  -0.026  1.00  0.00     0.278 C 
ENDBRANCH  23  28
ENDBRANCH  18  22
ENDBRANCH  16  17
ENDBRANCH   7  16
ENDBRANCH   3   6
ENDBRANCH   1   2
BRANCH   1  30
ATOM     30  C   UNL     1      -0.642   5.119  -2.840  1.00  0.00     0.042 C 
BRANCH  30  31
ATOM     31  C   UNL     1      -0.601   4.314  -4.122  1.00  0.00     0.118 C 
BRANCH  31  32
ATOM     32  N   UNL     1      -1.617   4.688  -5.094  1.00  0.00    -0.352 N 
ATOM     33  C   UNL     1      -1.661   4.434  -6.458  1.00  0.00     0.251 C 
ATOM     34  H   UNL     1      -2.382   5.193  -4.734  1.00  0.00     0.163 HD
ATOM     35  O   UNL     1      -2.456   5.049  -7.150  1.00  0.00    -0.269 OA
BRANCH  33  36
ATOM     36  C   UNL     1      -0.746   3.435  -7.071  1.00  0.00     0.039 A 
ATOM     37  C   UNL     1      -0.432   3.486  -8.436  1.00  0.00     0.014 A 
ATOM     38  C   UNL     1      -0.217   2.410  -6.295  1.00  0.00     0.014 A 
ATOM     39  C   UNL     1       0.416   2.517  -8.979  1.00  0.00     0.010 A 
ATOM     40  C   UNL     1       0.757   1.581  -6.778  1.00  0.00     0.010 A 
ATOM     41  C   UNL     1       1.000   1.560  -8.137  1.00  0.00    -0.014 A 
BRANCH  41  42
ATOM     42  C   UNL     1       1.950   0.567  -8.622  1.00  0.00     0.031 A 
ATOM     43  C   UNL     1       3.148   1.169  -9.250  1.00  0.00     0.074 A 
ATOM     44  C   UNL     1       1.891  -0.744  -8.289  1.00  0.00     0.049 A 
ATOM     45  N   UNL     1       3.430   1.236 -10.508  1.00  0.00    -0.248 NA
ATOM     46  C   UNL     1       4.051   1.962  -8.396  1.00  0.00     0.031 C 
ATOM     47  C   UNL     1       0.969  -1.386  -7.337  1.00  0.00     0.029 A 
ATOM     48  N   UNL     1       2.716  -1.773  -8.635  1.00  0.00    -0.354 N 
ATOM     49  C   UNL     1       4.699   1.804 -10.562  1.00  0.00     0.074 A 
ATOM     50  C   UNL     1       4.895   2.465  -9.301  1.00  0.00     0.031 C 
ATOM     51  C   UNL     1       1.435  -2.609  -7.003  1.00  0.00     0.029 A 
ATOM     52  C   UNL     1       2.560  -2.921  -7.862  1.00  0.00     0.049 A 
ATOM     53  H   UNL     1       3.368  -1.710  -9.370  1.00  0.00     0.167 HD
ATOM     54  C   UNL     1       5.603   1.376 -11.487  1.00  0.00     0.037 A 
ATOM     55  C   UNL     1       3.294  -4.059  -7.925  1.00  0.00     0.037 A 
ATOM     56  C   UNL     1       4.962   0.526 -12.459  1.00  0.00     0.049 A 
ATOM     57  C   UNL     1       3.922  -4.098  -9.267  1.00  0.00     0.074 A 
ATOM     58  C   UNL     1       4.136   0.689 -13.548  1.00  0.00     0.029 A 
ATOM     59  N   UNL     1       4.871  -0.785 -12.067  1.00  0.00    -0.354 N 
ATOM     60  N   UNL     1       3.241  -4.181 -10.378  1.00  0.00    -0.248 NA
ATOM     61  C   UNL     1       5.313  -3.684  -9.416  1.00  0.00     0.031 C 
ATOM     62  C   UNL     1       3.437  -0.544 -13.710  1.00  0.00     0.029 A 
ATOM     63  C   UNL     1       3.880  -1.444 -12.745  1.00  0.00     0.049 A 
ATOM     64  H   UNL     1       5.446  -1.200 -11.384  1.00  0.00     0.167 HD
ATOM     65  C   UNL     1       3.972  -3.436 -11.281  1.00  0.00     0.074 A 
ATOM     66  C   UNL     1       5.300  -3.307 -10.697  1.00  0.00     0.031 C 
ATOM     67  C   UNL     1       3.355  -2.699 -12.247  1.00  0.00     0.037 A 
BRANCH  54  68
ATOM     68  C   UNL     1       7.103   1.296 -11.278  1.00  0.00     0.058 A 
ATOM     69  C   UNL     1       7.926   0.971 -12.379  1.00  0.00     0.135 A 
ATOM     70  C   UNL     1       7.736   1.241 -10.017  1.00  0.00     0.135 A 
ATOM     71  F   UNL     1       7.432   0.979 -13.627  1.00  0.00    -0.206 F 
ATOM     72  C   UNL     1       9.255   0.569 -12.230  1.00  0.00     0.059 A 
ATOM     73  C   UNL     1       9.073   0.896  -9.851  1.00  0.00     0.059 A 
ATOM     74  F   UNL     1       7.072   1.423  -8.870  1.00  0.00    -0.206 F 
ATOM     75  C   UNL     1       9.817   0.526 -10.959  1.00  0.00     0.060 A 
BRANCH  75  76
ATOM     76  S   UNL     1      11.508  -0.057 -10.752  1.00  0.00     0.124 S 
ATOM     77  O   UNL     1      11.370  -1.474 -11.066  1.00  0.00    -0.237 OA
ATOM     78  O   UNL     1      12.228   0.751 -11.731  1.00  0.00    -0.237 OA
ATOM     79  O   UNL     1      11.801   0.256  -9.356  1.00  0.00    -0.744 OA
ENDBRANCH  75  76
ENDBRANCH  54  68
BRANCH  55  80
ATOM     80  C   UNL     1       3.686  -4.991  -6.838  1.00  0.00     0.058 A 
ATOM     81  C   UNL     1       4.168  -6.280  -7.124  1.00  0.00     0.135 A 
ATOM     82  C   UNL     1       3.887  -4.527  -5.523  1.00  0.00     0.135 A 
ATOM     83  F   UNL     1       4.022  -6.796  -8.354  1.00  0.00    -0.206 F 
ATOM     84  C   UNL     1       4.873  -7.039  -6.185  1.00  0.00     0.059 A 
ATOM     85  C   UNL     1       4.584  -5.267  -4.567  1.00  0.00     0.059 A 
ATOM     86  F   UNL     1       3.494  -3.296  -5.162  1.00  0.00    -0.206 F 
ATOM     87  C   UNL     1       5.101  -6.510  -4.915  1.00  0.00     0.060 A 
BRANCH  87  88
ATOM     88  S   UNL     1       6.186  -7.400  -3.771  1.00  0.00     0.124 S 
ATOM     89  O   UNL     1       5.372  -8.560  -3.424  1.00  0.00    -0.237 OA
ATOM     90  O   UNL     1       7.356  -7.668  -4.600  1.00  0.00    -0.237 OA
ATOM     91  O   UNL     1       6.398  -6.440  -2.690  1.00  0.00    -0.744 OA
ENDBRANCH  87  88
ENDBRANCH  55  80
BRANCH  67  92
ATOM     92  C   UNL     1       2.006  -3.148 -12.725  1.00  0.00     0.058 A 
ATOM     93  C   UNL     1       0.817  -3.089 -11.981  1.00  0.00     0.135 A 
ATOM     94  C   UNL     1       1.914  -3.581 -14.056  1.00  0.00     0.135 A 
ATOM     95  F   UNL     1       0.812  -2.625 -10.723  1.00  0.00    -0.206 F 
ATOM     96  C   UNL     1      -0.410  -3.464 -12.536  1.00  0.00     0.059 A 
ATOM     97  C   UNL     1       0.702  -3.932 -14.638  1.00  0.00     0.059 A 
ATOM     98  F   UNL     1       3.014  -3.623 -14.827  1.00  0.00    -0.206 F 
ATOM     99  C   UNL     1      -0.457  -3.880 -13.869  1.00  0.00     0.060 A 
BRANCH  99 100
ATOM    100  S   UNL     1      -2.049  -4.290 -14.616  1.00  0.00     0.124 S 
ATOM    101  O   UNL     1      -2.384  -5.547 -13.957  1.00  0.00    -0.237 OA
ATOM    102  O   UNL     1      -2.875  -3.142 -14.251  1.00  0.00    -0.237 OA
ATOM    103  O   UNL     1      -1.741  -4.395 -16.040  1.00  0.00    -0.744 OA
ENDBRANCH  99 100
ENDBRANCH  67  92
ENDBRANCH  41  42
ENDBRANCH  33  36
ENDBRANCH  31  32
ENDBRANCH  30  31
ENDBRANCH   1  30
TORSDOF 17
