REMARK SMILES C[C@H]1CCc2sc3ncn4nc(/C=C\C(=O)NCCCNC(=O)c5ccc(-c6c7nc(c(-c8c(F)cc(S(=O)(=O)[O-])cc8F)c8ccc([nH]8)c(-c8c(F)cc(S(=O)(=O)[O-])cc8F)c8nc(c(-c9c(F)cc(S(=O)(=O)[O-])cc9F)c9ccc6[nH]9)C=C8)C=C7)cc5)nc4c3c2C1
REMARK SMILES IDX 20 1 19 2 18 3 17 4 15 5 16 6 14 8 13 9 12 10 1 11 2 12 3 13
REMARK SMILES IDX 94 14 4 15 93 16 5 17 92 18 6 19 7 20 91 21 8 22 10 23 90 24
REMARK SMILES IDX 9 25 11 26 21 27 22 28 23 30 24 31 25 32 89 33 26 34 88 35
REMARK SMILES IDX 27 36 28 37 29 38 82 39 30 40 87 41 81 42 83 43 31 44 86 45
REMARK SMILES IDX 80 46 79 47 32 49 66 50 45 51 65 52 46 53 49 54 64 55 84 56
REMARK SMILES IDX 47 57 48 58 63 60 85 61 50 62 33 63 34 64 43 65 35 66 36 67
REMARK SMILES IDX 42 68 44 69 37 70 38 71 39 72 40 73 41 74 67 75 68 76 77 77
REMARK SMILES IDX 69 78 70 79 76 80 78 81 71 82 72 83 73 84 74 85 75 86 51 87
REMARK SMILES IDX 52 88 61 89 53 90 54 91 60 92 62 93 55 94 56 95 57 96 58 97
REMARK SMILES IDX 59 98
REMARK H PARENT 17 7 21 29 83 48 49 59
REMARK Flexibility Score: inf
ROOT
ATOM      1  C   UNL     1      -2.182  -4.967  -0.358  1.00  0.00     0.118 C 
ENDROOT
BRANCH   1   2
ATOM      2  C   UNL     1      -1.021  -5.548   0.455  1.00  0.00     0.042 C 
BRANCH   2   3
ATOM      3  C   UNL     1       0.335  -5.002   0.041  1.00  0.00     0.118 C 
BRANCH   3   4
ATOM      4  N   UNL     1       1.243  -4.631   1.106  1.00  0.00    -0.352 N 
ATOM      5  C   UNL     1       2.511  -5.044   1.371  1.00  0.00     0.244 C 
ATOM      6  O   UNL     1       3.184  -4.433   2.202  1.00  0.00    -0.270 OA
ATOM      7  H   UNL     1       0.883  -3.972   1.743  1.00  0.00     0.163 HD
BRANCH   5   8
ATOM      8  C   UNL     1       3.053  -6.320   0.850  1.00  0.00     0.075 C 
ATOM      9  C   UNL     1       3.211  -6.792  -0.397  1.00  0.00     0.057 C 
BRANCH   9  10
ATOM     10  C   UNL     1       2.832  -6.214  -1.641  1.00  0.00     0.175 A 
ATOM     11  C   UNL     1       2.527   0.626  -2.509  1.00  0.00     0.008 C 
ATOM     12  C   UNL     1       1.336  -0.080  -1.870  1.00  0.00    -0.009 C 
ATOM     13  C   UNL     1       0.031   0.366  -2.555  1.00  0.00     0.009 C 
ATOM     14  C   UNL     1       1.525  -1.615  -1.855  1.00  0.00     0.041 C 
ATOM     15  C   UNL     1      -0.217  -0.228  -3.948  1.00  0.00     0.047 C 
ATOM     16  C   UNL     1       1.093  -2.277  -3.128  1.00  0.00    -0.020 A 
ATOM     17  C   UNL     1       0.291  -1.633  -4.053  1.00  0.00     0.011 A 
ATOM     18  C   UNL     1       1.310  -3.618  -3.538  1.00  0.00     0.060 A 
ATOM     19  S   UNL     1      -0.098  -2.608  -5.402  1.00  0.00    -0.120 S 
ATOM     20  C   UNL     1       0.658  -3.977  -4.712  1.00  0.00     0.129 A 
ATOM     21  C   UNL     1       2.007  -4.746  -2.890  1.00  0.00     0.168 A 
ATOM     22  N   UNL     1       0.554  -5.228  -5.278  1.00  0.00    -0.225 NA
ATOM     23  N   UNL     1       1.849  -5.978  -3.453  1.00  0.00    -0.201 N 
ATOM     24  N   UNL     1       2.674  -4.849  -1.767  1.00  0.00    -0.207 NA
ATOM     25  C   UNL     1       1.113  -6.205  -4.613  1.00  0.00     0.227 A 
ATOM     26  N   UNL     1       2.395  -6.940  -2.687  1.00  0.00    -0.145 NA
ENDBRANCH   9  10
ENDBRANCH   5   8
ENDBRANCH   3   4
ENDBRANCH   2   3
ENDBRANCH   1   2
BRANCH   1  27
ATOM     27  N   UNL     1      -1.946  -4.911  -1.804  1.00  0.00    -0.352 N 
ATOM     28  C   UNL     1      -2.405  -3.983  -2.723  1.00  0.00     0.251 C 
ATOM     29  H   UNL     1      -1.385  -5.632  -2.171  1.00  0.00     0.163 HD
ATOM     30  O   UNL     1      -2.569  -4.335  -3.887  1.00  0.00    -0.269 OA
BRANCH  28  31
ATOM     31  C   UNL     1      -2.728  -2.600  -2.304  1.00  0.00     0.039 A 
ATOM     32  C   UNL     1      -3.702  -1.864  -2.984  1.00  0.00     0.014 A 
ATOM     33  C   UNL     1      -2.095  -2.047  -1.192  1.00  0.00     0.014 A 
ATOM     34  C   UNL     1      -4.145  -0.661  -2.438  1.00  0.00     0.010 A 
ATOM     35  C   UNL     1      -2.603  -0.919  -0.584  1.00  0.00     0.010 A 
ATOM     36  C   UNL     1      -3.651  -0.239  -1.189  1.00  0.00    -0.014 A 
BRANCH  36  37
ATOM     37  C   UNL     1      -4.498   0.600  -0.341  1.00  0.00     0.031 A 
ATOM     38  C   UNL     1      -5.859   0.002  -0.193  1.00  0.00     0.074 A 
ATOM     39  C   UNL     1      -4.088   1.566   0.504  1.00  0.00     0.049 A 
ATOM     40  N   UNL     1      -6.963   0.399  -0.731  1.00  0.00    -0.248 NA
ATOM     41  C   UNL     1      -5.948  -1.337   0.424  1.00  0.00     0.031 C 
ATOM     42  C   UNL     1      -2.720   1.997   0.798  1.00  0.00     0.029 A 
ATOM     43  N   UNL     1      -4.831   2.295   1.384  1.00  0.00    -0.354 N 
ATOM     44  C   UNL     1      -7.929  -0.511  -0.307  1.00  0.00     0.074 A 
ATOM     45  C   UNL     1      -7.212  -1.667   0.155  1.00  0.00     0.031 C 
ATOM     46  C   UNL     1      -2.718   2.746   1.926  1.00  0.00     0.029 A 
ATOM     47  C   UNL     1      -4.091   2.978   2.342  1.00  0.00     0.049 A 
ATOM     48  H   UNL     1      -5.814   2.334   1.344  1.00  0.00     0.167 HD
ATOM     49  C   UNL     1      -9.216  -0.123  -0.093  1.00  0.00     0.037 A 
ATOM     50  C   UNL     1      -4.584   3.654   3.411  1.00  0.00     0.037 A 
ATOM     51  C   UNL     1      -9.447   1.188  -0.649  1.00  0.00     0.049 A 
ATOM     52  C   UNL     1      -6.009   3.952   3.108  1.00  0.00     0.074 A 
ATOM     53  C   UNL     1      -9.412   1.743  -1.911  1.00  0.00     0.029 A 
ATOM     54  N   UNL     1      -9.362   2.230   0.243  1.00  0.00    -0.354 N 
ATOM     55  N   UNL     1      -6.402   4.732   2.137  1.00  0.00    -0.248 NA
ATOM     56  C   UNL     1      -7.037   3.080   3.656  1.00  0.00     0.031 C 
ATOM     57  C   UNL     1      -8.920   3.069  -1.726  1.00  0.00     0.029 A 
ATOM     58  C   UNL     1      -8.733   3.287  -0.359  1.00  0.00     0.049 A 
ATOM     59  H   UNL     1      -9.699   2.218   1.168  1.00  0.00     0.167 HD
ATOM     60  C   UNL     1      -7.575   4.158   1.675  1.00  0.00     0.074 A 
ATOM     61  C   UNL     1      -7.990   3.247   2.735  1.00  0.00     0.031 C 
ATOM     62  C   UNL     1      -7.932   4.260   0.361  1.00  0.00     0.037 A 
BRANCH  49  63
ATOM     63  C   UNL     1     -10.122  -0.695   0.981  1.00  0.00     0.058 A 
ATOM     64  C   UNL     1     -11.468  -0.270   1.034  1.00  0.00     0.135 A 
ATOM     65  C   UNL     1      -9.671  -1.404   2.117  1.00  0.00     0.135 A 
ATOM     66  F   UNL     1     -12.008   0.418   0.016  1.00  0.00    -0.206 F 
ATOM     67  C   UNL     1     -12.272  -0.463   2.159  1.00  0.00     0.059 A 
ATOM     68  C   UNL     1     -10.473  -1.657   3.224  1.00  0.00     0.059 A 
ATOM     69  F   UNL     1      -8.404  -1.804   2.267  1.00  0.00    -0.206 F 
ATOM     70  C   UNL     1     -11.758  -1.147   3.256  1.00  0.00     0.060 A 
BRANCH  70  71
ATOM     71  S   UNL     1     -12.752  -1.314   4.746  1.00  0.00     0.124 S 
ATOM     72  O   UNL     1     -12.803   0.064   5.217  1.00  0.00    -0.237 OA
ATOM     73  O   UNL     1     -13.996  -1.861   4.219  1.00  0.00    -0.237 OA
ATOM     74  O   UNL     1     -11.968  -2.235   5.569  1.00  0.00    -0.744 OA
ENDBRANCH  70  71
ENDBRANCH  49  63
BRANCH  50  75
ATOM     75  C   UNL     1      -4.013   3.822   4.776  1.00  0.00     0.058 A 
ATOM     76  C   UNL     1      -4.572   4.739   5.687  1.00  0.00     0.135 A 
ATOM     77  C   UNL     1      -3.109   2.887   5.317  1.00  0.00     0.135 A 
ATOM     78  F   UNL     1      -5.449   5.662   5.263  1.00  0.00    -0.206 F 
ATOM     79  C   UNL     1      -4.312   4.684   7.060  1.00  0.00     0.059 A 
ATOM     80  C   UNL     1      -2.824   2.820   6.682  1.00  0.00     0.059 A 
ATOM     81  F   UNL     1      -2.546   1.944   4.547  1.00  0.00    -0.206 F 
ATOM     82  C   UNL     1      -3.457   3.700   7.553  1.00  0.00     0.060 A 
BRANCH  82  83
ATOM     83  S   UNL     1      -3.276   3.499   9.342  1.00  0.00     0.124 S 
ATOM     84  O   UNL     1      -2.586   4.728   9.717  1.00  0.00    -0.237 OA
ATOM     85  O   UNL     1      -4.664   3.389   9.779  1.00  0.00    -0.237 OA
ATOM     86  O   UNL     1      -2.487   2.277   9.468  1.00  0.00    -0.744 OA
ENDBRANCH  82  83
ENDBRANCH  50  75
BRANCH  62  87
ATOM     87  C   UNL     1      -7.300   5.351  -0.464  1.00  0.00     0.058 A 
ATOM     88  C   UNL     1      -5.941   5.413  -0.820  1.00  0.00     0.135 A 
ATOM     89  C   UNL     1      -8.158   6.295  -1.049  1.00  0.00     0.135 A 
ATOM     90  F   UNL     1      -5.066   4.502  -0.373  1.00  0.00    -0.206 F 
ATOM     91  C   UNL     1      -5.458   6.382  -1.703  1.00  0.00     0.059 A 
ATOM     92  C   UNL     1      -7.705   7.247  -1.956  1.00  0.00     0.059 A 
ATOM     93  F   UNL     1      -9.476   6.258  -0.786  1.00  0.00    -0.206 F 
ATOM     94  C   UNL     1      -6.351   7.288  -2.276  1.00  0.00     0.060 A 
BRANCH  94  95
ATOM     95  S   UNL     1      -5.744   8.467  -3.501  1.00  0.00     0.124 S 
ATOM     96  O   UNL     1      -4.931   9.366  -2.688  1.00  0.00    -0.237 OA
ATOM     97  O   UNL     1      -5.009   7.611  -4.427  1.00  0.00    -0.237 OA
ATOM     98  O   UNL     1      -6.967   9.054  -4.045  1.00  0.00    -0.744 OA
ENDBRANCH  94  95
ENDBRANCH  62  87
ENDBRANCH  36  37
ENDBRANCH  28  31
ENDBRANCH   1  27
TORSDOF 14
