REMARK SMILES CCc1cc(OC(F)(F)F)cc2c1O[C@@H](C(F)(F)F)C(C(=O)NCCCNC(=O)c1ccc(-c3c4nc(c(-c5c(F)cc(S(=O)(=O)[O-])cc5F)c5ccc([nH]5)c(-c5c(F)cc(S(=O)(=O)[O-])cc5F)c5nc(c(-c6c(F)cc(S(=O)(=O)[O-])cc6F)c6ccc3[nH]6)C=C5)C=C4)cc1)=C2
REMARK SMILES IDX 25 1 24 2 23 3 21 4 22 5 20 7 3 8 4 9 13 10 5 11 12 12 14 13
REMARK SMILES IDX 11 14 96 15 15 16 2 17 1 18 6 19 7 20 8 21 9 22 10 23 16 24
REMARK SMILES IDX 17 25 18 26 19 27 26 28 27 29 28 30 29 32 30 33 31 34 95 35
REMARK SMILES IDX 32 36 94 37 33 38 34 39 35 40 88 41 36 42 93 43 87 44 89 45
REMARK SMILES IDX 37 46 92 47 86 48 85 49 38 51 72 52 51 53 71 54 52 55 55 56
REMARK SMILES IDX 70 57 90 58 53 59 54 60 69 62 91 63 56 64 39 65 40 66 49 67
REMARK SMILES IDX 41 68 42 69 48 70 50 71 43 72 44 73 45 74 46 75 47 76 73 77
REMARK SMILES IDX 74 78 83 79 75 80 76 81 82 82 84 83 77 84 78 85 79 86 80 87
REMARK SMILES IDX 81 88 57 89 58 90 67 91 59 92 60 93 66 94 68 95 61 96 62 97
REMARK SMILES IDX 63 98 64 99 65 100
REMARK H PARENT 23 6 27 31 89 50 55 61
REMARK Flexibility Score: inf
ROOT
ATOM      1  C   UNL     1       1.873   7.410  -5.988  1.00  0.00     0.042 C 
ENDROOT
BRANCH   1   2
ATOM      2  C   UNL     1       2.351   7.539  -4.538  1.00  0.00     0.118 C 
BRANCH   2   3
ATOM      3  N   UNL     1       1.266   7.973  -3.672  1.00  0.00    -0.352 N 
ATOM      4  C   UNL     1       0.371   7.305  -2.899  1.00  0.00     0.251 C 
ATOM      5  O   UNL     1      -0.518   7.954  -2.354  1.00  0.00    -0.270 OA
ATOM      6  H   UNL     1       1.158   8.951  -3.640  1.00  0.00     0.163 HD
BRANCH   4   7
ATOM      7  C   UNL     1       0.467   5.847  -2.623  1.00  0.00     0.067 C 
ATOM      8  C   UNL     1       0.845   1.799  -1.508  1.00  0.00    -0.002 A 
ATOM      9  C   UNL     1       1.282   0.876  -2.478  1.00  0.00     0.054 A 
ATOM     10  C   UNL     1       0.686   3.147  -1.885  1.00  0.00     0.131 A 
ATOM     11  C   UNL     1       1.573   1.284  -3.782  1.00  0.00     0.130 A 
ATOM     12  C   UNL     1       0.963   3.557  -3.187  1.00  0.00     0.021 A 
ATOM     13  O   UNL     1       0.312   4.026  -0.910  1.00  0.00    -0.475 OA
ATOM     14  C   UNL     1       1.404   2.624  -4.129  1.00  0.00     0.058 A 
ATOM     15  C   UNL     1       0.866   4.962  -3.544  1.00  0.00     0.025 C 
ATOM     16  C   UNL     1      -0.079   5.381  -1.278  1.00  0.00     0.314 C 
BRANCH   8  17
ATOM     17  C   UNL     1       0.506   1.387  -0.087  1.00  0.00     0.036 C 
ATOM     18  C   UNL     1       0.928  -0.010   0.351  1.00  0.00     0.009 C 
ENDBRANCH   8  17
BRANCH  11  19
ATOM     19  O   UNL     1       2.032   0.498  -4.800  1.00  0.00    -0.406 OA
BRANCH  19  20
ATOM     20  C   UNL     1       2.262  -0.874  -4.533  1.00  0.00     0.573 C 
ATOM     21  F   UNL     1       3.180  -1.032  -3.554  1.00  0.00    -0.132 F 
ATOM     22  F   UNL     1       1.119  -1.499  -4.181  1.00  0.00    -0.132 F 
ATOM     23  F   UNL     1       2.740  -1.462  -5.651  1.00  0.00    -0.132 F 
ENDBRANCH  19  20
ENDBRANCH  11  19
BRANCH  16  24
ATOM     24  C   UNL     1       0.239   6.283  -0.062  1.00  0.00     0.429 C 
ATOM     25  F   UNL     1      -0.636   7.301   0.085  1.00  0.00    -0.167 F 
ATOM     26  F   UNL     1       0.166   5.576   1.100  1.00  0.00    -0.167 F 
ATOM     27  F   UNL     1       1.487   6.804  -0.118  1.00  0.00    -0.167 F 
ENDBRANCH  16  24
ENDBRANCH   4   7
ENDBRANCH   2   3
ENDBRANCH   1   2
BRANCH   1  28
ATOM     28  C   UNL     1       1.665   8.755  -6.682  1.00  0.00     0.118 C 
BRANCH  28  29
ATOM     29  N   UNL     1       2.929   9.416  -6.967  1.00  0.00    -0.352 N 
ATOM     30  C   UNL     1       3.445   9.850  -8.163  1.00  0.00     0.251 C 
ATOM     31  H   UNL     1       3.501   9.578  -6.183  1.00  0.00     0.163 HD
ATOM     32  O   UNL     1       4.629  10.168  -8.221  1.00  0.00    -0.269 OA
BRANCH  30  33
ATOM     33  C   UNL     1       2.597   9.930  -9.374  1.00  0.00     0.039 A 
ATOM     34  C   UNL     1       3.147   9.555 -10.605  1.00  0.00     0.014 A 
ATOM     35  C   UNL     1       1.291  10.425  -9.318  1.00  0.00     0.014 A 
ATOM     36  C   UNL     1       2.375   9.634 -11.767  1.00  0.00     0.010 A 
ATOM     37  C   UNL     1       0.502  10.445 -10.469  1.00  0.00     0.010 A 
ATOM     38  C   UNL     1       1.038  10.057 -11.706  1.00  0.00    -0.014 A 
BRANCH  38  39
ATOM     39  C   UNL     1       0.188  10.102 -12.924  1.00  0.00     0.031 A 
ATOM     40  C   UNL     1      -0.329  11.418 -13.440  1.00  0.00     0.074 A 
ATOM     41  C   UNL     1      -0.169   8.952 -13.528  1.00  0.00     0.049 A 
ATOM     42  N   UNL     1      -1.147  11.652 -14.434  1.00  0.00    -0.248 NA
ATOM     43  C   UNL     1       0.113  12.629 -12.730  1.00  0.00     0.031 C 
ATOM     44  C   UNL     1       0.233   7.611 -13.097  1.00  0.00     0.029 A 
ATOM     45  N   UNL     1      -0.961   8.723 -14.625  1.00  0.00    -0.354 N 
ATOM     46  C   UNL     1      -1.330  13.030 -14.460  1.00  0.00     0.074 A 
ATOM     47  C   UNL     1      -0.573  13.576 -13.354  1.00  0.00     0.031 C 
ATOM     48  C   UNL     1      -0.305   6.702 -13.926  1.00  0.00     0.029 A 
ATOM     49  C   UNL     1      -1.117   7.391 -14.926  1.00  0.00     0.049 A 
ATOM     50  H   UNL     1      -1.379   9.445 -15.148  1.00  0.00     0.167 HD
ATOM     51  C   UNL     1      -2.046  13.773 -15.338  1.00  0.00     0.037 A 
ATOM     52  C   UNL     1      -1.840   6.789 -15.890  1.00  0.00     0.037 A 
ATOM     53  C   UNL     1      -2.776  13.226 -16.452  1.00  0.00     0.049 A 
ATOM     54  C   UNL     1      -2.619   7.635 -16.859  1.00  0.00     0.074 A 
ATOM     55  C   UNL     1      -3.491  13.899 -17.427  1.00  0.00     0.029 A 
ATOM     56  N   UNL     1      -2.883  11.873 -16.741  1.00  0.00    -0.354 N 
ATOM     57  N   UNL     1      -2.740   8.941 -16.898  1.00  0.00    -0.248 NA
ATOM     58  C   UNL     1      -3.354   6.930 -17.917  1.00  0.00     0.031 C 
ATOM     59  C   UNL     1      -4.059  12.951 -18.286  1.00  0.00     0.029 A 
ATOM     60  C   UNL     1      -3.663  11.690 -17.872  1.00  0.00     0.049 A 
ATOM     61  H   UNL     1      -2.466  11.149 -16.220  1.00  0.00     0.167 HD
ATOM     62  C   UNL     1      -3.545   9.214 -17.998  1.00  0.00     0.074 A 
ATOM     63  C   UNL     1      -3.872   7.940 -18.604  1.00  0.00     0.031 C 
ATOM     64  C   UNL     1      -3.974  10.413 -18.465  1.00  0.00     0.037 A 
BRANCH  51  65
ATOM     65  C   UNL     1      -2.070  15.264 -15.132  1.00  0.00     0.058 A 
ATOM     66  C   UNL     1      -0.938  16.058 -15.377  1.00  0.00     0.135 A 
ATOM     67  C   UNL     1      -3.246  15.911 -14.719  1.00  0.00     0.135 A 
ATOM     68  F   UNL     1       0.216  15.489 -15.761  1.00  0.00    -0.206 F 
ATOM     69  C   UNL     1      -0.961  17.436 -15.191  1.00  0.00     0.059 A 
ATOM     70  C   UNL     1      -3.299  17.293 -14.552  1.00  0.00     0.059 A 
ATOM     71  F   UNL     1      -4.358  15.201 -14.472  1.00  0.00    -0.206 F 
ATOM     72  C   UNL     1      -2.147  18.045 -14.776  1.00  0.00     0.060 A 
BRANCH  72  73
ATOM     73  S   UNL     1      -2.161  19.834 -14.540  1.00  0.00     0.124 S 
ATOM     74  O   UNL     1      -1.415  19.968 -13.292  1.00  0.00    -0.237 OA
ATOM     75  O   UNL     1      -1.480  20.314 -15.738  1.00  0.00    -0.237 OA
ATOM     76  O   UNL     1      -3.582  20.155 -14.459  1.00  0.00    -0.744 OA
ENDBRANCH  72  73
ENDBRANCH  51  65
BRANCH  52  77
ATOM     77  C   UNL     1      -1.841   5.306 -15.996  1.00  0.00     0.058 A 
ATOM     78  C   UNL     1      -1.171   4.657 -17.043  1.00  0.00     0.135 A 
ATOM     79  C   UNL     1      -2.490   4.509 -15.041  1.00  0.00     0.135 A 
ATOM     80  F   UNL     1      -0.541   5.377 -17.983  1.00  0.00    -0.206 F 
ATOM     81  C   UNL     1      -1.153   3.270 -17.148  1.00  0.00     0.059 A 
ATOM     82  C   UNL     1      -2.467   3.119 -15.111  1.00  0.00     0.059 A 
ATOM     83  F   UNL     1      -3.130   5.082 -14.009  1.00  0.00    -0.206 F 
ATOM     84  C   UNL     1      -1.802   2.509 -16.174  1.00  0.00     0.060 A 
BRANCH  84  85
ATOM     85  S   UNL     1      -1.723   0.708 -16.285  1.00  0.00     0.124 S 
ATOM     86  O   UNL     1      -2.656   0.441 -17.373  1.00  0.00    -0.237 OA
ATOM     87  O   UNL     1      -0.312   0.480 -16.582  1.00  0.00    -0.237 OA
ATOM     88  O   UNL     1      -2.154   0.273 -14.960  1.00  0.00    -0.744 OA
ENDBRANCH  84  85
ENDBRANCH  52  77
BRANCH  64  89
ATOM     89  C   UNL     1      -4.820  10.408 -19.707  1.00  0.00     0.058 A 
ATOM     90  C   UNL     1      -6.160   9.994 -19.683  1.00  0.00     0.135 A 
ATOM     91  C   UNL     1      -4.296  10.872 -20.925  1.00  0.00     0.135 A 
ATOM     92  F   UNL     1      -6.706   9.535 -18.546  1.00  0.00    -0.206 F 
ATOM     93  C   UNL     1      -6.948  10.022 -20.829  1.00  0.00     0.059 A 
ATOM     94  C   UNL     1      -5.073  10.932 -22.077  1.00  0.00     0.059 A 
ATOM     95  F   UNL     1      -3.022  11.288 -20.998  1.00  0.00    -0.206 F 
ATOM     96  C   UNL     1      -6.396  10.494 -22.022  1.00  0.00     0.060 A 
BRANCH  96  97
ATOM     97  S   UNL     1      -7.438  10.558 -23.494  1.00  0.00     0.124 S 
ATOM     98  O   UNL     1      -7.495   9.151 -23.876  1.00  0.00    -0.237 OA
ATOM     99  O   UNL     1      -8.680  11.125 -22.976  1.00  0.00    -0.237 OA
ATOM    100  O   UNL     1      -6.692  11.426 -24.401  1.00  0.00    -0.744 OA
ENDBRANCH  96  97
ENDBRANCH  64  89
ENDBRANCH  38  39
ENDBRANCH  30  33
ENDBRANCH  28  29
ENDBRANCH   1  28
TORSDOF 17
