REMARK SMILES C#CCN(CC(=O)NCCCNC(=O)c1ccc(-c2c3nc(c(-c4c(F)cc(S(=O)(=O)[O-])cc4F)c4ccc([nH]4)c(-c4c(F)cc(S(=O)(=O)[O-])cc4F)c4nc(c(-c5c(F)cc(S(=O)(=O)[O-])cc5F)c5ccc2[nH]5)C=C4)C=C3)cc1)C(=O)NCCc1ccco1
REMARK SMILES IDX 9 1 8 2 6 3 7 4 5 6 4 7 3 8 2 9 1 10 81 11 82 12 83 13 84 15
REMARK SMILES IDX 85 16 86 17 87 18 90 19 88 20 89 21 10 22 11 23 12 24 13 25
REMARK SMILES IDX 14 27 15 28 16 29 80 30 17 31 79 32 18 33 19 34 20 35 73 36
REMARK SMILES IDX 21 37 78 38 72 39 74 40 22 41 77 42 71 43 70 44 23 46 57 47
REMARK SMILES IDX 36 48 56 49 37 50 40 51 55 52 75 53 38 54 39 55 54 57 76 58
REMARK SMILES IDX 41 59 24 60 25 61 34 62 26 63 27 64 33 65 35 66 28 67 29 68
REMARK SMILES IDX 30 69 31 70 32 71 58 72 59 73 68 74 60 75 61 76 67 77 69 78
REMARK SMILES IDX 62 79 63 80 64 81 65 82 66 83 42 84 43 85 52 86 44 87 45 88
REMARK SMILES IDX 51 89 53 90 46 91 47 92 48 93 49 94 50 95
REMARK H PARENT 8 5 83 14 12 26 74 45 40 56
REMARK Flexibility Score: inf
ROOT
ATOM      1  C   UNL     1      -5.238   0.124   0.357  1.00  0.00     0.117 C 
ENDROOT
BRANCH   1   2
ATOM      2  N   UNL     1      -5.503  -0.607  -0.865  1.00  0.00    -0.354 N 
ATOM      3  C   UNL     1      -4.700  -1.466  -1.554  1.00  0.00     0.239 C 
ATOM      4  O   UNL     1      -5.250  -2.228  -2.357  1.00  0.00    -0.273 OA
ATOM      5  H   UNL     1      -6.396  -0.463  -1.255  1.00  0.00     0.163 HD
BRANCH   3   6
ATOM      6  C   UNL     1      -3.198  -1.599  -1.255  1.00  0.00     0.222 C 
BRANCH   6   7
ATOM      7  N   UNL     1      -2.461  -0.341  -1.233  1.00  0.00    -0.304 N 
BRANCH   7   8
ATOM      8  C   UNL     1      -1.891   0.051   0.054  1.00  0.00     0.211 C 
BRANCH   8   9
ATOM      9  C   UNL     1      -0.371   0.051   0.054  1.00  0.00    -0.085 C 
ATOM     10  C   UNL     1       0.933   0.051   0.054  1.00  0.00     0.006 C 
ENDBRANCH   8   9
ENDBRANCH   7   8
BRANCH   7  11
ATOM     11  C   UNL     1      -2.224   0.502  -2.281  1.00  0.00     0.318 C 
ATOM     12  O   UNL     1      -1.700   1.608  -2.107  1.00  0.00    -0.249 OA
ATOM     13  N   UNL     1      -2.534   0.235  -3.557  1.00  0.00    -0.337 N 
ATOM     14  H   UNL     1      -2.262   0.980  -4.140  1.00  0.00     0.165 HD
BRANCH  13  15
ATOM     15  C   UNL     1      -3.154  -0.827  -4.343  1.00  0.00     0.125 C 
BRANCH  15  16
ATOM     16  C   UNL     1      -4.556  -0.437  -4.820  1.00  0.00     0.096 C 
BRANCH  16  17
ATOM     17  C   UNL     1      -4.505   0.471  -5.997  1.00  0.00     0.105 A 
ATOM     18  C   UNL     1      -4.639   1.834  -6.158  1.00  0.00     0.045 A 
ATOM     19  O   UNL     1      -4.279  -0.123  -7.204  1.00  0.00    -0.469 OA
ATOM     20  C   UNL     1      -4.488   2.086  -7.544  1.00  0.00     0.042 A 
ATOM     21  C   UNL     1      -4.272   0.864  -8.136  1.00  0.00     0.195 A 
ENDBRANCH  16  17
ENDBRANCH  15  16
ENDBRANCH  13  15
ENDBRANCH   7  11
ENDBRANCH   6   7
ENDBRANCH   3   6
ENDBRANCH   1   2
BRANCH   1  22
ATOM     22  C   UNL     1      -5.048   1.622   0.145  1.00  0.00     0.042 C 
BRANCH  22  23
ATOM     23  C   UNL     1      -6.297   2.358  -0.327  1.00  0.00     0.118 C 
BRANCH  23  24
ATOM     24  N   UNL     1      -7.412   2.223   0.602  1.00  0.00    -0.352 N 
ATOM     25  C   UNL     1      -8.053   3.157   1.373  1.00  0.00     0.251 C 
ATOM     26  H   UNL     1      -7.763   1.307   0.690  1.00  0.00     0.163 HD
ATOM     27  O   UNL     1      -8.822   2.773   2.255  1.00  0.00    -0.269 OA
BRANCH  25  28
ATOM     28  C   UNL     1      -7.834   4.605   1.165  1.00  0.00     0.039 A 
ATOM     29  C   UNL     1      -7.784   5.449   2.280  1.00  0.00     0.014 A 
ATOM     30  C   UNL     1      -7.738   5.145  -0.119  1.00  0.00     0.014 A 
ATOM     31  C   UNL     1      -7.580   6.822   2.107  1.00  0.00     0.010 A 
ATOM     32  C   UNL     1      -7.458   6.499  -0.287  1.00  0.00     0.010 A 
ATOM     33  C   UNL     1      -7.386   7.354   0.824  1.00  0.00    -0.014 A 
BRANCH  33  34
ATOM     34  C   UNL     1      -7.122   8.800   0.609  1.00  0.00     0.031 A 
ATOM     35  C   UNL     1      -8.101   9.632  -0.177  1.00  0.00     0.074 A 
ATOM     36  C   UNL     1      -5.970   9.343   1.048  1.00  0.00     0.049 A 
ATOM     37  N   UNL     1      -7.995  10.871  -0.582  1.00  0.00    -0.248 NA
ATOM     38  C   UNL     1      -9.351   8.973  -0.587  1.00  0.00     0.031 C 
ATOM     39  C   UNL     1      -4.927   8.631   1.789  1.00  0.00     0.029 A 
ATOM     40  N   UNL     1      -5.473  10.616   0.918  1.00  0.00    -0.354 N 
ATOM     41  C   UNL     1      -9.149  11.133  -1.311  1.00  0.00     0.074 A 
ATOM     42  C   UNL     1      -9.921   9.909  -1.332  1.00  0.00     0.031 C 
ATOM     43  C   UNL     1      -3.920   9.478   2.057  1.00  0.00     0.029 A 
ATOM     44  C   UNL     1      -4.225  10.780   1.472  1.00  0.00     0.049 A 
ATOM     45  H   UNL     1      -5.963  11.342   0.470  1.00  0.00     0.167 HD
ATOM     46  C   UNL     1      -9.538  12.292  -1.894  1.00  0.00     0.037 A 
ATOM     47  C   UNL     1      -3.411  11.854   1.492  1.00  0.00     0.037 A 
ATOM     48  C   UNL     1      -8.778  13.513  -1.842  1.00  0.00     0.049 A 
ATOM     49  C   UNL     1      -3.866  13.132   0.841  1.00  0.00     0.074 A 
ATOM     50  C   UNL     1      -9.109  14.755  -2.355  1.00  0.00     0.029 A 
ATOM     51  N   UNL     1      -7.536  13.648  -1.238  1.00  0.00    -0.354 N 
ATOM     52  N   UNL     1      -4.982  13.375   0.195  1.00  0.00    -0.248 NA
ATOM     53  C   UNL     1      -2.957  14.283   0.924  1.00  0.00     0.031 C 
ATOM     54  C   UNL     1      -8.050  15.632  -2.096  1.00  0.00     0.029 A 
ATOM     55  C   UNL     1      -7.082  14.949  -1.378  1.00  0.00     0.049 A 
ATOM     56  H   UNL     1      -7.050  12.926  -0.779  1.00  0.00     0.167 HD
ATOM     57  C   UNL     1      -4.924  14.714  -0.173  1.00  0.00     0.074 A 
ATOM     58  C   UNL     1      -3.666  15.230   0.324  1.00  0.00     0.031 C 
ATOM     59  C   UNL     1      -5.834  15.451  -0.858  1.00  0.00     0.037 A 
BRANCH  46  60
ATOM     60  C   UNL     1     -10.847  12.295  -2.637  1.00  0.00     0.058 A 
ATOM     61  C   UNL     1     -12.076  12.201  -1.966  1.00  0.00     0.135 A 
ATOM     62  C   UNL     1     -10.875  12.426  -4.035  1.00  0.00     0.135 A 
ATOM     63  F   UNL     1     -12.109  12.059  -0.631  1.00  0.00    -0.206 F 
ATOM     64  C   UNL     1     -13.285  12.204  -2.655  1.00  0.00     0.059 A 
ATOM     65  C   UNL     1     -12.073  12.461  -4.743  1.00  0.00     0.059 A 
ATOM     66  F   UNL     1      -9.729  12.521  -4.729  1.00  0.00    -0.206 F 
ATOM     67  C   UNL     1     -13.273  12.333  -4.045  1.00  0.00     0.060 A 
BRANCH  67  68
ATOM     68  S   UNL     1     -14.849  12.336  -4.924  1.00  0.00     0.124 S 
ATOM     69  O   UNL     1     -15.232  10.930  -4.838  1.00  0.00    -0.237 OA
ATOM     70  O   UNL     1     -15.650  13.259  -4.127  1.00  0.00    -0.237 OA
ATOM     71  O   UNL     1     -14.494  12.810  -6.258  1.00  0.00    -0.744 OA
ENDBRANCH  67  68
ENDBRANCH  46  60
BRANCH  47  72
ATOM     72  C   UNL     1      -2.091  11.772   2.173  1.00  0.00     0.058 A 
ATOM     73  C   UNL     1      -1.860  12.449   3.380  1.00  0.00     0.135 A 
ATOM     74  C   UNL     1      -1.041  11.006   1.643  1.00  0.00     0.135 A 
ATOM     75  F   UNL     1      -2.831  13.199   3.924  1.00  0.00    -0.206 F 
ATOM     76  C   UNL     1      -0.632  12.385   4.029  1.00  0.00     0.059 A 
ATOM     77  C   UNL     1       0.189  10.906   2.286  1.00  0.00     0.059 A 
ATOM     78  F   UNL     1      -1.216  10.326   0.499  1.00  0.00    -0.206 F 
ATOM     79  C   UNL     1       0.387  11.608   3.475  1.00  0.00     0.060 A 
BRANCH  79  80
ATOM     80  S   UNL     1       1.962  11.495   4.351  1.00  0.00     0.124 S 
ATOM     81  O   UNL     1       2.537  12.810   4.092  1.00  0.00    -0.237 OA
ATOM     82  O   UNL     1       1.533  11.244   5.723  1.00  0.00    -0.237 OA
ATOM     83  O   UNL     1       2.630  10.374   3.696  1.00  0.00    -0.744 OA
ENDBRANCH  79  80
ENDBRANCH  47  72
BRANCH  59  84
ATOM     84  C   UNL     1      -5.532  16.909  -1.068  1.00  0.00     0.058 A 
ATOM     85  C   UNL     1      -4.570  17.341  -1.992  1.00  0.00     0.135 A 
ATOM     86  C   UNL     1      -6.269  17.887  -0.379  1.00  0.00     0.135 A 
ATOM     87  F   UNL     1      -3.834  16.447  -2.670  1.00  0.00    -0.206 F 
ATOM     88  C   UNL     1      -4.337  18.695  -2.217  1.00  0.00     0.059 A 
ATOM     89  C   UNL     1      -6.071  19.245  -0.607  1.00  0.00     0.059 A 
ATOM     90  F   UNL     1      -7.208  17.526   0.509  1.00  0.00    -0.206 F 
ATOM     91  C   UNL     1      -5.096  19.639  -1.522  1.00  0.00     0.060 A 
BRANCH  91  92
ATOM     92  S   UNL     1      -4.818  21.391  -1.859  1.00  0.00     0.124 S 
ATOM     93  O   UNL     1      -3.549  21.624  -1.176  1.00  0.00    -0.237 OA
ATOM     94  O   UNL     1      -4.768  21.426  -3.317  1.00  0.00    -0.237 OA
ATOM     95  O   UNL     1      -5.981  22.041  -1.262  1.00  0.00    -0.744 OA
ENDBRANCH  91  92
ENDBRANCH  59  84
ENDBRANCH  33  34
ENDBRANCH  25  28
ENDBRANCH  23  24
ENDBRANCH  22  23
ENDBRANCH   1  22
TORSDOF 20
