REMARK SMILES O=C(NCCCNC(=O)[C@H]1CC[C@@H]([NH+]2CCCC2)CC1)c1ccc(-c2c3nc(c(-c4c(F)cc(S(=O)(=O)[O-])cc4F)c4ccc([nH]4)c(-c4c(F)cc(S(=O)(=O)[O-])cc4F)c4nc(c(-c5c(F)cc(S(=O)(=O)[O-])cc5F)c5ccc2[nH]5)C=C4)C=C3)cc1
REMARK SMILES IDX 4 1 3 2 1 3 2 4 21 6 22 7 86 8 23 9 85 10 24 11 25 12 26 13
REMARK SMILES IDX 79 14 27 15 84 16 78 17 80 18 28 19 83 20 77 21 76 22 29 24
REMARK SMILES IDX 63 25 42 26 62 27 43 28 46 29 61 30 81 31 44 32 45 33 60 35
REMARK SMILES IDX 82 36 47 37 30 38 31 39 40 40 32 41 33 42 39 43 41 44 34 45
REMARK SMILES IDX 35 46 36 47 37 48 38 49 64 50 65 51 74 52 66 53 67 54 73 55
REMARK SMILES IDX 75 56 68 57 69 58 70 59 71 60 72 61 48 62 49 63 58 64 50 65
REMARK SMILES IDX 51 66 57 67 59 68 52 69 53 70 54 71 55 72 56 73 5 74 6 75
REMARK SMILES IDX 7 76 8 77 9 79 10 80 11 81 20 82 12 83 19 84 13 85 14 86
REMARK SMILES IDX 15 87 18 88 16 90 17 91
REMARK H PARENT 3 5 80 23 46 34 7 78 14 89
REMARK Flexibility Score: inf
ROOT
ATOM      1  C   UNL     1       4.584  -1.082   0.510  1.00  0.00     0.118 C 
ENDROOT
BRANCH   1   2
ATOM      2  N   UNL     1       3.148  -1.051   0.254  1.00  0.00    -0.352 N 
ATOM      3  O   UNL     1       1.158  -0.114  -0.197  1.00  0.00    -0.269 OA
ATOM      4  C   UNL     1       2.376  -0.085  -0.343  1.00  0.00     0.251 C 
ATOM      5  H   UNL     1       2.656  -1.848   0.557  1.00  0.00     0.163 HD
BRANCH   4   6
ATOM      6  C   UNL     1       3.006   0.978  -1.155  1.00  0.00     0.039 A 
ATOM      7  C   UNL     1       4.077   0.685  -2.002  1.00  0.00     0.014 A 
ATOM      8  C   UNL     1       2.480   2.272  -1.115  1.00  0.00     0.014 A 
ATOM      9  C   UNL     1       4.715   1.704  -2.695  1.00  0.00     0.010 A 
ATOM     10  C   UNL     1       3.059   3.277  -1.892  1.00  0.00     0.010 A 
ATOM     11  C   UNL     1       4.195   3.005  -2.671  1.00  0.00    -0.014 A 
BRANCH  11  12
ATOM     12  C   UNL     1       4.799   4.055  -3.524  1.00  0.00     0.031 A 
ATOM     13  C   UNL     1       5.425   5.273  -2.912  1.00  0.00     0.074 A 
ATOM     14  C   UNL     1       4.752   3.907  -4.862  1.00  0.00     0.049 A 
ATOM     15  N   UNL     1       5.913   6.333  -3.502  1.00  0.00    -0.248 NA
ATOM     16  C   UNL     1       5.502   5.312  -1.444  1.00  0.00     0.031 C 
ATOM     17  C   UNL     1       4.167   2.759  -5.561  1.00  0.00     0.029 A 
ATOM     18  N   UNL     1       5.190   4.722  -5.873  1.00  0.00    -0.354 N 
ATOM     19  C   UNL     1       6.327   7.180  -2.481  1.00  0.00     0.074 A 
ATOM     20  C   UNL     1       6.016   6.516  -1.233  1.00  0.00     0.031 C 
ATOM     21  C   UNL     1       4.292   2.938  -6.883  1.00  0.00     0.029 A 
ATOM     22  C   UNL     1       4.898   4.241  -7.127  1.00  0.00     0.049 A 
ATOM     23  H   UNL     1       5.667   5.569  -5.716  1.00  0.00     0.167 HD
ATOM     24  C   UNL     1       6.911   8.398  -2.583  1.00  0.00     0.037 A 
ATOM     25  C   UNL     1       5.058   4.802  -8.340  1.00  0.00     0.037 A 
ATOM     26  C   UNL     1       7.214   9.037  -3.838  1.00  0.00     0.049 A 
ATOM     27  C   UNL     1       5.680   6.163  -8.431  1.00  0.00     0.074 A 
ATOM     28  C   UNL     1       7.833  10.255  -4.057  1.00  0.00     0.029 A 
ATOM     29  N   UNL     1       6.910   8.514  -5.088  1.00  0.00    -0.354 N 
ATOM     30  N   UNL     1       6.090   6.942  -7.459  1.00  0.00    -0.248 NA
ATOM     31  C   UNL     1       5.864   6.724  -9.775  1.00  0.00     0.031 C 
ATOM     32  C   UNL     1       7.858  10.490  -5.436  1.00  0.00     0.029 A 
ATOM     33  C   UNL     1       7.307   9.393  -6.081  1.00  0.00     0.049 A 
ATOM     34  H   UNL     1       6.475   7.644  -5.245  1.00  0.00     0.167 HD
ATOM     35  C   UNL     1       6.604   8.078  -8.072  1.00  0.00     0.074 A 
ATOM     36  C   UNL     1       6.451   7.883  -9.501  1.00  0.00     0.031 C 
ATOM     37  C   UNL     1       7.157   9.175  -7.501  1.00  0.00     0.037 A 
BRANCH  24  38
ATOM     38  C   UNL     1       7.213   9.131  -1.304  1.00  0.00     0.058 A 
ATOM     39  C   UNL     1       8.214   8.702  -0.417  1.00  0.00     0.135 A 
ATOM     40  C   UNL     1       6.483  10.280  -0.955  1.00  0.00     0.135 A 
ATOM     41  F   UNL     1       8.937   7.605  -0.693  1.00  0.00    -0.206 F 
ATOM     42  C   UNL     1       8.444   9.353   0.792  1.00  0.00     0.059 A 
ATOM     43  C   UNL     1       6.716  10.963   0.235  1.00  0.00     0.059 A 
ATOM     44  F   UNL     1       5.518  10.740  -1.767  1.00  0.00    -0.206 F 
ATOM     45  C   UNL     1       7.681  10.477   1.114  1.00  0.00     0.060 A 
BRANCH  45  46
ATOM     46  S   UNL     1       7.954  11.280   2.708  1.00  0.00     0.124 S 
ATOM     47  O   UNL     1       7.321  10.332   3.620  1.00  0.00    -0.237 OA
ATOM     48  O   UNL     1       9.409  11.351   2.780  1.00  0.00    -0.237 OA
ATOM     49  O   UNL     1       7.272  12.562   2.564  1.00  0.00    -0.744 OA
ENDBRANCH  45  46
ENDBRANCH  24  38
BRANCH  25  50
ATOM     50  C   UNL     1       4.600   4.059  -9.541  1.00  0.00     0.058 A 
ATOM     51  C   UNL     1       5.516   3.456 -10.412  1.00  0.00     0.135 A 
ATOM     52  C   UNL     1       3.231   3.850  -9.780  1.00  0.00     0.135 A 
ATOM     53  F   UNL     1       6.833   3.628 -10.226  1.00  0.00    -0.206 F 
ATOM     54  C   UNL     1       5.093   2.660 -11.473  1.00  0.00     0.059 A 
ATOM     55  C   UNL     1       2.785   3.039 -10.818  1.00  0.00     0.059 A 
ATOM     56  F   UNL     1       2.315   4.390  -8.960  1.00  0.00    -0.206 F 
ATOM     57  C   UNL     1       3.725   2.446 -11.659  1.00  0.00     0.060 A 
BRANCH  57  58
ATOM     58  S   UNL     1       3.195   1.327 -12.973  1.00  0.00     0.124 S 
ATOM     59  O   UNL     1       3.454   2.128 -14.164  1.00  0.00    -0.237 OA
ATOM     60  O   UNL     1       4.074   0.179 -12.771  1.00  0.00    -0.237 OA
ATOM     61  O   UNL     1       1.788   1.089 -12.665  1.00  0.00    -0.744 OA
ENDBRANCH  57  58
ENDBRANCH  25  50
BRANCH  37  62
ATOM     62  C   UNL     1       7.687  10.242  -8.416  1.00  0.00     0.058 A 
ATOM     63  C   UNL     1       6.835  11.134  -9.084  1.00  0.00     0.135 A 
ATOM     64  C   UNL     1       9.073  10.433  -8.543  1.00  0.00     0.135 A 
ATOM     65  F   UNL     1       5.503  10.986  -9.004  1.00  0.00    -0.206 F 
ATOM     66  C   UNL     1       7.340  12.184  -9.844  1.00  0.00     0.059 A 
ATOM     67  C   UNL     1       9.598  11.489  -9.278  1.00  0.00     0.059 A 
ATOM     68  F   UNL     1       9.928   9.607  -7.920  1.00  0.00    -0.206 F 
ATOM     69  C   UNL     1       8.723  12.360  -9.926  1.00  0.00     0.060 A 
BRANCH  69  70
ATOM     70  S   UNL     1       9.363  13.776 -10.844  1.00  0.00     0.124 S 
ATOM     71  O   UNL     1       9.130  13.363 -12.224  1.00  0.00    -0.237 OA
ATOM     72  O   UNL     1       8.524  14.868 -10.359  1.00  0.00    -0.237 OA
ATOM     73  O   UNL     1      10.764  13.841 -10.437  1.00  0.00    -0.744 OA
ENDBRANCH  69  70
ENDBRANCH  37  62
ENDBRANCH  11  12
ENDBRANCH   4   6
ENDBRANCH   1   2
BRANCH   1  74
ATOM     74  C   UNL     1       4.902  -0.752   1.960  1.00  0.00     0.042 C 
BRANCH  74  75
ATOM     75  C   UNL     1       4.409  -1.827   2.917  1.00  0.00     0.117 C 
BRANCH  75  76
ATOM     76  N   UNL     1       5.256  -3.009   2.895  1.00  0.00    -0.356 N 
ATOM     77  C   UNL     1       6.219  -3.512   3.704  1.00  0.00     0.223 C 
ATOM     78  H   UNL     1       5.091  -3.576   2.107  1.00  0.00     0.163 HD
ATOM     79  O   UNL     1       6.788  -4.527   3.279  1.00  0.00    -0.275 OA
BRANCH  77  80
ATOM     80  C   UNL     1       6.548  -3.025   5.123  1.00  0.00     0.079 C 
ATOM     81  C   UNL     1       6.558  -1.513   5.379  1.00  0.00     0.019 C 
ATOM     82  C   UNL     1       5.790  -3.919   6.122  1.00  0.00     0.019 C 
ATOM     83  C   UNL     1       6.157  -1.026   6.772  1.00  0.00     0.066 C 
ATOM     84  C   UNL     1       5.677  -3.353   7.528  1.00  0.00     0.066 C 
ATOM     85  C   UNL     1       5.191  -1.901   7.594  1.00  0.00     0.184 C 
BRANCH  85  86
ATOM     86  N   UNL     1       3.762  -1.618   7.361  1.00  0.00    -0.333 N 
ATOM     87  C   UNL     1       2.864  -2.107   8.413  1.00  0.00     0.262 C 
ATOM     88  C   UNL     1       3.157  -2.011   6.097  1.00  0.00     0.262 C 
ATOM     89  H   UNL     1       3.838  -0.601   7.353  1.00  0.00     0.348 HD
ATOM     90  C   UNL     1       2.204  -3.350   7.846  1.00  0.00     0.067 C 
ATOM     91  C   UNL     1       2.065  -3.033   6.375  1.00  0.00     0.067 C 
ENDBRANCH  85  86
ENDBRANCH  77  80
ENDBRANCH  75  76
ENDBRANCH  74  75
ENDBRANCH   1  74
TORSDOF 14
