REMARK SMILES C[C@H]1[C@H](C(=O)NCCCNC(=O)c2ccc(-c3c4nc(c(-c5c(F)cc(S(=O)(=O)[O-])cc5F)c5ccc([nH]5)c(-c5c(F)cc(S(=O)(=O)[O-])cc5F)c5nc(c(-c6c(F)cc(S(=O)(=O)[O-])cc6F)c6ccc3[nH]6)C=C5)C=C4)cc2)CCN1S(=O)(=O)C(F)(F)F
REMARK SMILES IDX 8 1 7 2 6 3 4 4 5 5 3 7 1 8 2 9 81 10 79 11 80 12 82 13
REMARK SMILES IDX 83 14 84 15 85 16 86 17 87 18 88 19 9 20 10 21 11 22 12 24
REMARK SMILES IDX 13 25 14 26 78 27 15 28 77 29 16 30 17 31 18 32 71 33 19 34
REMARK SMILES IDX 76 35 70 36 72 37 20 38 75 39 69 40 68 41 21 43 55 44 34 45
REMARK SMILES IDX 54 46 35 47 38 48 53 49 73 50 36 51 37 52 52 54 74 55 39 56
REMARK SMILES IDX 22 57 23 58 32 59 24 60 25 61 31 62 33 63 26 64 27 65 28 66
REMARK SMILES IDX 29 67 30 68 56 69 57 70 66 71 58 72 59 73 65 74 67 75 60 76
REMARK SMILES IDX 61 77 62 78 63 79 64 80 40 81 41 82 50 83 42 84 43 85 49 86
REMARK SMILES IDX 51 87 44 88 45 89 46 90 47 91 48 92
REMARK H PARENT 6 6 10 23 72 42 38 53
REMARK Flexibility Score: inf
ROOT
ATOM      1  C   UNL     1      -0.245   0.450   4.024  1.00  0.00     0.042 C 
ENDROOT
BRANCH   1   2
ATOM      2  C   UNL     1      -1.153   1.110   2.993  1.00  0.00     0.117 C 
BRANCH   2   3
ATOM      3  N   UNL     1      -0.509   2.202   2.283  1.00  0.00    -0.356 N 
ATOM      4  C   UNL     1      -0.078   2.304   0.997  1.00  0.00     0.224 C 
ATOM      5  O   UNL     1       0.391   3.391   0.646  1.00  0.00    -0.275 OA
ATOM      6  H   UNL     1      -0.360   3.009   2.828  1.00  0.00     0.163 HD
BRANCH   4   7
ATOM      7  C   UNL     1      -0.131   1.153  -0.002  1.00  0.00     0.098 C 
ATOM      8  C   UNL     1       2.027  -0.120  -0.287  1.00  0.00     0.026 C 
ATOM      9  C   UNL     1       0.685  -0.064   0.446  1.00  0.00     0.082 C 
ATOM     10  N   UNL     1      -0.093  -1.273   0.052  1.00  0.00    -0.190 NA
ATOM     11  C   UNL     1      -1.517   0.632  -0.340  1.00  0.00     0.032 C 
ATOM     12  C   UNL     1      -1.296  -0.829  -0.703  1.00  0.00     0.104 C 
BRANCH  10  13
ATOM     13  S   UNL     1      -0.385  -2.519   1.197  1.00  0.00     0.314 S 
ATOM     14  O   UNL     1      -1.339  -1.954   2.138  1.00  0.00    -0.203 OA
ATOM     15  O   UNL     1      -0.802  -3.663   0.403  1.00  0.00    -0.203 OA
BRANCH  13  16
ATOM     16  C   UNL     1       1.245  -2.881   2.078  1.00  0.00     0.511 C 
ATOM     17  F   UNL     1       2.099  -3.603   1.304  1.00  0.00    -0.155 F 
ATOM     18  F   UNL     1       1.903  -1.738   2.429  1.00  0.00    -0.155 F 
ATOM     19  F   UNL     1       1.045  -3.576   3.231  1.00  0.00    -0.155 F 
ENDBRANCH  13  16
ENDBRANCH  10  13
ENDBRANCH   4   7
ENDBRANCH   2   3
ENDBRANCH   1   2
BRANCH   1  20
ATOM     20  C   UNL     1      -0.178   1.190   5.351  1.00  0.00     0.118 C 
BRANCH  20  21
ATOM     21  N   UNL     1      -1.445   1.152   6.068  1.00  0.00    -0.352 N 
ATOM     22  C   UNL     1      -1.795   0.558   7.256  1.00  0.00     0.251 C 
ATOM     23  H   UNL     1      -2.179   1.636   5.624  1.00  0.00     0.163 HD
ATOM     24  O   UNL     1      -2.986   0.492   7.551  1.00  0.00    -0.269 OA
BRANCH  22  25
ATOM     25  C   UNL     1      -0.776  -0.007   8.172  1.00  0.00     0.039 A 
ATOM     26  C   UNL     1      -1.103  -1.145   8.918  1.00  0.00     0.014 A 
ATOM     27  C   UNL     1       0.471   0.596   8.350  1.00  0.00     0.014 A 
ATOM     28  C   UNL     1      -0.165  -1.700   9.793  1.00  0.00     0.010 A 
ATOM     29  C   UNL     1       1.438  -0.015   9.145  1.00  0.00     0.010 A 
ATOM     30  C   UNL     1       1.127  -1.160   9.889  1.00  0.00    -0.014 A 
BRANCH  30  31
ATOM     31  C   UNL     1       2.155  -1.768  10.774  1.00  0.00     0.031 A 
ATOM     32  C   UNL     1       2.747  -0.975  11.911  1.00  0.00     0.074 A 
ATOM     33  C   UNL     1       2.599  -3.015  10.519  1.00  0.00     0.049 A 
ATOM     34  N   UNL     1       3.695  -1.310  12.747  1.00  0.00    -0.248 NA
ATOM     35  C   UNL     1       2.226   0.387  12.113  1.00  0.00     0.031 C 
ATOM     36  C   UNL     1       2.151  -3.863   9.411  1.00  0.00     0.029 A 
ATOM     37  N   UNL     1       3.533  -3.785  11.167  1.00  0.00    -0.354 N 
ATOM     38  C   UNL     1       3.894  -0.201  13.562  1.00  0.00     0.074 A 
ATOM     39  C   UNL     1       3.012   0.839  13.080  1.00  0.00     0.031 C 
ATOM     40  C   UNL     1       2.791  -5.042   9.472  1.00  0.00     0.029 A 
ATOM     41  C   UNL     1       3.718  -5.023  10.598  1.00  0.00     0.049 A 
ATOM     42  H   UNL     1       4.023  -3.479  11.964  1.00  0.00     0.167 HD
ATOM     43  C   UNL     1       4.715  -0.068  14.632  1.00  0.00     0.037 A 
ATOM     44  C   UNL     1       4.546  -6.029  10.941  1.00  0.00     0.037 A 
ATOM     45  C   UNL     1       5.569  -1.117  15.126  1.00  0.00     0.049 A 
ATOM     46  C   UNL     1       5.430  -5.869  12.147  1.00  0.00     0.074 A 
ATOM     47  C   UNL     1       6.398  -1.103  16.234  1.00  0.00     0.029 A 
ATOM     48  N   UNL     1       5.702  -2.370  14.544  1.00  0.00    -0.354 N 
ATOM     49  N   UNL     1       5.562  -4.832  12.941  1.00  0.00    -0.248 NA
ATOM     50  C   UNL     1       6.268  -7.018  12.512  1.00  0.00     0.031 C 
ATOM     51  C   UNL     1       7.059  -2.335  16.301  1.00  0.00     0.029 A 
ATOM     52  C   UNL     1       6.609  -3.133  15.261  1.00  0.00     0.049 A 
ATOM     53  H   UNL     1       5.222  -2.672  13.739  1.00  0.00     0.167 HD
ATOM     54  C   UNL     1       6.484  -5.211  13.909  1.00  0.00     0.074 A 
ATOM     55  C   UNL     1       6.861  -6.578  13.613  1.00  0.00     0.031 C 
ATOM     56  C   UNL     1       6.976  -4.492  14.949  1.00  0.00     0.037 A 
BRANCH  43  57
ATOM     57  C   UNL     1       4.715   1.257  15.347  1.00  0.00     0.058 A 
ATOM     58  C   UNL     1       3.610   1.688  16.100  1.00  0.00     0.135 A 
ATOM     59  C   UNL     1       5.839   2.098  15.299  1.00  0.00     0.135 A 
ATOM     60  F   UNL     1       2.503   0.931  16.168  1.00  0.00    -0.206 F 
ATOM     61  C   UNL     1       3.603   2.919  16.747  1.00  0.00     0.059 A 
ATOM     62  C   UNL     1       5.866   3.321  15.964  1.00  0.00     0.059 A 
ATOM     63  F   UNL     1       6.924   1.737  14.596  1.00  0.00    -0.206 F 
ATOM     64  C   UNL     1       4.736   3.730  16.671  1.00  0.00     0.060 A 
BRANCH  64  65
ATOM     65  S   UNL     1       4.710   5.327  17.512  1.00  0.00     0.124 S 
ATOM     66  O   UNL     1       3.833   6.101  16.639  1.00  0.00    -0.237 OA
ATOM     67  O   UNL     1       4.158   4.984  18.819  1.00  0.00    -0.237 OA
ATOM     68  O   UNL     1       6.111   5.734  17.514  1.00  0.00    -0.744 OA
ENDBRANCH  64  65
ENDBRANCH  43  57
BRANCH  44  69
ATOM     69  C   UNL     1       4.554  -7.283  10.143  1.00  0.00     0.058 A 
ATOM     70  C   UNL     1       4.012  -8.470  10.657  1.00  0.00     0.135 A 
ATOM     71  C   UNL     1       5.077  -7.313   8.841  1.00  0.00     0.135 A 
ATOM     72  F   UNL     1       3.504  -8.493  11.899  1.00  0.00    -0.206 F 
ATOM     73  C   UNL     1       3.999  -9.647   9.915  1.00  0.00     0.059 A 
ATOM     74  C   UNL     1       5.053  -8.471   8.070  1.00  0.00     0.059 A 
ATOM     75  F   UNL     1       5.589  -6.199   8.296  1.00  0.00    -0.206 F 
ATOM     76  C   UNL     1       4.520  -9.636   8.620  1.00  0.00     0.060 A 
BRANCH  76  77
ATOM     77  S   UNL     1       4.447 -11.154   7.644  1.00  0.00     0.124 S 
ATOM     78  O   UNL     1       5.494 -11.955   8.268  1.00  0.00    -0.237 OA
ATOM     79  O   UNL     1       3.077 -11.602   7.874  1.00  0.00    -0.237 OA
ATOM     80  O   UNL     1       4.728 -10.693   6.287  1.00  0.00    -0.744 OA
ENDBRANCH  76  77
ENDBRANCH  44  69
BRANCH  56  81
ATOM     81  C   UNL     1       7.960  -5.179  15.854  1.00  0.00     0.058 A 
ATOM     82  C   UNL     1       9.274  -5.453  15.442  1.00  0.00     0.135 A 
ATOM     83  C   UNL     1       7.593  -5.543  17.160  1.00  0.00     0.135 A 
ATOM     84  F   UNL     1       9.673  -5.130  14.201  1.00  0.00    -0.206 F 
ATOM     85  C   UNL     1      10.180  -6.092  16.281  1.00  0.00     0.059 A 
ATOM     86  C   UNL     1       8.492  -6.158  18.026  1.00  0.00     0.059 A 
ATOM     87  F   UNL     1       6.353  -5.293  17.608  1.00  0.00    -0.206 F 
ATOM     88  C   UNL     1       9.778  -6.443  17.571  1.00  0.00     0.060 A 
BRANCH  88  89
ATOM     89  S   UNL     1      10.967  -7.261  18.656  1.00  0.00     0.124 S 
ATOM     90  O   UNL     1      10.989  -8.611  18.103  1.00  0.00    -0.237 OA
ATOM     91  O   UNL     1      12.177  -6.471  18.448  1.00  0.00    -0.237 OA
ATOM     92  O   UNL     1      10.363  -7.133  19.979  1.00  0.00    -0.744 OA
ENDBRANCH  88  89
ENDBRANCH  56  81
ENDBRANCH  30  31
ENDBRANCH  22  25
ENDBRANCH  20  21
ENDBRANCH   1  20
TORSDOF 15
