REMARK SMILES O=C(C[C@H]1SC[C@@H](C(=O)NCCCNC(=O)c2ccc(-c3c4nc(c(-c5c(F)cc(S(=O)(=O)[O-])cc5F)c5ccc([nH]5)c(-c5c(F)cc(S(=O)(=O)[O-])cc5F)c5nc(c(-c6c(F)cc(S(=O)(=O)[O-])cc6F)c6ccc3[nH]6)C=C5)C=C4)cc2)NC1=O)Nc1cccc(Cl)c1
REMARK SMILES IDX 12 1 11 2 10 3 8 4 9 5 7 7 4 8 5 9 84 10 6 11 83 12 85 13
REMARK SMILES IDX 3 15 2 16 1 17 86 18 87 20 88 21 93 22 89 23 91 24 90 25
REMARK SMILES IDX 92 26 13 27 14 28 15 29 16 31 17 32 18 33 82 34 19 35 81 36
REMARK SMILES IDX 20 37 21 38 22 39 75 40 23 41 80 42 74 43 76 44 24 45 79 46
REMARK SMILES IDX 73 47 72 48 25 50 59 51 38 52 58 53 39 54 42 55 57 56 77 57
REMARK SMILES IDX 40 58 41 59 56 61 78 62 43 63 26 64 27 65 36 66 28 67 29 68
REMARK SMILES IDX 35 69 37 70 30 71 31 72 32 73 33 74 34 75 60 76 61 77 70 78
REMARK SMILES IDX 62 79 63 80 69 81 71 82 64 83 65 84 66 85 67 86 68 87 44 88
REMARK SMILES IDX 45 89 54 90 46 91 47 92 53 93 55 94 48 95 49 96 50 97 51 98
REMARK SMILES IDX 52 99
REMARK H PARENT 10 6 83 14 86 19 14 30 76 49 42 60
REMARK Flexibility Score: inf
ROOT
ATOM      1  C   UNL     1       7.156  -2.285  -3.742  1.00  0.00     0.042 C 
ENDROOT
BRANCH   1   2
ATOM      2  C   UNL     1       6.343  -3.125  -2.764  1.00  0.00     0.117 C 
BRANCH   2   3
ATOM      3  N   UNL     1       6.790  -2.924  -1.400  1.00  0.00    -0.354 N 
ATOM      4  C   UNL     1       6.433  -1.956  -0.503  1.00  0.00     0.243 C 
ATOM      5  O   UNL     1       7.037  -1.929   0.569  1.00  0.00    -0.273 OA
ATOM      6  H   UNL     1       7.447  -3.580  -1.071  1.00  0.00     0.163 HD
BRANCH   4   7
ATOM      7  C   UNL     1       5.181  -1.103  -0.789  1.00  0.00     0.181 C 
ATOM      8  C   UNL     1       3.692  -0.397   1.798  1.00  0.00     0.145 C 
ATOM      9  S   UNL     1       5.222   0.547   1.481  1.00  0.00    -0.145 SA
ATOM     10  C   UNL     1       3.632  -1.746   1.078  1.00  0.00     0.234 C 
ATOM     11  C   UNL     1       5.310   0.341  -0.318  1.00  0.00     0.105 C 
ATOM     12  N   UNL     1       4.063  -1.842  -0.213  1.00  0.00    -0.343 N 
ATOM     13  O   UNL     1       3.022  -2.714   1.532  1.00  0.00    -0.274 OA
ATOM     14  H   UNL     1       3.580  -2.462  -0.805  1.00  0.00     0.164 HD
BRANCH   8  15
ATOM     15  C   UNL     1       3.531  -0.519   3.315  1.00  0.00     0.124 C 
BRANCH  15  16
ATOM     16  C   UNL     1       2.292  -1.234   3.840  1.00  0.00     0.226 C 
ATOM     17  O   UNL     1       2.377  -1.895   4.874  1.00  0.00    -0.275 OA
ATOM     18  N   UNL     1       1.125  -0.996   3.139  1.00  0.00    -0.326 N 
ATOM     19  H   UNL     1       1.187  -0.383   2.371  1.00  0.00     0.169 HD
BRANCH  18  20
ATOM     20  C   UNL     1      -0.148  -1.541   3.413  1.00  0.00     0.042 A 
ATOM     21  C   UNL     1      -1.111  -1.444   2.398  1.00  0.00     0.026 A 
ATOM     22  C   UNL     1      -0.486  -2.171   4.611  1.00  0.00     0.046 A 
ATOM     23  C   UNL     1      -2.381  -2.002   2.564  1.00  0.00     0.004 A 
ATOM     24  C   UNL     1      -1.761  -2.713   4.779  1.00  0.00     0.043 A 
ATOM     25  C   UNL     1      -2.706  -2.640   3.758  1.00  0.00     0.020 A 
ATOM     26  Cl  UNL     1      -2.178  -3.477   6.265  1.00  0.00    -0.084 Cl
ENDBRANCH  18  20
ENDBRANCH  15  16
ENDBRANCH   8  15
ENDBRANCH   4   7
ENDBRANCH   2   3
ENDBRANCH   1   2
BRANCH   1  27
ATOM     27  C   UNL     1       8.643  -2.632  -3.746  1.00  0.00     0.118 C 
BRANCH  27  28
ATOM     28  N   UNL     1       8.894  -4.002  -4.171  1.00  0.00    -0.352 N 
ATOM     29  C   UNL     1       9.630  -4.470  -5.231  1.00  0.00     0.251 C 
ATOM     30  H   UNL     1       8.473  -4.697  -3.615  1.00  0.00     0.163 HD
ATOM     31  O   UNL     1       9.552  -5.655  -5.547  1.00  0.00    -0.269 OA
BRANCH  29  32
ATOM     32  C   UNL     1      10.495  -3.550  -5.997  1.00  0.00     0.039 A 
ATOM     33  C   UNL     1      10.508  -3.629  -7.392  1.00  0.00     0.014 A 
ATOM     34  C   UNL     1      11.300  -2.617  -5.339  1.00  0.00     0.014 A 
ATOM     35  C   UNL     1      11.279  -2.727  -8.129  1.00  0.00     0.010 A 
ATOM     36  C   UNL     1      12.002  -1.668  -6.075  1.00  0.00     0.010 A 
ATOM     37  C   UNL     1      12.005  -1.716  -7.478  1.00  0.00    -0.014 A 
BRANCH  37  38
ATOM     38  C   UNL     1      12.794  -0.708  -8.231  1.00  0.00     0.031 A 
ATOM     39  C   UNL     1      14.284  -0.631  -8.034  1.00  0.00     0.074 A 
ATOM     40  C   UNL     1      12.166   0.186  -9.021  1.00  0.00     0.049 A 
ATOM     41  N   UNL     1      15.132   0.259  -8.481  1.00  0.00    -0.248 NA
ATOM     42  C   UNL     1      14.897  -1.677  -7.198  1.00  0.00     0.031 C 
ATOM     43  C   UNL     1      10.723   0.234  -9.265  1.00  0.00     0.029 A 
ATOM     44  N   UNL     1      12.659   1.242  -9.746  1.00  0.00    -0.354 N 
ATOM     45  C   UNL     1      16.370  -0.108  -7.968  1.00  0.00     0.074 A 
ATOM     46  C   UNL     1      16.155  -1.268  -7.130  1.00  0.00     0.031 C 
ATOM     47  C   UNL     1      10.449   1.259 -10.088  1.00  0.00     0.029 A 
ATOM     48  C   UNL     1      11.687   1.971 -10.392  1.00  0.00     0.049 A 
ATOM     49  H   UNL     1      13.618   1.457  -9.800  1.00  0.00     0.167 HD
ATOM     50  C   UNL     1      17.581   0.456  -8.193  1.00  0.00     0.037 A 
ATOM     51  C   UNL     1      11.779   3.098 -11.126  1.00  0.00     0.037 A 
ATOM     52  C   UNL     1      17.789   1.596  -9.045  1.00  0.00     0.049 A 
ATOM     53  C   UNL     1      13.133   3.718 -11.349  1.00  0.00     0.074 A 
ATOM     54  C   UNL     1      18.980   2.220  -9.371  1.00  0.00     0.029 A 
ATOM     55  N   UNL     1      16.782   2.284  -9.709  1.00  0.00    -0.354 N 
ATOM     56  N   UNL     1      14.301   3.332 -10.891  1.00  0.00    -0.248 NA
ATOM     57  C   UNL     1      13.187   4.920 -12.192  1.00  0.00     0.031 C 
ATOM     58  C   UNL     1      18.690   3.314 -10.192  1.00  0.00     0.029 A 
ATOM     59  C   UNL     1      17.325   3.334 -10.430  1.00  0.00     0.049 A 
ATOM     60  H   UNL     1      15.825   2.058  -9.672  1.00  0.00     0.167 HD
ATOM     61  C   UNL     1      15.231   4.219 -11.424  1.00  0.00     0.074 A 
ATOM     62  C   UNL     1      14.490   5.159 -12.239  1.00  0.00     0.031 C 
ATOM     63  C   UNL     1      16.576   4.246 -11.259  1.00  0.00     0.037 A 
BRANCH  50  64
ATOM     64  C   UNL     1      18.776  -0.155  -7.511  1.00  0.00     0.058 A 
ATOM     65  C   UNL     1      19.260  -1.424  -7.868  1.00  0.00     0.135 A 
ATOM     66  C   UNL     1      19.471   0.553  -6.517  1.00  0.00     0.135 A 
ATOM     67  F   UNL     1      18.626  -2.152  -8.801  1.00  0.00    -0.206 F 
ATOM     68  C   UNL     1      20.371  -1.982  -7.244  1.00  0.00     0.059 A 
ATOM     69  C   UNL     1      20.604   0.028  -5.902  1.00  0.00     0.059 A 
ATOM     70  F   UNL     1      19.052   1.770  -6.135  1.00  0.00    -0.206 F 
ATOM     71  C   UNL     1      21.038  -1.247  -6.263  1.00  0.00     0.060 A 
BRANCH  71  72
ATOM     72  S   UNL     1      22.483  -1.983  -5.472  1.00  0.00     0.124 S 
ATOM     73  O   UNL     1      21.868  -3.022  -4.652  1.00  0.00    -0.237 OA
ATOM     74  O   UNL     1      23.257  -2.455  -6.616  1.00  0.00    -0.237 OA
ATOM     75  O   UNL     1      23.073  -0.869  -4.735  1.00  0.00    -0.744 OA
ENDBRANCH  71  72
ENDBRANCH  50  64
BRANCH  51  76
ATOM     76  C   UNL     1      10.554   3.710 -11.709  1.00  0.00     0.058 A 
ATOM     77  C   UNL     1      10.333   3.711 -13.095  1.00  0.00     0.135 A 
ATOM     78  C   UNL     1       9.577   4.303 -10.893  1.00  0.00     0.135 A 
ATOM     79  F   UNL     1      11.238   3.160 -13.918  1.00  0.00    -0.206 F 
ATOM     80  C   UNL     1       9.201   4.298 -13.653  1.00  0.00     0.059 A 
ATOM     81  C   UNL     1       8.424   4.870 -11.426  1.00  0.00     0.059 A 
ATOM     82  F   UNL     1       9.729   4.313  -9.560  1.00  0.00    -0.206 F 
ATOM     83  C   UNL     1       8.251   4.874 -12.809  1.00  0.00     0.060 A 
BRANCH  83  84
ATOM     84  S   UNL     1       6.768   5.598 -13.541  1.00  0.00     0.124 S 
ATOM     85  O   UNL     1       7.304   6.804 -14.161  1.00  0.00    -0.237 OA
ATOM     86  O   UNL     1       6.333   4.547 -14.455  1.00  0.00    -0.237 OA
ATOM     87  O   UNL     1       5.897   5.814 -12.389  1.00  0.00    -0.744 OA
ENDBRANCH  83  84
ENDBRANCH  51  76
BRANCH  63  88
ATOM     88  C   UNL     1      17.356   5.282 -12.023  1.00  0.00     0.058 A 
ATOM     89  C   UNL     1      17.332   6.640 -11.674  1.00  0.00     0.135 A 
ATOM     90  C   UNL     1      18.206   4.888 -13.070  1.00  0.00     0.135 A 
ATOM     91  F   UNL     1      16.532   7.071 -10.686  1.00  0.00    -0.206 F 
ATOM     92  C   UNL     1      18.115   7.575 -12.345  1.00  0.00     0.059 A 
ATOM     93  C   UNL     1      19.020   5.800 -13.734  1.00  0.00     0.059 A 
ATOM     94  F   UNL     1      18.273   3.598 -13.438  1.00  0.00    -0.206 F 
ATOM     95  C   UNL     1      18.962   7.143 -13.368  1.00  0.00     0.060 A 
BRANCH  95  96
ATOM     96  S   UNL     1      20.015   8.358 -14.190  1.00  0.00     0.124 S 
ATOM     97  O   UNL     1      19.042   9.103 -14.982  1.00  0.00    -0.237 OA
ATOM     98  O   UNL     1      20.598   9.077 -13.061  1.00  0.00    -0.237 OA
ATOM     99  O   UNL     1      20.950   7.537 -14.953  1.00  0.00    -0.744 OA
ENDBRANCH  95  96
ENDBRANCH  63  88
ENDBRANCH  37  38
ENDBRANCH  29  32
ENDBRANCH  27  28
ENDBRANCH   1  27
TORSDOF 16
