REMARK SMILES CCN(CC)c1ccc([C@@H]2c3[nH]c4ccccc4c3C[C@@H](C(=O)NCCCNC(=O)c3ccc(-c4c5nc(c(-c6c(F)cc(S(=O)(=O)[O-])cc6F)c6ccc([nH]6)c(-c6c(F)cc(S(=O)(=O)[O-])cc6F)c6nc(c(-c7c(F)cc(S(=O)(=O)[O-])cc7F)c7ccc4[nH]7)C=C6)C=C5)cc3)N2C(C)=O)cc1
REMARK SMILES IDX 26 1 25 2 24 3 22 4 23 5 21 7 10 8 11 9 97 10 12 11 19 12
REMARK SMILES IDX 13 13 18 15 20 16 14 17 17 18 15 19 16 20 9 21 6 22 7 23
REMARK SMILES IDX 102 24 8 25 101 26 3 27 2 28 1 29 4 30 5 31 98 32 99 33
REMARK SMILES IDX 100 34 27 35 28 36 29 37 30 39 31 40 32 41 96 42 33 43 95 44
REMARK SMILES IDX 34 45 35 46 36 47 89 48 37 49 94 50 88 51 90 52 38 53 93 54
REMARK SMILES IDX 87 55 86 56 39 58 73 59 52 60 72 61 53 62 56 63 71 64 91 65
REMARK SMILES IDX 54 66 55 67 70 69 92 70 57 71 40 72 41 73 50 74 42 75 43 76
REMARK SMILES IDX 49 77 51 78 44 79 45 80 46 81 47 82 48 83 74 84 75 85 84 86
REMARK SMILES IDX 76 87 77 88 83 89 85 90 78 91 79 92 80 93 81 94 82 95 58 96
REMARK SMILES IDX 59 97 68 98 60 99 61 100 67 101 69 102 62 103 63 104 64 105
REMARK SMILES IDX 65 106 66 107
REMARK H PARENT 24 6 12 14 28 38 90 57 56 68
REMARK Flexibility Score: inf
ROOT
ATOM      1  C   UNL     1       6.567   5.997   2.091  1.00  0.00     0.042 C 
ENDROOT
BRANCH   1   2
ATOM      2  C   UNL     1       7.960   5.320   2.163  1.00  0.00     0.117 C 
BRANCH   2   3
ATOM      3  N   UNL     1       8.026   3.860   1.790  1.00  0.00    -0.354 N 
ATOM      4  C   UNL     1       8.350   3.034   0.728  1.00  0.00     0.243 C 
ATOM      5  O   UNL     1       8.425   1.832   1.040  1.00  0.00    -0.273 OA
ATOM      6  H   UNL     1       7.746   3.312   2.558  1.00  0.00     0.163 HD
BRANCH   4   7
ATOM      7  C   UNL     1       8.413   3.390  -0.836  1.00  0.00     0.179 C 
ATOM      8  C   UNL     1       5.985   3.610  -0.789  1.00  0.00     0.163 C 
ATOM      9  C   UNL     1       6.277   5.109  -0.838  1.00  0.00     0.047 A 
ATOM     10  N   UNL     1       7.109   3.136  -1.587  1.00  0.00    -0.318 N 
ATOM     11  N   UNL     1       5.393   6.147  -0.862  1.00  0.00    -0.356 N 
ATOM     12  C   UNL     1       7.556   5.665  -0.989  1.00  0.00    -0.014 A 
ATOM     13  C   UNL     1       6.030   7.261  -1.359  1.00  0.00     0.046 A 
ATOM     14  H   UNL     1       4.453   6.106  -0.571  1.00  0.00     0.166 HD
ATOM     15  C   UNL     1       7.399   7.007  -1.362  1.00  0.00     0.003 A 
ATOM     16  C   UNL     1       8.811   4.852  -1.007  1.00  0.00     0.073 C 
ATOM     17  C   UNL     1       5.495   8.453  -1.833  1.00  0.00     0.026 A 
ATOM     18  C   UNL     1       8.298   7.989  -1.799  1.00  0.00     0.010 A 
ATOM     19  C   UNL     1       6.398   9.389  -2.345  1.00  0.00     0.002 A 
ATOM     20  C   UNL     1       7.776   9.172  -2.313  1.00  0.00     0.001 A 
BRANCH   8  21
ATOM     21  C   UNL     1       4.619   3.034  -1.079  1.00  0.00    -0.019 A 
ATOM     22  C   UNL     1       1.914   2.122  -1.146  1.00  0.00     0.037 A 
ATOM     23  C   UNL     1       2.296   3.372  -1.622  1.00  0.00     0.026 A 
ATOM     24  C   UNL     1       2.966   1.262  -0.803  1.00  0.00     0.026 A 
ATOM     25  C   UNL     1       3.610   3.806  -1.625  1.00  0.00     0.008 A 
ATOM     26  C   UNL     1       4.300   1.706  -0.758  1.00  0.00     0.008 A 
BRANCH  22  27
ATOM     27  N   UNL     1       0.575   1.780  -1.010  1.00  0.00    -0.372 N 
BRANCH  27  28
ATOM     28  C   UNL     1       0.116   1.206   0.264  1.00  0.00     0.113 C 
ATOM     29  C   UNL     1       0.283  -0.306   0.329  1.00  0.00     0.027 C 
ENDBRANCH  27  28
BRANCH  27  30
ATOM     30  C   UNL     1      -0.454   2.360  -1.898  1.00  0.00     0.113 C 
ATOM     31  C   UNL     1      -0.780   3.831  -1.633  1.00  0.00     0.027 C 
ENDBRANCH  27  30
ENDBRANCH  22  27
ENDBRANCH   8  21
BRANCH  10  32
ATOM     32  C   UNL     1       6.904   3.335  -2.976  1.00  0.00     0.220 C 
ATOM     33  C   UNL     1       8.036   3.388  -3.963  1.00  0.00     0.114 C 
ATOM     34  O   UNL     1       5.787   3.529  -3.473  1.00  0.00    -0.275 OA
ENDBRANCH  10  32
ENDBRANCH   4   7
ENDBRANCH   2   3
ENDBRANCH   1   2
BRANCH   1  35
ATOM     35  C   UNL     1       5.950   6.748   3.290  1.00  0.00     0.118 C 
BRANCH  35  36
ATOM     36  N   UNL     1       6.431   8.114   3.491  1.00  0.00    -0.352 N 
ATOM     37  C   UNL     1       5.864   9.373   3.400  1.00  0.00     0.251 C 
ATOM     38  H   UNL     1       7.380   8.146   3.752  1.00  0.00     0.163 HD
ATOM     39  O   UNL     1       6.622  10.325   3.615  1.00  0.00    -0.269 OA
BRANCH  37  40
ATOM     40  C   UNL     1       4.434   9.683   3.064  1.00  0.00     0.039 A 
ATOM     41  C   UNL     1       4.151  10.944   2.499  1.00  0.00     0.014 A 
ATOM     42  C   UNL     1       3.349   8.864   3.370  1.00  0.00     0.014 A 
ATOM     43  C   UNL     1       2.832  11.348   2.213  1.00  0.00     0.010 A 
ATOM     44  C   UNL     1       2.035   9.237   3.016  1.00  0.00     0.010 A 
ATOM     45  C   UNL     1       1.751  10.487   2.441  1.00  0.00    -0.014 A 
BRANCH  45  46
ATOM     46  C   UNL     1       0.340  10.883   2.109  1.00  0.00     0.031 A 
ATOM     47  C   UNL     1      -0.721  10.956   3.187  1.00  0.00     0.074 A 
ATOM     48  C   UNL     1      -0.018  11.138   0.831  1.00  0.00     0.049 A 
ATOM     49  N   UNL     1      -2.005  11.201   3.079  1.00  0.00    -0.248 NA
ATOM     50  C   UNL     1      -0.283  10.696   4.566  1.00  0.00     0.031 C 
ATOM     51  C   UNL     1       0.880  11.085  -0.324  1.00  0.00     0.029 A 
ATOM     52  N   UNL     1      -1.235  11.481   0.282  1.00  0.00    -0.354 N 
ATOM     53  C   UNL     1      -2.528  11.104   4.366  1.00  0.00     0.074 A 
ATOM     54  C   UNL     1      -1.430  10.728   5.231  1.00  0.00     0.031 C 
ATOM     55  C   UNL     1       0.193  11.400  -1.435  1.00  0.00     0.029 A 
ATOM     56  C   UNL     1      -1.206  11.635  -1.087  1.00  0.00     0.049 A 
ATOM     57  H   UNL     1      -2.051  11.604   0.819  1.00  0.00     0.167 HD
ATOM     58  C   UNL     1      -3.796  11.325   4.797  1.00  0.00     0.037 A 
ATOM     59  C   UNL     1      -2.187  11.920  -1.970  1.00  0.00     0.037 A 
ATOM     60  C   UNL     1      -4.888  11.725   3.943  1.00  0.00     0.049 A 
ATOM     61  C   UNL     1      -3.591  12.146  -1.473  1.00  0.00     0.074 A 
ATOM     62  C   UNL     1      -6.193  12.026   4.298  1.00  0.00     0.029 A 
ATOM     63  N   UNL     1      -4.808  11.879   2.567  1.00  0.00    -0.354 N 
ATOM     64  N   UNL     1      -4.049  12.099  -0.245  1.00  0.00    -0.248 NA
ATOM     65  C   UNL     1      -4.613  12.470  -2.481  1.00  0.00     0.031 C 
ATOM     66  C   UNL     1      -6.914  12.305   3.133  1.00  0.00     0.029 A 
ATOM     67  C   UNL     1      -6.045  12.242   2.056  1.00  0.00     0.049 A 
ATOM     68  H   UNL     1      -3.992  11.748   2.031  1.00  0.00     0.167 HD
ATOM     69  C   UNL     1      -5.402  12.416  -0.330  1.00  0.00     0.074 A 
ATOM     70  C   UNL     1      -5.686  12.665  -1.727  1.00  0.00     0.031 C 
ATOM     71  C   UNL     1      -6.323  12.495   0.663  1.00  0.00     0.037 A 
BRANCH  58  72
ATOM     72  C   UNL     1      -4.084  11.135   6.267  1.00  0.00     0.058 A 
ATOM     73  C   UNL     1      -3.566  12.003   7.242  1.00  0.00     0.135 A 
ATOM     74  C   UNL     1      -4.926  10.097   6.703  1.00  0.00     0.135 A 
ATOM     75  F   UNL     1      -2.751  13.009   6.888  1.00  0.00    -0.206 F 
ATOM     76  C   UNL     1      -3.837  11.826   8.596  1.00  0.00     0.059 A 
ATOM     77  C   UNL     1      -5.238   9.921   8.050  1.00  0.00     0.059 A 
ATOM     78  F   UNL     1      -5.459   9.241   5.818  1.00  0.00    -0.206 F 
ATOM     79  C   UNL     1      -4.673  10.781   8.991  1.00  0.00     0.060 A 
BRANCH  79  80
ATOM     80  S   UNL     1      -5.010  10.559  10.751  1.00  0.00     0.124 S 
ATOM     81  O   UNL     1      -3.720  10.070  11.233  1.00  0.00    -0.237 OA
ATOM     82  O   UNL     1      -5.367  11.915  11.171  1.00  0.00    -0.237 OA
ATOM     83  O   UNL     1      -6.096   9.593  10.774  1.00  0.00    -0.744 OA
ENDBRANCH  79  80
ENDBRANCH  58  72
BRANCH  59  84
ATOM     84  C   UNL     1      -1.873  12.021  -3.424  1.00  0.00     0.058 A 
ATOM     85  C   UNL     1      -1.924  13.254  -4.093  1.00  0.00     0.135 A 
ATOM     86  C   UNL     1      -1.507  10.891  -4.173  1.00  0.00     0.135 A 
ATOM     87  F   UNL     1      -2.283  14.363  -3.428  1.00  0.00    -0.206 F 
ATOM     88  C   UNL     1      -1.634  13.363  -5.450  1.00  0.00     0.059 A 
ATOM     89  C   UNL     1      -1.183  10.979  -5.524  1.00  0.00     0.059 A 
ATOM     90  F   UNL     1      -1.433   9.688  -3.581  1.00  0.00    -0.206 F 
ATOM     91  C   UNL     1      -1.258  12.219  -6.156  1.00  0.00     0.060 A 
BRANCH  91  92
ATOM     92  S   UNL     1      -0.825  12.382  -7.902  1.00  0.00     0.124 S 
ATOM     93  O   UNL     1      -2.130  12.639  -8.506  1.00  0.00    -0.237 OA
ATOM     94  O   UNL     1       0.101  13.512  -7.882  1.00  0.00    -0.237 OA
ATOM     95  O   UNL     1      -0.224  11.094  -8.222  1.00  0.00    -0.744 OA
ENDBRANCH  91  92
ENDBRANCH  59  84
BRANCH  71  96
ATOM     96  C   UNL     1      -7.724  12.902   0.288  1.00  0.00     0.058 A 
ATOM     97  C   UNL     1      -8.581  12.049  -0.425  1.00  0.00     0.135 A 
ATOM     98  C   UNL     1      -8.235  14.146   0.696  1.00  0.00     0.135 A 
ATOM     99  F   UNL     1      -8.145  10.851  -0.845  1.00  0.00    -0.206 F 
ATOM    100  C   UNL     1      -9.884  12.422  -0.741  1.00  0.00     0.059 A 
ATOM    101  C   UNL     1      -9.544  14.528   0.419  1.00  0.00     0.059 A 
ATOM    102  F   UNL     1      -7.464  14.999   1.390  1.00  0.00    -0.206 F 
ATOM    103  C   UNL     1     -10.358  13.664  -0.311  1.00  0.00     0.060 A 
BRANCH 103 104
ATOM    104  S   UNL     1     -12.062  14.120  -0.697  1.00  0.00     0.124 S 
ATOM    105  O   UNL     1     -11.980  14.376  -2.131  1.00  0.00    -0.237 OA
ATOM    106  O   UNL     1     -12.801  12.924  -0.307  1.00  0.00    -0.237 OA
ATOM    107  O   UNL     1     -12.297  15.295   0.138  1.00  0.00    -0.744 OA
ENDBRANCH 103 104
ENDBRANCH  71  96
ENDBRANCH  45  46
ENDBRANCH  37  40
ENDBRANCH  35  36
ENDBRANCH   1  35
TORSDOF 18
