REMARK SMILES O=C(C[C@H](C(=O)OC[C@@H]1CCCO1)[NH+]1CCOCC1)NCCCNC(=O)c1ccc(-c2c3nc(c(-c4c(F)cc(S(=O)(=O)[O-])cc4F)c4ccc([nH]4)c(-c4c(F)cc(S(=O)(=O)[O-])cc4F)c4nc(c(-c5c(F)cc(S(=O)(=O)[O-])cc5F)c5ccc2[nH]5)C=C4)C=C3)cc1
REMARK SMILES IDX 21 1 20 2 1 3 2 4 3 6 4 7 14 8 15 9 19 10 16 12 18 13 17 14
REMARK SMILES IDX 5 15 6 16 7 17 8 18 9 19 10 20 13 21 11 22 12 23 22 24 23 25
REMARK SMILES IDX 24 26 25 27 26 29 27 30 28 31 92 32 29 33 91 34 30 35 31 36
REMARK SMILES IDX 32 37 85 38 33 39 90 40 84 41 86 42 34 43 89 44 83 45 82 46
REMARK SMILES IDX 35 48 69 49 48 50 68 51 49 52 52 53 67 54 87 55 50 56 51 57
REMARK SMILES IDX 66 59 88 60 53 61 36 62 37 63 46 64 38 65 39 66 45 67 47 68
REMARK SMILES IDX 40 69 41 70 42 71 43 72 44 73 70 74 71 75 80 76 72 77 73 78
REMARK SMILES IDX 79 79 81 80 74 81 75 82 76 83 77 84 78 85 54 86 55 87 64 88
REMARK SMILES IDX 56 89 57 90 63 91 65 92 58 93 59 94 60 95 61 96 62 97
REMARK H PARENT 20 5 14 11 24 28 86 47 52 58
REMARK Flexibility Score: inf
ROOT
ATOM      1  C   UNL     1       5.241  -1.374   2.320  1.00  0.00     0.117 C 
ENDROOT
BRANCH   1   2
ATOM      2  N   UNL     1       4.795  -0.400   1.344  1.00  0.00    -0.356 N 
ATOM      3  O   UNL     1       6.723  -0.466   0.105  1.00  0.00    -0.275 OA
ATOM      4  C   UNL     1       5.555  -0.105   0.232  1.00  0.00     0.226 C 
ATOM      5  H   UNL     1       3.934   0.060   1.477  1.00  0.00     0.163 HD
BRANCH   4   6
ATOM      6  C   UNL     1       4.854   0.722  -0.828  1.00  0.00     0.177 C 
BRANCH   6   7
ATOM      7  C   UNL     1       4.003  -0.007  -1.889  1.00  0.00     0.304 C 
BRANCH   7   8
ATOM      8  N   UNL     1       4.714  -0.777  -2.946  1.00  0.00    -0.319 N 
ATOM      9  C   UNL     1       3.895  -1.040  -4.152  1.00  0.00     0.291 C 
ATOM     10  C   UNL     1       5.419  -2.006  -2.545  1.00  0.00     0.291 C 
ATOM     11  H   UNL     1       5.455  -0.112  -3.172  1.00  0.00     0.348 HD
ATOM     12  C   UNL     1       3.110  -2.366  -4.151  1.00  0.00     0.221 C 
ATOM     13  C   UNL     1       4.604  -3.309  -2.607  1.00  0.00     0.221 C 
ATOM     14  O   UNL     1       3.970  -3.476  -3.879  1.00  0.00    -0.370 OA
ENDBRANCH   7   8
BRANCH   7  15
ATOM     15  C   UNL     1       2.763  -0.719  -1.353  1.00  0.00     0.365 C 
ATOM     16  O   UNL     1       1.662  -0.621  -1.888  1.00  0.00    -0.245 OA
BRANCH  15  17
ATOM     17  O   UNL     1       3.051  -1.544  -0.322  1.00  0.00    -0.459 OA
BRANCH  17  18
ATOM     18  C   UNL     1       2.004  -2.390   0.185  1.00  0.00     0.265 C 
BRANCH  18  19
ATOM     19  C   UNL     1       0.849  -1.647   0.863  1.00  0.00     0.156 C 
ATOM     20  C   UNL     1      -0.452  -1.706   0.078  1.00  0.00     0.038 C 
ATOM     21  O   UNL     1       1.157  -0.261   1.116  1.00  0.00    -0.375 OA
ATOM     22  C   UNL     1      -1.127  -0.421   0.474  1.00  0.00     0.031 C 
ATOM     23  C   UNL     1       0.038   0.525   0.669  1.00  0.00     0.161 C 
ENDBRANCH  18  19
ENDBRANCH  17  18
ENDBRANCH  15  17
ENDBRANCH   7  15
ENDBRANCH   6   7
ENDBRANCH   4   6
ENDBRANCH   1   2
BRANCH   1  24
ATOM     24  C   UNL     1       4.818  -1.065   3.751  1.00  0.00     0.042 C 
BRANCH  24  25
ATOM     25  C   UNL     1       3.316  -1.032   4.008  1.00  0.00     0.118 C 
BRANCH  25  26
ATOM     26  N   UNL     1       2.647  -2.307   3.806  1.00  0.00    -0.352 N 
ATOM     27  C   UNL     1       1.495  -2.791   4.383  1.00  0.00     0.251 C 
ATOM     28  H   UNL     1       3.082  -2.913   3.164  1.00  0.00     0.163 HD
ATOM     29  O   UNL     1       1.056  -3.878   4.015  1.00  0.00    -0.269 OA
BRANCH  27  30
ATOM     30  C   UNL     1       0.825  -2.052   5.480  1.00  0.00     0.039 A 
ATOM     31  C   UNL     1       0.422  -2.782   6.602  1.00  0.00     0.014 A 
ATOM     32  C   UNL     1       0.632  -0.668   5.450  1.00  0.00     0.014 A 
ATOM     33  C   UNL     1      -0.075  -2.118   7.725  1.00  0.00     0.010 A 
ATOM     34  C   UNL     1       0.208   0.002   6.602  1.00  0.00     0.010 A 
ATOM     35  C   UNL     1      -0.130  -0.715   7.759  1.00  0.00    -0.014 A 
BRANCH  35  36
ATOM     36  C   UNL     1      -0.475  -0.014   9.026  1.00  0.00     0.031 A 
ATOM     37  C   UNL     1      -1.715   0.829   9.139  1.00  0.00     0.074 A 
ATOM     38  C   UNL     1       0.356  -0.130  10.084  1.00  0.00     0.049 A 
ATOM     39  N   UNL     1      -2.196   1.450  10.187  1.00  0.00    -0.248 NA
ATOM     40  C   UNL     1      -2.508   1.018   7.915  1.00  0.00     0.031 C 
ATOM     41  C   UNL     1       1.628  -0.859  10.081  1.00  0.00     0.029 A 
ATOM     42  N   UNL     1       0.256   0.350  11.367  1.00  0.00    -0.354 N 
ATOM     43  C   UNL     1      -3.347   2.097   9.753  1.00  0.00     0.074 A 
ATOM     44  C   UNL     1      -3.458   1.844   8.332  1.00  0.00     0.031 C 
ATOM     45  C   UNL     1       2.164  -0.817  11.311  1.00  0.00     0.029 A 
ATOM     46  C   UNL     1       1.296  -0.032  12.183  1.00  0.00     0.049 A 
ATOM     47  H   UNL     1      -0.489   0.915  11.674  1.00  0.00     0.167 HD
ATOM     48  C   UNL     1      -4.242   2.813  10.476  1.00  0.00     0.037 A 
ATOM     49  C   UNL     1       1.523   0.210  13.489  1.00  0.00     0.037 A 
ATOM     50  C   UNL     1      -4.127   3.058  11.893  1.00  0.00     0.049 A 
ATOM     51  C   UNL     1       0.509   0.998  14.272  1.00  0.00     0.074 A 
ATOM     52  C   UNL     1      -5.006   3.730  12.725  1.00  0.00     0.029 A 
ATOM     53  N   UNL     1      -3.064   2.649  12.686  1.00  0.00    -0.354 N 
ATOM     54  N   UNL     1      -0.618   1.532  13.861  1.00  0.00    -0.248 NA
ATOM     55  C   UNL     1       0.787   1.204  15.699  1.00  0.00     0.031 C 
ATOM     56  C   UNL     1      -4.451   3.771  14.009  1.00  0.00     0.029 A 
ATOM     57  C   UNL     1      -3.255   3.073  13.992  1.00  0.00     0.049 A 
ATOM     58  H   UNL     1      -2.288   2.133  12.368  1.00  0.00     0.167 HD
ATOM     59  C   UNL     1      -1.195   2.113  14.985  1.00  0.00     0.074 A 
ATOM     60  C   UNL     1      -0.303   1.846  16.095  1.00  0.00     0.031 C 
ATOM     61  C   UNL     1      -2.357   2.805  15.089  1.00  0.00     0.037 A 
BRANCH  48  62
ATOM     62  C   UNL     1      -5.432   3.382   9.748  1.00  0.00     0.058 A 
ATOM     63  C   UNL     1      -6.448   2.556   9.238  1.00  0.00     0.135 A 
ATOM     64  C   UNL     1      -5.581   4.769   9.591  1.00  0.00     0.135 A 
ATOM     65  F   UNL     1      -6.353   1.221   9.347  1.00  0.00    -0.206 F 
ATOM     66  C   UNL     1      -7.550   3.082   8.572  1.00  0.00     0.059 A 
ATOM     67  C   UNL     1      -6.690   5.320   8.954  1.00  0.00     0.059 A 
ATOM     68  F   UNL     1      -4.642   5.607  10.059  1.00  0.00    -0.206 F 
ATOM     69  C   UNL     1      -7.662   4.466   8.435  1.00  0.00     0.060 A 
BRANCH  69  70
ATOM     70  S   UNL     1      -9.100   5.132   7.569  1.00  0.00     0.124 S 
ATOM     71  O   UNL     1      -8.806   4.758   6.188  1.00  0.00    -0.237 OA
ATOM     72  O   UNL     1     -10.203   4.413   8.198  1.00  0.00    -0.237 OA
ATOM     73  O   UNL     1      -9.040   6.561   7.857  1.00  0.00    -0.744 OA
ENDBRANCH  69  70
ENDBRANCH  48  62
BRANCH  49  74
ATOM     74  C   UNL     1       2.746  -0.328  14.146  1.00  0.00     0.058 A 
ATOM     75  C   UNL     1       2.664  -1.348  15.107  1.00  0.00     0.135 A 
ATOM     76  C   UNL     1       4.021   0.162  13.824  1.00  0.00     0.135 A 
ATOM     77  F   UNL     1       1.468  -1.848  15.455  1.00  0.00    -0.206 F 
ATOM     78  C   UNL     1       3.798  -1.848  15.740  1.00  0.00     0.059 A 
ATOM     79  C   UNL     1       5.172  -0.342  14.421  1.00  0.00     0.059 A 
ATOM     80  F   UNL     1       4.157   1.125  12.899  1.00  0.00    -0.206 F 
ATOM     81  C   UNL     1       5.050  -1.339  15.387  1.00  0.00     0.060 A 
BRANCH  81  82
ATOM     82  S   UNL     1       6.519  -2.025  16.182  1.00  0.00     0.124 S 
ATOM     83  O   UNL     1       6.414  -1.469  17.525  1.00  0.00    -0.237 OA
ATOM     84  O   UNL     1       6.288  -3.462  16.064  1.00  0.00    -0.237 OA
ATOM     85  O   UNL     1       7.614  -1.506  15.367  1.00  0.00    -0.744 OA
ENDBRANCH  81  82
ENDBRANCH  49  74
BRANCH  61  86
ATOM     86  C   UNL     1      -2.745   3.293  16.461  1.00  0.00     0.058 A 
ATOM     87  C   UNL     1      -2.041   4.319  17.111  1.00  0.00     0.135 A 
ATOM     88  C   UNL     1      -3.843   2.728  17.130  1.00  0.00     0.135 A 
ATOM     89  F   UNL     1      -0.982   4.893  16.518  1.00  0.00    -0.206 F 
ATOM     90  C   UNL     1      -2.381   4.735  18.394  1.00  0.00     0.059 A 
ATOM     91  C   UNL     1      -4.223   3.152  18.400  1.00  0.00     0.059 A 
ATOM     92  F   UNL     1      -4.562   1.754  16.550  1.00  0.00    -0.206 F 
ATOM     93  C   UNL     1      -3.471   4.141  19.033  1.00  0.00     0.060 A 
BRANCH  93  94
ATOM     94  S   UNL     1      -3.898   4.682  20.702  1.00  0.00     0.124 S 
ATOM     95  O   UNL     1      -2.838   4.063  21.491  1.00  0.00    -0.237 OA
ATOM     96  O   UNL     1      -3.836   6.135  20.585  1.00  0.00    -0.237 OA
ATOM     97  O   UNL     1      -5.235   4.132  20.906  1.00  0.00    -0.744 OA
ENDBRANCH  93  94
ENDBRANCH  61  86
ENDBRANCH  35  36
ENDBRANCH  27  30
ENDBRANCH  25  26
ENDBRANCH  24  25
ENDBRANCH   1  24
TORSDOF 19
