REMARK SMILES O=C(NCCCNC(=O)[C@@H]1CCCCC[C@H]1NC(=O)c1ccc(Cl)o1)c1ccc(-c2c3nc(c(-c4c(F)cc(S(=O)(=O)[O-])cc4F)c4ccc([nH]4)c(-c4c(F)cc(S(=O)(=O)[O-])cc4F)c4nc(c(-c5c(F)cc(S(=O)(=O)[O-])cc5F)c5ccc2[nH]5)C=C4)C=C3)cc1
REMARK SMILES IDX 5 1 4 2 3 3 1 4 2 5 26 7 27 8 91 9 28 10 90 11 29 12 30 13
REMARK SMILES IDX 31 14 84 15 32 16 89 17 83 18 85 19 33 20 88 21 82 22 81 23
REMARK SMILES IDX 34 25 68 26 47 27 67 28 48 29 51 30 66 31 86 32 49 33 50 34
REMARK SMILES IDX 65 36 87 37 52 38 35 39 36 40 45 41 37 42 38 43 44 44 46 45
REMARK SMILES IDX 39 46 40 47 41 48 42 49 43 50 69 51 70 52 79 53 71 54 72 55
REMARK SMILES IDX 78 56 80 57 73 58 74 59 75 60 76 61 77 62 53 63 54 64 63 65
REMARK SMILES IDX 55 66 56 67 62 68 64 69 57 70 58 71 59 72 60 73 61 74 6 75
REMARK SMILES IDX 7 76 8 77 9 79 10 80 11 81 12 82 13 83 16 85 15 86 14 87
REMARK SMILES IDX 17 89 18 90 19 92 20 93 21 94 25 95 22 96 23 97 24 98
REMARK H PARENT 3 6 85 24 51 35 7 78 17 91
REMARK Flexibility Score: 100.00
ROOT
ATOM      1  C   UNL     1       4.563  -1.401   1.964  1.00  0.00     0.042 C 
ENDROOT
BRANCH   1   2
ATOM      2  C   UNL     1       4.388  -1.390   0.449  1.00  0.00     0.118 C 
BRANCH   2   3
ATOM      3  N   UNL     1       2.987  -1.276   0.071  1.00  0.00    -0.352 N 
ATOM      4  O   UNL     1       1.055  -0.245  -0.400  1.00  0.00    -0.269 OA
ATOM      5  C   UNL     1       2.283  -0.206  -0.423  1.00  0.00     0.251 C 
ATOM      6  H   UNL     1       2.459  -2.099   0.188  1.00  0.00     0.163 HD
BRANCH   5   7
ATOM      7  C   UNL     1       2.975   0.981  -0.976  1.00  0.00     0.039 A 
ATOM      8  C   UNL     1       4.116   0.854  -1.773  1.00  0.00     0.014 A 
ATOM      9  C   UNL     1       2.411   2.245  -0.771  1.00  0.00     0.014 A 
ATOM     10  C   UNL     1       4.751   1.990  -2.274  1.00  0.00     0.010 A 
ATOM     11  C   UNL     1       3.008   3.378  -1.332  1.00  0.00     0.010 A 
ATOM     12  C   UNL     1       4.193   3.261  -2.075  1.00  0.00    -0.014 A 
BRANCH  12  13
ATOM     13  C   UNL     1       4.812   4.454  -2.703  1.00  0.00     0.031 A 
ATOM     14  C   UNL     1       5.418   5.539  -1.861  1.00  0.00     0.074 A 
ATOM     15  C   UNL     1       4.801   4.567  -4.046  1.00  0.00     0.049 A 
ATOM     16  N   UNL     1       5.942   6.678  -2.235  1.00  0.00    -0.248 NA
ATOM     17  C   UNL     1       5.429   5.321  -0.406  1.00  0.00     0.031 C 
ATOM     18  C   UNL     1       4.230   3.583  -4.968  1.00  0.00     0.029 A 
ATOM     19  N   UNL     1       5.277   5.556  -4.868  1.00  0.00    -0.354 N 
ATOM     20  C   UNL     1       6.323   7.325  -1.066  1.00  0.00     0.074 A 
ATOM     21  C   UNL     1       5.955   6.456   0.033  1.00  0.00     0.031 C 
ATOM     22  C   UNL     1       4.401   4.010  -6.228  1.00  0.00     0.029 A 
ATOM     23  C   UNL     1       5.045   5.319  -6.202  1.00  0.00     0.049 A 
ATOM     24  H   UNL     1       5.739   6.359  -4.535  1.00  0.00     0.167 HD
ATOM     25  C   UNL     1       6.925   8.531  -0.924  1.00  0.00     0.037 A 
ATOM     26  C   UNL     1       5.299   6.079  -7.285  1.00  0.00     0.037 A 
ATOM     27  C   UNL     1       7.296   9.384  -2.023  1.00  0.00     0.049 A 
ATOM     28  C   UNL     1       5.961   7.413  -7.105  1.00  0.00     0.074 A 
ATOM     29  C   UNL     1       7.935  10.611  -1.984  1.00  0.00     0.029 A 
ATOM     30  N   UNL     1       7.057   9.101  -3.360  1.00  0.00    -0.354 N 
ATOM     31  N   UNL     1       6.338   7.998  -5.993  1.00  0.00    -0.248 NA
ATOM     32  C   UNL     1       6.234   8.191  -8.320  1.00  0.00     0.031 C 
ATOM     33  C   UNL     1       8.055  11.084  -3.296  1.00  0.00     0.029 A 
ATOM     34  C   UNL     1       7.523  10.135  -4.155  1.00  0.00     0.049 A 
ATOM     35  H   UNL     1       6.620   8.285  -3.695  1.00  0.00     0.167 HD
ATOM     36  C   UNL     1       6.907   9.206  -6.374  1.00  0.00     0.074 A 
ATOM     37  C   UNL     1       6.831   9.266  -7.821  1.00  0.00     0.031 C 
ATOM     38  C   UNL     1       7.446  10.175  -5.595  1.00  0.00     0.037 A 
BRANCH  25  39
ATOM     39  C   UNL     1       7.190   9.006   0.477  1.00  0.00     0.058 A 
ATOM     40  C   UNL     1       8.204   8.443   1.268  1.00  0.00     0.135 A 
ATOM     41  C   UNL     1       6.417  10.035   1.038  1.00  0.00     0.135 A 
ATOM     42  F   UNL     1       8.963   7.445   0.785  1.00  0.00    -0.206 F 
ATOM     43  C   UNL     1       8.414   8.853   2.580  1.00  0.00     0.059 A 
ATOM     44  C   UNL     1       6.623  10.476   2.341  1.00  0.00     0.059 A 
ATOM     45  F   UNL     1       5.436  10.609   0.324  1.00  0.00    -0.206 F 
ATOM     46  C   UNL     1       7.610   9.863   3.112  1.00  0.00     0.060 A 
BRANCH  46  47
ATOM     47  S   UNL     1       7.857  10.354   4.832  1.00  0.00     0.124 S 
ATOM     48  O   UNL     1       7.195   9.263   5.540  1.00  0.00    -0.237 OA
ATOM     49  O   UNL     1       9.312  10.390   4.944  1.00  0.00    -0.237 OA
ATOM     50  O   UNL     1       7.193  11.651   4.912  1.00  0.00    -0.744 OA
ENDBRANCH  46  47
ENDBRANCH  25  39
BRANCH  26  51
ATOM     51  C   UNL     1       4.915   5.573  -8.627  1.00  0.00     0.058 A 
ATOM     52  C   UNL     1       5.881   5.077  -9.513  1.00  0.00     0.135 A 
ATOM     53  C   UNL     1       3.567   5.497  -9.012  1.00  0.00     0.135 A 
ATOM     54  F   UNL     1       7.181   5.133  -9.188  1.00  0.00    -0.206 F 
ATOM     55  C   UNL     1       5.524   4.511 -10.732  1.00  0.00     0.059 A 
ATOM     56  C   UNL     1       3.185   4.916 -10.216  1.00  0.00     0.059 A 
ATOM     57  F   UNL     1       2.607   5.943  -8.188  1.00  0.00    -0.206 F 
ATOM     58  C   UNL     1       4.171   4.425 -11.070  1.00  0.00     0.060 A 
BRANCH  58  59
ATOM     59  S   UNL     1       3.711   3.592 -12.605  1.00  0.00     0.124 S 
ATOM     60  O   UNL     1       4.029   4.611 -13.599  1.00  0.00    -0.237 OA
ATOM     61  O   UNL     1       4.579   2.419 -12.592  1.00  0.00    -0.237 OA
ATOM     62  O   UNL     1       2.290   3.311 -12.419  1.00  0.00    -0.744 OA
ENDBRANCH  58  59
ENDBRANCH  26  51
BRANCH  38  63
ATOM     63  C   UNL     1       8.026  11.374  -6.286  1.00  0.00     0.058 A 
ATOM     64  C   UNL     1       7.210  12.398  -6.789  1.00  0.00     0.135 A 
ATOM     65  C   UNL     1       9.418  11.534  -6.378  1.00  0.00     0.135 A 
ATOM     66  F   UNL     1       5.873  12.286  -6.732  1.00  0.00    -0.206 F 
ATOM     67  C   UNL     1       7.754  13.541  -7.365  1.00  0.00     0.059 A 
ATOM     68  C   UNL     1       9.984  12.677  -6.933  1.00  0.00     0.059 A 
ATOM     69  F   UNL     1      10.240  10.584  -5.905  1.00  0.00    -0.206 F 
ATOM     70  C   UNL     1       9.143  13.673  -7.428  1.00  0.00     0.060 A 
BRANCH  70  71
ATOM     71  S   UNL     1       9.841  15.188  -8.121  1.00  0.00     0.124 S 
ATOM     72  O   UNL     1       9.673  14.961  -9.552  1.00  0.00    -0.237 OA
ATOM     73  O   UNL     1       8.991  16.222  -7.538  1.00  0.00    -0.237 OA
ATOM     74  O   UNL     1      11.220  15.175  -7.639  1.00  0.00    -0.744 OA
ENDBRANCH  70  71
ENDBRANCH  38  63
ENDBRANCH  12  13
ENDBRANCH   5   7
ENDBRANCH   2   3
ENDBRANCH   1   2
BRANCH   1  75
ATOM     75  C   UNL     1       4.046  -2.675   2.624  1.00  0.00     0.117 C 
BRANCH  75  76
ATOM     76  N   UNL     1       4.938  -3.800   2.411  1.00  0.00    -0.356 N 
ATOM     77  C   UNL     1       5.837  -4.422   3.216  1.00  0.00     0.225 C 
ATOM     78  H   UNL     1       4.881  -4.186   1.507  1.00  0.00     0.163 HD
ATOM     79  O   UNL     1       6.460  -5.365   2.718  1.00  0.00    -0.275 OA
BRANCH  77  80
ATOM     80  C   UNL     1       6.100  -4.014   4.670  1.00  0.00     0.101 C 
BRANCH  80  81
ATOM     81  C   UNL     1       4.869  -4.266   5.546  1.00  0.00     0.015 C 
BRANCH  81  82
ATOM     82  C   UNL     1       4.944  -3.739   6.972  1.00  0.00     0.001 C 
BRANCH  82  83
ATOM     83  C   UNL     1       4.604  -2.259   7.077  1.00  0.00     0.000 CG0
ATOM     84  G   UNL     1       5.737  -1.328   6.676  1.00  0.00     0.000 G0
ENDBRANCH  82  83
ENDBRANCH  81  82
ENDBRANCH  80  81
BRANCH  80  85
ATOM     85  C   UNL     1       6.890  -2.685   4.761  1.00  0.00     0.094 C 
BRANCH  85  86
ATOM     86  C   UNL     1       6.151  -1.415   5.210  1.00  0.00     0.026 C 
BRANCH  86  87
ATOM     87  C   UNL     1       5.737  -1.328   6.676  1.00  0.00     0.002 CG0
ATOM     88  G   UNL     1       4.604  -2.259   7.077  1.00  0.00     0.000 G0
ENDBRANCH  86  87
ENDBRANCH  85  86
BRANCH  85  89
ATOM     89  N   UNL     1       8.071  -2.866   5.624  1.00  0.00    -0.346 N 
ATOM     90  C   UNL     1       9.414  -2.922   5.334  1.00  0.00     0.287 C 
ATOM     91  H   UNL     1       7.860  -2.964   6.581  1.00  0.00     0.164 HD
ATOM     92  O   UNL     1      10.148  -3.317   6.241  1.00  0.00    -0.266 OA
BRANCH  90  93
ATOM     93  C   UNL     1       9.905  -2.537   4.030  1.00  0.00     0.193 A 
ATOM     94  C   UNL     1       9.570  -1.536   3.134  1.00  0.00     0.058 A 
ATOM     95  O   UNL     1      10.977  -3.233   3.534  1.00  0.00    -0.440 OA
ATOM     96  C   UNL     1      10.455  -1.656   2.034  1.00  0.00     0.064 A 
ATOM     97  C   UNL     1      11.297  -2.705   2.323  1.00  0.00     0.194 A 
ATOM     98  Cl  UNL     1      12.581  -3.295   1.347  1.00  0.00    -0.043 Cl
ENDBRANCH  90  93
ENDBRANCH  85  89
ENDBRANCH  80  85
ENDBRANCH  77  80
ENDBRANCH  75  76
ENDBRANCH   1  75
TORSDOF 15
