REMARK SMILES O=C(NCCCNC(=O)c1ccc(C[N@H+]2CC[N@H+]3CCCC[C@@H]3C2)c(F)c1)c1ccc(-c2c3nc(c(-c4c(F)cc(S(=O)(=O)[O-])cc4F)c4ccc([nH]4)c(-c4c(F)cc(S(=O)(=O)[O-])cc4F)c4nc(c(-c5c(F)cc(S(=O)(=O)[O-])cc5F)c5ccc2[nH]5)C=C4)C=C3)cc1
REMARK SMILES IDX 4 1 3 2 1 3 2 4 28 6 29 7 93 8 30 9 92 10 31 11 32 12 33 13
REMARK SMILES IDX 86 14 34 15 91 16 85 17 87 18 35 19 90 20 84 21 83 22 36 24
REMARK SMILES IDX 70 25 49 26 69 27 50 28 53 29 68 30 88 31 51 32 52 33 67 35
REMARK SMILES IDX 89 36 54 37 37 38 38 39 47 40 39 41 40 42 46 43 48 44 41 45
REMARK SMILES IDX 42 46 43 47 44 48 45 49 71 50 72 51 81 52 73 53 74 54 80 55
REMARK SMILES IDX 82 56 75 57 76 58 77 59 78 60 79 61 55 62 56 63 65 64 57 65
REMARK SMILES IDX 58 66 64 67 66 68 59 69 60 70 61 71 62 72 63 73 5 74 6 75
REMARK SMILES IDX 7 76 8 77 9 79 10 80 11 81 27 82 12 83 25 84 13 85 26 86
REMARK SMILES IDX 14 87 15 88 16 89 24 90 17 92 23 93 18 94 22 95 19 96 21 98
REMARK SMILES IDX 20 99
REMARK H PARENT 3 5 87 23 53 34 7 78 15 91 18 97
REMARK Flexibility Score: inf
ROOT
ATOM      1  C   UNL     1       4.557   0.709  -1.518  1.00  0.00     0.118 C 
ENDROOT
BRANCH   1   2
ATOM      2  N   UNL     1       3.136   0.607  -1.203  1.00  0.00    -0.352 N 
ATOM      3  O   UNL     1       1.256   0.020  -0.136  1.00  0.00    -0.269 OA
ATOM      4  C   UNL     1       2.474   0.181  -0.074  1.00  0.00     0.251 C 
ATOM      5  H   UNL     1       2.541   0.896  -1.932  1.00  0.00     0.163 HD
BRANCH   4   6
ATOM      6  C   UNL     1       3.189  -0.100   1.194  1.00  0.00     0.039 A 
ATOM      7  C   UNL     1       4.290   0.654   1.593  1.00  0.00     0.014 A 
ATOM      8  C   UNL     1       2.709  -1.107   2.043  1.00  0.00     0.014 A 
ATOM      9  C   UNL     1       5.011   0.297   2.727  1.00  0.00     0.010 A 
ATOM     10  C   UNL     1       3.366  -1.389   3.249  1.00  0.00     0.010 A 
ATOM     11  C   UNL     1       4.544  -0.709   3.588  1.00  0.00    -0.014 A 
BRANCH  11  12
ATOM     12  C   UNL     1       5.269  -0.960   4.863  1.00  0.00     0.031 A 
ATOM     13  C   UNL     1       5.918  -2.288   5.147  1.00  0.00     0.074 A 
ATOM     14  C   UNL     1       5.391   0.055   5.745  1.00  0.00     0.049 A 
ATOM     15  N   UNL     1       6.622  -2.650   6.190  1.00  0.00    -0.248 NA
ATOM     16  C   UNL     1       5.761  -3.348   4.138  1.00  0.00     0.031 C 
ATOM     17  C   UNL     1       4.806   1.390   5.576  1.00  0.00     0.029 A 
ATOM     18  N   UNL     1       6.070   0.145   6.934  1.00  0.00    -0.354 N 
ATOM     19  C   UNL     1       6.990  -3.972   5.967  1.00  0.00     0.074 A 
ATOM     20  C   UNL     1       6.399  -4.364   4.705  1.00  0.00     0.031 C 
ATOM     21  C   UNL     1       5.210   2.181   6.579  1.00  0.00     0.029 A 
ATOM     22  C   UNL     1       6.015   1.396   7.506  1.00  0.00     0.049 A 
ATOM     23  H   UNL     1       6.550  -0.612   7.339  1.00  0.00     0.167 HD
ATOM     24  C   UNL     1       7.762  -4.776   6.737  1.00  0.00     0.037 A 
ATOM     25  C   UNL     1       6.540   1.861   8.656  1.00  0.00     0.037 A 
ATOM     26  C   UNL     1       8.354  -4.371   7.989  1.00  0.00     0.049 A 
ATOM     27  C   UNL     1       7.338   0.926   9.518  1.00  0.00     0.074 A 
ATOM     28  C   UNL     1       9.153  -5.116   8.840  1.00  0.00     0.029 A 
ATOM     29  N   UNL     1       8.217  -3.118   8.567  1.00  0.00    -0.354 N 
ATOM     30  N   UNL     1       7.674  -0.321   9.287  1.00  0.00    -0.248 NA
ATOM     31  C   UNL     1       7.820   1.454  10.801  1.00  0.00     0.031 C 
ATOM     32  C   UNL     1       9.461  -4.329   9.953  1.00  0.00     0.029 A 
ATOM     33  C   UNL     1       8.902  -3.075   9.772  1.00  0.00     0.049 A 
ATOM     34  H   UNL     1       7.710  -2.369   8.179  1.00  0.00     0.167 HD
ATOM     35  C   UNL     1       8.423  -0.720  10.387  1.00  0.00     0.074 A 
ATOM     36  C   UNL     1       8.508   0.423  11.273  1.00  0.00     0.031 C 
ATOM     37  C   UNL     1       8.985  -1.927  10.641  1.00  0.00     0.037 A 
BRANCH  24  38
ATOM     38  C   UNL     1       8.032  -6.178   6.260  1.00  0.00     0.058 A 
ATOM     39  C   UNL     1       7.497  -7.282   6.944  1.00  0.00     0.135 A 
ATOM     40  C   UNL     1       8.907  -6.433   5.192  1.00  0.00     0.135 A 
ATOM     41  F   UNL     1       6.652  -7.098   7.970  1.00  0.00    -0.206 F 
ATOM     42  C   UNL     1       7.843  -8.587   6.605  1.00  0.00     0.059 A 
ATOM     43  C   UNL     1       9.247  -7.731   4.819  1.00  0.00     0.059 A 
ATOM     44  F   UNL     1       9.431  -5.415   4.491  1.00  0.00    -0.206 F 
ATOM     45  C   UNL     1       8.724  -8.801   5.544  1.00  0.00     0.060 A 
BRANCH  45  46
ATOM     46  S   UNL     1       9.165 -10.501   5.120  1.00  0.00     0.124 S 
ATOM     47  O   UNL     1       9.938 -10.911   6.287  1.00  0.00    -0.237 OA
ATOM     48  O   UNL     1       7.855 -11.126   4.972  1.00  0.00    -0.237 OA
ATOM     49  O   UNL     1       9.925 -10.354   3.882  1.00  0.00    -0.744 OA
ENDBRANCH  45  46
ENDBRANCH  24  38
BRANCH  25  50
ATOM     50  C   UNL     1       6.324   3.279   9.053  1.00  0.00     0.058 A 
ATOM     51  C   UNL     1       5.045   3.758   9.379  1.00  0.00     0.135 A 
ATOM     52  C   UNL     1       7.392   4.187   9.099  1.00  0.00     0.135 A 
ATOM     53  F   UNL     1       3.986   2.935   9.340  1.00  0.00    -0.206 F 
ATOM     54  C   UNL     1       4.829   5.090   9.712  1.00  0.00     0.059 A 
ATOM     55  C   UNL     1       7.206   5.518   9.463  1.00  0.00     0.059 A 
ATOM     56  F   UNL     1       8.635   3.775   8.806  1.00  0.00    -0.206 F 
ATOM     57  C   UNL     1       5.917   5.962   9.754  1.00  0.00     0.060 A 
BRANCH  57  58
ATOM     58  S   UNL     1       5.615   7.682  10.210  1.00  0.00     0.124 S 
ATOM     59  O   UNL     1       4.890   8.171   9.042  1.00  0.00    -0.237 OA
ATOM     60  O   UNL     1       4.831   7.540  11.432  1.00  0.00    -0.237 OA
ATOM     61  O   UNL     1       6.958   8.225  10.388  1.00  0.00    -0.744 OA
ENDBRANCH  57  58
ENDBRANCH  25  50
BRANCH  37  62
ATOM     62  C   UNL     1       9.768  -2.074  11.916  1.00  0.00     0.058 A 
ATOM     63  C   UNL     1      11.163  -2.225  11.880  1.00  0.00     0.135 A 
ATOM     64  C   UNL     1       9.133  -2.134  13.166  1.00  0.00     0.135 A 
ATOM     65  F   UNL     1      11.820  -2.179  10.710  1.00  0.00    -0.206 F 
ATOM     66  C   UNL     1      11.900  -2.449  13.038  1.00  0.00     0.059 A 
ATOM     67  C   UNL     1       9.854  -2.327  14.341  1.00  0.00     0.059 A 
ATOM     68  F   UNL     1       7.802  -1.982  13.256  1.00  0.00    -0.206 F 
ATOM     69  C   UNL     1      11.236  -2.501  14.264  1.00  0.00     0.060 A 
BRANCH  69  70
ATOM     70  S   UNL     1      12.210  -2.781  15.757  1.00  0.00     0.124 S 
ATOM     71  O   UNL     1      12.617  -4.172  15.592  1.00  0.00    -0.237 OA
ATOM     72  O   UNL     1      13.271  -1.788  15.623  1.00  0.00    -0.237 OA
ATOM     73  O   UNL     1      11.259  -2.529  16.835  1.00  0.00    -0.744 OA
ENDBRANCH  69  70
ENDBRANCH  37  62
ENDBRANCH  11  12
ENDBRANCH   4   6
ENDBRANCH   1   2
BRANCH   1  74
ATOM     74  C   UNL     1       5.004  -0.321  -2.546  1.00  0.00     0.042 C 
BRANCH  74  75
ATOM     75  C   UNL     1       4.418  -0.120  -3.940  1.00  0.00     0.118 C 
BRANCH  75  76
ATOM     76  N   UNL     1       5.012   1.019  -4.624  1.00  0.00    -0.352 N 
ATOM     77  C   UNL     1       5.954   1.038  -5.625  1.00  0.00     0.251 C 
ATOM     78  H   UNL     1       4.695   1.902  -4.327  1.00  0.00     0.163 HD
ATOM     79  O   UNL     1       6.466   2.090  -5.985  1.00  0.00    -0.269 OA
BRANCH  77  80
ATOM     80  C   UNL     1       6.361  -0.224  -6.271  1.00  0.00     0.042 A 
ATOM     81  C   UNL     1       5.447  -0.957  -7.033  1.00  0.00     0.014 A 
ATOM     82  C   UNL     1       7.679  -0.657  -6.138  1.00  0.00     0.053 A 
ATOM     83  C   UNL     1       5.834  -2.179  -7.590  1.00  0.00     0.013 A 
ATOM     84  C   UNL     1       8.041  -1.890  -6.673  1.00  0.00     0.132 A 
ATOM     85  C   UNL     1       7.119  -2.697  -7.350  1.00  0.00     0.042 A 
ATOM     86  F   UNL     1       9.297  -2.321  -6.493  1.00  0.00    -0.206 F 
BRANCH  85  87
ATOM     87  C   UNL     1       7.489  -4.099  -7.776  1.00  0.00     0.302 C 
BRANCH  87  88
ATOM     88  N   UNL     1       7.180  -5.214  -6.869  1.00  0.00    -0.322 N 
ATOM     89  C   UNL     1       7.943  -5.263  -5.612  1.00  0.00     0.324 C 
ATOM     90  C   UNL     1       5.759  -5.485  -6.617  1.00  0.00     0.328 C 
ATOM     91  H   UNL     1       7.519  -5.982  -7.449  1.00  0.00     0.348 HD
ATOM     92  C   UNL     1       7.309  -4.550  -4.389  1.00  0.00     0.324 C 
ATOM     93  C   UNL     1       5.143  -4.646  -5.473  1.00  0.00     0.239 C 
ATOM     94  N   UNL     1       5.862  -4.811  -4.195  1.00  0.00    -0.323 N 
ATOM     95  C   UNL     1       3.651  -4.951  -5.301  1.00  0.00     0.071 C 
ATOM     96  C   UNL     1       5.328  -3.889  -3.181  1.00  0.00     0.262 C 
ATOM     97  H   UNL     1       5.731  -5.770  -3.872  1.00  0.00     0.348 HD
ATOM     98  C   UNL     1       3.048  -3.963  -4.308  1.00  0.00     0.012 C 
ATOM     99  C   UNL     1       3.811  -4.012  -2.989  1.00  0.00     0.062 C 
ENDBRANCH  87  88
ENDBRANCH  85  87
ENDBRANCH  77  80
ENDBRANCH  75  76
ENDBRANCH  74  75
ENDBRANCH   1  74
TORSDOF 15
