REMARK SMILES Cc1nn(C(C)C)c(C)c1S(=O)(=O)Nc1cccc(C(=O)NCCCNC(=O)c2ccc(-c3c4nc(c(-c5c(F)cc(S(=O)(=O)[O-])cc5F)c5ccc([nH]5)c(-c5c(F)cc(S(=O)(=O)[O-])cc5F)c5nc(c(-c6c(F)cc(S(=O)(=O)[O-])cc6F)c6ccc3[nH]6)C=C5)C=C4)cc2)c1C
REMARK SMILES IDX 23 1 22 2 20 3 21 4 19 6 15 7 16 8 95 9 17 10 96 11 18 12
REMARK SMILES IDX 14 13 11 15 12 16 13 17 10 18 1 19 2 20 3 21 4 22 8 23 9 24
REMARK SMILES IDX 5 25 6 26 7 27 24 28 25 29 26 30 27 31 28 33 29 34 30 35
REMARK SMILES IDX 94 36 31 37 93 38 32 39 33 40 34 41 87 42 35 43 92 44 86 45
REMARK SMILES IDX 88 46 36 47 91 48 85 49 84 50 37 52 71 53 50 54 70 55 51 56
REMARK SMILES IDX 54 57 69 58 89 59 52 60 53 61 68 63 90 64 55 65 38 66 39 67
REMARK SMILES IDX 48 68 40 69 41 70 47 71 49 72 42 73 43 74 44 75 45 76 46 77
REMARK SMILES IDX 72 78 73 79 82 80 74 81 75 82 81 83 83 84 76 85 77 86 78 87
REMARK SMILES IDX 79 88 80 89 56 90 57 91 66 92 58 93 59 94 65 95 67 96 60 97
REMARK SMILES IDX 61 98 62 99 63 100 64 101
REMARK H PARENT 22 5 14 14 26 32 88 51 54 62
REMARK Flexibility Score: inf
ROOT
ATOM      1  C   UNL     1       0.632  -3.196   3.008  1.00  0.00     0.118 C 
ENDROOT
BRANCH   1   2
ATOM      2  N   UNL     1       0.649  -2.135   4.014  1.00  0.00    -0.352 N 
ATOM      3  C   UNL     1       1.003  -0.807   3.968  1.00  0.00     0.251 C 
ATOM      4  O   UNL     1       0.838  -0.120   4.973  1.00  0.00    -0.269 OA
ATOM      5  H   UNL     1       0.347  -2.432   4.903  1.00  0.00     0.163 HD
BRANCH   3   6
ATOM      6  C   UNL     1       1.590  -0.190   2.747  1.00  0.00     0.044 A 
ATOM      7  C   UNL     1       1.667   1.482   0.978  1.00  0.00     0.053 A 
ATOM      8  C   UNL     1       2.773   0.840   0.417  1.00  0.00     0.027 A 
ATOM      9  C   UNL     1       1.129   1.038   2.215  1.00  0.00    -0.014 A 
ATOM     10  C   UNL     1       3.286  -0.308   1.009  1.00  0.00     0.003 A 
ATOM     11  C   UNL     1       0.035   1.852   2.868  1.00  0.00     0.047 C 
ATOM     12  C   UNL     1       2.691  -0.822   2.158  1.00  0.00     0.014 A 
BRANCH   7  13
ATOM     13  N   UNL     1       1.046   2.614   0.365  1.00  0.00    -0.279 N 
ATOM     14  H   UNL     1       0.592   3.256   0.958  1.00  0.00     0.180 HD
BRANCH  13  15
ATOM     15  S   UNL     1       1.029   2.936  -1.272  1.00  0.00     0.265 S 
ATOM     16  O   UNL     1       2.393   3.003  -1.756  1.00  0.00    -0.201 OA
ATOM     17  O   UNL     1       0.160   4.088  -1.421  1.00  0.00    -0.201 OA
BRANCH  15  18
ATOM     18  C   UNL     1       0.292   1.748  -2.283  1.00  0.00     0.131 A 
ATOM     19  C   UNL     1      -0.278  -0.322  -0.724  1.00  0.00     0.070 C 
ATOM     20  C   UNL     1      -0.177   0.446  -1.985  1.00  0.00     0.080 A 
ATOM     21  N   UNL     1      -0.604  -0.175  -3.093  1.00  0.00    -0.176 NA
ATOM     22  N   UNL     1      -0.479   0.729  -4.074  1.00  0.00    -0.266 N 
ATOM     23  C   UNL     1       0.039   1.922  -3.642  1.00  0.00     0.056 A 
ATOM     24  C   UNL     1       0.237   3.095  -4.532  1.00  0.00     0.068 C 
BRANCH  22  25
ATOM     25  C   UNL     1      -0.866   0.349  -5.431  1.00  0.00     0.101 C 
ATOM     26  C   UNL     1       0.181  -0.574  -6.054  1.00  0.00     0.033 C 
ATOM     27  C   UNL     1      -2.258  -0.287  -5.468  1.00  0.00     0.033 C 
ENDBRANCH  22  25
ENDBRANCH  15  18
ENDBRANCH  13  15
ENDBRANCH   7  13
ENDBRANCH   3   6
ENDBRANCH   1   2
BRANCH   1  28
ATOM     28  C   UNL     1       1.782  -4.199   3.151  1.00  0.00     0.042 C 
BRANCH  28  29
ATOM     29  C   UNL     1       1.810  -4.922   4.492  1.00  0.00     0.118 C 
BRANCH  29  30
ATOM     30  N   UNL     1       1.703  -6.373   4.397  1.00  0.00    -0.352 N 
ATOM     31  C   UNL     1       2.463  -7.180   5.246  1.00  0.00     0.251 C 
ATOM     32  H   UNL     1       1.097  -6.782   3.737  1.00  0.00     0.163 HD
ATOM     33  O   UNL     1       3.376  -7.891   4.897  1.00  0.00    -0.269 OA
BRANCH  31  34
ATOM     34  C   UNL     1       2.127  -6.991   6.677  1.00  0.00     0.039 A 
ATOM     35  C   UNL     1       1.093  -7.724   7.260  1.00  0.00     0.014 A 
ATOM     36  C   UNL     1       2.669  -5.872   7.309  1.00  0.00     0.014 A 
ATOM     37  C   UNL     1       0.498  -7.247   8.429  1.00  0.00     0.010 A 
ATOM     38  C   UNL     1       2.023  -5.359   8.414  1.00  0.00     0.010 A 
ATOM     39  C   UNL     1       0.912  -6.024   8.955  1.00  0.00    -0.014 A 
BRANCH  39  40
ATOM     40  C   UNL     1       0.219  -5.307  10.021  1.00  0.00     0.031 A 
ATOM     41  C   UNL     1       0.850  -5.167  11.356  1.00  0.00     0.074 A 
ATOM     42  C   UNL     1      -0.920  -4.632   9.749  1.00  0.00     0.049 A 
ATOM     43  N   UNL     1       0.255  -4.679  12.393  1.00  0.00    -0.248 NA
ATOM     44  C   UNL     1       2.197  -5.654  11.654  1.00  0.00     0.031 C 
ATOM     45  C   UNL     1      -1.483  -3.516  10.505  1.00  0.00     0.029 A 
ATOM     46  N   UNL     1      -1.927  -4.980   8.844  1.00  0.00    -0.354 N 
ATOM     47  C   UNL     1       1.208  -4.484  13.363  1.00  0.00     0.074 A 
ATOM     48  C   UNL     1       2.346  -5.243  12.918  1.00  0.00     0.031 C 
ATOM     49  C   UNL     1      -2.789  -3.411  10.225  1.00  0.00     0.029 A 
ATOM     50  C   UNL     1      -3.148  -4.559   9.413  1.00  0.00     0.049 A 
ATOM     51  H   UNL     1      -1.808  -5.431   7.977  1.00  0.00     0.167 HD
ATOM     52  C   UNL     1       0.967  -3.572  14.347  1.00  0.00     0.037 A 
ATOM     53  C   UNL     1      -4.133  -5.451   9.733  1.00  0.00     0.037 A 
ATOM     54  C   UNL     1      -0.461  -3.252  14.421  1.00  0.00     0.049 A 
ATOM     55  C   UNL     1      -4.505  -5.477  11.199  1.00  0.00     0.074 A 
ATOM     56  C   UNL     1      -1.216  -2.138  14.103  1.00  0.00     0.029 A 
ATOM     57  N   UNL     1      -1.367  -4.280  14.676  1.00  0.00    -0.354 N 
ATOM     58  N   UNL     1      -3.801  -4.917  12.144  1.00  0.00    -0.248 NA
ATOM     59  C   UNL     1      -5.689  -6.157  11.721  1.00  0.00     0.031 C 
ATOM     60  C   UNL     1      -2.582  -2.536  14.061  1.00  0.00     0.029 A 
ATOM     61  C   UNL     1      -2.658  -3.877  14.400  1.00  0.00     0.049 A 
ATOM     62  H   UNL     1      -1.120  -5.174  15.008  1.00  0.00     0.167 HD
ATOM     63  C   UNL     1      -4.361  -5.195  13.365  1.00  0.00     0.074 A 
ATOM     64  C   UNL     1      -5.566  -5.935  13.042  1.00  0.00     0.031 C 
ATOM     65  C   UNL     1      -3.769  -4.814  14.537  1.00  0.00     0.037 A 
BRANCH  52  66
ATOM     66  C   UNL     1       2.044  -2.812  15.111  1.00  0.00     0.058 A 
ATOM     67  C   UNL     1       1.686  -1.872  16.107  1.00  0.00     0.135 A 
ATOM     68  C   UNL     1       3.428  -2.841  14.819  1.00  0.00     0.135 A 
ATOM     69  F   UNL     1       0.408  -1.715  16.483  1.00  0.00    -0.206 F 
ATOM     70  C   UNL     1       2.613  -1.026  16.733  1.00  0.00     0.059 A 
ATOM     71  C   UNL     1       4.375  -2.045  15.466  1.00  0.00     0.059 A 
ATOM     72  F   UNL     1       3.943  -3.590  13.840  1.00  0.00    -0.206 F 
ATOM     73  C   UNL     1       3.959  -1.117  16.402  1.00  0.00     0.060 A 
BRANCH  73  74
ATOM     74  S   UNL     1       5.157  -0.008  17.166  1.00  0.00     0.124 S 
ATOM     75  O   UNL     1       4.860   1.258  16.503  1.00  0.00    -0.237 OA
ATOM     76  O   UNL     1       4.804  -0.086  18.579  1.00  0.00    -0.237 OA
ATOM     77  O   UNL     1       6.444  -0.606  16.816  1.00  0.00    -0.744 OA
ENDBRANCH  73  74
ENDBRANCH  52  66
BRANCH  53  78
ATOM     78  C   UNL     1      -4.193  -6.603   8.791  1.00  0.00     0.058 A 
ATOM     79  C   UNL     1      -4.599  -6.326   7.472  1.00  0.00     0.135 A 
ATOM     80  C   UNL     1      -3.409  -7.745   9.004  1.00  0.00     0.135 A 
ATOM     81  F   UNL     1      -5.384  -5.265   7.221  1.00  0.00    -0.206 F 
ATOM     82  C   UNL     1      -4.071  -7.018   6.387  1.00  0.00     0.059 A 
ATOM     83  C   UNL     1      -2.881  -8.465   7.929  1.00  0.00     0.059 A 
ATOM     84  F   UNL     1      -3.010  -8.071  10.242  1.00  0.00    -0.206 F 
ATOM     85  C   UNL     1      -3.139  -8.025   6.629  1.00  0.00     0.060 A 
BRANCH  85  86
ATOM     86  S   UNL     1      -2.145  -8.616   5.234  1.00  0.00     0.124 S 
ATOM     87  O   UNL     1      -3.162  -8.916   4.234  1.00  0.00    -0.237 OA
ATOM     88  O   UNL     1      -1.298  -7.456   4.945  1.00  0.00    -0.237 OA
ATOM     89  O   UNL     1      -1.445  -9.769   5.788  1.00  0.00    -0.744 OA
ENDBRANCH  85  86
ENDBRANCH  53  78
BRANCH  65  90
ATOM     90  C   UNL     1      -4.207  -5.239  15.923  1.00  0.00     0.058 A 
ATOM     91  C   UNL     1      -4.817  -6.472  16.217  1.00  0.00     0.135 A 
ATOM     92  C   UNL     1      -3.889  -4.438  17.047  1.00  0.00     0.135 A 
ATOM     93  F   UNL     1      -5.061  -7.376  15.258  1.00  0.00    -0.206 F 
ATOM     94  C   UNL     1      -5.159  -6.850  17.519  1.00  0.00     0.059 A 
ATOM     95  C   UNL     1      -4.172  -4.820  18.357  1.00  0.00     0.059 A 
ATOM     96  F   UNL     1      -3.281  -3.251  16.906  1.00  0.00    -0.206 F 
ATOM     97  C   UNL     1      -4.834  -6.018  18.584  1.00  0.00     0.060 A 
BRANCH  97  98
ATOM     98  S   UNL     1      -5.213  -6.516  20.276  1.00  0.00     0.124 S 
ATOM     99  O   UNL     1      -6.477  -5.825  20.508  1.00  0.00    -0.237 OA
ATOM    100  O   UNL     1      -5.301  -7.970  20.180  1.00  0.00    -0.237 OA
ATOM    101  O   UNL     1      -4.068  -6.015  21.029  1.00  0.00    -0.744 OA
ENDBRANCH  97  98
ENDBRANCH  65  90
ENDBRANCH  39  40
ENDBRANCH  31  34
ENDBRANCH  29  30
ENDBRANCH  28  29
ENDBRANCH   1  28
TORSDOF 17
