REMARK SMILES C=CC[N@H+](CC(=O)NCCCNC(=O)c1ccc(-c2c3nc(c(-c4c(F)cc(S(=O)(=O)[O-])cc4F)c4ccc([nH]4)c(-c4c(F)cc(S(=O)(=O)[O-])cc4F)c4nc(c(-c5c(F)cc(S(=O)(=O)[O-])cc5F)c5ccc2[nH]5)C=C4)C=C3)cc1)[C@H](C)c1ccsc1
REMARK SMILES IDX 10 1 9 2 8 3 6 4 7 5 5 7 4 8 3 10 2 11 1 12 81 13 82 14
REMARK SMILES IDX 83 15 84 16 87 17 85 18 86 19 11 20 12 21 13 22 14 24 15 25
REMARK SMILES IDX 16 26 80 27 17 28 79 29 18 30 19 31 20 32 73 33 21 34 78 35
REMARK SMILES IDX 72 36 74 37 22 38 77 39 71 40 70 41 23 43 57 44 36 45 56 46
REMARK SMILES IDX 37 47 40 48 55 49 75 50 38 51 39 52 54 54 76 55 41 56 24 57
REMARK SMILES IDX 25 58 34 59 26 60 27 61 33 62 35 63 28 64 29 65 30 66 31 67
REMARK SMILES IDX 32 68 58 69 59 70 68 71 60 72 61 73 67 74 69 75 62 76 63 77
REMARK SMILES IDX 64 78 65 79 66 80 42 81 43 82 52 83 44 84 45 85 51 86 53 87
REMARK SMILES IDX 46 88 47 89 48 90 49 91 50 92
REMARK H PARENT 8 6 4 9 12 23 74 42 40 53
REMARK Flexibility Score: inf
ROOT
ATOM      1  C   UNL     1      -2.009  -1.946  -2.546  1.00  0.00     0.042 C 
ENDROOT
BRANCH   1   2
ATOM      2  C   UNL     1      -3.216  -1.768  -1.615  1.00  0.00     0.118 C 
BRANCH   2   3
ATOM      3  N   UNL     1      -3.405  -2.880  -0.688  1.00  0.00    -0.351 N 
ATOM      4  C   UNL     1      -3.234  -2.978   0.670  1.00  0.00     0.275 C 
ATOM      5  O   UNL     1      -3.495  -4.064   1.195  1.00  0.00    -0.269 OA
ATOM      6  H   UNL     1      -3.712  -3.712  -1.116  1.00  0.00     0.163 HD
BRANCH   4   7
ATOM      7  C   UNL     1      -2.774  -1.773   1.512  1.00  0.00     0.364 C 
BRANCH   7   8
ATOM      8  N   UNL     1      -1.295  -1.723   1.748  1.00  0.00    -0.318 N 
ATOM      9  H   UNL     1      -0.937  -2.581   2.168  1.00  0.00     0.349 HD
BRANCH   8  10
ATOM     10  C   UNL     1      -0.613  -1.627   0.456  1.00  0.00     0.291 C 
BRANCH  10  11
ATOM     11  C   UNL     1       0.877  -1.562   0.326  1.00  0.00     0.025 C 
ATOM     12  C   UNL     1       1.636  -2.527  -0.214  1.00  0.00     0.010 C 
ENDBRANCH  10  11
ENDBRANCH   8  10
BRANCH   8  13
ATOM     13  C   UNL     1      -0.973  -0.685   2.762  1.00  0.00     0.213 C 
ATOM     14  C   UNL     1      -1.486   0.725   2.424  1.00  0.00     0.081 C 
BRANCH  13  15
ATOM     15  C   UNL     1       0.491  -0.764   3.176  1.00  0.00     0.020 A 
ATOM     16  C   UNL     1       1.462   0.301   3.140  1.00  0.00     0.021 A 
ATOM     17  C   UNL     1       1.093  -1.929   3.635  1.00  0.00     0.074 A 
ATOM     18  C   UNL     1       2.728  -0.110   3.496  1.00  0.00     0.065 A 
ATOM     19  S   UNL     1       2.764  -1.756   3.943  1.00  0.00    -0.152 S 
ENDBRANCH  13  15
ENDBRANCH   8  13
ENDBRANCH   7   8
ENDBRANCH   4   7
ENDBRANCH   2   3
ENDBRANCH   1   2
BRANCH   1  20
ATOM     20  C   UNL     1      -2.163  -3.046  -3.589  1.00  0.00     0.118 C 
BRANCH  20  21
ATOM     21  N   UNL     1      -2.617  -2.507  -4.858  1.00  0.00    -0.352 N 
ATOM     22  C   UNL     1      -1.927  -2.281  -6.025  1.00  0.00     0.251 C 
ATOM     23  H   UNL     1      -3.571  -2.266  -4.888  1.00  0.00     0.163 HD
ATOM     24  O   UNL     1      -2.439  -1.549  -6.870  1.00  0.00    -0.269 OA
BRANCH  22  25
ATOM     25  C   UNL     1      -0.592  -2.884  -6.289  1.00  0.00     0.039 A 
ATOM     26  C   UNL     1       0.328  -2.156  -7.054  1.00  0.00     0.014 A 
ATOM     27  C   UNL     1      -0.261  -4.181  -5.886  1.00  0.00     0.014 A 
ATOM     28  C   UNL     1       1.573  -2.708  -7.382  1.00  0.00     0.010 A 
ATOM     29  C   UNL     1       1.010  -4.701  -6.147  1.00  0.00     0.010 A 
ATOM     30  C   UNL     1       1.937  -3.981  -6.916  1.00  0.00    -0.014 A 
BRANCH  30  31
ATOM     31  C   UNL     1       3.262  -4.577  -7.251  1.00  0.00     0.031 A 
ATOM     32  C   UNL     1       3.346  -5.841  -8.073  1.00  0.00     0.074 A 
ATOM     33  C   UNL     1       4.393  -4.015  -6.776  1.00  0.00     0.049 A 
ATOM     34  N   UNL     1       4.401  -6.537  -8.413  1.00  0.00    -0.248 NA
ATOM     35  C   UNL     1       2.077  -6.411  -8.555  1.00  0.00     0.031 C 
ATOM     36  C   UNL     1       4.453  -2.826  -5.923  1.00  0.00     0.029 A 
ATOM     37  N   UNL     1       5.709  -4.378  -6.928  1.00  0.00    -0.354 N 
ATOM     38  C   UNL     1       3.924  -7.637  -9.118  1.00  0.00     0.074 A 
ATOM     39  C   UNL     1       2.482  -7.535  -9.131  1.00  0.00     0.031 C 
ATOM     40  C   UNL     1       5.736  -2.555  -5.634  1.00  0.00     0.029 A 
ATOM     41  C   UNL     1       6.590  -3.565  -6.252  1.00  0.00     0.049 A 
ATOM     42  H   UNL     1       5.996  -5.149  -7.470  1.00  0.00     0.167 HD
ATOM     43  C   UNL     1       4.624  -8.633  -9.715  1.00  0.00     0.037 A 
ATOM     44  C   UNL     1       7.931  -3.630  -6.131  1.00  0.00     0.037 A 
ATOM     45  C   UNL     1       6.061  -8.704  -9.752  1.00  0.00     0.049 A 
ATOM     46  C   UNL     1       8.686  -4.722  -6.841  1.00  0.00     0.074 A 
ATOM     47  C   UNL     1       6.858  -9.618 -10.421  1.00  0.00     0.029 A 
ATOM     48  N   UNL     1       6.917  -7.833  -9.097  1.00  0.00    -0.354 N 
ATOM     49  N   UNL     1       8.219  -5.701  -7.577  1.00  0.00    -0.248 NA
ATOM     50  C   UNL     1      10.151  -4.714  -6.712  1.00  0.00     0.031 C 
ATOM     51  C   UNL     1       8.195  -9.325 -10.136  1.00  0.00     0.029 A 
ATOM     52  C   UNL     1       8.233  -8.202  -9.325  1.00  0.00     0.049 A 
ATOM     53  H   UNL     1       6.633  -7.066  -8.549  1.00  0.00     0.167 HD
ATOM     54  C   UNL     1       9.332  -6.411  -8.016  1.00  0.00     0.074 A 
ATOM     55  C   UNL     1      10.496  -5.740  -7.476  1.00  0.00     0.031 C 
ATOM     56  C   UNL     1       9.384  -7.520  -8.793  1.00  0.00     0.037 A 
BRANCH  43  57
ATOM     57  C   UNL     1       3.854  -9.732 -10.395  1.00  0.00     0.058 A 
ATOM     58  C   UNL     1       3.195  -9.525 -11.616  1.00  0.00     0.135 A 
ATOM     59  C   UNL     1       3.847 -11.030  -9.858  1.00  0.00     0.135 A 
ATOM     60  F   UNL     1       3.160  -8.302 -12.167  1.00  0.00    -0.206 F 
ATOM     61  C   UNL     1       2.546 -10.564 -12.276  1.00  0.00     0.059 A 
ATOM     62  C   UNL     1       3.224 -12.089 -10.512  1.00  0.00     0.059 A 
ATOM     63  F   UNL     1       4.462 -11.282  -8.691  1.00  0.00    -0.206 F 
ATOM     64  C   UNL     1       2.569 -11.844 -11.718  1.00  0.00     0.060 A 
BRANCH  64  65
ATOM     65  S   UNL     1       1.754 -13.187 -12.608  1.00  0.00     0.124 S 
ATOM     66  O   UNL     1       0.347 -12.882 -12.371  1.00  0.00    -0.237 OA
ATOM     67  O   UNL     1       2.224 -12.989 -13.974  1.00  0.00    -0.237 OA
ATOM     68  O   UNL     1       2.256 -14.388 -11.944  1.00  0.00    -0.744 OA
ENDBRANCH  64  65
ENDBRANCH  43  57
BRANCH  44  69
ATOM     69  C   UNL     1       8.655  -2.628  -5.301  1.00  0.00     0.058 A 
ATOM     70  C   UNL     1       9.477  -1.656  -5.889  1.00  0.00     0.135 A 
ATOM     71  C   UNL     1       8.546  -2.633  -3.902  1.00  0.00     0.135 A 
ATOM     72  F   UNL     1       9.619  -1.615  -7.223  1.00  0.00    -0.206 F 
ATOM     73  C   UNL     1      10.188  -0.740  -5.120  1.00  0.00     0.059 A 
ATOM     74  C   UNL     1       9.226  -1.711  -3.113  1.00  0.00     0.059 A 
ATOM     75  F   UNL     1       7.758  -3.532  -3.292  1.00  0.00    -0.206 F 
ATOM     76  C   UNL     1      10.057  -0.777  -3.731  1.00  0.00     0.060 A 
BRANCH  76  77
ATOM     77  S   UNL     1      10.957   0.434  -2.739  1.00  0.00     0.124 S 
ATOM     78  O   UNL     1      12.311  -0.106  -2.774  1.00  0.00    -0.237 OA
ATOM     79  O   UNL     1      10.743   1.668  -3.489  1.00  0.00    -0.237 OA
ATOM     80  O   UNL     1      10.284   0.373  -1.445  1.00  0.00    -0.744 OA
ENDBRANCH  76  77
ENDBRANCH  44  69
BRANCH  56  81
ATOM     81  C   UNL     1      10.742  -8.066  -9.136  1.00  0.00     0.058 A 
ATOM     82  C   UNL     1      11.520  -8.752  -8.191  1.00  0.00     0.135 A 
ATOM     83  C   UNL     1      11.247  -7.947 -10.441  1.00  0.00     0.135 A 
ATOM     84  F   UNL     1      11.085  -8.888  -6.929  1.00  0.00    -0.206 F 
ATOM     85  C   UNL     1      12.762  -9.285  -8.522  1.00  0.00     0.059 A 
ATOM     86  C   UNL     1      12.475  -8.493 -10.801  1.00  0.00     0.059 A 
ATOM     87  F   UNL     1      10.538  -7.309 -11.386  1.00  0.00    -0.206 F 
ATOM     88  C   UNL     1      13.231  -9.151  -9.831  1.00  0.00     0.060 A 
BRANCH  88  89
ATOM     89  S   UNL     1      14.828  -9.875 -10.258  1.00  0.00     0.124 S 
ATOM     90  O   UNL     1      15.754  -8.922  -9.656  1.00  0.00    -0.237 OA
ATOM     91  O   UNL     1      14.761 -11.185  -9.617  1.00  0.00    -0.237 OA
ATOM     92  O   UNL     1      14.811  -9.898 -11.718  1.00  0.00    -0.744 OA
ENDBRANCH  88  89
ENDBRANCH  56  81
ENDBRANCH  30  31
ENDBRANCH  22  25
ENDBRANCH  20  21
ENDBRANCH   1  20
TORSDOF 18
