REMARK SMILES COc1cccc(C(=O)N[C@H]2C=C[C@@H](C(=O)NCCCNC(=O)c3ccc(-c4c5nc(c(-c6c(F)cc(S(=O)(=O)[O-])cc6F)c6ccc([nH]6)c(-c6c(F)cc(S(=O)(=O)[O-])cc6F)c6nc(c(-c7c(F)cc(S(=O)(=O)[O-])cc7F)c7ccc4[nH]7)C=C6)C=C5)cc3)C2)c1
REMARK SMILES IDX 19 1 18 2 17 3 15 4 16 5 14 7 11 8 12 9 90 10 13 11 10 12
REMARK SMILES IDX 8 13 9 14 7 16 3 17 4 18 91 19 5 20 6 21 2 22 1 23 20 24
REMARK SMILES IDX 21 25 22 26 23 28 24 29 25 30 89 31 26 32 88 33 27 34 28 35
REMARK SMILES IDX 29 36 82 37 30 38 87 39 81 40 83 41 31 42 86 43 80 44 79 45
REMARK SMILES IDX 32 47 66 48 45 49 65 50 46 51 49 52 64 53 84 54 47 55 48 56
REMARK SMILES IDX 63 58 85 59 50 60 33 61 34 62 43 63 35 64 36 65 42 66 44 67
REMARK SMILES IDX 37 68 38 69 39 70 40 71 41 72 67 73 68 74 77 75 69 76 70 77
REMARK SMILES IDX 76 78 78 79 71 80 72 81 73 82 74 83 75 84 51 85 52 86 61 87
REMARK SMILES IDX 53 88 54 89 60 90 62 91 55 92 56 93 57 94 58 95 59 96
REMARK H PARENT 17 6 10 15 21 27 83 46 49 57
REMARK Flexibility Score: inf
ROOT
ATOM      1  C   UNL     1       2.006  -0.868   4.852  1.00  0.00     0.042 C 
ENDROOT
BRANCH   1   2
ATOM      2  C   UNL     1       2.486  -2.080   4.064  1.00  0.00     0.117 C 
BRANCH   2   3
ATOM      3  N   UNL     1       1.617  -2.429   2.954  1.00  0.00    -0.356 N 
ATOM      4  C   UNL     1       1.831  -2.406   1.610  1.00  0.00     0.227 C 
ATOM      5  O   UNL     1       0.935  -2.856   0.887  1.00  0.00    -0.274 OA
ATOM      6  H   UNL     1       0.720  -2.735   3.219  1.00  0.00     0.163 HD
BRANCH   4   7
ATOM      7  C   UNL     1       3.061  -1.753   0.967  1.00  0.00     0.103 C 
ATOM      8  C   UNL     1       4.417   0.240   1.545  1.00  0.00     0.106 C 
ATOM      9  C   UNL     1       5.163  -1.052   1.728  1.00  0.00    -0.006 C 
ATOM     10  C   UNL     1       3.020  -0.239   1.159  1.00  0.00     0.047 C 
ATOM     11  C   UNL     1       4.423  -2.131   1.438  1.00  0.00    -0.016 C 
BRANCH   8  12
ATOM     12  N   UNL     1       4.575   1.016   2.762  1.00  0.00    -0.346 N 
ATOM     13  C   UNL     1       3.929   2.076   3.347  1.00  0.00     0.251 C 
ATOM     14  O   UNL     1       4.515   2.659   4.259  1.00  0.00    -0.269 OA
ATOM     15  H   UNL     1       5.336   0.704   3.303  1.00  0.00     0.164 HD
BRANCH  13  16
ATOM     16  C   UNL     1       2.524   2.452   3.061  1.00  0.00     0.043 A 
ATOM     17  C   UNL     1       0.593   2.677   1.636  1.00  0.00     0.119 A 
ATOM     18  C   UNL     1      -0.225   2.859   2.752  1.00  0.00     0.046 A 
ATOM     19  C   UNL     1       1.978   2.540   1.781  1.00  0.00     0.060 A 
ATOM     20  C   UNL     1       0.332   2.880   4.028  1.00  0.00     0.005 A 
ATOM     21  C   UNL     1       1.702   2.677   4.181  1.00  0.00     0.014 A 
BRANCH  17  22
ATOM     22  O   UNL     1      -0.034   2.670   0.419  1.00  0.00    -0.497 OA
ATOM     23  C   UNL     1       0.281   1.518  -0.361  1.00  0.00     0.278 C 
ENDBRANCH  17  22
ENDBRANCH  13  16
ENDBRANCH   8  12
ENDBRANCH   4   7
ENDBRANCH   2   3
ENDBRANCH   1   2
BRANCH   1  24
ATOM     24  C   UNL     1       0.710  -1.053   5.636  1.00  0.00     0.118 C 
BRANCH  24  25
ATOM     25  N   UNL     1       0.779  -2.160   6.573  1.00  0.00    -0.352 N 
ATOM     26  C   UNL     1       0.764  -2.206   7.942  1.00  0.00     0.251 C 
ATOM     27  H   UNL     1       0.849  -3.043   6.144  1.00  0.00     0.163 HD
ATOM     28  O   UNL     1       1.068  -3.269   8.483  1.00  0.00    -0.269 OA
BRANCH  26  29
ATOM     29  C   UNL     1       0.397  -1.040   8.783  1.00  0.00     0.039 A 
ATOM     30  C   UNL     1       1.001  -0.926  10.041  1.00  0.00     0.014 A 
ATOM     31  C   UNL     1      -0.594  -0.123   8.418  1.00  0.00     0.014 A 
ATOM     32  C   UNL     1       0.636   0.106  10.909  1.00  0.00     0.010 A 
ATOM     33  C   UNL     1      -0.905   0.953   9.257  1.00  0.00     0.010 A 
ATOM     34  C   UNL     1      -0.308   1.070  10.519  1.00  0.00    -0.014 A 
BRANCH  34  35
ATOM     35  C   UNL     1      -0.663   2.186  11.440  1.00  0.00     0.031 A 
ATOM     36  C   UNL     1      -2.051   2.307  12.015  1.00  0.00     0.074 A 
ATOM     37  C   UNL     1       0.274   3.100  11.759  1.00  0.00     0.049 A 
ATOM     38  N   UNL     1      -2.516   3.181  12.872  1.00  0.00    -0.248 NA
ATOM     39  C   UNL     1      -3.054   1.335  11.552  1.00  0.00     0.031 C 
ATOM     40  C   UNL     1       1.637   3.133  11.223  1.00  0.00     0.029 A 
ATOM     41  N   UNL     1       0.230   4.172  12.616  1.00  0.00    -0.354 N 
ATOM     42  C   UNL     1      -3.861   2.870  13.046  1.00  0.00     0.074 A 
ATOM     43  C   UNL     1      -4.150   1.760  12.165  1.00  0.00     0.031 C 
ATOM     44  C   UNL     1       2.310   4.146  11.792  1.00  0.00     0.029 A 
ATOM     45  C   UNL     1       1.423   4.849  12.714  1.00  0.00     0.049 A 
ATOM     46  H   UNL     1      -0.579   4.431  13.113  1.00  0.00     0.167 HD
ATOM     47  C   UNL     1      -4.765   3.441  13.880  1.00  0.00     0.037 A 
ATOM     48  C   UNL     1       1.770   5.907  13.471  1.00  0.00     0.037 A 
ATOM     49  C   UNL     1      -4.469   4.532  14.774  1.00  0.00     0.049 A 
ATOM     50  C   UNL     1       0.762   6.495  14.419  1.00  0.00     0.074 A 
ATOM     51  C   UNL     1      -5.303   5.145  15.693  1.00  0.00     0.029 A 
ATOM     52  N   UNL     1      -3.241   5.172  14.864  1.00  0.00    -0.354 N 
ATOM     53  N   UNL     1      -0.486   6.145  14.618  1.00  0.00    -0.248 NA
ATOM     54  C   UNL     1       1.216   7.611  15.260  1.00  0.00     0.031 C 
ATOM     55  C   UNL     1      -4.590   6.178  16.315  1.00  0.00     0.029 A 
ATOM     56  C   UNL     1      -3.299   6.179  15.814  1.00  0.00     0.049 A 
ATOM     57  H   UNL     1      -2.446   4.945  14.330  1.00  0.00     0.167 HD
ATOM     58  C   UNL     1      -0.960   6.980  15.624  1.00  0.00     0.074 A 
ATOM     59  C   UNL     1       0.143   7.840  16.004  1.00  0.00     0.031 C 
ATOM     60  C   UNL     1      -2.195   7.030  16.182  1.00  0.00     0.037 A 
BRANCH  47  61
ATOM     61  C   UNL     1      -6.166   2.888  13.872  1.00  0.00     0.058 A 
ATOM     62  C   UNL     1      -6.461   1.622  14.404  1.00  0.00     0.135 A 
ATOM     63  C   UNL     1      -7.233   3.645  13.361  1.00  0.00     0.135 A 
ATOM     64  F   UNL     1      -5.478   0.850  14.895  1.00  0.00    -0.206 F 
ATOM     65  C   UNL     1      -7.756   1.113  14.402  1.00  0.00     0.059 A 
ATOM     66  C   UNL     1      -8.541   3.167  13.373  1.00  0.00     0.059 A 
ATOM     67  F   UNL     1      -7.011   4.862  12.842  1.00  0.00    -0.206 F 
ATOM     68  C   UNL     1      -8.790   1.893  13.881  1.00  0.00     0.060 A 
BRANCH  68  69
ATOM     69  S   UNL     1     -10.465   1.219  13.886  1.00  0.00     0.124 S 
ATOM     70  O   UNL     1     -10.389   0.243  12.803  1.00  0.00    -0.237 OA
ATOM     71  O   UNL     1     -10.578   0.665  15.231  1.00  0.00    -0.237 OA
ATOM     72  O   UNL     1     -11.302   2.386  13.620  1.00  0.00    -0.744 OA
ENDBRANCH  68  69
ENDBRANCH  47  61
BRANCH  48  73
ATOM     73  C   UNL     1       3.154   6.446  13.398  1.00  0.00     0.058 A 
ATOM     74  C   UNL     1       4.059   6.258  14.453  1.00  0.00     0.135 A 
ATOM     75  C   UNL     1       3.605   7.143  12.266  1.00  0.00     0.135 A 
ATOM     76  F   UNL     1       3.672   5.601  15.558  1.00  0.00    -0.206 F 
ATOM     77  C   UNL     1       5.356   6.756  14.399  1.00  0.00     0.059 A 
ATOM     78  C   UNL     1       4.906   7.628  12.178  1.00  0.00     0.059 A 
ATOM     79  F   UNL     1       2.783   7.333  11.223  1.00  0.00    -0.206 F 
ATOM     80  C   UNL     1       5.771   7.439  13.255  1.00  0.00     0.060 A 
BRANCH  80  81
ATOM     81  S   UNL     1       7.473   8.039  13.173  1.00  0.00     0.124 S 
ATOM     82  O   UNL     1       7.418   9.199  14.054  1.00  0.00    -0.237 OA
ATOM     83  O   UNL     1       8.228   6.893  13.672  1.00  0.00    -0.237 OA
ATOM     84  O   UNL     1       7.657   8.330  11.754  1.00  0.00    -0.744 OA
ENDBRANCH  80  81
ENDBRANCH  48  73
BRANCH  60  85
ATOM     85  C   UNL     1      -2.404   8.029  17.287  1.00  0.00     0.058 A 
ATOM     86  C   UNL     1      -2.468   9.409  17.034  1.00  0.00     0.135 A 
ATOM     87  C   UNL     1      -2.546   7.600  18.616  1.00  0.00     0.135 A 
ATOM     88  F   UNL     1      -2.336   9.872  15.781  1.00  0.00    -0.206 F 
ATOM     89  C   UNL     1      -2.618  10.331  18.065  1.00  0.00     0.059 A 
ATOM     90  C   UNL     1      -2.724   8.502  19.660  1.00  0.00     0.059 A 
ATOM     91  F   UNL     1      -2.507   6.291  18.912  1.00  0.00    -0.206 F 
ATOM     92  C   UNL     1      -2.736   9.867  19.377  1.00  0.00     0.060 A 
BRANCH  92  93
ATOM     93  S   UNL     1      -2.918  11.070  20.711  1.00  0.00     0.124 S 
ATOM     94  O   UNL     1      -1.548  11.549  20.861  1.00  0.00    -0.237 OA
ATOM     95  O   UNL     1      -3.865  12.027  20.147  1.00  0.00    -0.237 OA
ATOM     96  O   UNL     1      -3.430  10.271  21.820  1.00  0.00    -0.744 OA
ENDBRANCH  92  93
ENDBRANCH  60  85
ENDBRANCH  34  35
ENDBRANCH  26  29
ENDBRANCH  24  25
ENDBRANCH   1  24
TORSDOF 16
