REMARK SMILES CCC(CC)Oc1ccc(OC)cc1/C=C/C(=O)NCCCNC(=O)c1ccc(-c2c3nc(c(-c4c(F)cc(S(=O)(=O)[O-])cc4F)c4ccc([nH]4)c(-c4c(F)cc(S(=O)(=O)[O-])cc4F)c4nc(c(-c5c(F)cc(S(=O)(=O)[O-])cc5F)c5ccc2[nH]5)C=C4)C=C3)cc1
REMARK SMILES IDX 20 1 19 2 17 3 18 4 16 6 15 7 14 8 7 9 8 10 9 11 13 12 10 13
REMARK SMILES IDX 6 14 3 15 2 16 1 17 4 18 5 19 11 20 12 21 21 22 22 23 23 24
REMARK SMILES IDX 24 25 25 27 26 28 27 29 91 30 28 31 90 32 29 33 30 34 31 35
REMARK SMILES IDX 84 36 32 37 89 38 83 39 85 40 33 41 88 42 82 43 81 44 34 46
REMARK SMILES IDX 68 47 47 48 67 49 48 50 51 51 66 52 86 53 49 54 50 55 65 57
REMARK SMILES IDX 87 58 52 59 35 60 36 61 45 62 37 63 38 64 44 65 46 66 39 67
REMARK SMILES IDX 40 68 41 69 42 70 43 71 69 72 70 73 79 74 71 75 72 76 78 77
REMARK SMILES IDX 80 78 73 79 74 80 75 81 76 82 77 83 53 84 54 85 63 86 55 87
REMARK SMILES IDX 56 88 62 89 64 90 57 91 58 92 59 93 60 94 61 95
REMARK H PARENT 19 5 23 26 85 45 51 56
REMARK Flexibility Score: inf
ROOT
ATOM      1  C   UNL     1       0.596  -0.180   2.143  1.00  0.00     0.118 C 
ENDROOT
BRANCH   1   2
ATOM      2  N   UNL     1      -0.558   0.060   2.980  1.00  0.00    -0.352 N 
ATOM      3  C   UNL     1      -1.758   0.606   2.671  1.00  0.00     0.244 C 
ATOM      4  O   UNL     1      -2.691   0.512   3.467  1.00  0.00    -0.270 OA
ATOM      5  H   UNL     1      -0.456  -0.217   3.919  1.00  0.00     0.163 HD
BRANCH   3   6
ATOM      6  C   UNL     1      -2.005   1.251   1.364  1.00  0.00     0.072 C 
ATOM      7  C   UNL     1      -1.296   2.275   0.860  1.00  0.00     0.018 C 
BRANCH   7   8
ATOM      8  C   UNL     1      -1.782   3.067  -0.293  1.00  0.00     0.020 A 
ATOM      9  C   UNL     1      -0.954   3.533  -1.327  1.00  0.00     0.127 A 
ATOM     10  C   UNL     1      -1.445   4.450  -2.264  1.00  0.00     0.051 A 
ATOM     11  C   UNL     1      -2.788   4.827  -2.250  1.00  0.00     0.050 A 
ATOM     12  C   UNL     1      -3.133   3.480  -0.288  1.00  0.00     0.058 A 
ATOM     13  C   UNL     1      -3.646   4.322  -1.278  1.00  0.00     0.119 A 
BRANCH   9  14
ATOM     14  O   UNL     1       0.377   3.244  -1.397  1.00  0.00    -0.490 OA
BRANCH  14  15
ATOM     15  C   UNL     1       0.785   2.099  -2.184  1.00  0.00     0.172 C 
BRANCH  15  16
ATOM     16  C   UNL     1       0.849   0.872  -1.276  1.00  0.00     0.042 C 
ATOM     17  C   UNL     1       1.571  -0.339  -1.833  1.00  0.00     0.008 C 
ENDBRANCH  15  16
BRANCH  15  18
ATOM     18  C   UNL     1       0.105   1.862  -3.550  1.00  0.00     0.042 C 
ATOM     19  C   UNL     1      -1.276   1.215  -3.533  1.00  0.00     0.008 C 
ENDBRANCH  15  18
ENDBRANCH  14  15
ENDBRANCH   9  14
BRANCH  13  20
ATOM     20  O   UNL     1      -4.944   4.743  -1.367  1.00  0.00    -0.497 OA
ATOM     21  C   UNL     1      -5.894   4.024  -0.588  1.00  0.00     0.278 C 
ENDBRANCH  13  20
ENDBRANCH   7   8
ENDBRANCH   3   6
ENDBRANCH   1   2
BRANCH   1  22
ATOM     22  C   UNL     1       1.726   0.798   2.441  1.00  0.00     0.042 C 
BRANCH  22  23
ATOM     23  C   UNL     1       3.032   0.093   2.770  1.00  0.00     0.118 C 
BRANCH  23  24
ATOM     24  N   UNL     1       3.570  -0.726   1.694  1.00  0.00    -0.352 N 
ATOM     25  C   UNL     1       4.884  -1.069   1.445  1.00  0.00     0.251 C 
ATOM     26  H   UNL     1       2.908  -1.084   1.059  1.00  0.00     0.163 HD
ATOM     27  O   UNL     1       5.155  -1.742   0.459  1.00  0.00    -0.269 OA
BRANCH  25  28
ATOM     28  C   UNL     1       5.964  -0.575   2.338  1.00  0.00     0.039 A 
ATOM     29  C   UNL     1       7.163  -0.134   1.769  1.00  0.00     0.014 A 
ATOM     30  C   UNL     1       5.793  -0.508   3.721  1.00  0.00     0.014 A 
ATOM     31  C   UNL     1       8.146   0.447   2.578  1.00  0.00     0.010 A 
ATOM     32  C   UNL     1       6.718   0.170   4.505  1.00  0.00     0.010 A 
ATOM     33  C   UNL     1       7.912   0.646   3.948  1.00  0.00    -0.014 A 
BRANCH  33  34
ATOM     34  C   UNL     1       8.901   1.320   4.831  1.00  0.00     0.031 A 
ATOM     35  C   UNL     1       9.455   0.587   6.027  1.00  0.00     0.074 A 
ATOM     36  C   UNL     1       9.225   2.611   4.618  1.00  0.00     0.049 A 
ATOM     37  N   UNL     1      10.222   1.032   6.989  1.00  0.00    -0.248 NA
ATOM     38  C   UNL     1       9.053  -0.820   6.189  1.00  0.00     0.031 C 
ATOM     39  C   UNL     1       8.703   3.453   3.538  1.00  0.00     0.029 A 
ATOM     40  N   UNL     1      10.065   3.448   5.309  1.00  0.00    -0.354 N 
ATOM     41  C   UNL     1      10.355  -0.023   7.885  1.00  0.00     0.074 A 
ATOM     42  C   UNL     1       9.545  -1.110   7.383  1.00  0.00     0.031 C 
ATOM     43  C   UNL     1       9.260   4.672   3.619  1.00  0.00     0.029 A 
ATOM     44  C   UNL     1      10.149   4.713   4.776  1.00  0.00     0.049 A 
ATOM     45  H   UNL     1      10.562   3.169   6.112  1.00  0.00     0.167 HD
ATOM     46  C   UNL     1      11.108  -0.093   9.009  1.00  0.00     0.037 A 
ATOM     47  C   UNL     1      10.865   5.783   5.173  1.00  0.00     0.037 A 
ATOM     48  C   UNL     1      11.967   0.968   9.463  1.00  0.00     0.049 A 
ATOM     49  C   UNL     1      11.748   5.660   6.386  1.00  0.00     0.074 A 
ATOM     50  C   UNL     1      12.838   0.972  10.538  1.00  0.00     0.029 A 
ATOM     51  N   UNL     1      12.075   2.210   8.855  1.00  0.00    -0.354 N 
ATOM     52  N   UNL     1      11.910   4.634   7.187  1.00  0.00    -0.248 NA
ATOM     53  C   UNL     1      12.555   6.835   6.742  1.00  0.00     0.031 C 
ATOM     54  C   UNL     1      13.454   2.227  10.595  1.00  0.00     0.029 A 
ATOM     55  C   UNL     1      12.995   2.990   9.534  1.00  0.00     0.049 A 
ATOM     56  H   UNL     1      11.572   2.495   8.058  1.00  0.00     0.167 HD
ATOM     57  C   UNL     1      12.861   5.028   8.121  1.00  0.00     0.074 A 
ATOM     58  C   UNL     1      13.243   6.384   7.781  1.00  0.00     0.031 C 
ATOM     59  C   UNL     1      13.374   4.331   9.165  1.00  0.00     0.037 A 
BRANCH  46  60
ATOM     60  C   UNL     1      11.049  -1.365   9.810  1.00  0.00     0.058 A 
ATOM     61  C   UNL     1      11.594  -2.567   9.329  1.00  0.00     0.135 A 
ATOM     62  C   UNL     1      10.450  -1.382  11.080  1.00  0.00     0.135 A 
ATOM     63  F   UNL     1      12.164  -2.613   8.115  1.00  0.00    -0.206 F 
ATOM     64  C   UNL     1      11.511  -3.748  10.059  1.00  0.00     0.059 A 
ATOM     65  C   UNL     1      10.383  -2.546  11.841  1.00  0.00     0.059 A 
ATOM     66  F   UNL     1       9.913  -0.263  11.590  1.00  0.00    -0.206 F 
ATOM     67  C   UNL     1      10.900  -3.728  11.313  1.00  0.00     0.060 A 
BRANCH  67  68
ATOM     68  S   UNL     1      10.794  -5.270  12.246  1.00  0.00     0.124 S 
ATOM     69  O   UNL     1       9.724  -5.965  11.536  1.00  0.00    -0.237 OA
ATOM     70  O   UNL     1      12.131  -5.830  12.080  1.00  0.00    -0.237 OA
ATOM     71  O   UNL     1      10.467  -4.827  13.598  1.00  0.00    -0.744 OA
ENDBRANCH  67  68
ENDBRANCH  46  60
BRANCH  47  72
ATOM     72  C   UNL     1      10.820   7.045   4.387  1.00  0.00     0.058 A 
ATOM     73  C   UNL     1      11.918   7.441   3.609  1.00  0.00     0.135 A 
ATOM     74  C   UNL     1       9.686   7.870   4.384  1.00  0.00     0.135 A 
ATOM     75  F   UNL     1      13.027   6.687   3.583  1.00  0.00    -0.206 F 
ATOM     76  C   UNL     1      11.903   8.620   2.871  1.00  0.00     0.059 A 
ATOM     77  C   UNL     1       9.637   9.043   3.635  1.00  0.00     0.059 A 
ATOM     78  F   UNL     1       8.601   7.526   5.096  1.00  0.00    -0.206 F 
ATOM     79  C   UNL     1      10.756   9.415   2.890  1.00  0.00     0.060 A 
BRANCH  79  80
ATOM     80  S   UNL     1      10.730  10.920   1.892  1.00  0.00     0.124 S 
ATOM     81  O   UNL     1      11.587  11.805   2.673  1.00  0.00    -0.237 OA
ATOM     82  O   UNL     1      11.280  10.457   0.622  1.00  0.00    -0.237 OA
ATOM     83  O   UNL     1       9.315  11.277   1.860  1.00  0.00    -0.744 OA
ENDBRANCH  79  80
ENDBRANCH  47  72
BRANCH  59  84
ATOM     84  C   UNL     1      14.440   5.002   9.984  1.00  0.00     0.058 A 
ATOM     85  C   UNL     1      14.140   6.032  10.887  1.00  0.00     0.135 A 
ATOM     86  C   UNL     1      15.774   4.571   9.896  1.00  0.00     0.135 A 
ATOM     87  F   UNL     1      12.880   6.482  11.004  1.00  0.00    -0.206 F 
ATOM     88  C   UNL     1      15.130   6.632  11.657  1.00  0.00     0.059 A 
ATOM     89  C   UNL     1      16.776   5.138  10.675  1.00  0.00     0.059 A 
ATOM     90  F   UNL     1      16.111   3.579   9.056  1.00  0.00    -0.206 F 
ATOM     91  C   UNL     1      16.446   6.178  11.544  1.00  0.00     0.060 A 
BRANCH  91  92
ATOM     92  S   UNL     1      17.719   6.943  12.569  1.00  0.00     0.124 S 
ATOM     93  O   UNL     1      17.935   8.207  11.873  1.00  0.00    -0.237 OA
ATOM     94  O   UNL     1      17.061   7.039  13.869  1.00  0.00    -0.237 OA
ATOM     95  O   UNL     1      18.825   5.992  12.503  1.00  0.00    -0.744 OA
ENDBRANCH  91  92
ENDBRANCH  59  84
ENDBRANCH  33  34
ENDBRANCH  25  28
ENDBRANCH  23  24
ENDBRANCH  22  23
ENDBRANCH   1  22
TORSDOF 19
