REMARK SMILES O=C1C[C@H](c2cn[nH]c2C(=O)NCCCNC(=O)c2ccc(-c3c4nc(c(-c5c(F)cc(S(=O)(=O)[O-])cc5F)c5ccc([nH]5)c(-c5c(F)cc(S(=O)(=O)[O-])cc5F)c5nc(c(-c6c(F)cc(S(=O)(=O)[O-])cc6F)c6ccc3[nH]6)C=C5)C=C4)cc2)c2c(-c3cccs3)n[nH]c2N1
REMARK SMILES IDX 14 1 13 2 12 3 10 4 11 5 9 7 5 8 6 9 7 10 8 11 4 13 1 14
REMARK SMILES IDX 2 15 3 16 95 17 94 18 85 20 93 21 86 22 92 23 87 25 88 26
REMARK SMILES IDX 91 27 89 28 90 29 15 30 16 31 17 32 18 34 19 35 20 36 84 37
REMARK SMILES IDX 21 38 83 39 22 40 23 41 24 42 77 43 25 44 82 45 76 46 78 47
REMARK SMILES IDX 26 48 81 49 75 50 74 51 27 53 61 54 40 55 60 56 41 57 44 58
REMARK SMILES IDX 59 59 79 60 42 61 43 62 58 64 80 65 45 66 28 67 29 68 38 69
REMARK SMILES IDX 30 70 31 71 37 72 39 73 32 74 33 75 34 76 35 77 36 78 62 79
REMARK SMILES IDX 63 80 72 81 64 82 65 83 71 84 73 85 66 86 67 87 68 88 69 89
REMARK SMILES IDX 70 90 46 91 47 92 56 93 48 94 49 95 55 96 57 97 50 98 51 99
REMARK SMILES IDX 52 100 53 101 54 102
REMARK H PARENT 12 6 8 12 95 19 93 24 16 33 78 52 44 63
REMARK Flexibility Score: inf
ROOT
ATOM      1  C   UNL     1       3.873  -1.556   1.501  1.00  0.00     0.042 C 
ENDROOT
BRANCH   1   2
ATOM      2  C   UNL     1       5.290  -0.926   0.720  1.00  0.00     0.118 C 
BRANCH   2   3
ATOM      3  N   UNL     1       5.703  -0.456  -1.372  1.00  0.00    -0.351 N 
ATOM      4  C   UNL     1       5.715   0.324  -2.554  1.00  0.00     0.269 C 
ATOM      5  O   UNL     1       6.331  -0.162  -3.507  1.00  0.00    -0.268 OA
ATOM      6  H   UNL     1       6.146  -1.281  -1.676  1.00  0.00     0.163 HD
BRANCH   4   7
ATOM      7  C   UNL     1       5.152   1.650  -2.660  1.00  0.00     0.126 A 
ATOM      8  C   UNL     1       4.487   2.449  -1.747  1.00  0.00     0.011 A 
ATOM      9  C   UNL     1       4.274   3.668  -2.415  1.00  0.00     0.140 A 
ATOM     10  N   UNL     1       4.744   3.651  -3.663  1.00  0.00    -0.183 NA
ATOM     11  N   UNL     1       5.258   2.411  -3.792  1.00  0.00    -0.273 N 
ATOM     12  H   UNL     1       5.672   2.084  -4.623  1.00  0.00     0.190 HD
BRANCH   8  13
ATOM     13  C   UNL     1       4.145   2.042  -0.363  1.00  0.00     0.069 C 
ATOM     14  O   UNL     1       0.686   0.455  -0.637  1.00  0.00    -0.275 OA
ATOM     15  C   UNL     1       1.919   0.527  -0.692  1.00  0.00     0.226 C 
ATOM     16  C   UNL     1       2.625   1.815  -0.175  1.00  0.00     0.114 C 
ATOM     17  N   UNL     1       2.617  -0.591  -1.085  1.00  0.00    -0.311 N 
ATOM     18  C   UNL     1       3.933  -0.658  -0.737  1.00  0.00     0.132 A 
ATOM     19  H   UNL     1       2.184  -1.313  -1.597  1.00  0.00     0.171 HD
ATOM     20  C   UNL     1       4.821   0.758  -0.163  1.00  0.00     0.031 A 
ATOM     21  N   UNL     1       5.112  -2.084  -0.787  1.00  0.00    -0.262 N 
ATOM     22  C   UNL     1       6.701   0.235   0.042  1.00  0.00     0.108 A 
ATOM     23  N   UNL     1       6.849  -1.475  -0.350  1.00  0.00    -0.173 NA
ATOM     24  H   UNL     1       4.873  -3.013  -1.008  1.00  0.00     0.192 HD
BRANCH  22  25
ATOM     25  C   UNL     1       7.811   1.202   0.175  1.00  0.00     0.055 A 
ATOM     26  C   UNL     1       8.917   1.196  -0.639  1.00  0.00     0.022 A 
ATOM     27  S   UNL     1       7.795   2.498   1.271  1.00  0.00    -0.142 S 
ATOM     28  C   UNL     1       9.744   2.331  -0.393  1.00  0.00     0.012 A 
ATOM     29  C   UNL     1       9.288   3.082   0.670  1.00  0.00     0.065 A 
ENDBRANCH  22  25
ENDBRANCH   8  13
ENDBRANCH   4   7
ENDBRANCH   2   3
ENDBRANCH   1   2
BRANCH   1  30
ATOM     30  C   UNL     1       4.030  -2.994   1.944  1.00  0.00     0.118 C 
BRANCH  30  31
ATOM     31  N   UNL     1       5.096  -3.204   2.915  1.00  0.00    -0.352 N 
ATOM     32  C   UNL     1       5.415  -4.424   3.483  1.00  0.00     0.251 C 
ATOM     33  H   UNL     1       5.627  -2.420   3.186  1.00  0.00     0.163 HD
ATOM     34  O   UNL     1       5.951  -4.518   4.577  1.00  0.00    -0.269 OA
BRANCH  32  35
ATOM     35  C   UNL     1       5.181  -5.595   2.621  1.00  0.00     0.039 A 
ATOM     36  C   UNL     1       4.441  -6.707   3.002  1.00  0.00     0.014 A 
ATOM     37  C   UNL     1       5.578  -5.412   1.298  1.00  0.00     0.014 A 
ATOM     38  C   UNL     1       4.163  -7.659   2.016  1.00  0.00     0.010 A 
ATOM     39  C   UNL     1       4.914  -6.126   0.344  1.00  0.00     0.010 A 
ATOM     40  C   UNL     1       4.433  -7.369   0.655  1.00  0.00    -0.014 A 
BRANCH  40  41
ATOM     41  C   UNL     1       3.945  -8.161  -0.482  1.00  0.00     0.031 A 
ATOM     42  C   UNL     1       2.538  -8.544  -0.232  1.00  0.00     0.074 A 
ATOM     43  C   UNL     1       4.627  -8.462  -1.627  1.00  0.00     0.049 A 
ATOM     44  N   UNL     1       2.202  -9.614   0.399  1.00  0.00    -0.248 NA
ATOM     45  C   UNL     1       1.444  -7.562  -0.322  1.00  0.00     0.031 C 
ATOM     46  C   UNL     1       5.944  -8.020  -2.111  1.00  0.00     0.029 A 
ATOM     47  N   UNL     1       4.255  -9.334  -2.631  1.00  0.00    -0.354 N 
ATOM     48  C   UNL     1       0.824  -9.609   0.461  1.00  0.00     0.074 A 
ATOM     49  C   UNL     1       0.432  -8.245   0.230  1.00  0.00     0.031 C 
ATOM     50  C   UNL     1       6.157  -8.443  -3.388  1.00  0.00     0.029 A 
ATOM     51  C   UNL     1       5.068  -9.319  -3.793  1.00  0.00     0.049 A 
ATOM     52  H   UNL     1       3.475  -9.928  -2.546  1.00  0.00     0.167 HD
ATOM     53  C   UNL     1       0.180 -10.805   0.387  1.00  0.00     0.037 A 
ATOM     54  C   UNL     1       4.977 -10.136  -4.900  1.00  0.00     0.037 A 
ATOM     55  C   UNL     1       1.121 -11.884   0.632  1.00  0.00     0.049 A 
ATOM     56  C   UNL     1       4.222 -11.343  -4.454  1.00  0.00     0.074 A 
ATOM     57  C   UNL     1       1.939 -12.232   1.692  1.00  0.00     0.029 A 
ATOM     58  N   UNL     1       1.681 -12.460  -0.485  1.00  0.00    -0.354 N 
ATOM     59  N   UNL     1       4.721 -12.198  -3.601  1.00  0.00    -0.248 NA
ATOM     60  C   UNL     1       2.769 -11.237  -4.480  1.00  0.00     0.031 C 
ATOM     61  C   UNL     1       3.185 -12.597   1.098  1.00  0.00     0.029 A 
ATOM     62  C   UNL     1       3.033 -12.604  -0.288  1.00  0.00     0.049 A 
ATOM     63  H   UNL     1       1.191 -12.726  -1.297  1.00  0.00     0.167 HD
ATOM     64  C   UNL     1       3.710 -12.382  -2.671  1.00  0.00     0.074 A 
ATOM     65  C   UNL     1       2.526 -11.750  -3.269  1.00  0.00     0.031 C 
ATOM     66  C   UNL     1       3.985 -12.712  -1.374  1.00  0.00     0.037 A 
BRANCH  53  67
ATOM     67  C   UNL     1      -1.109 -11.024  -0.360  1.00  0.00     0.058 A 
ATOM     68  C   UNL     1      -1.703 -12.301  -0.312  1.00  0.00     0.135 A 
ATOM     69  C   UNL     1      -1.624 -10.145  -1.339  1.00  0.00     0.135 A 
ATOM     70  F   UNL     1      -1.279 -13.220   0.570  1.00  0.00    -0.206 F 
ATOM     71  C   UNL     1      -2.696 -12.695  -1.206  1.00  0.00     0.059 A 
ATOM     72  C   UNL     1      -2.644 -10.504  -2.212  1.00  0.00     0.059 A 
ATOM     73  F   UNL     1      -1.111  -8.928  -1.552  1.00  0.00    -0.206 F 
ATOM     74  C   UNL     1      -3.161 -11.788  -2.152  1.00  0.00     0.060 A 
BRANCH  74  75
ATOM     75  S   UNL     1      -4.454 -12.303  -3.292  1.00  0.00     0.124 S 
ATOM     76  O   UNL     1      -3.773 -13.331  -4.069  1.00  0.00    -0.237 OA
ATOM     77  O   UNL     1      -5.485 -12.773  -2.372  1.00  0.00    -0.237 OA
ATOM     78  O   UNL     1      -4.777 -11.074  -4.011  1.00  0.00    -0.744 OA
ENDBRANCH  74  75
ENDBRANCH  53  67
BRANCH  54  79
ATOM     79  C   UNL     1       4.983  -9.765  -6.367  1.00  0.00     0.058 A 
ATOM     80  C   UNL     1       4.840 -10.724  -7.406  1.00  0.00     0.135 A 
ATOM     81  C   UNL     1       4.813  -8.430  -6.767  1.00  0.00     0.135 A 
ATOM     82  F   UNL     1       4.991 -12.033  -7.142  1.00  0.00    -0.206 F 
ATOM     83  C   UNL     1       4.470 -10.382  -8.725  1.00  0.00     0.059 A 
ATOM     84  C   UNL     1       4.439  -8.067  -8.067  1.00  0.00     0.059 A 
ATOM     85  F   UNL     1       4.916  -7.437  -5.873  1.00  0.00    -0.206 F 
ATOM     86  C   UNL     1       4.234  -9.045  -9.036  1.00  0.00     0.060 A 
BRANCH  86  87
ATOM     87  S   UNL     1       3.529  -8.581 -10.647  1.00  0.00     0.124 S 
ATOM     88  O   UNL     1       4.633  -8.854 -11.561  1.00  0.00    -0.237 OA
ATOM     89  O   UNL     1       2.379  -9.473 -10.755  1.00  0.00    -0.237 OA
ATOM     90  O   UNL     1       3.200  -7.168 -10.475  1.00  0.00    -0.744 OA
ENDBRANCH  86  87
ENDBRANCH  54  79
BRANCH  66  91
ATOM     91  C   UNL     1       5.395 -13.124  -1.015  1.00  0.00     0.058 A 
ATOM     92  C   UNL     1       6.537 -12.299  -1.063  1.00  0.00     0.135 A 
ATOM     93  C   UNL     1       5.562 -14.399  -0.459  1.00  0.00     0.135 A 
ATOM     94  F   UNL     1       6.452 -11.030  -1.485  1.00  0.00    -0.206 F 
ATOM     95  C   UNL     1       7.791 -12.743  -0.620  1.00  0.00     0.059 A 
ATOM     96  C   UNL     1       6.789 -14.851   0.013  1.00  0.00     0.059 A 
ATOM     97  F   UNL     1       4.504 -15.214  -0.324  1.00  0.00    -0.206 F 
ATOM     98  C   UNL     1       7.906 -14.028  -0.089  1.00  0.00     0.060 A 
BRANCH  98  99
ATOM     99  S   UNL     1       9.511 -14.618   0.497  1.00  0.00     0.124 S 
ATOM    100  O   UNL     1      10.273 -14.719  -0.744  1.00  0.00    -0.237 OA
ATOM    101  O   UNL     1       9.926 -13.559   1.411  1.00  0.00    -0.237 OA
ATOM    102  O   UNL     1       9.194 -15.893   1.136  1.00  0.00    -0.744 OA
ENDBRANCH  98  99
ENDBRANCH  66  91
ENDBRANCH  40  41
ENDBRANCH  32  35
ENDBRANCH  30  31
ENDBRANCH   1  30
TORSDOF 15
