REMARK SMILES CC[NH+]1CCC2(CC1)OC[C@@H](C(=O)NCCCNC(=O)c1ccc(-c3c4nc(c(-c5c(F)cc(S(=O)(=O)[O-])cc5F)c5ccc([nH]5)c(-c5c(F)cc(S(=O)(=O)[O-])cc5F)c5nc(c(-c6c(F)cc(S(=O)(=O)[O-])cc6F)c6ccc3[nH]6)C=C5)C=C4)cc1)N2C(=O)c1ccc(Cl)c([N+](=O)[O-])c1
REMARK SMILES IDX 16 1 15 2 14 3 12 4 13 5 11 7 3 8 4 9 8 10 5 12 7 13 6 14
REMARK SMILES IDX 9 15 87 16 10 17 2 18 1 19 88 20 89 21 90 22 91 23 99 24
REMARK SMILES IDX 92 25 95 26 93 27 94 28 96 29 97 30 98 31 17 32 18 33 19 34
REMARK SMILES IDX 20 36 21 37 22 38 86 39 23 40 85 41 24 42 25 43 26 44 79 45
REMARK SMILES IDX 27 46 84 47 78 48 80 49 28 50 83 51 77 52 76 53 29 55 63 56
REMARK SMILES IDX 42 57 62 58 43 59 46 60 61 61 81 62 44 63 45 64 60 66 82 67
REMARK SMILES IDX 47 68 30 69 31 70 40 71 32 72 33 73 39 74 41 75 34 76 35 77
REMARK SMILES IDX 36 78 37 79 38 80 64 81 65 82 74 83 66 84 67 85 73 86 75 87
REMARK SMILES IDX 68 88 69 89 70 90 71 91 72 92 48 93 49 94 58 95 50 96 51 97
REMARK SMILES IDX 57 98 59 99 52 100 53 101 54 102 55 103 56 104
REMARK H PARENT 14 6 3 11 18 35 80 54 46 65
REMARK Flexibility Score: inf
ROOT
ATOM      1  C   UNL     1      -1.487  -5.671  -5.382  1.00  0.00     0.042 C 
ENDROOT
BRANCH   1   2
ATOM      2  C   UNL     1      -2.038  -6.099  -4.037  1.00  0.00     0.117 C 
BRANCH   2   3
ATOM      3  N   UNL     1      -1.215  -7.125  -3.435  1.00  0.00    -0.354 N 
ATOM      4  C   UNL     1      -0.296  -7.035  -2.437  1.00  0.00     0.245 C 
ATOM      5  O   UNL     1       0.168  -8.101  -2.014  1.00  0.00    -0.273 OA
ATOM      6  H   UNL     1      -1.338  -8.028  -3.806  1.00  0.00     0.163 HD
BRANCH   4   7
ATOM      7  C   UNL     1      -0.041  -5.728  -1.671  1.00  0.00     0.203 C 
ATOM      8  N   UNL     1       0.617  -0.712  -1.470  1.00  0.00    -0.335 N 
ATOM      9  C   UNL     1       1.112  -1.823  -0.675  1.00  0.00     0.267 C 
ATOM     10  C   UNL     1      -0.327  -1.026  -2.548  1.00  0.00     0.267 C 
ATOM     11  H   UNL     1       1.496  -0.484  -1.933  1.00  0.00     0.348 HD
ATOM     12  C   UNL     1       0.089  -2.876  -0.354  1.00  0.00     0.120 C 
ATOM     13  C   UNL     1      -1.220  -2.252  -2.384  1.00  0.00     0.120 C 
ATOM     14  C   UNL     1      -0.597  -3.414  -1.619  1.00  0.00     0.155 C 
ATOM     15  O   UNL     1      -1.729  -4.174  -1.109  1.00  0.00    -0.352 OA
ATOM     16  N   UNL     1       0.169  -4.444  -2.351  1.00  0.00    -0.295 N 
ATOM     17  C   UNL     1      -1.261  -5.493  -0.790  1.00  0.00     0.198 C 
BRANCH   8  18
ATOM     18  C   UNL     1       0.223   0.504  -0.755  1.00  0.00     0.258 C 
ATOM     19  C   UNL     1       1.037   0.852   0.486  1.00  0.00     0.071 C 
ENDBRANCH   8  18
BRANCH  16  20
ATOM     20  C   UNL     1       1.235  -4.408  -3.255  1.00  0.00     0.257 C 
ATOM     21  O   UNL     1       1.881  -5.418  -3.533  1.00  0.00    -0.269 OA
BRANCH  20  22
ATOM     22  C   UNL     1       1.656  -3.192  -3.978  1.00  0.00     0.047 A 
ATOM     23  C   UNL     1       1.092  -2.833  -5.206  1.00  0.00     0.016 A 
ATOM     24  C   UNL     1       2.724  -2.441  -3.483  1.00  0.00     0.101 A 
ATOM     25  C   UNL     1       1.498  -1.654  -5.850  1.00  0.00     0.028 A 
ATOM     26  C   UNL     1       3.031  -1.191  -4.055  1.00  0.00     0.288 A 
ATOM     27  C   UNL     1       2.435  -0.796  -5.255  1.00  0.00     0.118 A 
ATOM     28  Cl  UNL     1       2.788   0.667  -6.094  1.00  0.00    -0.077 Cl
BRANCH  26  29
ATOM     29  N   UNL     1       3.871  -0.294  -3.262  1.00  0.00     0.064 N 
ATOM     30  O   UNL     1       3.625   0.918  -3.275  1.00  0.00    -0.258 OA
ATOM     31  O   UNL     1       4.731  -0.822  -2.539  1.00  0.00    -0.258 OA
ENDBRANCH  26  29
ENDBRANCH  20  22
ENDBRANCH  16  20
ENDBRANCH   4   7
ENDBRANCH   2   3
ENDBRANCH   1   2
BRANCH   1  32
ATOM     32  C   UNL     1      -1.446  -6.786  -6.413  1.00  0.00     0.118 C 
BRANCH  32  33
ATOM     33  N   UNL     1      -2.772  -7.279  -6.755  1.00  0.00    -0.352 N 
ATOM     34  C   UNL     1      -3.446  -7.215  -7.949  1.00  0.00     0.251 C 
ATOM     35  H   UNL     1      -3.257  -7.722  -6.022  1.00  0.00     0.163 HD
ATOM     36  O   UNL     1      -4.641  -7.504  -7.991  1.00  0.00    -0.269 OA
BRANCH  34  37
ATOM     37  C   UNL     1      -2.740  -6.771  -9.168  1.00  0.00     0.039 A 
ATOM     38  C   UNL     1      -3.366  -5.866 -10.027  1.00  0.00     0.014 A 
ATOM     39  C   UNL     1      -1.453  -7.234  -9.450  1.00  0.00     0.014 A 
ATOM     40  C   UNL     1      -2.668  -5.367 -11.130  1.00  0.00     0.010 A 
ATOM     41  C   UNL     1      -0.726  -6.662 -10.487  1.00  0.00     0.010 A 
ATOM     42  C   UNL     1      -1.328  -5.728 -11.343  1.00  0.00    -0.014 A 
BRANCH  42  43
ATOM     43  C   UNL     1      -0.532  -5.162 -12.462  1.00  0.00     0.031 A 
ATOM     44  C   UNL     1       0.036  -6.083 -13.508  1.00  0.00     0.074 A 
ATOM     45  C   UNL     1      -0.250  -3.845 -12.489  1.00  0.00     0.049 A 
ATOM     46  N   UNL     1       0.869  -5.816 -14.480  1.00  0.00    -0.248 NA
ATOM     47  C   UNL     1      -0.360  -7.500 -13.431  1.00  0.00     0.031 C 
ATOM     48  C   UNL     1      -0.711  -2.858 -11.509  1.00  0.00     0.029 A 
ATOM     49  N   UNL     1       0.512  -3.110 -13.364  1.00  0.00    -0.354 N 
ATOM     50  C   UNL     1       1.104  -7.027 -15.120  1.00  0.00     0.074 A 
ATOM     51  C   UNL     1       0.379  -8.041 -14.387  1.00  0.00     0.031 C 
ATOM     52  C   UNL     1      -0.230  -1.649 -11.842  1.00  0.00     0.029 A 
ATOM     53  C   UNL     1       0.612  -1.780 -13.027  1.00  0.00     0.049 A 
ATOM     54  H   UNL     1       0.945  -3.498 -14.157  1.00  0.00     0.167 HD
ATOM     55  C   UNL     1       1.833  -7.269 -16.235  1.00  0.00     0.037 A 
ATOM     56  C   UNL     1       1.320  -0.784 -13.595  1.00  0.00     0.037 A 
ATOM     57  C   UNL     1       2.536  -6.250 -16.969  1.00  0.00     0.049 A 
ATOM     58  C   UNL     1       2.145  -1.079 -14.820  1.00  0.00     0.074 A 
ATOM     59  C   UNL     1       3.276  -6.384 -18.130  1.00  0.00     0.029 A 
ATOM     60  N   UNL     1       2.585  -4.910 -16.614  1.00  0.00    -0.354 N 
ATOM     61  N   UNL     1       2.315  -2.223 -15.442  1.00  0.00    -0.248 NA
ATOM     62  C   UNL     1       2.867   0.047 -15.428  1.00  0.00     0.031 C 
ATOM     63  C   UNL     1       3.811  -5.133 -18.452  1.00  0.00     0.029 A 
ATOM     64  C   UNL     1       3.356  -4.208 -17.526  1.00  0.00     0.049 A 
ATOM     65  H   UNL     1       2.138  -4.516 -15.831  1.00  0.00     0.167 HD
ATOM     66  C   UNL     1       3.136  -1.946 -16.530  1.00  0.00     0.074 A 
ATOM     67  C   UNL     1       3.421  -0.527 -16.488  1.00  0.00     0.031 C 
ATOM     68  C   UNL     1       3.610  -2.789 -17.480  1.00  0.00     0.037 A 
BRANCH  55  69
ATOM     69  C   UNL     1       1.895  -8.686 -16.735  1.00  0.00     0.058 A 
ATOM     70  C   UNL     1       0.768  -9.322 -17.283  1.00  0.00     0.135 A 
ATOM     71  C   UNL     1       3.099  -9.407 -16.702  1.00  0.00     0.135 A 
ATOM     72  F   UNL     1      -0.414  -8.686 -17.324  1.00  0.00    -0.206 F 
ATOM     73  C   UNL     1       0.826 -10.629 -17.753  1.00  0.00     0.059 A 
ATOM     74  C   UNL     1       3.188 -10.706 -17.197  1.00  0.00     0.059 A 
ATOM     75  F   UNL     1       4.207  -8.851 -16.188  1.00  0.00    -0.206 F 
ATOM     76  C   UNL     1       2.041 -11.313 -17.707  1.00  0.00     0.060 A 
BRANCH  76  77
ATOM     77  S   UNL     1       2.098 -13.005 -18.332  1.00  0.00     0.124 S 
ATOM     78  O   UNL     1       1.349 -13.720 -17.303  1.00  0.00    -0.237 OA
ATOM     79  O   UNL     1       1.435 -12.880 -19.626  1.00  0.00    -0.237 OA
ATOM     80  O   UNL     1       3.526 -13.300 -18.387  1.00  0.00    -0.744 OA
ENDBRANCH  76  77
ENDBRANCH  55  69
BRANCH  56  81
ATOM     81  C   UNL     1       1.282   0.586 -13.012  1.00  0.00     0.058 A 
ATOM     82  C   UNL     1       0.669   1.647 -13.695  1.00  0.00     0.135 A 
ATOM     83  C   UNL     1       1.856   0.862 -11.761  1.00  0.00     0.135 A 
ATOM     84  F   UNL     1       0.107   1.436 -14.896  1.00  0.00    -0.206 F 
ATOM     85  C   UNL     1       0.650   2.936 -13.174  1.00  0.00     0.059 A 
ATOM     86  C   UNL     1       1.823   2.137 -11.204  1.00  0.00     0.059 A 
ATOM     87  F   UNL     1       2.433  -0.122 -11.053  1.00  0.00    -0.206 F 
ATOM     88  C   UNL     1       1.230   3.171 -11.926  1.00  0.00     0.060 A 
BRANCH  88  89
ATOM     89  S   UNL     1       1.167   4.842 -11.245  1.00  0.00     0.124 S 
ATOM     90  O   UNL     1       2.124   5.541 -12.095  1.00  0.00    -0.237 OA
ATOM     91  O   UNL     1      -0.236   5.196 -11.437  1.00  0.00    -0.237 OA
ATOM     92  O   UNL     1       1.573   4.653  -9.856  1.00  0.00    -0.744 OA
ENDBRANCH  88  89
ENDBRANCH  56  81
BRANCH  68  93
ATOM     93  C   UNL     1       4.444  -2.203 -18.585  1.00  0.00     0.058 A 
ATOM     94  C   UNL     1       5.762  -1.771 -18.371  1.00  0.00     0.135 A 
ATOM     95  C   UNL     1       3.942  -2.151 -19.896  1.00  0.00     0.135 A 
ATOM     96  F   UNL     1       6.288  -1.792 -17.136  1.00  0.00    -0.206 F 
ATOM     97  C   UNL     1       6.549  -1.297 -19.415  1.00  0.00     0.059 A 
ATOM     98  C   UNL     1       4.721  -1.710 -20.960  1.00  0.00     0.059 A 
ATOM     99  F   UNL     1       2.690  -2.560 -20.157  1.00  0.00    -0.206 F 
ATOM    100  C   UNL     1       6.022  -1.279 -20.709  1.00  0.00     0.060 A 
BRANCH 100 101
ATOM    101  S   UNL     1       7.077  -0.720 -22.063  1.00  0.00     0.124 S 
ATOM    102  O   UNL     1       7.148   0.715 -21.809  1.00  0.00    -0.237 OA
ATOM    103  O   UNL     1       8.308  -1.468 -21.828  1.00  0.00    -0.237 OA
ATOM    104  O   UNL     1       6.332  -1.109 -23.258  1.00  0.00    -0.744 OA
ENDBRANCH 100 101
ENDBRANCH  68  93
ENDBRANCH  42  43
ENDBRANCH  34  37
ENDBRANCH  32  33
ENDBRANCH   1  32
TORSDOF 17
