REMARK SMILES Cc1nc(C[NH2+][C@@H](C(=O)NCCCNC(=O)c2ccc(-c3c4nc(c(-c5c(F)cc(S(=O)(=O)[O-])cc5F)c5ccc([nH]5)c(-c5c(F)cc(S(=O)(=O)[O-])cc5F)c5nc(c(-c6c(F)cc(S(=O)(=O)[O-])cc6F)c6ccc3[nH]6)C=C5)C=C4)cc2)c2ccccc2)sc1C
REMARK SMILES IDX 12 1 11 2 10 3 8 4 9 5 7 7 6 8 5 11 4 12 1 13 2 14 3 15
REMARK SMILES IDX 90 16 89 17 91 18 83 19 84 20 88 21 85 22 87 23 86 24 13 25
REMARK SMILES IDX 14 26 15 27 16 29 17 30 18 31 82 32 19 33 81 34 20 35 21 36
REMARK SMILES IDX 22 37 75 38 23 39 80 40 74 41 76 42 24 43 79 44 73 45 72 46
REMARK SMILES IDX 25 48 59 49 38 50 58 51 39 52 42 53 57 54 77 55 40 56 41 57
REMARK SMILES IDX 56 59 78 60 43 61 26 62 27 63 36 64 28 65 29 66 35 67 37 68
REMARK SMILES IDX 30 69 31 70 32 71 33 72 34 73 60 74 61 75 70 76 62 77 63 78
REMARK SMILES IDX 69 79 71 80 64 81 65 82 66 83 67 84 68 85 44 86 45 87 54 88
REMARK SMILES IDX 46 89 47 90 53 91 55 92 48 93 49 94 50 95 51 96 52 97
REMARK H PARENT 10 6 6 9 6 10 14 28 76 47 42 58
REMARK Flexibility Score: inf
ROOT
ATOM      1  C   UNL     1      -3.963   1.837  -1.634  1.00  0.00     0.042 C 
ENDROOT
BRANCH   1   2
ATOM      2  C   UNL     1      -4.093   3.271  -1.089  1.00  0.00     0.118 C 
BRANCH   2   3
ATOM      3  N   UNL     1      -4.516   3.304   0.306  1.00  0.00    -0.351 N 
ATOM      4  C   UNL     1      -3.888   3.631   1.476  1.00  0.00     0.283 C 
ATOM      5  O   UNL     1      -4.510   3.321   2.500  1.00  0.00    -0.268 OA
ATOM      6  H   UNL     1      -5.454   3.032   0.432  1.00  0.00     0.163 HD
BRANCH   4   7
ATOM      7  C   UNL     1      -2.479   4.325   1.524  1.00  0.00     0.304 C 
BRANCH   7   8
ATOM      8  N   UNL     1      -1.375   3.340   1.702  1.00  0.00    -0.326 N 
ATOM      9  H   UNL     1      -0.501   3.844   1.852  1.00  0.00     0.347 HD
ATOM     10  H   UNL     1      -1.594   2.751   2.505  1.00  0.00     0.347 HD
BRANCH   8  11
ATOM     11  C   UNL     1      -1.236   2.486   0.529  1.00  0.00     0.330 C 
BRANCH  11  12
ATOM     12  C   UNL     1      -0.254   1.353   0.620  1.00  0.00     0.148 A 
ATOM     13  C   UNL     1       3.036   0.067  -0.046  1.00  0.00     0.068 C 
ATOM     14  C   UNL     1       1.585   0.170   0.259  1.00  0.00     0.052 A 
ATOM     15  N   UNL     1       1.039   1.441   0.396  1.00  0.00    -0.240 NA
ATOM     16  C   UNL     1       0.679  -0.872   0.375  1.00  0.00     0.025 A 
ATOM     17  S   UNL     1      -0.858  -0.252   0.795  1.00  0.00    -0.118 S 
ATOM     18  C   UNL     1       0.877  -2.336   0.186  1.00  0.00     0.058 C 
ENDBRANCH  11  12
ENDBRANCH   8  11
ENDBRANCH   7   8
BRANCH   7  19
ATOM     19  C   UNL     1      -2.410   5.344   2.670  1.00  0.00     0.019 A 
ATOM     20  C   UNL     1      -2.546   4.938   4.012  1.00  0.00     0.010 A 
ATOM     21  C   UNL     1      -2.191   6.707   2.413  1.00  0.00     0.010 A 
ATOM     22  C   UNL     1      -2.480   5.858   5.059  1.00  0.00     0.001 A 
ATOM     23  C   UNL     1      -2.122   7.628   3.464  1.00  0.00     0.001 A 
ATOM     24  C   UNL     1      -2.268   7.205   4.785  1.00  0.00     0.000 A 
ENDBRANCH   7  19
ENDBRANCH   4   7
ENDBRANCH   2   3
ENDBRANCH   1   2
BRANCH   1  25
ATOM     25  C   UNL     1      -5.244   1.006  -1.598  1.00  0.00     0.118 C 
BRANCH  25  26
ATOM     26  N   UNL     1      -5.987   1.099  -2.840  1.00  0.00    -0.352 N 
ATOM     27  C   UNL     1      -6.200   0.154  -3.816  1.00  0.00     0.251 C 
ATOM     28  H   UNL     1      -6.404   1.975  -3.010  1.00  0.00     0.163 HD
ATOM     29  O   UNL     1      -6.660   0.521  -4.896  1.00  0.00    -0.269 OA
BRANCH  27  30
ATOM     30  C   UNL     1      -5.876  -1.281  -3.605  1.00  0.00     0.039 A 
ATOM     31  C   UNL     1      -5.365  -2.013  -4.683  1.00  0.00     0.014 A 
ATOM     32  C   UNL     1      -6.135  -1.938  -2.398  1.00  0.00     0.014 A 
ATOM     33  C   UNL     1      -5.079  -3.376  -4.541  1.00  0.00     0.010 A 
ATOM     34  C   UNL     1      -5.779  -3.281  -2.234  1.00  0.00     0.010 A 
ATOM     35  C   UNL     1      -5.261  -4.021  -3.308  1.00  0.00    -0.014 A 
BRANCH  35  36
ATOM     36  C   UNL     1      -4.933  -5.465  -3.141  1.00  0.00     0.031 A 
ATOM     37  C   UNL     1      -6.015  -6.466  -2.823  1.00  0.00     0.074 A 
ATOM     38  C   UNL     1      -3.653  -5.879  -3.242  1.00  0.00     0.049 A 
ATOM     39  N   UNL     1      -5.914  -7.755  -2.613  1.00  0.00    -0.248 NA
ATOM     40  C   UNL     1      -7.387  -5.948  -2.702  1.00  0.00     0.031 C 
ATOM     41  C   UNL     1      -2.502  -5.012  -3.501  1.00  0.00     0.029 A 
ATOM     42  N   UNL     1      -3.104  -7.134  -3.134  1.00  0.00    -0.354 N 
ATOM     43  C   UNL     1      -7.200  -8.197  -2.320  1.00  0.00     0.074 A 
ATOM     44  C   UNL     1      -8.057  -7.030  -2.333  1.00  0.00     0.031 C 
ATOM     45  C   UNL     1      -1.389  -5.762  -3.556  1.00  0.00     0.029 A 
ATOM     46  C   UNL     1      -1.739  -7.157  -3.305  1.00  0.00     0.049 A 
ATOM     47  H   UNL     1      -3.637  -7.941  -2.952  1.00  0.00     0.167 HD
ATOM     48  C   UNL     1      -7.635  -9.459  -2.083  1.00  0.00     0.037 A 
ATOM     49  C   UNL     1      -0.865  -8.183  -3.264  1.00  0.00     0.037 A 
ATOM     50  C   UNL     1      -6.790 -10.625  -2.104  1.00  0.00     0.049 A 
ATOM     51  C   UNL     1      -1.372  -9.578  -3.018  1.00  0.00     0.074 A 
ATOM     52  C   UNL     1      -7.150 -11.952  -1.939  1.00  0.00     0.029 A 
ATOM     53  N   UNL     1      -5.418 -10.607  -2.305  1.00  0.00    -0.354 N 
ATOM     54  N   UNL     1      -2.602  -9.981  -2.804  1.00  0.00    -0.248 NA
ATOM     55  C   UNL     1      -0.376 -10.659  -3.016  1.00  0.00     0.031 C 
ATOM     56  C   UNL     1      -5.991 -12.733  -2.004  1.00  0.00     0.029 A 
ATOM     57  C   UNL     1      -4.914 -11.896  -2.251  1.00  0.00     0.049 A 
ATOM     58  H   UNL     1      -4.881  -9.797  -2.462  1.00  0.00     0.167 HD
ATOM     59  C   UNL     1      -2.529 -11.363  -2.666  1.00  0.00     0.074 A 
ATOM     60  C   UNL     1      -1.138 -11.728  -2.831  1.00  0.00     0.031 C 
ATOM     61  C   UNL     1      -3.527 -12.249  -2.424  1.00  0.00     0.037 A 
BRANCH  48  62
ATOM     62  C   UNL     1      -9.098  -9.649  -1.788  1.00  0.00     0.058 A 
ATOM     63  C   UNL     1     -10.075  -9.505  -2.786  1.00  0.00     0.135 A 
ATOM     64  C   UNL     1      -9.527 -10.014  -0.501  1.00  0.00     0.135 A 
ATOM     65  F   UNL     1      -9.721  -9.145  -4.030  1.00  0.00    -0.206 F 
ATOM     66  C   UNL     1     -11.427  -9.685  -2.513  1.00  0.00     0.059 A 
ATOM     67  C   UNL     1     -10.872 -10.225  -0.212  1.00  0.00     0.059 A 
ATOM     68  F   UNL     1      -8.635 -10.169   0.490  1.00  0.00    -0.206 F 
ATOM     69  C   UNL     1     -11.816 -10.042  -1.221  1.00  0.00     0.060 A 
BRANCH  69  70
ATOM     70  S   UNL     1     -13.575 -10.270  -0.882  1.00  0.00     0.124 S 
ATOM     71  O   UNL     1     -14.044  -8.888  -0.845  1.00  0.00    -0.237 OA
ATOM     72  O   UNL     1     -14.017 -11.058  -2.027  1.00  0.00    -0.237 OA
ATOM     73  O   UNL     1     -13.586 -10.970   0.399  1.00  0.00    -0.744 OA
ENDBRANCH  69  70
ENDBRANCH  48  62
BRANCH  49  74
ATOM     74  C   UNL     1       0.583  -7.929  -3.487  1.00  0.00     0.058 A 
ATOM     75  C   UNL     1       1.211  -8.333  -4.674  1.00  0.00     0.135 A 
ATOM     76  C   UNL     1       1.361  -7.261  -2.529  1.00  0.00     0.135 A 
ATOM     77  F   UNL     1       0.509  -8.981  -5.617  1.00  0.00    -0.206 F 
ATOM     78  C   UNL     1       2.562  -8.094  -4.902  1.00  0.00     0.059 A 
ATOM     79  C   UNL     1       2.708  -6.991  -2.743  1.00  0.00     0.059 A 
ATOM     80  F   UNL     1       0.802  -6.837  -1.385  1.00  0.00    -0.206 F 
ATOM     81  C   UNL     1       3.302  -7.419  -3.929  1.00  0.00     0.060 A 
BRANCH  81  82
ATOM     82  S   UNL     1       5.041  -7.056  -4.256  1.00  0.00     0.124 S 
ATOM     83  O   UNL     1       5.657  -8.361  -4.046  1.00  0.00    -0.237 OA
ATOM     84  O   UNL     1       5.003  -6.582  -5.636  1.00  0.00    -0.237 OA
ATOM     85  O   UNL     1       5.361  -6.037  -3.261  1.00  0.00    -0.744 OA
ENDBRANCH  81  82
ENDBRANCH  49  74
BRANCH  61  86
ATOM     86  C   UNL     1      -3.160 -13.705  -2.351  1.00  0.00     0.058 A 
ATOM     87  C   UNL     1      -2.495 -14.241  -1.238  1.00  0.00     0.135 A 
ATOM     88  C   UNL     1      -3.529 -14.584  -3.383  1.00  0.00     0.135 A 
ATOM     89  F   UNL     1      -2.115 -13.442  -0.229  1.00  0.00    -0.206 F 
ATOM     90  C   UNL     1      -2.189 -15.596  -1.159  1.00  0.00     0.059 A 
ATOM     91  C   UNL     1      -3.254 -15.946  -3.313  1.00  0.00     0.059 A 
ATOM     92  F   UNL     1      -4.175 -14.122  -4.465  1.00  0.00    -0.206 F 
ATOM     93  C   UNL     1      -2.574 -16.441  -2.201  1.00  0.00     0.060 A 
BRANCH  93  94
ATOM     94  S   UNL     1      -2.206 -18.204  -2.070  1.00  0.00     0.124 S 
ATOM     95  O   UNL     1      -0.777 -18.228  -2.363  1.00  0.00    -0.237 OA
ATOM     96  O   UNL     1      -2.575 -18.500  -0.689  1.00  0.00    -0.237 OA
ATOM     97  O   UNL     1      -3.066 -18.806  -3.084  1.00  0.00    -0.744 OA
ENDBRANCH  93  94
ENDBRANCH  61  86
ENDBRANCH  35  36
ENDBRANCH  27  30
ENDBRANCH  25  26
ENDBRANCH   1  25
TORSDOF 17
