REMARK SMILES COc1ccc([C@@H]([NH3+])[C@](C)(C(N)=O)C(=O)NCCCNC(=O)c2ccc(-c3c4nc(c(-c5c(F)cc(S(=O)(=O)[O-])cc5F)c5ccc([nH]5)c(-c5c(F)cc(S(=O)(=O)[O-])cc5F)c5nc(c(-c6c(F)cc(S(=O)(=O)[O-])cc6F)c6ccc3[nH]6)C=C5)C=C4)cc2)cc1OC
REMARK SMILES IDX 18 1 17 2 16 3 14 4 15 5 9 7 10 8 7 9 6 10 3 11 4 12 90 13
REMARK SMILES IDX 5 14 89 15 2 16 1 17 91 18 92 19 8 20 11 24 12 25 13 26
REMARK SMILES IDX 19 29 20 30 21 31 22 33 23 34 24 35 88 36 25 37 87 38 26 39
REMARK SMILES IDX 27 40 28 41 81 42 29 43 86 44 80 45 82 46 30 47 85 48 79 49
REMARK SMILES IDX 78 50 31 52 65 53 44 54 64 55 45 56 48 57 63 58 83 59 46 60
REMARK SMILES IDX 47 61 62 63 84 64 49 65 32 66 33 67 42 68 34 69 35 70 41 71
REMARK SMILES IDX 43 72 36 73 37 74 38 75 39 76 40 77 66 78 67 79 76 80 68 81
REMARK SMILES IDX 69 82 75 83 77 84 70 85 71 86 72 87 73 88 74 89 50 90 51 91
REMARK SMILES IDX 60 92 52 93 53 94 59 95 61 96 54 97 55 98 56 99 57 100
REMARK SMILES IDX 58 101
REMARK H PARENT 16 6 8 21 8 22 8 23 12 27 12 28 20 32 82 51 48 62
REMARK Flexibility Score: inf
ROOT
ATOM      1  C   UNL     1      -1.560   9.429   3.426  1.00  0.00     0.042 C 
ENDROOT
BRANCH   1   2
ATOM      2  C   UNL     1      -0.907   8.061   3.376  1.00  0.00     0.117 C 
BRANCH   2   3
ATOM      3  N   UNL     1      -1.081   7.385   2.102  1.00  0.00    -0.355 N 
ATOM      4  C   UNL     1      -0.168   6.889   1.224  1.00  0.00     0.241 C 
ATOM      5  O   UNL     1      -0.648   6.333   0.229  1.00  0.00    -0.274 OA
ATOM      6  H   UNL     1      -2.019   7.265   1.828  1.00  0.00     0.163 HD
BRANCH   4   7
ATOM      7  C   UNL     1       1.355   6.973   1.454  1.00  0.00     0.180 C 
ATOM      8  C   UNL     1       2.007   6.537   0.109  1.00  0.00     0.039 C 
BRANCH   7   9
ATOM      9  C   UNL     1       1.716   5.944   2.595  1.00  0.00     0.237 C 
BRANCH   9  10
ATOM     10  C   UNL     1       3.037   5.187   2.501  1.00  0.00     0.015 A 
ATOM     11  C   UNL     1       5.408   3.666   2.524  1.00  0.00     0.160 A 
ATOM     12  C   UNL     1       5.459   5.066   2.558  1.00  0.00     0.051 A 
ATOM     13  C   UNL     1       4.174   3.010   2.512  1.00  0.00     0.161 A 
ATOM     14  C   UNL     1       4.283   5.819   2.554  1.00  0.00     0.014 A 
ATOM     15  C   UNL     1       3.007   3.781   2.490  1.00  0.00     0.060 A 
BRANCH  11  16
ATOM     16  O   UNL     1       6.588   2.978   2.612  1.00  0.00    -0.493 OA
ATOM     17  C   UNL     1       7.303   3.012   1.378  1.00  0.00     0.278 C 
ENDBRANCH  11  16
BRANCH  13  18
ATOM     18  O   UNL     1       3.909   1.669   2.554  1.00  0.00    -0.493 OA
ATOM     19  C   UNL     1       4.972   0.766   2.309  1.00  0.00     0.278 C 
ENDBRANCH  13  18
ENDBRANCH   9  10
BRANCH   9  20
ATOM     20  N   UNL     1       1.564   6.405   3.989  1.00  0.00    -0.350 N 
ATOM     21  H   UNL     1       2.312   7.061   4.214  1.00  0.00     0.345 HD
ATOM     22  H   UNL     1       1.613   5.604   4.619  1.00  0.00     0.345 HD
ATOM     23  H   UNL     1       0.662   6.868   4.098  1.00  0.00     0.345 HD
ENDBRANCH   9  20
ENDBRANCH   7   9
BRANCH   7  24
ATOM     24  C   UNL     1       1.855   8.405   1.667  1.00  0.00     0.239 C 
ATOM     25  N   UNL     1       1.159   9.412   1.052  1.00  0.00    -0.369 N 
ATOM     26  O   UNL     1       2.901   8.702   2.238  1.00  0.00    -0.274 OA
ATOM     27  H   UNL     1       0.316   9.213   0.584  1.00  0.00     0.159 HD
ATOM     28  H   UNL     1       1.501  10.335   1.078  1.00  0.00     0.159 HD
ENDBRANCH   7  24
ENDBRANCH   4   7
ENDBRANCH   2   3
ENDBRANCH   1   2
BRANCH   1  29
ATOM     29  C   UNL     1      -3.051   9.419   3.148  1.00  0.00     0.118 C 
BRANCH  29  30
ATOM     30  N   UNL     1      -3.818   8.718   4.169  1.00  0.00    -0.352 N 
ATOM     31  C   UNL     1      -4.670   9.213   5.129  1.00  0.00     0.251 C 
ATOM     32  H   UNL     1      -3.710   7.740   4.173  1.00  0.00     0.163 HD
ATOM     33  O   UNL     1      -5.080   8.470   6.018  1.00  0.00    -0.269 OA
BRANCH  31  34
ATOM     34  C   UNL     1      -5.062  10.639   5.108  1.00  0.00     0.039 A 
ATOM     35  C   UNL     1      -5.094  11.357   6.306  1.00  0.00     0.014 A 
ATOM     36  C   UNL     1      -5.378  11.275   3.907  1.00  0.00     0.014 A 
ATOM     37  C   UNL     1      -5.355  12.730   6.281  1.00  0.00     0.010 A 
ATOM     38  C   UNL     1      -5.515  12.657   3.871  1.00  0.00     0.010 A 
ATOM     39  C   UNL     1      -5.516  13.402   5.058  1.00  0.00    -0.014 A 
BRANCH  39  40
ATOM     40  C   UNL     1      -5.698  14.876   4.992  1.00  0.00     0.031 A 
ATOM     41  C   UNL     1      -6.938  15.454   4.359  1.00  0.00     0.074 A 
ATOM     42  C   UNL     1      -4.718  15.693   5.430  1.00  0.00     0.049 A 
ATOM     43  N   UNL     1      -7.240  16.705   4.126  1.00  0.00    -0.248 NA
ATOM     44  C   UNL     1      -7.957  14.497   3.895  1.00  0.00     0.031 C 
ATOM     45  C   UNL     1      -3.445  15.257   6.009  1.00  0.00     0.029 A 
ATOM     46  N   UNL     1      -4.633  17.064   5.446  1.00  0.00    -0.354 N 
ATOM     47  C   UNL     1      -8.468  16.683   3.475  1.00  0.00     0.074 A 
ATOM     48  C   UNL     1      -8.824  15.294   3.290  1.00  0.00     0.031 C 
ATOM     49  C   UNL     1      -2.722  16.336   6.351  1.00  0.00     0.029 A 
ATOM     50  C   UNL     1      -3.455  17.540   5.974  1.00  0.00     0.049 A 
ATOM     51  H   UNL     1      -5.349  17.651   5.111  1.00  0.00     0.167 HD
ATOM     52  C   UNL     1      -9.244  17.725   3.093  1.00  0.00     0.037 A 
ATOM     53  C   UNL     1      -3.011  18.802   6.130  1.00  0.00     0.037 A 
ATOM     54  C   UNL     1      -8.898  19.104   3.310  1.00  0.00     0.049 A 
ATOM     55  C   UNL     1      -3.892  19.945   5.698  1.00  0.00     0.074 A 
ATOM     56  C   UNL     1      -9.642  20.233   3.017  1.00  0.00     0.029 A 
ATOM     57  N   UNL     1      -7.709  19.544   3.873  1.00  0.00    -0.354 N 
ATOM     58  N   UNL     1      -5.081  19.905   5.144  1.00  0.00    -0.248 NA
ATOM     59  C   UNL     1      -3.376  21.303   5.918  1.00  0.00     0.031 C 
ATOM     60  C   UNL     1      -8.882  21.357   3.354  1.00  0.00     0.029 A 
ATOM     61  C   UNL     1      -7.689  20.928   3.916  1.00  0.00     0.049 A 
ATOM     62  H   UNL     1      -6.986  18.959   4.195  1.00  0.00     0.167 HD
ATOM     63  C   UNL     1      -5.469  21.231   4.982  1.00  0.00     0.074 A 
ATOM     64  C   UNL     1      -4.392  22.047   5.503  1.00  0.00     0.031 C 
ATOM     65  C   UNL     1      -6.614  21.727   4.452  1.00  0.00     0.037 A 
BRANCH  52  66
ATOM     66  C   UNL     1     -10.548  17.413   2.407  1.00  0.00     0.058 A 
ATOM     67  C   UNL     1     -11.619  16.814   3.092  1.00  0.00     0.135 A 
ATOM     68  C   UNL     1     -10.744  17.751   1.058  1.00  0.00     0.135 A 
ATOM     69  F   UNL     1     -11.483  16.454   4.378  1.00  0.00    -0.206 F 
ATOM     70  C   UNL     1     -12.824  16.535   2.457  1.00  0.00     0.059 A 
ATOM     71  C   UNL     1     -11.953  17.511   0.412  1.00  0.00     0.059 A 
ATOM     72  F   UNL     1      -9.755  18.324   0.354  1.00  0.00    -0.206 F 
ATOM     73  C   UNL     1     -12.983  16.889   1.116  1.00  0.00     0.060 A 
BRANCH  73  74
ATOM     74  S   UNL     1     -14.558  16.528   0.312  1.00  0.00     0.124 S 
ATOM     75  O   UNL     1     -14.497  15.075   0.192  1.00  0.00    -0.237 OA
ATOM     76  O   UNL     1     -15.524  17.044   1.276  1.00  0.00    -0.237 OA
ATOM     77  O   UNL     1     -14.475  17.265  -0.945  1.00  0.00    -0.744 OA
ENDBRANCH  73  74
ENDBRANCH  52  66
BRANCH  53  78
ATOM     78  C   UNL     1      -1.678  19.054   6.742  1.00  0.00     0.058 A 
ATOM     79  C   UNL     1      -1.565  19.635   8.014  1.00  0.00     0.135 A 
ATOM     80  C   UNL     1      -0.491  18.710   6.075  1.00  0.00     0.135 A 
ATOM     81  F   UNL     1      -2.668  19.987   8.691  1.00  0.00    -0.206 F 
ATOM     82  C   UNL     1      -0.326  19.885   8.595  1.00  0.00     0.059 A 
ATOM     83  C   UNL     1       0.759  18.924   6.647  1.00  0.00     0.059 A 
ATOM     84  F   UNL     1      -0.543  18.135   4.863  1.00  0.00    -0.206 F 
ATOM     85  C   UNL     1       0.832  19.523   7.904  1.00  0.00     0.060 A 
BRANCH  85  86
ATOM     86  S   UNL     1       2.433  19.815   8.686  1.00  0.00     0.124 S 
ATOM     87  O   UNL     1       2.540  21.267   8.604  1.00  0.00    -0.237 OA
ATOM     88  O   UNL     1       2.226  19.263  10.021  1.00  0.00    -0.237 OA
ATOM     89  O   UNL     1       3.360  19.065   7.842  1.00  0.00    -0.744 OA
ENDBRANCH  85  86
ENDBRANCH  53  78
BRANCH  65  90
ATOM     90  C   UNL     1      -6.791  23.220   4.449  1.00  0.00     0.058 A 
ATOM     91  C   UNL     1      -6.059  24.054   3.591  1.00  0.00     0.135 A 
ATOM     92  C   UNL     1      -7.757  23.818   5.277  1.00  0.00     0.135 A 
ATOM     93  F   UNL     1      -5.120  23.535   2.783  1.00  0.00    -0.206 F 
ATOM     94  C   UNL     1      -6.260  25.430   3.568  1.00  0.00     0.059 A 
ATOM     95  C   UNL     1      -7.997  25.187   5.248  1.00  0.00     0.059 A 
ATOM     96  F   UNL     1      -8.493  23.065   6.110  1.00  0.00    -0.206 F 
ATOM     97  C   UNL     1      -7.236  25.987   4.398  1.00  0.00     0.060 A 
BRANCH  97  98
ATOM     98  S   UNL     1      -7.516  27.769   4.328  1.00  0.00     0.124 S 
ATOM     99  O   UNL     1      -6.322  28.280   4.994  1.00  0.00    -0.237 OA
ATOM    100  O   UNL     1      -7.595  28.015   2.892  1.00  0.00    -0.237 OA
ATOM    101  O   UNL     1      -8.767  27.946   5.059  1.00  0.00    -0.744 OA
ENDBRANCH  97  98
ENDBRANCH  65  90
ENDBRANCH  39  40
ENDBRANCH  31  34
ENDBRANCH  29  30
ENDBRANCH   1  29
TORSDOF 19
