REMARK SMILES CC(C)[C@](C)(CC(=O)NC#N)C(=O)NCCCNC(=O)c1ccc(-c2c3nc(c(-c4c(F)cc(S(=O)(=O)[O-])cc4F)c4ccc([nH]4)c(-c4c(F)cc(S(=O)(=O)[O-])cc4F)c4nc(c(-c5c(F)cc(S(=O)(=O)[O-])cc5F)c5ccc2[nH]5)C=C4)C=C3)cc1
REMARK SMILES IDX 16 1 15 2 14 3 12 4 13 5 4 7 5 8 2 9 1 10 3 11 6 12 7 13
REMARK SMILES IDX 8 14 9 15 10 17 11 18 17 19 18 20 19 21 20 23 21 24 22 25
REMARK SMILES IDX 86 26 23 27 85 28 24 29 25 30 26 31 79 32 27 33 84 34 78 35
REMARK SMILES IDX 80 36 28 37 83 38 77 39 76 40 29 42 63 43 42 44 62 45 43 46
REMARK SMILES IDX 46 47 61 48 81 49 44 50 45 51 60 53 82 54 47 55 30 56 31 57
REMARK SMILES IDX 40 58 32 59 33 60 39 61 41 62 34 63 35 64 36 65 37 66 38 67
REMARK SMILES IDX 64 68 65 69 74 70 66 71 67 72 73 73 75 74 68 75 69 76 70 77
REMARK SMILES IDX 71 78 72 79 48 80 49 81 58 82 50 83 51 84 57 85 59 86 52 87
REMARK SMILES IDX 53 88 54 89 55 90 56 91
REMARK H PARENT 14 6 9 16 18 22 80 41 46 52
REMARK Flexibility Score: inf
ROOT
ATOM      1  C   UNL     1      -4.952   1.844  -1.943  1.00  0.00     0.042 C 
ENDROOT
BRANCH   1   2
ATOM      2  C   UNL     1      -4.081   1.151  -0.915  1.00  0.00     0.117 C 
BRANCH   2   3
ATOM      3  N   UNL     1      -2.971   0.415  -1.489  1.00  0.00    -0.356 N 
ATOM      4  C   UNL     1      -1.651   0.387  -1.170  1.00  0.00     0.226 C 
ATOM      5  O   UNL     1      -0.966  -0.452  -1.763  1.00  0.00    -0.274 OA
ATOM      6  H   UNL     1      -3.218  -0.167  -2.243  1.00  0.00     0.163 HD
BRANCH   4   7
ATOM      7  C   UNL     1      -1.022   1.366  -0.150  1.00  0.00     0.057 C 
ATOM      8  C   UNL     1       0.511   1.064  -0.143  1.00  0.00     0.022 C 
BRANCH   7   9
ATOM      9  C   UNL     1      -1.469   1.133   1.364  1.00  0.00    -0.002 C 
ATOM     10  C   UNL     1      -1.582   2.427   2.181  1.00  0.00     0.008 C 
ATOM     11  C   UNL     1      -2.693   0.257   1.661  1.00  0.00     0.008 C 
ENDBRANCH   7   9
BRANCH   7  12
ATOM     12  C   UNL     1      -1.177   2.833  -0.664  1.00  0.00     0.118 C 
BRANCH  12  13
ATOM     13  C   UNL     1      -0.860   3.046  -2.143  1.00  0.00     0.234 C 
ATOM     14  O   UNL     1      -1.710   2.889  -3.018  1.00  0.00    -0.274 OA
ATOM     15  N   UNL     1       0.396   3.442  -2.493  1.00  0.00    -0.263 N 
ATOM     16  H   UNL     1       0.508   3.567  -3.463  1.00  0.00     0.182 HD
BRANCH  15  17
ATOM     17  C   UNL     1       1.509   3.699  -1.793  1.00  0.00     0.183 C 
ATOM     18  N   UNL     1       2.477   3.894  -1.191  1.00  0.00    -0.172 NA
ENDBRANCH  15  17
ENDBRANCH  12  13
ENDBRANCH   7  12
ENDBRANCH   4   7
ENDBRANCH   2   3
ENDBRANCH   1   2
BRANCH   1  19
ATOM     19  C   UNL     1      -5.669   0.882  -2.878  1.00  0.00     0.118 C 
BRANCH  19  20
ATOM     20  N   UNL     1      -6.579  -0.022  -2.177  1.00  0.00    -0.352 N 
ATOM     21  C   UNL     1      -7.953  -0.080  -2.180  1.00  0.00     0.251 C 
ATOM     22  H   UNL     1      -6.138  -0.698  -1.613  1.00  0.00     0.163 HD
ATOM     23  O   UNL     1      -8.537  -0.794  -1.370  1.00  0.00    -0.269 OA
BRANCH  21  24
ATOM     24  C   UNL     1      -8.720   0.747  -3.134  1.00  0.00     0.039 A 
ATOM     25  C   UNL     1      -9.831   1.459  -2.677  1.00  0.00     0.014 A 
ATOM     26  C   UNL     1      -8.314   0.858  -4.465  1.00  0.00     0.014 A 
ATOM     27  C   UNL     1     -10.457   2.373  -3.525  1.00  0.00     0.010 A 
ATOM     28  C   UNL     1      -8.871   1.842  -5.274  1.00  0.00     0.010 A 
ATOM     29  C   UNL     1      -9.935   2.625  -4.805  1.00  0.00    -0.014 A 
BRANCH  29  30
ATOM     30  C   UNL     1     -10.438   3.746  -5.640  1.00  0.00     0.031 A 
ATOM     31  C   UNL     1     -11.024   3.477  -6.999  1.00  0.00     0.074 A 
ATOM     32  C   UNL     1     -10.276   5.014  -5.205  1.00  0.00     0.049 A 
ATOM     33  N   UNL     1     -11.422   4.331  -7.905  1.00  0.00    -0.248 NA
ATOM     34  C   UNL     1     -11.164   2.067  -7.404  1.00  0.00     0.031 C 
ATOM     35  C   UNL     1      -9.672   5.399  -3.926  1.00  0.00     0.029 A 
ATOM     36  N   UNL     1     -10.583   6.216  -5.795  1.00  0.00    -0.354 N 
ATOM     37  C   UNL     1     -11.839   3.569  -8.989  1.00  0.00     0.074 A 
ATOM     38  C   UNL     1     -11.618   2.183  -8.645  1.00  0.00     0.031 C 
ATOM     39  C   UNL     1      -9.670   6.737  -3.821  1.00  0.00     0.029 A 
ATOM     40  C   UNL     1     -10.210   7.311  -5.048  1.00  0.00     0.049 A 
ATOM     41  H   UNL     1     -11.027   6.288  -6.670  1.00  0.00     0.167 HD
ATOM     42  C   UNL     1     -12.368   3.993 -10.160  1.00  0.00     0.037 A 
ATOM     43  C   UNL     1     -10.265   8.628  -5.330  1.00  0.00     0.037 A 
ATOM     44  C   UNL     1     -12.608   5.377 -10.480  1.00  0.00     0.049 A 
ATOM     45  C   UNL     1     -10.833   9.064  -6.656  1.00  0.00     0.074 A 
ATOM     46  C   UNL     1     -13.223   5.899 -11.605  1.00  0.00     0.029 A 
ATOM     47  N   UNL     1     -12.229   6.454  -9.694  1.00  0.00    -0.354 N 
ATOM     48  N   UNL     1     -11.329   8.326  -7.621  1.00  0.00    -0.248 NA
ATOM     49  C   UNL     1     -10.847  10.507  -6.937  1.00  0.00     0.031 C 
ATOM     50  C   UNL     1     -13.142   7.291 -11.538  1.00  0.00     0.029 A 
ATOM     51  C   UNL     1     -12.547   7.639 -10.337  1.00  0.00     0.049 A 
ATOM     52  H   UNL     1     -11.799   6.387  -8.811  1.00  0.00     0.167 HD
ATOM     53  C   UNL     1     -11.731   9.217  -8.610  1.00  0.00     0.074 A 
ATOM     54  C   UNL     1     -11.451  10.548  -8.115  1.00  0.00     0.031 C 
ATOM     55  C   UNL     1     -12.272   8.958  -9.825  1.00  0.00     0.037 A 
BRANCH  42  56
ATOM     56  C   UNL     1     -12.725   2.971 -11.203  1.00  0.00     0.058 A 
ATOM     57  C   UNL     1     -13.830   2.119 -11.060  1.00  0.00     0.135 A 
ATOM     58  C   UNL     1     -12.023   2.935 -12.420  1.00  0.00     0.135 A 
ATOM     59  F   UNL     1     -14.526   2.098  -9.912  1.00  0.00    -0.206 F 
ATOM     60  C   UNL     1     -14.232   1.273 -12.089  1.00  0.00     0.059 A 
ATOM     61  C   UNL     1     -12.424   2.119 -13.472  1.00  0.00     0.059 A 
ATOM     62  F   UNL     1     -10.953   3.725 -12.605  1.00  0.00    -0.206 F 
ATOM     63  C   UNL     1     -13.532   1.293 -13.297  1.00  0.00     0.060 A 
BRANCH  63  64
ATOM     64  S   UNL     1     -14.116   0.246 -14.647  1.00  0.00     0.124 S 
ATOM     65  O   UNL     1     -13.825  -1.088 -14.129  1.00  0.00    -0.237 OA
ATOM     66  O   UNL     1     -15.530   0.601 -14.722  1.00  0.00    -0.237 OA
ATOM     67  O   UNL     1     -13.304   0.667 -15.783  1.00  0.00    -0.744 OA
ENDBRANCH  63  64
ENDBRANCH  42  56
BRANCH  43  68
ATOM     68  C   UNL     1      -9.733   9.636  -4.368  1.00  0.00     0.058 A 
ATOM     69  C   UNL     1     -10.571  10.598  -3.783  1.00  0.00     0.135 A 
ATOM     70  C   UNL     1      -8.365   9.693  -4.055  1.00  0.00     0.135 A 
ATOM     71  F   UNL     1     -11.886  10.593  -4.050  1.00  0.00    -0.206 F 
ATOM     72  C   UNL     1     -10.069  11.605  -2.964  1.00  0.00     0.059 A 
ATOM     73  C   UNL     1      -7.845  10.665  -3.208  1.00  0.00     0.059 A 
ATOM     74  F   UNL     1      -7.517   8.789  -4.571  1.00  0.00    -0.206 F 
ATOM     75  C   UNL     1      -8.701  11.632  -2.686  1.00  0.00     0.060 A 
BRANCH  75  76
ATOM     76  S   UNL     1      -8.057  12.947  -1.631  1.00  0.00     0.124 S 
ATOM     77  O   UNL     1      -8.188  14.111  -2.501  1.00  0.00    -0.237 OA
ATOM     78  O   UNL     1      -8.965  12.895  -0.490  1.00  0.00    -0.237 OA
ATOM     79  O   UNL     1      -6.689  12.516  -1.355  1.00  0.00    -0.744 OA
ENDBRANCH  75  76
ENDBRANCH  43  68
BRANCH  55  80
ATOM     80  C   UNL     1     -12.616  10.131 -10.703  1.00  0.00     0.058 A 
ATOM     81  C   UNL     1     -11.620  10.911 -11.310  1.00  0.00     0.135 A 
ATOM     82  C   UNL     1     -13.956  10.428 -11.004  1.00  0.00     0.135 A 
ATOM     83  F   UNL     1     -10.324  10.677 -11.048  1.00  0.00    -0.206 F 
ATOM     84  C   UNL     1     -11.940  11.951 -12.176  1.00  0.00     0.059 A 
ATOM     85  C   UNL     1     -14.297  11.440 -11.895  1.00  0.00     0.059 A 
ATOM     86  F   UNL     1     -14.948   9.709 -10.455  1.00  0.00    -0.206 F 
ATOM     87  C   UNL     1     -13.281  12.200 -12.472  1.00  0.00     0.060 A 
BRANCH  87  88
ATOM     88  S   UNL     1     -13.673  13.508 -13.650  1.00  0.00     0.124 S 
ATOM     89  O   UNL     1     -13.299  14.703 -12.901  1.00  0.00    -0.237 OA
ATOM     90  O   UNL     1     -12.812  13.173 -14.781  1.00  0.00    -0.237 OA
ATOM     91  O   UNL     1     -15.103  13.339 -13.886  1.00  0.00    -0.744 OA
ENDBRANCH  87  88
ENDBRANCH  55  80
ENDBRANCH  29  30
ENDBRANCH  21  24
ENDBRANCH  19  20
ENDBRANCH   1  19
TORSDOF 17
