REMARK SMILES Cc1cscc1C(=O)N1C[C@@H](C(=O)NCCCNC(=O)c2ccc(-c3c4nc(c(-c5c(F)cc(S(=O)(=O)[O-])cc5F)c5ccc([nH]5)c(-c5c(F)cc(S(=O)(=O)[O-])cc5F)c5nc(c(-c6c(F)cc(S(=O)(=O)[O-])cc6F)c6ccc3[nH]6)C=C5)C=C4)cc2)Oc2ccccc21
REMARK SMILES IDX 16 1 15 2 14 3 12 4 13 5 11 7 9 8 10 9 93 10 88 11 92 12
REMARK SMILES IDX 87 13 89 14 91 15 90 16 7 17 8 18 6 19 1 20 2 21 3 22 4 23
REMARK SMILES IDX 5 24 17 25 18 26 19 27 20 29 21 30 22 31 86 32 23 33 85 34
REMARK SMILES IDX 24 35 25 36 26 37 79 38 27 39 84 40 78 41 80 42 28 43 83 44
REMARK SMILES IDX 77 45 76 46 29 48 63 49 42 50 62 51 43 52 46 53 61 54 81 55
REMARK SMILES IDX 44 56 45 57 60 59 82 60 47 61 30 62 31 63 40 64 32 65 33 66
REMARK SMILES IDX 39 67 41 68 34 69 35 70 36 71 37 72 38 73 64 74 65 75 74 76
REMARK SMILES IDX 66 77 67 78 73 79 75 80 68 81 69 82 70 83 71 84 72 85 48 86
REMARK SMILES IDX 49 87 58 88 50 89 51 90 57 91 59 92 52 93 53 94 54 95 55 96
REMARK SMILES IDX 56 97
REMARK H PARENT 14 6 18 28 80 47 46 58
REMARK Flexibility Score: inf
ROOT
ATOM      1  C   UNL     1       5.783   7.042  -0.772  1.00  0.00     0.042 C 
ENDROOT
BRANCH   1   2
ATOM      2  C   UNL     1       5.193   5.658  -0.543  1.00  0.00     0.118 C 
BRANCH   2   3
ATOM      3  N   UNL     1       4.351   5.190  -1.628  1.00  0.00    -0.353 N 
ATOM      4  C   UNL     1       3.939   3.929  -1.929  1.00  0.00     0.262 C 
ATOM      5  O   UNL     1       3.086   3.822  -2.820  1.00  0.00    -0.271 OA
ATOM      6  H   UNL     1       4.027   5.892  -2.238  1.00  0.00     0.163 HD
BRANCH   4   7
ATOM      7  C   UNL     1       4.534   2.657  -1.275  1.00  0.00     0.281 C 
ATOM      8  N   UNL     1       2.750   2.134   0.360  1.00  0.00    -0.301 N 
ATOM      9  C   UNL     1       3.394   1.705  -0.888  1.00  0.00     0.181 C 
ATOM     10  C   UNL     1       3.633   2.684   1.339  1.00  0.00     0.086 A 
ATOM     11  C   UNL     1       4.986   2.872   1.017  1.00  0.00     0.144 A 
ATOM     12  C   UNL     1       3.220   2.982   2.644  1.00  0.00     0.030 A 
ATOM     13  O   UNL     1       5.505   2.709  -0.244  1.00  0.00    -0.477 OA
ATOM     14  C   UNL     1       5.905   3.298   1.982  1.00  0.00     0.049 A 
ATOM     15  C   UNL     1       4.132   3.445   3.598  1.00  0.00     0.002 A 
ATOM     16  C   UNL     1       5.475   3.594   3.271  1.00  0.00     0.004 A 
BRANCH   8  17
ATOM     17  C   UNL     1       1.366   2.098   0.536  1.00  0.00     0.259 C 
ATOM     18  O   UNL     1       0.748   2.968   1.150  1.00  0.00    -0.269 OA
BRANCH  17  19
ATOM     19  C   UNL     1       0.628   0.953  -0.022  1.00  0.00     0.053 A 
ATOM     20  C   UNL     1       2.224  -1.070   0.541  1.00  0.00     0.046 C 
ATOM     21  C   UNL     1       0.980  -0.458  -0.017  1.00  0.00    -0.028 A 
ATOM     22  C   UNL     1      -0.035  -1.226  -0.562  1.00  0.00     0.069 A 
ATOM     23  S   UNL     1      -1.391  -0.311  -1.038  1.00  0.00    -0.151 S 
ATOM     24  C   UNL     1      -0.652   1.135  -0.523  1.00  0.00     0.079 A 
ENDBRANCH  17  19
ENDBRANCH   8  17
ENDBRANCH   4   7
ENDBRANCH   2   3
ENDBRANCH   1   2
BRANCH   1  25
ATOM     25  C   UNL     1       4.772   8.169  -0.941  1.00  0.00     0.118 C 
BRANCH  25  26
ATOM     26  N   UNL     1       4.048   8.498   0.278  1.00  0.00    -0.352 N 
ATOM     27  C   UNL     1       4.030   9.662   1.014  1.00  0.00     0.251 C 
ATOM     28  H   UNL     1       3.481   7.775   0.632  1.00  0.00     0.163 HD
ATOM     29  O   UNL     1       3.421   9.692   2.083  1.00  0.00    -0.269 OA
BRANCH  27  30
ATOM     30  C   UNL     1       4.771  10.861   0.559  1.00  0.00     0.039 A 
ATOM     31  C   UNL     1       5.522  11.583   1.493  1.00  0.00     0.014 A 
ATOM     32  C   UNL     1       4.737  11.282  -0.772  1.00  0.00     0.014 A 
ATOM     33  C   UNL     1       6.313  12.658   1.074  1.00  0.00     0.010 A 
ATOM     34  C   UNL     1       5.590  12.297  -1.203  1.00  0.00     0.010 A 
ATOM     35  C   UNL     1       6.395  12.991  -0.287  1.00  0.00    -0.014 A 
BRANCH  35  36
ATOM     36  C   UNL     1       7.312  14.053  -0.781  1.00  0.00     0.031 A 
ATOM     37  C   UNL     1       6.759  15.255  -1.497  1.00  0.00     0.074 A 
ATOM     38  C   UNL     1       8.647  13.895  -0.671  1.00  0.00     0.049 A 
ATOM     39  N   UNL     1       7.395  16.195  -2.148  1.00  0.00    -0.248 NA
ATOM     40  C   UNL     1       5.294  15.398  -1.515  1.00  0.00     0.031 C 
ATOM     41  C   UNL     1       9.322  12.754  -0.047  1.00  0.00     0.029 A 
ATOM     42  N   UNL     1       9.680  14.693  -1.098  1.00  0.00    -0.354 N 
ATOM     43  C   UNL     1       6.411  17.009  -2.696  1.00  0.00     0.074 A 
ATOM     44  C   UNL     1       5.134  16.443  -2.314  1.00  0.00     0.031 C 
ATOM     45  C   UNL     1      10.651  12.937  -0.111  1.00  0.00     0.029 A 
ATOM     46  C   UNL     1      10.925  14.187  -0.811  1.00  0.00     0.049 A 
ATOM     47  H   UNL     1       9.540  15.549  -1.565  1.00  0.00     0.167 HD
ATOM     48  C   UNL     1       6.555  18.130  -3.442  1.00  0.00     0.037 A 
ATOM     49  C   UNL     1      12.152  14.671  -1.088  1.00  0.00     0.037 A 
ATOM     50  C   UNL     1       7.820  18.734  -3.765  1.00  0.00     0.049 A 
ATOM     51  C   UNL     1      12.285  15.968  -1.833  1.00  0.00     0.074 A 
ATOM     52  C   UNL     1       8.066  19.898  -4.473  1.00  0.00     0.029 A 
ATOM     53  N   UNL     1       9.054  18.233  -3.378  1.00  0.00    -0.354 N 
ATOM     54  N   UNL     1      11.342  16.727  -2.335  1.00  0.00    -0.248 NA
ATOM     55  C   UNL     1      13.648  16.476  -2.047  1.00  0.00     0.031 C 
ATOM     56  C   UNL     1       9.450  20.101  -4.514  1.00  0.00     0.029 A 
ATOM     57  C   UNL     1      10.063  19.071  -3.820  1.00  0.00     0.049 A 
ATOM     58  H   UNL     1       9.191  17.404  -2.865  1.00  0.00     0.167 HD
ATOM     59  C   UNL     1      11.995  17.809  -2.913  1.00  0.00     0.074 A 
ATOM     60  C   UNL     1      13.413  17.613  -2.690  1.00  0.00     0.031 C 
ATOM     61  C   UNL     1      11.467  18.868  -3.572  1.00  0.00     0.037 A 
BRANCH  48  62
ATOM     62  C   UNL     1       5.302  18.776  -3.957  1.00  0.00     0.058 A 
ATOM     63  C   UNL     1       4.465  19.525  -3.116  1.00  0.00     0.135 A 
ATOM     64  C   UNL     1       4.935  18.646  -5.305  1.00  0.00     0.135 A 
ATOM     65  F   UNL     1       4.764  19.663  -1.814  1.00  0.00    -0.206 F 
ATOM     66  C   UNL     1       3.288  20.097  -3.586  1.00  0.00     0.059 A 
ATOM     67  C   UNL     1       3.772  19.225  -5.802  1.00  0.00     0.059 A 
ATOM     68  F   UNL     1       5.702  17.938  -6.149  1.00  0.00    -0.206 F 
ATOM     69  C   UNL     1       2.945  19.933  -4.929  1.00  0.00     0.060 A 
BRANCH  69  70
ATOM     70  S   UNL     1       1.406  20.659  -5.533  1.00  0.00     0.124 S 
ATOM     71  O   UNL     1       0.434  19.644  -5.139  1.00  0.00    -0.237 OA
ATOM     72  O   UNL     1       1.337  21.919  -4.800  1.00  0.00    -0.237 OA
ATOM     73  O   UNL     1       1.637  20.787  -6.969  1.00  0.00    -0.744 OA
ENDBRANCH  69  70
ENDBRANCH  48  62
BRANCH  49  74
ATOM     74  C   UNL     1      13.356  13.935  -0.629  1.00  0.00     0.058 A 
ATOM     75  C   UNL     1      14.071  14.370   0.496  1.00  0.00     0.135 A 
ATOM     76  C   UNL     1      13.800  12.779  -1.286  1.00  0.00     0.135 A 
ATOM     77  F   UNL     1      13.683  15.474   1.152  1.00  0.00    -0.206 F 
ATOM     78  C   UNL     1      15.195  13.689   0.951  1.00  0.00     0.059 A 
ATOM     79  C   UNL     1      14.914  12.073  -0.842  1.00  0.00     0.059 A 
ATOM     80  F   UNL     1      13.137  12.317  -2.357  1.00  0.00    -0.206 F 
ATOM     81  C   UNL     1      15.609  12.540   0.274  1.00  0.00     0.060 A 
BRANCH  81  82
ATOM     82  S   UNL     1      17.032  11.620   0.901  1.00  0.00     0.124 S 
ATOM     83  O   UNL     1      18.142  12.372   0.328  1.00  0.00    -0.237 OA
ATOM     84  O   UNL     1      16.865  11.730   2.347  1.00  0.00    -0.237 OA
ATOM     85  O   UNL     1      16.823  10.282   0.357  1.00  0.00    -0.744 OA
ENDBRANCH  81  82
ENDBRANCH  49  74
BRANCH  61  86
ATOM     86  C   UNL     1      12.421  19.910  -4.071  1.00  0.00     0.058 A 
ATOM     87  C   UNL     1      13.140  19.731  -5.262  1.00  0.00     0.135 A 
ATOM     88  C   UNL     1      12.580  21.120  -3.378  1.00  0.00     0.135 A 
ATOM     89  F   UNL     1      13.025  18.587  -5.955  1.00  0.00    -0.206 F 
ATOM     90  C   UNL     1      13.996  20.715  -5.745  1.00  0.00     0.059 A 
ATOM     91  C   UNL     1      13.421  22.122  -3.849  1.00  0.00     0.059 A 
ATOM     92  F   UNL     1      11.909  21.337  -2.236  1.00  0.00    -0.206 F 
ATOM     93  C   UNL     1      14.131  21.907  -5.031  1.00  0.00     0.060 A 
BRANCH  93  94
ATOM     94  S   UNL     1      15.211  23.200  -5.681  1.00  0.00     0.124 S 
ATOM     95  O   UNL     1      16.519  22.749  -5.218  1.00  0.00    -0.237 OA
ATOM     96  O   UNL     1      14.985  23.111  -7.120  1.00  0.00    -0.237 OA
ATOM     97  O   UNL     1      14.701  24.412  -5.048  1.00  0.00    -0.744 OA
ENDBRANCH  93  94
ENDBRANCH  61  86
ENDBRANCH  35  36
ENDBRANCH  27  30
ENDBRANCH  25  26
ENDBRANCH   1  25
TORSDOF 15
