REMARK SMILES COc1ccccc1C(=O)N/C(=C/c1ccc2c(c1)OCO2)C(=O)Nc1ccc(C(=O)NCCCNC(=O)c2ccc(-c3c4nc(c(-c5c(F)cc(S(=O)(=O)[O-])cc5F)c5ccc([nH]5)c(-c5c(F)cc(S(=O)(=O)[O-])cc5F)c5nc(c(-c6c(F)cc(S(=O)(=O)[O-])cc6F)c6ccc3[nH]6)C=C5)C=C4)cc2)cc1
REMARK SMILES IDX 33 1 32 2 30 3 31 4 29 6 26 7 27 8 106 9 28 10 105 11 25 12
REMARK SMILES IDX 23 13 24 14 12 16 13 17 11 18 9 19 10 20 8 22 3 23 4 24 5 25
REMARK SMILES IDX 7 26 6 27 2 28 1 29 14 30 15 31 19 32 16 33 18 34 17 35
REMARK SMILES IDX 20 36 22 37 21 38 34 39 35 40 36 41 37 42 38 44 39 45 40 46
REMARK SMILES IDX 104 47 41 48 103 49 42 50 43 51 44 52 97 53 45 54 102 55
REMARK SMILES IDX 96 56 98 57 46 58 101 59 95 60 94 61 47 63 81 64 60 65 80 66
REMARK SMILES IDX 61 67 64 68 79 69 99 70 62 71 63 72 78 74 100 75 65 76 48 77
REMARK SMILES IDX 49 78 58 79 50 80 51 81 57 82 59 83 52 84 53 85 54 86 55 87
REMARK SMILES IDX 56 88 82 89 83 90 92 91 84 92 85 93 91 94 93 95 86 96 87 97
REMARK SMILES IDX 88 98 89 99 90 100 66 101 67 102 76 103 68 104 69 105 75 106
REMARK SMILES IDX 77 107 70 108 71 109 72 110 73 111 74 112
REMARK H PARENT 32 5 25 15 11 21 36 43 98 62 64 73
REMARK Flexibility Score: inf
ROOT
ATOM      1  C   UNL     1      -1.043   5.431   1.967  1.00  0.00     0.118 C 
ENDROOT
BRANCH   1   2
ATOM      2  N   UNL     1      -2.362   5.236   2.543  1.00  0.00    -0.352 N 
ATOM      3  C   UNL     1      -3.315   4.270   2.320  1.00  0.00     0.251 C 
ATOM      4  O   UNL     1      -4.417   4.413   2.848  1.00  0.00    -0.269 OA
ATOM      5  H   UNL     1      -2.618   5.913   3.210  1.00  0.00     0.163 HD
BRANCH   3   6
ATOM      6  C   UNL     1      -2.972   2.988   1.635  1.00  0.00     0.039 A 
ATOM      7  C   UNL     1      -1.748   0.505   1.153  1.00  0.00     0.041 A 
ATOM      8  C   UNL     1      -2.924   0.597   1.921  1.00  0.00     0.027 A 
ATOM      9  C   UNL     1      -1.352   1.620   0.430  1.00  0.00     0.027 A 
ATOM     10  C   UNL     1      -3.518   1.834   2.190  1.00  0.00     0.016 A 
ATOM     11  C   UNL     1      -2.009   2.847   0.630  1.00  0.00     0.016 A 
BRANCH   7  12
ATOM     12  N   UNL     1      -1.080  -0.730   1.167  1.00  0.00    -0.321 N 
ATOM     13  C   UNL     1       0.174  -1.222   0.908  1.00  0.00     0.272 C 
ATOM     14  O   UNL     1       0.238  -2.454   0.811  1.00  0.00    -0.267 OA
ATOM     15  H   UNL     1      -1.689  -1.453   1.443  1.00  0.00     0.170 HD
BRANCH  13  16
ATOM     16  C   UNL     1       1.484  -0.445   0.982  1.00  0.00     0.108 C 
ATOM     17  C   UNL     1       1.761   0.391   2.015  1.00  0.00     0.040 C 
BRANCH  16  18
ATOM     18  N   UNL     1       2.612  -0.781   0.234  1.00  0.00    -0.317 N 
ATOM     19  C   UNL     1       2.998  -1.723  -0.689  1.00  0.00     0.259 C 
ATOM     20  O   UNL     1       4.202  -1.754  -0.972  1.00  0.00    -0.269 OA
ATOM     21  H   UNL     1       3.351  -0.159   0.424  1.00  0.00     0.170 HD
BRANCH  19  22
ATOM     22  C   UNL     1       2.134  -2.728  -1.318  1.00  0.00     0.082 A 
ATOM     23  C   UNL     1       0.961  -2.464  -2.027  1.00  0.00     0.131 A 
ATOM     24  C   UNL     1       0.161  -3.557  -2.403  1.00  0.00     0.047 A 
ATOM     25  C   UNL     1       0.565  -4.878  -2.174  1.00  0.00     0.004 A 
ATOM     26  C   UNL     1       2.587  -4.060  -1.180  1.00  0.00     0.018 A 
ATOM     27  C   UNL     1       1.805  -5.132  -1.606  1.00  0.00     0.001 A 
BRANCH  23  28
ATOM     28  O   UNL     1       0.431  -1.258  -2.390  1.00  0.00    -0.496 OA
ATOM     29  C   UNL     1       1.304  -0.148  -2.561  1.00  0.00     0.278 C 
ENDBRANCH  23  28
ENDBRANCH  19  22
ENDBRANCH  16  18
BRANCH  17  30
ATOM     30  C   UNL     1       0.909   0.629   3.176  1.00  0.00    -0.019 A 
ATOM     31  C   UNL     1       0.350   1.904   3.386  1.00  0.00     0.012 A 
ATOM     32  C   UNL     1       0.536  -0.464   3.965  1.00  0.00     0.058 A 
ATOM     33  C   UNL     1      -0.731   2.055   4.257  1.00  0.00     0.051 A 
ATOM     34  C   UNL     1      -0.577  -0.301   4.746  1.00  0.00     0.166 A 
ATOM     35  C   UNL     1      -1.216   0.913   4.859  1.00  0.00     0.165 A 
ATOM     36  O   UNL     1      -1.272  -1.312   5.334  1.00  0.00    -0.454 OA
ATOM     37  O   UNL     1      -2.414   0.789   5.497  1.00  0.00    -0.454 OA
ATOM     38  C   UNL     1      -2.537  -0.649   5.511  1.00  0.00     0.468 C 
ENDBRANCH  17  30
ENDBRANCH  13  16
ENDBRANCH   7  12
ENDBRANCH   3   6
ENDBRANCH   1   2
BRANCH   1  39
ATOM     39  C   UNL     1      -1.155   6.254   0.691  1.00  0.00     0.042 C 
BRANCH  39  40
ATOM     40  C   UNL     1      -1.482   7.709   0.988  1.00  0.00     0.118 C 
BRANCH  40  41
ATOM     41  N   UNL     1      -0.317   8.436   1.468  1.00  0.00    -0.352 N 
ATOM     42  C   UNL     1       0.317   9.525   0.908  1.00  0.00     0.251 C 
ATOM     43  H   UNL     1       0.073   8.105   2.309  1.00  0.00     0.163 HD
ATOM     44  O   UNL     1       1.404   9.879   1.323  1.00  0.00    -0.269 OA
BRANCH  42  45
ATOM     45  C   UNL     1      -0.330  10.228  -0.225  1.00  0.00     0.039 A 
ATOM     46  C   UNL     1       0.439  10.561  -1.341  1.00  0.00     0.014 A 
ATOM     47  C   UNL     1      -1.698  10.512  -0.199  1.00  0.00     0.014 A 
ATOM     48  C   UNL     1      -0.185  11.103  -2.467  1.00  0.00     0.010 A 
ATOM     49  C   UNL     1      -2.329  10.958  -1.353  1.00  0.00     0.010 A 
ATOM     50  C   UNL     1      -1.581  11.257  -2.501  1.00  0.00    -0.014 A 
BRANCH  50  51
ATOM     51  C   UNL     1      -2.285  11.707  -3.729  1.00  0.00     0.031 A 
ATOM     52  C   UNL     1      -3.087  12.979  -3.716  1.00  0.00     0.074 A 
ATOM     53  C   UNL     1      -2.269  10.927  -4.828  1.00  0.00     0.049 A 
ATOM     54  N   UNL     1      -3.830  13.497  -4.659  1.00  0.00    -0.248 NA
ATOM     55  C   UNL     1      -3.072  13.757  -2.467  1.00  0.00     0.031 C 
ATOM     56  C   UNL     1      -1.557   9.653  -4.953  1.00  0.00     0.029 A 
ATOM     57  N   UNL     1      -2.872  11.088  -6.050  1.00  0.00    -0.354 N 
ATOM     58  C   UNL     1      -4.380  14.652  -4.115  1.00  0.00     0.074 A 
ATOM     59  C   UNL     1      -3.936  14.722  -2.740  1.00  0.00     0.031 C 
ATOM     60  C   UNL     1      -1.733   9.169  -6.192  1.00  0.00     0.029 A 
ATOM     61  C   UNL     1      -2.611  10.068  -6.934  1.00  0.00     0.049 A 
ATOM     62  H   UNL     1      -3.439  11.862  -6.273  1.00  0.00     0.167 HD
ATOM     63  C   UNL     1      -5.163  15.582  -4.713  1.00  0.00     0.037 A 
ATOM     64  C   UNL     1      -3.036   9.875  -8.198  1.00  0.00     0.037 A 
ATOM     65  C   UNL     1      -5.598  15.502  -6.084  1.00  0.00     0.049 A 
ATOM     66  C   UNL     1      -3.951  10.891  -8.825  1.00  0.00     0.074 A 
ATOM     67  C   UNL     1      -6.351  16.413  -6.802  1.00  0.00     0.029 A 
ATOM     68  N   UNL     1      -5.332  14.441  -6.939  1.00  0.00    -0.354 N 
ATOM     69  N   UNL     1      -4.406  12.013  -8.321  1.00  0.00    -0.248 NA
ATOM     70  C   UNL     1      -4.412  10.613 -10.192  1.00  0.00     0.031 C 
ATOM     71  C   UNL     1      -6.592  15.876  -8.071  1.00  0.00     0.029 A 
ATOM     72  C   UNL     1      -5.937  14.658  -8.167  1.00  0.00     0.049 A 
ATOM     73  H   UNL     1      -4.792  13.651  -6.708  1.00  0.00     0.167 HD
ATOM     74  C   UNL     1      -5.184  12.591  -9.319  1.00  0.00     0.074 A 
ATOM     75  C   UNL     1      -5.130  11.697 -10.458  1.00  0.00     0.031 C 
ATOM     76  C   UNL     1      -5.875  13.758  -9.294  1.00  0.00     0.037 A 
BRANCH  63  77
ATOM     77  C   UNL     1      -5.608  16.752  -3.875  1.00  0.00     0.058 A 
ATOM     78  C   UNL     1      -4.698  17.710  -3.396  1.00  0.00     0.135 A 
ATOM     79  C   UNL     1      -6.961  16.913  -3.533  1.00  0.00     0.135 A 
ATOM     80  F   UNL     1      -3.390  17.603  -3.682  1.00  0.00    -0.206 F 
ATOM     81  C   UNL     1      -5.102  18.747  -2.562  1.00  0.00     0.059 A 
ATOM     82  C   UNL     1      -7.394  17.965  -2.730  1.00  0.00     0.059 A 
ATOM     83  F   UNL     1      -7.878  16.033  -3.966  1.00  0.00    -0.206 F 
ATOM     84  C   UNL     1      -6.452  18.861  -2.227  1.00  0.00     0.060 A 
BRANCH  84  85
ATOM     85  S   UNL     1      -6.953  20.185  -1.107  1.00  0.00     0.124 S 
ATOM     86  O   UNL     1      -6.418  19.706   0.164  1.00  0.00    -0.237 OA
ATOM     87  O   UNL     1      -6.281  21.348  -1.679  1.00  0.00    -0.237 OA
ATOM     88  O   UNL     1      -8.408  20.189  -1.214  1.00  0.00    -0.744 OA
ENDBRANCH  84  85
ENDBRANCH  63  77
BRANCH  64  89
ATOM     89  C   UNL     1      -2.566   8.690  -8.964  1.00  0.00     0.058 A 
ATOM     90  C   UNL     1      -1.673   8.844 -10.035  1.00  0.00     0.135 A 
ATOM     91  C   UNL     1      -2.964   7.387  -8.627  1.00  0.00     0.135 A 
ATOM     92  F   UNL     1      -1.270  10.070 -10.401  1.00  0.00    -0.206 F 
ATOM     93  C   UNL     1      -1.192   7.750 -10.746  1.00  0.00     0.059 A 
ATOM     94  C   UNL     1      -2.476   6.275  -9.307  1.00  0.00     0.059 A 
ATOM     95  F   UNL     1      -3.806   7.184  -7.602  1.00  0.00    -0.206 F 
ATOM     96  C   UNL     1      -1.593   6.467 -10.369  1.00  0.00     0.060 A 
BRANCH  96  97
ATOM     97  S   UNL     1      -0.902   5.053 -11.254  1.00  0.00     0.124 S 
ATOM     98  O   UNL     1      -1.547   5.177 -12.556  1.00  0.00    -0.237 OA
ATOM     99  O   UNL     1       0.528   5.343 -11.219  1.00  0.00    -0.237 OA
ATOM    100  O   UNL     1      -1.323   3.913 -10.446  1.00  0.00    -0.744 OA
ENDBRANCH  96  97
ENDBRANCH  64  89
BRANCH  76 101
ATOM    101  C   UNL     1      -6.612  14.155 -10.544  1.00  0.00     0.058 A 
ATOM    102  C   UNL     1      -7.778  13.493 -10.958  1.00  0.00     0.135 A 
ATOM    103  C   UNL     1      -6.182  15.258 -11.302  1.00  0.00     0.135 A 
ATOM    104  F   UNL     1      -8.227  12.426 -10.278  1.00  0.00    -0.206 F 
ATOM    105  C   UNL     1      -8.485  13.901 -12.086  1.00  0.00     0.059 A 
ATOM    106  C   UNL     1      -6.890  15.702 -12.414  1.00  0.00     0.059 A 
ATOM    107  F   UNL     1      -5.077  15.932 -10.947  1.00  0.00    -0.206 F 
ATOM    108  C   UNL     1      -8.037  15.012 -12.802  1.00  0.00     0.060 A 
BRANCH 108 109
ATOM    109  S   UNL     1      -8.996  15.563 -14.229  1.00  0.00     0.124 S 
ATOM    110  O   UNL     1      -8.719  14.507 -15.197  1.00  0.00    -0.237 OA
ATOM    111  O   UNL     1     -10.354  15.595 -13.696  1.00  0.00    -0.237 OA
ATOM    112  O   UNL     1      -8.421  16.868 -14.543  1.00  0.00    -0.744 OA
ENDBRANCH 108 109
ENDBRANCH  76 101
ENDBRANCH  50  51
ENDBRANCH  42  45
ENDBRANCH  40  41
ENDBRANCH  39  40
ENDBRANCH   1  39
TORSDOF 19
