REMARK SMILES O=C(NCCCNC(=O)[C@@H]1c2[nH]cnc2CCN1C(=O)CCCc1c[nH]c2ccccc12)c1ccc(-c2c3nc(c(-c4c(F)cc(S(=O)(=O)[O-])cc4F)c4ccc([nH]4)c(-c4c(F)cc(S(=O)(=O)[O-])cc4F)c4nc(c(-c5c(F)cc(S(=O)(=O)[O-])cc5F)c5ccc2[nH]5)C=C4)C=C3)cc1
REMARK SMILES IDX 6 1 5 2 4 3 3 4 1 5 2 6 33 8 34 9 98 10 35 11 97 12 36 13
REMARK SMILES IDX 37 14 38 15 91 16 39 17 96 18 90 19 92 20 40 21 95 22 89 23
REMARK SMILES IDX 88 24 41 26 75 27 54 28 74 29 55 30 58 31 73 32 93 33 56 34
REMARK SMILES IDX 57 35 72 37 94 38 59 39 42 40 43 41 52 42 44 43 45 44 51 45
REMARK SMILES IDX 53 46 46 47 47 48 48 49 49 50 50 51 76 52 77 53 86 54 78 55
REMARK SMILES IDX 79 56 85 57 87 58 80 59 81 60 82 61 83 62 84 63 60 64 61 65
REMARK SMILES IDX 70 66 62 67 63 68 69 69 71 70 64 71 65 72 66 73 67 74 68 75
REMARK SMILES IDX 7 76 8 77 9 79 10 80 11 81 18 82 12 83 15 84 17 85 13 86
REMARK SMILES IDX 14 88 16 89 19 90 20 91 21 92 22 93 23 94 24 95 25 96 32 97
REMARK SMILES IDX 26 98 27 99 31 100 28 102 30 103 29 104
REMARK H PARENT 3 7 92 25 58 36 7 78 12 87 26 101
REMARK Flexibility Score: inf
ROOT
ATOM      1  C   UNL     1       9.335   2.082  -7.263  1.00  0.00     0.117 C 
ENDROOT
BRANCH   1   2
ATOM      2  C   UNL     1       9.955   1.285  -8.391  1.00  0.00     0.042 C 
BRANCH   2   3
ATOM      3  C   UNL     1      10.562   2.095  -9.524  1.00  0.00     0.118 C 
BRANCH   3   4
ATOM      4  N   UNL     1      11.361   3.233  -9.117  1.00  0.00    -0.352 N 
ATOM      5  O   UNL     1      12.999   4.604  -8.604  1.00  0.00    -0.269 OA
ATOM      6  C   UNL     1      12.650   3.424  -8.710  1.00  0.00     0.251 C 
ATOM      7  H   UNL     1      10.849   4.074  -9.138  1.00  0.00     0.163 HD
BRANCH   6   8
ATOM      8  C   UNL     1      13.611   2.356  -8.323  1.00  0.00     0.039 A 
ATOM      9  C   UNL     1      13.377   0.981  -8.363  1.00  0.00     0.014 A 
ATOM     10  C   UNL     1      14.840   2.809  -7.808  1.00  0.00     0.014 A 
ATOM     11  C   UNL     1      14.278   0.089  -7.782  1.00  0.00     0.010 A 
ATOM     12  C   UNL     1      15.761   1.925  -7.266  1.00  0.00     0.010 A 
ATOM     13  C   UNL     1      15.454   0.568  -7.204  1.00  0.00    -0.014 A 
BRANCH  13  14
ATOM     14  C   UNL     1      16.438  -0.387  -6.691  1.00  0.00     0.031 A 
ATOM     15  C   UNL     1      17.072  -1.251  -7.740  1.00  0.00     0.074 A 
ATOM     16  C   UNL     1      16.894  -0.313  -5.421  1.00  0.00     0.049 A 
ATOM     17  N   UNL     1      17.212  -2.538  -7.770  1.00  0.00    -0.248 NA
ATOM     18  C   UNL     1      17.516  -0.586  -8.982  1.00  0.00     0.031 C 
ATOM     19  C   UNL     1      16.551   0.694  -4.409  1.00  0.00     0.029 A 
ATOM     20  N   UNL     1      17.865  -1.037  -4.798  1.00  0.00    -0.354 N 
ATOM     21  C   UNL     1      17.945  -2.821  -8.927  1.00  0.00     0.074 A 
ATOM     22  C   UNL     1      17.959  -1.614  -9.704  1.00  0.00     0.031 C 
ATOM     23  C   UNL     1      17.474   0.670  -3.422  1.00  0.00     0.029 A 
ATOM     24  C   UNL     1      18.396  -0.426  -3.665  1.00  0.00     0.049 A 
ATOM     25  H   UNL     1      18.166  -1.917  -5.121  1.00  0.00     0.167 HD
ATOM     26  C   UNL     1      18.679  -3.962  -9.062  1.00  0.00     0.037 A 
ATOM     27  C   UNL     1      19.559  -0.739  -3.034  1.00  0.00     0.037 A 
ATOM     28  C   UNL     1      18.214  -4.989  -8.169  1.00  0.00     0.049 A 
ATOM     29  C   UNL     1      19.939  -2.108  -3.471  1.00  0.00     0.074 A 
ATOM     30  C   UNL     1      17.019  -5.660  -8.001  1.00  0.00     0.029 A 
ATOM     31  N   UNL     1      18.938  -5.235  -7.028  1.00  0.00    -0.354 N 
ATOM     32  N   UNL     1      19.249  -3.180  -3.192  1.00  0.00    -0.248 NA
ATOM     33  C   UNL     1      20.833  -2.221  -4.613  1.00  0.00     0.031 C 
ATOM     34  C   UNL     1      16.889  -5.831  -6.592  1.00  0.00     0.029 A 
ATOM     35  C   UNL     1      18.039  -5.311  -5.996  1.00  0.00     0.049 A 
ATOM     36  H   UNL     1      19.915  -5.337  -6.963  1.00  0.00     0.167 HD
ATOM     37  C   UNL     1      19.300  -3.948  -4.347  1.00  0.00     0.074 A 
ATOM     38  C   UNL     1      20.348  -3.337  -5.162  1.00  0.00     0.031 C 
ATOM     39  C   UNL     1      18.307  -4.833  -4.659  1.00  0.00     0.037 A 
BRANCH  26  40
ATOM     40  C   UNL     1      20.044  -4.020  -9.723  1.00  0.00     0.058 A 
ATOM     41  C   UNL     1      20.695  -5.266  -9.854  1.00  0.00     0.135 A 
ATOM     42  C   UNL     1      20.861  -2.888  -9.946  1.00  0.00     0.135 A 
ATOM     43  F   UNL     1      20.017  -6.413  -9.686  1.00  0.00    -0.206 F 
ATOM     44  C   UNL     1      22.070  -5.375 -10.068  1.00  0.00     0.059 A 
ATOM     45  C   UNL     1      22.224  -2.976 -10.211  1.00  0.00     0.059 A 
ATOM     46  F   UNL     1      20.408  -1.636  -9.823  1.00  0.00    -0.206 F 
ATOM     47  C   UNL     1      22.830  -4.220 -10.216  1.00  0.00     0.060 A 
BRANCH  47  48
ATOM     48  S   UNL     1      24.623  -4.345 -10.333  1.00  0.00     0.124 S 
ATOM     49  O   UNL     1      24.968  -4.805  -8.993  1.00  0.00    -0.237 OA
ATOM     50  O   UNL     1      24.788  -5.318 -11.407  1.00  0.00    -0.237 OA
ATOM     51  O   UNL     1      25.034  -2.982 -10.660  1.00  0.00    -0.744 OA
ENDBRANCH  47  48
ENDBRANCH  26  40
BRANCH  27  52
ATOM     52  C   UNL     1      20.537   0.208  -2.422  1.00  0.00     0.058 A 
ATOM     53  C   UNL     1      21.567  -0.236  -1.571  1.00  0.00     0.135 A 
ATOM     54  C   UNL     1      20.646   1.540  -2.873  1.00  0.00     0.135 A 
ATOM     55  F   UNL     1      21.566  -1.499  -1.117  1.00  0.00    -0.206 F 
ATOM     56  C   UNL     1      22.651   0.580  -1.216  1.00  0.00     0.059 A 
ATOM     57  C   UNL     1      21.707   2.374  -2.524  1.00  0.00     0.059 A 
ATOM     58  F   UNL     1      19.765   2.049  -3.747  1.00  0.00    -0.206 F 
ATOM     59  C   UNL     1      22.719   1.882  -1.711  1.00  0.00     0.060 A 
BRANCH  59  60
ATOM     60  S   UNL     1      24.184   2.894  -1.385  1.00  0.00     0.124 S 
ATOM     61  O   UNL     1      24.059   3.154   0.045  1.00  0.00    -0.237 OA
ATOM     62  O   UNL     1      25.270   2.004  -1.779  1.00  0.00    -0.237 OA
ATOM     63  O   UNL     1      23.992   4.058  -2.247  1.00  0.00    -0.744 OA
ENDBRANCH  59  60
ENDBRANCH  27  52
BRANCH  39  64
ATOM     64  C   UNL     1      17.273  -5.154  -3.611  1.00  0.00     0.058 A 
ATOM     65  C   UNL     1      16.347  -4.225  -3.103  1.00  0.00     0.135 A 
ATOM     66  C   UNL     1      17.098  -6.495  -3.244  1.00  0.00     0.135 A 
ATOM     67  F   UNL     1      16.376  -2.942  -3.486  1.00  0.00    -0.206 F 
ATOM     68  C   UNL     1      15.316  -4.608  -2.241  1.00  0.00     0.059 A 
ATOM     69  C   UNL     1      16.060  -6.905  -2.411  1.00  0.00     0.059 A 
ATOM     70  F   UNL     1      17.909  -7.441  -3.747  1.00  0.00    -0.206 F 
ATOM     71  C   UNL     1      15.178  -5.953  -1.905  1.00  0.00     0.060 A 
BRANCH  71  72
ATOM     72  S   UNL     1      13.795  -6.466  -0.863  1.00  0.00     0.124 S 
ATOM     73  O   UNL     1      14.174  -5.918   0.439  1.00  0.00    -0.237 OA
ATOM     74  O   UNL     1      12.654  -5.818  -1.511  1.00  0.00    -0.237 OA
ATOM     75  O   UNL     1      13.812  -7.917  -0.957  1.00  0.00    -0.744 OA
ENDBRANCH  71  72
ENDBRANCH  39  64
ENDBRANCH  13  14
ENDBRANCH   6   8
ENDBRANCH   3   4
ENDBRANCH   2   3
ENDBRANCH   1   2
BRANCH   1  76
ATOM     76  N   UNL     1       8.095   2.757  -7.558  1.00  0.00    -0.354 N 
ATOM     77  C   UNL     1       6.915   2.803  -6.875  1.00  0.00     0.249 C 
ATOM     78  H   UNL     1       8.102   3.274  -8.396  1.00  0.00     0.163 HD
ATOM     79  O   UNL     1       6.120   3.683  -7.250  1.00  0.00    -0.272 OA
BRANCH  77  80
ATOM     80  C   UNL     1       6.475   1.825  -5.750  1.00  0.00     0.223 C 
ATOM     81  C   UNL     1       7.470   1.013  -4.979  1.00  0.00     0.071 A 
ATOM     82  N   UNL     1       5.312   0.942  -6.077  1.00  0.00    -0.325 N 
ATOM     83  N   UNL     1       8.600   1.407  -4.306  1.00  0.00    -0.346 N 
ATOM     84  C   UNL     1       7.302  -0.299  -4.583  1.00  0.00     0.066 A 
ATOM     85  C   UNL     1       4.938   0.028  -4.989  1.00  0.00     0.127 C 
ATOM     86  C   UNL     1       9.191   0.265  -3.825  1.00  0.00     0.197 A 
ATOM     87  H   UNL     1       8.924   2.329  -4.191  1.00  0.00     0.167 HD
ATOM     88  N   UNL     1       8.390  -0.772  -3.924  1.00  0.00    -0.242 NA
ATOM     89  C   UNL     1       6.041  -1.038  -4.798  1.00  0.00     0.080 C 
BRANCH  82  90
ATOM     90  C   UNL     1       4.994   0.575  -7.386  1.00  0.00     0.223 C 
ATOM     91  O   UNL     1       5.762   0.701  -8.337  1.00  0.00    -0.275 OA
BRANCH  90  92
ATOM     92  C   UNL     1       3.533   0.165  -7.617  1.00  0.00     0.100 C 
BRANCH  92  93
ATOM     93  C   UNL     1       3.159  -1.299  -7.862  1.00  0.00     0.015 C 
BRANCH  93  94
ATOM     94  C   UNL     1       3.209  -2.338  -6.748  1.00  0.00     0.038 C 
BRANCH  94  95
ATOM     95  C   UNL     1       2.385  -2.302  -5.475  1.00  0.00    -0.023 A 
ATOM     96  C   UNL     1       2.375  -3.418  -4.646  1.00  0.00     0.087 A 
ATOM     97  C   UNL     1       1.641  -1.288  -4.753  1.00  0.00     0.003 A 
ATOM     98  N   UNL     1       1.878  -3.070  -3.427  1.00  0.00    -0.361 N 
ATOM     99  C   UNL     1       1.488  -1.756  -3.439  1.00  0.00     0.046 A 
ATOM    100  C   UNL     1       1.146   0.013  -5.008  1.00  0.00     0.010 A 
ATOM    101  H   UNL     1       1.809  -3.672  -2.652  1.00  0.00     0.166 HD
ATOM    102  C   UNL     1       1.013  -0.972  -2.379  1.00  0.00     0.026 A 
ATOM    103  C   UNL     1       0.612   0.795  -3.969  1.00  0.00     0.001 A 
ATOM    104  C   UNL     1       0.573   0.318  -2.666  1.00  0.00     0.002 A 
ENDBRANCH  94  95
ENDBRANCH  93  94
ENDBRANCH  92  93
ENDBRANCH  90  92
ENDBRANCH  82  90
ENDBRANCH  77  80
ENDBRANCH   1  76
TORSDOF 18
