REMARK SMILES CC(C)CCN(C(=O)N[C@H](C(=O)NCCCNC(=O)c1ccc(-c2c3nc(c(-c4c(F)cc(S(=O)(=O)[O-])cc4F)c4ccc([nH]4)c(-c4c(F)cc(S(=O)(=O)[O-])cc4F)c4nc(c(-c5c(F)cc(S(=O)(=O)[O-])cc5F)c5ccc2[nH]5)C=C4)C=C3)cc1)[C@H](C)O)C1CCCC1
REMARK SMILES IDX 14 1 13 2 11 3 12 4 10 6 9 7 7 8 8 9 6 11 5 12 4 13 2 14
REMARK SMILES IDX 1 15 3 16 89 17 90 18 93 19 91 20 92 21 86 22 87 23 88 24
REMARK SMILES IDX 15 26 16 27 17 28 18 29 19 31 20 32 21 33 85 34 22 35 84 36
REMARK SMILES IDX 23 37 24 38 25 39 78 40 26 41 83 42 77 43 79 44 27 45 82 46
REMARK SMILES IDX 76 47 75 48 28 50 62 51 41 52 61 53 42 54 45 55 60 56 80 57
REMARK SMILES IDX 43 58 44 59 59 61 81 62 46 63 29 64 30 65 39 66 31 67 32 68
REMARK SMILES IDX 38 69 40 70 33 71 34 72 35 73 36 74 37 75 63 76 64 77 73 78
REMARK SMILES IDX 65 79 66 80 72 81 74 82 67 83 68 84 69 85 70 86 71 87 47 88
REMARK SMILES IDX 48 89 57 90 49 91 50 92 56 93 58 94 51 95 52 96 53 97 54 98
REMARK SMILES IDX 55 99
REMARK H PARENT 13 5 9 10 88 25 17 30 79 49 45 60
REMARK Flexibility Score: inf
ROOT
ATOM      1  C   UNL     1      -4.117   1.816   4.691  1.00  0.00     0.117 C 
ENDROOT
BRANCH   1   2
ATOM      2  N   UNL     1      -3.172   2.640   3.959  1.00  0.00    -0.354 N 
ATOM      3  C   UNL     1      -2.984   2.825   2.624  1.00  0.00     0.245 C 
ATOM      4  O   UNL     1      -1.976   3.477   2.315  1.00  0.00    -0.273 OA
ATOM      5  H   UNL     1      -2.558   3.157   4.530  1.00  0.00     0.163 HD
BRANCH   3   6
ATOM      6  C   UNL     1      -3.997   2.382   1.525  1.00  0.00     0.201 C 
BRANCH   6   7
ATOM      7  N   UNL     1      -3.316   2.661   0.230  1.00  0.00    -0.324 N 
ATOM      8  C   UNL     1      -3.706   2.510  -1.059  1.00  0.00     0.318 C 
ATOM      9  O   UNL     1      -2.846   2.301  -1.913  1.00  0.00    -0.249 OA
ATOM     10  H   UNL     1      -2.407   3.025   0.330  1.00  0.00     0.166 HD
BRANCH   8  11
ATOM     11  N   UNL     1      -5.058   2.491  -1.339  1.00  0.00    -0.322 N 
BRANCH  11  12
ATOM     12  C   UNL     1      -5.932   3.544  -0.782  1.00  0.00     0.122 C 
BRANCH  12  13
ATOM     13  C   UNL     1      -6.469   4.615  -1.744  1.00  0.00     0.024 C 
BRANCH  13  14
ATOM     14  C   UNL     1      -7.827   4.315  -2.403  1.00  0.00    -0.016 C 
ATOM     15  C   UNL     1      -8.965   4.176  -1.389  1.00  0.00     0.007 C 
ATOM     16  C   UNL     1      -8.175   5.401  -3.422  1.00  0.00     0.007 C 
ENDBRANCH  13  14
ENDBRANCH  12  13
ENDBRANCH  11  12
BRANCH  11  17
ATOM     17  C   UNL     1      -5.495   1.558  -2.398  1.00  0.00     0.087 C 
ATOM     18  C   UNL     1      -6.871   0.928  -2.189  1.00  0.00     0.025 C 
ATOM     19  C   UNL     1      -5.467   2.096  -3.829  1.00  0.00     0.025 C 
ATOM     20  C   UNL     1      -7.328   0.508  -3.574  1.00  0.00     0.002 C 
ATOM     21  C   UNL     1      -6.641   1.444  -4.558  1.00  0.00     0.002 C 
ENDBRANCH  11  17
ENDBRANCH   8  11
ENDBRANCH   6   7
BRANCH   6  22
ATOM     22  C   UNL     1      -4.514   0.928   1.602  1.00  0.00     0.143 C 
ATOM     23  C   UNL     1      -3.541  -0.139   1.122  1.00  0.00     0.041 C 
BRANCH  22  24
ATOM     24  O   UNL     1      -5.744   0.790   0.885  1.00  0.00    -0.391 OA
ATOM     25  H   UNL     1      -5.587   0.953  -0.058  1.00  0.00     0.211 HD
ENDBRANCH  22  24
ENDBRANCH   6  22
ENDBRANCH   3   6
ENDBRANCH   1   2
BRANCH   1  26
ATOM     26  C   UNL     1      -3.640   0.363   4.728  1.00  0.00     0.042 C 
BRANCH  26  27
ATOM     27  C   UNL     1      -2.770   0.036   5.928  1.00  0.00     0.118 C 
BRANCH  27  28
ATOM     28  N   UNL     1      -3.584  -0.273   7.091  1.00  0.00    -0.352 N 
ATOM     29  C   UNL     1      -3.747  -1.470   7.746  1.00  0.00     0.251 C 
ATOM     30  H   UNL     1      -4.091   0.483   7.463  1.00  0.00     0.163 HD
ATOM     31  O   UNL     1      -4.701  -1.601   8.513  1.00  0.00    -0.269 OA
BRANCH  29  32
ATOM     32  C   UNL     1      -2.800  -2.593   7.542  1.00  0.00     0.039 A 
ATOM     33  C   UNL     1      -3.281  -3.906   7.600  1.00  0.00     0.014 A 
ATOM     34  C   UNL     1      -1.431  -2.370   7.364  1.00  0.00     0.014 A 
ATOM     35  C   UNL     1      -2.399  -4.982   7.458  1.00  0.00     0.010 A 
ATOM     36  C   UNL     1      -0.570  -3.438   7.126  1.00  0.00     0.010 A 
ATOM     37  C   UNL     1      -1.036  -4.757   7.206  1.00  0.00    -0.014 A 
BRANCH  37  38
ATOM     38  C   UNL     1      -0.069  -5.880   7.097  1.00  0.00     0.031 A 
ATOM     39  C   UNL     1       1.055  -5.997   8.096  1.00  0.00     0.074 A 
ATOM     40  C   UNL     1      -0.163  -6.757   6.079  1.00  0.00     0.049 A 
ATOM     41  N   UNL     1       2.053  -6.843   8.127  1.00  0.00    -0.248 NA
ATOM     42  C   UNL     1       1.081  -5.006   9.186  1.00  0.00     0.031 C 
ATOM     43  C   UNL     1      -1.174  -6.721   5.020  1.00  0.00     0.029 A 
ATOM     44  N   UNL     1       0.607  -7.848   5.762  1.00  0.00    -0.354 N 
ATOM     45  C   UNL     1       2.836  -6.468   9.214  1.00  0.00     0.074 A 
ATOM     46  C   UNL     1       2.229  -5.286   9.784  1.00  0.00     0.031 C 
ATOM     47  C   UNL     1      -0.978  -7.756   4.187  1.00  0.00     0.029 A 
ATOM     48  C   UNL     1       0.190  -8.510   4.632  1.00  0.00     0.049 A 
ATOM     49  H   UNL     1       1.386  -8.129   6.295  1.00  0.00     0.167 HD
ATOM     50  C   UNL     1       3.944  -7.068   9.710  1.00  0.00     0.037 A 
ATOM     51  C   UNL     1       0.694  -9.602   4.024  1.00  0.00     0.037 A 
ATOM     52  C   UNL     1       4.510  -8.277   9.172  1.00  0.00     0.049 A 
ATOM     53  C   UNL     1       1.897 -10.280   4.620  1.00  0.00     0.074 A 
ATOM     54  C   UNL     1       5.590  -9.006   9.637  1.00  0.00     0.029 A 
ATOM     55  N   UNL     1       4.029  -8.942   8.053  1.00  0.00    -0.354 N 
ATOM     56  N   UNL     1       2.597  -9.938   5.676  1.00  0.00    -0.248 NA
ATOM     57  C   UNL     1       2.376 -11.496   3.949  1.00  0.00     0.031 C 
ATOM     58  C   UNL     1       5.779 -10.099   8.784  1.00  0.00     0.029 A 
ATOM     59  C   UNL     1       4.794 -10.070   7.809  1.00  0.00     0.049 A 
ATOM     60  H   UNL     1       3.258  -8.655   7.513  1.00  0.00     0.167 HD
ATOM     61  C   UNL     1       3.583 -10.909   5.809  1.00  0.00     0.074 A 
ATOM     62  C   UNL     1       3.381 -11.858   4.734  1.00  0.00     0.031 C 
ATOM     63  C   UNL     1       4.568 -11.006   6.737  1.00  0.00     0.037 A 
BRANCH  50  64
ATOM     64  C   UNL     1       4.606  -6.433  10.903  1.00  0.00     0.058 A 
ATOM     65  C   UNL     1       4.006  -6.449  12.174  1.00  0.00     0.135 A 
ATOM     66  C   UNL     1       5.860  -5.814  10.782  1.00  0.00     0.135 A 
ATOM     67  F   UNL     1       2.800  -7.013  12.344  1.00  0.00    -0.206 F 
ATOM     68  C   UNL     1       4.608  -5.842  13.271  1.00  0.00     0.059 A 
ATOM     69  C   UNL     1       6.494  -5.225  11.873  1.00  0.00     0.059 A 
ATOM     70  F   UNL     1       6.480  -5.769   9.592  1.00  0.00    -0.206 F 
ATOM     71  C   UNL     1       5.851  -5.229  13.110  1.00  0.00     0.060 A 
BRANCH  71  72
ATOM     72  S   UNL     1       6.618  -4.439  14.541  1.00  0.00     0.124 S 
ATOM     73  O   UNL     1       5.827  -3.217  14.656  1.00  0.00    -0.237 OA
ATOM     74  O   UNL     1       6.407  -5.429  15.596  1.00  0.00    -0.237 OA
ATOM     75  O   UNL     1       8.002  -4.255  14.128  1.00  0.00    -0.744 OA
ENDBRANCH  71  72
ENDBRANCH  50  64
BRANCH  51  76
ATOM     76  C   UNL     1       0.035 -10.143   2.806  1.00  0.00     0.058 A 
ATOM     77  C   UNL     1      -0.703 -11.335   2.858  1.00  0.00     0.135 A 
ATOM     78  C   UNL     1       0.108  -9.472   1.576  1.00  0.00     0.135 A 
ATOM     79  F   UNL     1      -0.798 -12.015   4.011  1.00  0.00    -0.206 F 
ATOM     80  C   UNL     1      -1.335 -11.851   1.732  1.00  0.00     0.059 A 
ATOM     81  C   UNL     1      -0.534  -9.957   0.440  1.00  0.00     0.059 A 
ATOM     82  F   UNL     1       0.786  -8.319   1.478  1.00  0.00    -0.206 F 
ATOM     83  C   UNL     1      -1.246 -11.153   0.526  1.00  0.00     0.060 A 
BRANCH  83  84
ATOM     84  S   UNL     1      -2.117 -11.802  -0.918  1.00  0.00     0.124 S 
ATOM     85  O   UNL     1      -1.257 -12.915  -1.303  1.00  0.00    -0.237 OA
ATOM     86  O   UNL     1      -3.416 -12.162  -0.358  1.00  0.00    -0.237 OA
ATOM     87  O   UNL     1      -2.133 -10.667  -1.836  1.00  0.00    -0.744 OA
ENDBRANCH  83  84
ENDBRANCH  51  76
BRANCH  63  88
ATOM     88  C   UNL     1       5.481 -12.194   6.646  1.00  0.00     0.058 A 
ATOM     89  C   UNL     1       6.477 -12.282   5.662  1.00  0.00     0.135 A 
ATOM     90  C   UNL     1       5.389 -13.234   7.586  1.00  0.00     0.135 A 
ATOM     91  F   UNL     1       6.602 -11.316   4.739  1.00  0.00    -0.206 F 
ATOM     92  C   UNL     1       7.337 -13.373   5.598  1.00  0.00     0.059 A 
ATOM     93  C   UNL     1       6.254 -14.322   7.554  1.00  0.00     0.059 A 
ATOM     94  F   UNL     1       4.460 -13.190   8.554  1.00  0.00    -0.206 F 
ATOM     95  C   UNL     1       7.217 -14.389   6.548  1.00  0.00     0.060 A 
BRANCH  95  96
ATOM     96  S   UNL     1       8.358 -15.786   6.474  1.00  0.00     0.124 S 
ATOM     97  O   UNL     1       7.805 -16.556   5.364  1.00  0.00    -0.237 OA
ATOM     98  O   UNL     1       9.638 -15.134   6.217  1.00  0.00    -0.237 OA
ATOM     99  O   UNL     1       8.228 -16.400   7.792  1.00  0.00    -0.744 OA
ENDBRANCH  95  96
ENDBRANCH  63  88
ENDBRANCH  37  38
ENDBRANCH  29  32
ENDBRANCH  27  28
ENDBRANCH  26  27
ENDBRANCH   1  26
TORSDOF 21
