REMARK SMILES O=C(NCCCNC(=O)[C@@H]1CN(c2nc(-c3ccccc3)no2)CC[NH2+]1)c1ccc(-c2c3nc(c(-c4c(F)cc(S(=O)(=O)[O-])cc4F)c4ccc([nH]4)c(-c4c(F)cc(S(=O)(=O)[O-])cc4F)c4nc(c(-c5c(F)cc(S(=O)(=O)[O-])cc5F)c5ccc2[nH]5)C=C4)C=C3)cc1
REMARK SMILES IDX 4 1 3 2 1 3 2 4 27 6 28 7 92 8 29 9 91 10 30 11 31 12 32 13
REMARK SMILES IDX 85 14 33 15 90 16 84 17 86 18 34 19 89 20 83 21 82 22 35 24
REMARK SMILES IDX 69 25 48 26 68 27 49 28 52 29 67 30 87 31 50 32 51 33 66 35
REMARK SMILES IDX 88 36 53 37 36 38 37 39 46 40 38 41 39 42 45 43 47 44 40 45
REMARK SMILES IDX 41 46 42 47 43 48 44 49 70 50 71 51 80 52 72 53 73 54 79 55
REMARK SMILES IDX 81 56 74 57 75 58 76 59 77 60 78 61 54 62 55 63 64 64 56 65
REMARK SMILES IDX 57 66 63 67 65 68 58 69 59 70 60 71 61 72 62 73 5 74 6 75
REMARK SMILES IDX 7 76 8 77 9 79 10 80 11 81 26 82 12 83 25 84 24 87 13 88
REMARK SMILES IDX 14 89 23 90 15 91 22 92 16 93 17 94 21 95 18 96 20 97 19 98
REMARK H PARENT 3 5 86 23 52 34 7 78 26 85 26 86
REMARK Flexibility Score: inf
ROOT
ATOM      1  C   UNL     1       4.346   1.373  -0.651  1.00  0.00     0.118 C 
ENDROOT
BRANCH   1   2
ATOM      2  N   UNL     1       2.947   1.174  -0.278  1.00  0.00    -0.352 N 
ATOM      3  O   UNL     1       1.080   0.012   0.189  1.00  0.00    -0.269 OA
ATOM      4  C   UNL     1       2.305   0.057   0.203  1.00  0.00     0.251 C 
ATOM      5  H   UNL     1       2.372   1.965  -0.390  1.00  0.00     0.163 HD
BRANCH   4   6
ATOM      6  C   UNL     1       3.090  -1.076   0.738  1.00  0.00     0.039 A 
ATOM      7  C   UNL     1       4.239  -0.837   1.489  1.00  0.00     0.014 A 
ATOM      8  C   UNL     1       2.651  -2.389   0.532  1.00  0.00     0.014 A 
ATOM      9  C   UNL     1       5.036  -1.897   1.889  1.00  0.00     0.010 A 
ATOM     10  C   UNL     1       3.395  -3.459   1.042  1.00  0.00     0.010 A 
ATOM     11  C   UNL     1       4.606  -3.221   1.707  1.00  0.00    -0.014 A 
BRANCH  11  12
ATOM     12  C   UNL     1       5.413  -4.305   2.322  1.00  0.00     0.031 A 
ATOM     13  C   UNL     1       6.093  -5.353   1.488  1.00  0.00     0.074 A 
ATOM     14  C   UNL     1       5.588  -4.273   3.660  1.00  0.00     0.049 A 
ATOM     15  N   UNL     1       6.894  -6.312   1.875  1.00  0.00    -0.248 NA
ATOM     16  C   UNL     1       5.839  -5.333   0.039  1.00  0.00     0.031 C 
ATOM     17  C   UNL     1       4.950  -3.312   4.568  1.00  0.00     0.029 A 
ATOM     18  N   UNL     1       6.377  -5.028   4.487  1.00  0.00    -0.354 N 
ATOM     19  C   UNL     1       7.234  -7.015   0.726  1.00  0.00     0.074 A 
ATOM     20  C   UNL     1       6.529  -6.390  -0.373  1.00  0.00     0.031 C 
ATOM     21  C   UNL     1       5.429  -3.486   5.806  1.00  0.00     0.029 A 
ATOM     22  C   UNL     1       6.348  -4.617   5.799  1.00  0.00     0.049 A 
ATOM     23  H   UNL     1       6.913  -5.792   4.172  1.00  0.00     0.167 HD
ATOM     24  C   UNL     1       8.067  -8.077   0.604  1.00  0.00     0.037 A 
ATOM     25  C   UNL     1       6.977  -5.103   6.884  1.00  0.00     0.037 A 
ATOM     26  C   UNL     1       8.773  -8.681   1.708  1.00  0.00     0.049 A 
ATOM     27  C   UNL     1       7.893  -6.278   6.714  1.00  0.00     0.074 A 
ATOM     28  C   UNL     1       9.644  -9.757   1.688  1.00  0.00     0.029 A 
ATOM     29  N   UNL     1       8.694  -8.258   3.027  1.00  0.00    -0.354 N 
ATOM     30  N   UNL     1       8.207  -6.923   5.615  1.00  0.00    -0.248 NA
ATOM     31  C   UNL     1       8.536  -6.798   7.926  1.00  0.00     0.031 C 
ATOM     32  C   UNL     1      10.064 -10.006   3.000  1.00  0.00     0.029 A 
ATOM     33  C   UNL     1       9.490  -9.058   3.831  1.00  0.00     0.049 A 
ATOM     34  H   UNL     1       8.152  -7.500   3.346  1.00  0.00     0.167 HD
ATOM     35  C   UNL     1       9.082  -7.928   6.005  1.00  0.00     0.074 A 
ATOM     36  C   UNL     1       9.279  -7.778   7.433  1.00  0.00     0.031 C 
ATOM     37  C   UNL     1       9.662  -8.896   5.253  1.00  0.00     0.037 A 
BRANCH  24  38
ATOM     38  C   UNL     1       8.265  -8.666  -0.767  1.00  0.00     0.058 A 
ATOM     39  C   UNL     1       9.034  -8.014  -1.744  1.00  0.00     0.135 A 
ATOM     40  C   UNL     1       7.743  -9.931  -1.083  1.00  0.00     0.135 A 
ATOM     41  F   UNL     1       9.542  -6.795  -1.501  1.00  0.00    -0.206 F 
ATOM     42  C   UNL     1       9.272  -8.591  -2.987  1.00  0.00     0.059 A 
ATOM     43  C   UNL     1       7.988 -10.538  -2.313  1.00  0.00     0.059 A 
ATOM     44  F   UNL     1       6.998 -10.598  -0.188  1.00  0.00    -0.206 F 
ATOM     45  C   UNL     1       8.749  -9.856  -3.261  1.00  0.00     0.060 A 
BRANCH  45  46
ATOM     46  S   UNL     1       9.097 -10.604  -4.868  1.00  0.00     0.124 S 
ATOM     47  O   UNL     1       8.261  -9.798  -5.752  1.00  0.00    -0.237 OA
ATOM     48  O   UNL     1      10.536 -10.402  -5.001  1.00  0.00    -0.237 OA
ATOM     49  O   UNL     1       8.674 -11.991  -4.697  1.00  0.00    -0.744 OA
ENDBRANCH  45  46
ENDBRANCH  24  38
BRANCH  25  50
ATOM     50  C   UNL     1       6.732  -4.499   8.220  1.00  0.00     0.058 A 
ATOM     51  C   UNL     1       7.739  -3.807   8.906  1.00  0.00     0.135 A 
ATOM     52  C   UNL     1       5.472  -4.598   8.833  1.00  0.00     0.135 A 
ATOM     53  F   UNL     1       8.960  -3.685   8.362  1.00  0.00    -0.206 F 
ATOM     54  C   UNL     1       7.516  -3.257  10.165  1.00  0.00     0.059 A 
ATOM     55  C   UNL     1       5.216  -4.030  10.075  1.00  0.00     0.059 A 
ATOM     56  F   UNL     1       4.467  -5.231   8.208  1.00  0.00    -0.206 F 
ATOM     57  C   UNL     1       6.250  -3.377  10.741  1.00  0.00     0.060 A 
BRANCH  57  58
ATOM     58  S   UNL     1       5.956  -2.641  12.364  1.00  0.00     0.124 S 
ATOM     59  O   UNL     1       6.594  -3.613  13.244  1.00  0.00    -0.237 OA
ATOM     60  O   UNL     1       6.625  -1.350  12.245  1.00  0.00    -0.237 OA
ATOM     61  O   UNL     1       4.499  -2.578  12.441  1.00  0.00    -0.744 OA
ENDBRANCH  57  58
ENDBRANCH  25  50
BRANCH  37  62
ATOM     62  C   UNL     1      10.565  -9.856   5.973  1.00  0.00     0.058 A 
ATOM     63  C   UNL     1      10.051 -10.836   6.837  1.00  0.00     0.135 A 
ATOM     64  C   UNL     1      11.956  -9.794   5.800  1.00  0.00     0.135 A 
ATOM     65  F   UNL     1       8.727 -10.929   7.043  1.00  0.00    -0.206 F 
ATOM     66  C   UNL     1      10.889 -11.697   7.537  1.00  0.00     0.059 A 
ATOM     67  C   UNL     1      12.811 -10.663   6.468  1.00  0.00     0.059 A 
ATOM     68  F   UNL     1      12.495  -8.881   4.977  1.00  0.00    -0.206 F 
ATOM     69  C   UNL     1      12.269 -11.598   7.350  1.00  0.00     0.060 A 
BRANCH  69  70
ATOM     70  S   UNL     1      13.348 -12.717   8.265  1.00  0.00     0.124 S 
ATOM     71  O   UNL     1      13.326 -12.122   9.597  1.00  0.00    -0.237 OA
ATOM     72  O   UNL     1      12.661 -13.998   8.131  1.00  0.00    -0.237 OA
ATOM     73  O   UNL     1      14.620 -12.619   7.554  1.00  0.00    -0.744 OA
ENDBRANCH  69  70
ENDBRANCH  37  62
ENDBRANCH  11  12
ENDBRANCH   4   6
ENDBRANCH   1   2
BRANCH   1  74
ATOM     74  C   UNL     1       4.521   1.477  -2.163  1.00  0.00     0.042 C 
BRANCH  74  75
ATOM     75  C   UNL     1       3.901   2.753  -2.717  1.00  0.00     0.118 C 
BRANCH  75  76
ATOM     76  N   UNL     1       4.731   3.913  -2.432  1.00  0.00    -0.351 N 
ATOM     77  C   UNL     1       5.763   4.524  -3.071  1.00  0.00     0.280 C 
ATOM     78  H   UNL     1       4.490   4.355  -1.586  1.00  0.00     0.163 HD
ATOM     79  O   UNL     1       6.327   5.414  -2.416  1.00  0.00    -0.268 OA
BRANCH  77  80
ATOM     80  C   UNL     1       6.166   4.316  -4.544  1.00  0.00     0.292 C 
ATOM     81  C   UNL     1       5.578   5.521  -5.326  1.00  0.00     0.197 C 
ATOM     82  N   UNL     1       5.810   2.981  -5.109  1.00  0.00    -0.333 N 
ATOM     83  N   UNL     1       5.650   5.349  -6.779  1.00  0.00    -0.312 N 
ATOM     84  C   UNL     1       6.160   2.964  -6.546  1.00  0.00     0.283 C 
ATOM     85  H   UNL     1       4.809   2.818  -4.998  1.00  0.00     0.347 HD
ATOM     86  H   UNL     1       6.322   2.249  -4.618  1.00  0.00     0.347 HD
ATOM     87  C   UNL     1       5.355   4.028  -7.323  1.00  0.00     0.183 C 
BRANCH  83  88
ATOM     88  C   UNL     1       6.323   6.227  -7.547  1.00  0.00     0.324 A 
ATOM     89  N   UNL     1       7.406   6.916  -7.290  1.00  0.00    -0.171 NA
ATOM     90  O   UNL     1       5.847   6.436  -8.814  1.00  0.00    -0.315 OA
ATOM     91  C   UNL     1       7.642   7.551  -8.487  1.00  0.00     0.204 A 
ATOM     92  N   UNL     1       6.708   7.340  -9.426  1.00  0.00    -0.055 NA
BRANCH  91  93
ATOM     93  C   UNL     1       8.859   8.289  -8.761  1.00  0.00     0.023 A 
ATOM     94  C   UNL     1       8.806   9.626  -9.169  1.00  0.00     0.012 A 
ATOM     95  C   UNL     1      10.095   7.633  -8.694  1.00  0.00     0.012 A 
ATOM     96  C   UNL     1       9.979  10.300  -9.513  1.00  0.00     0.001 A 
ATOM     97  C   UNL     1      11.265   8.304  -9.054  1.00  0.00     0.001 A 
ATOM     98  C   UNL     1      11.206   9.636  -9.464  1.00  0.00     0.000 A 
ENDBRANCH  91  93
ENDBRANCH  83  88
ENDBRANCH  77  80
ENDBRANCH  75  76
ENDBRANCH  74  75
ENDBRANCH   1  74
TORSDOF 15
