REMARK SMILES CC1(C)[C@@]2(C(=O)NCCCNC(=O)c3ccc(-c4c5nc(c(-c6c(F)cc(S(=O)(=O)[O-])cc6F)c6ccc([nH]6)c(-c6c(F)cc(S(=O)(=O)[O-])cc6F)c6nc(c(-c7c(F)cc(S(=O)(=O)[O-])cc7F)c7ccc4[nH]7)C=C6)C=C5)cc3)CC[C@]1(C)/C(=N/NC(=O)c1ccc(Cl)cc1)C2
REMARK SMILES IDX 9 1 8 2 7 3 5 4 6 5 4 7 1 8 2 9 3 10 82 11 80 12 96 13 81 14
REMARK SMILES IDX 83 15 84 16 85 17 86 18 87 19 88 21 89 22 90 23 95 24 91 25
REMARK SMILES IDX 94 26 92 27 93 28 10 29 11 30 12 31 13 33 14 34 15 35 79 36
REMARK SMILES IDX 16 37 78 38 17 39 18 40 19 41 72 42 20 43 77 44 71 45 73 46
REMARK SMILES IDX 21 47 76 48 70 49 69 50 22 52 56 53 35 54 55 55 36 56 39 57
REMARK SMILES IDX 54 58 74 59 37 60 38 61 53 63 75 64 40 65 23 66 24 67 33 68
REMARK SMILES IDX 25 69 26 70 32 71 34 72 27 73 28 74 29 75 30 76 31 77 57 78
REMARK SMILES IDX 58 79 67 80 59 81 60 82 66 83 68 84 61 85 62 86 63 87 64 88
REMARK SMILES IDX 65 89 41 90 42 91 51 92 43 93 44 94 50 95 52 96 45 97 46 98
REMARK SMILES IDX 47 99 48 100 49 101
REMARK H PARENT 7 6 86 20 11 32 73 51 39 62
REMARK Flexibility Score: inf
ROOT
ATOM      1  C   UNL     1       5.407   2.162  -4.048  1.00  0.00     0.042 C 
ENDROOT
BRANCH   1   2
ATOM      2  C   UNL     1       4.720   1.311  -2.963  1.00  0.00     0.117 C 
BRANCH   2   3
ATOM      3  N   UNL     1       4.020   2.007  -1.894  1.00  0.00    -0.356 N 
ATOM      4  C   UNL     1       2.950   1.613  -1.136  1.00  0.00     0.227 C 
ATOM      5  O   UNL     1       2.989   1.936   0.054  1.00  0.00    -0.274 OA
ATOM      6  H   UNL     1       4.370   2.903  -1.683  1.00  0.00     0.163 HD
BRANCH   4   7
ATOM      7  C   UNL     1       1.701   0.950  -1.730  1.00  0.00     0.060 C 
ATOM      8  C   UNL     1       1.080  -0.643   0.244  1.00  0.00     0.013 C 
ATOM      9  C   UNL     1       0.598   0.494  -0.695  1.00  0.00    -0.010 C 
ATOM     10  C   UNL     1      -0.058   1.573   0.191  1.00  0.00     0.013 C 
ATOM     11  C   UNL     1      -0.363   0.022  -1.831  1.00  0.00     0.014 C 
ATOM     12  C   UNL     1       1.896  -0.341  -2.582  1.00  0.00     0.019 C 
ATOM     13  C   UNL     1       0.944   1.962  -2.623  1.00  0.00     0.071 C 
ATOM     14  C   UNL     1       0.498  -0.997  -2.602  1.00  0.00     0.014 C 
ATOM     15  C   UNL     1      -1.736  -0.486  -1.438  1.00  0.00     0.018 C 
ATOM     16  C   UNL     1      -0.369   1.262  -2.765  1.00  0.00     0.046 C 
ATOM     17  N   UNL     1      -1.362   1.436  -3.570  1.00  0.00    -0.181 NA
BRANCH  17  18
ATOM     18  N   UNL     1      -1.608   2.330  -4.558  1.00  0.00    -0.243 N 
ATOM     19  C   UNL     1      -1.119   3.500  -5.090  1.00  0.00     0.271 C 
ATOM     20  H   UNL     1      -2.403   2.047  -5.064  1.00  0.00     0.194 HD
ATOM     21  O   UNL     1      -1.728   4.023  -6.026  1.00  0.00    -0.267 OA
BRANCH  19  22
ATOM     22  C   UNL     1       0.055   4.213  -4.607  1.00  0.00     0.041 A 
ATOM     23  C   UNL     1      -0.117   5.381  -3.857  1.00  0.00     0.015 A 
ATOM     24  C   UNL     1       1.328   3.824  -5.018  1.00  0.00     0.015 A 
ATOM     25  C   UNL     1       1.000   6.049  -3.352  1.00  0.00     0.021 A 
ATOM     26  C   UNL     1       2.440   4.473  -4.480  1.00  0.00     0.021 A 
ATOM     27  C   UNL     1       2.274   5.554  -3.616  1.00  0.00     0.041 A 
ATOM     28  Cl  UNL     1       3.644   6.255  -2.849  1.00  0.00    -0.084 Cl
ENDBRANCH  19  22
ENDBRANCH  17  18
ENDBRANCH   4   7
ENDBRANCH   2   3
ENDBRANCH   1   2
BRANCH   1  29
ATOM     29  C   UNL     1       6.064   3.491  -3.641  1.00  0.00     0.118 C 
BRANCH  29  30
ATOM     30  N   UNL     1       7.486   3.501  -3.948  1.00  0.00    -0.352 N 
ATOM     31  C   UNL     1       8.221   4.191  -4.882  1.00  0.00     0.251 C 
ATOM     32  H   UNL     1       8.022   2.901  -3.381  1.00  0.00     0.163 HD
ATOM     33  O   UNL     1       9.371   3.806  -5.098  1.00  0.00    -0.269 OA
BRANCH  31  34
ATOM     34  C   UNL     1       7.713   5.372  -5.632  1.00  0.00     0.039 A 
ATOM     35  C   UNL     1       8.111   5.515  -6.970  1.00  0.00     0.014 A 
ATOM     36  C   UNL     1       7.016   6.420  -5.023  1.00  0.00     0.014 A 
ATOM     37  C   UNL     1       7.811   6.680  -7.691  1.00  0.00     0.010 A 
ATOM     38  C   UNL     1       6.694   7.580  -5.755  1.00  0.00     0.010 A 
ATOM     39  C   UNL     1       7.096   7.729  -7.094  1.00  0.00    -0.014 A 
BRANCH  39  40
ATOM     40  C   UNL     1       6.763   8.962  -7.872  1.00  0.00     0.031 A 
ATOM     41  C   UNL     1       7.433  10.281  -7.579  1.00  0.00     0.074 A 
ATOM     42  C   UNL     1       5.833   8.907  -8.846  1.00  0.00     0.049 A 
ATOM     43  N   UNL     1       7.231  11.453  -8.131  1.00  0.00    -0.248 NA
ATOM     44  C   UNL     1       8.458  10.286  -6.526  1.00  0.00     0.031 C 
ATOM     45  C   UNL     1       5.098   7.705  -9.238  1.00  0.00     0.029 A 
ATOM     46  N   UNL     1       5.334   9.886  -9.672  1.00  0.00    -0.354 N 
ATOM     47  C   UNL     1       8.088  12.339  -7.485  1.00  0.00     0.074 A 
ATOM     48  C   UNL     1       8.799  11.568  -6.484  1.00  0.00     0.031 C 
ATOM     49  C   UNL     1       4.239   8.017 -10.222  1.00  0.00     0.029 A 
ATOM     50  C   UNL     1       4.335   9.447 -10.509  1.00  0.00     0.049 A 
ATOM     51  H   UNL     1       5.662  10.815  -9.666  1.00  0.00     0.167 HD
ATOM     52  C   UNL     1       8.272  13.665  -7.707  1.00  0.00     0.037 A 
ATOM     53  C   UNL     1       3.562  10.113 -11.391  1.00  0.00     0.037 A 
ATOM     54  C   UNL     1       7.583  14.433  -8.715  1.00  0.00     0.049 A 
ATOM     55  C   UNL     1       3.757  11.590 -11.597  1.00  0.00     0.074 A 
ATOM     56  C   UNL     1       7.771  15.761  -9.064  1.00  0.00     0.029 A 
ATOM     57  N   UNL     1       6.563  13.954  -9.523  1.00  0.00    -0.354 N 
ATOM     58  N   UNL     1       4.620  12.393 -11.024  1.00  0.00    -0.248 NA
ATOM     59  C   UNL     1       2.872  12.252 -12.566  1.00  0.00     0.031 C 
ATOM     60  C   UNL     1       6.832  16.098 -10.046  1.00  0.00     0.029 A 
ATOM     61  C   UNL     1       6.085  14.970 -10.339  1.00  0.00     0.049 A 
ATOM     62  H   UNL     1       6.227  13.029  -9.519  1.00  0.00     0.167 HD
ATOM     63  C   UNL     1       4.384  13.653 -11.563  1.00  0.00     0.074 A 
ATOM     64  C   UNL     1       3.312  13.503 -12.525  1.00  0.00     0.031 C 
ATOM     65  C   UNL     1       5.002  14.827 -11.282  1.00  0.00     0.037 A 
BRANCH  52  66
ATOM     66  C   UNL     1       9.255  14.391  -6.827  1.00  0.00     0.058 A 
ATOM     67  C   UNL     1      10.641  14.217  -6.965  1.00  0.00     0.135 A 
ATOM     68  C   UNL     1       8.804  15.307  -5.862  1.00  0.00     0.135 A 
ATOM     69  F   UNL     1      11.127  13.353  -7.870  1.00  0.00    -0.206 F 
ATOM     70  C   UNL     1      11.544  14.898  -6.153  1.00  0.00     0.059 A 
ATOM     71  C   UNL     1       9.690  16.016  -5.054  1.00  0.00     0.059 A 
ATOM     72  F   UNL     1       7.489  15.521  -5.696  1.00  0.00    -0.206 F 
ATOM     73  C   UNL     1      11.059  15.789  -5.195  1.00  0.00     0.060 A 
BRANCH  73  74
ATOM     74  S   UNL     1      12.237  16.652  -4.132  1.00  0.00     0.124 S 
ATOM     75  O   UNL     1      12.633  15.585  -3.215  1.00  0.00    -0.237 OA
ATOM     76  O   UNL     1      13.264  17.076  -5.084  1.00  0.00    -0.237 OA
ATOM     77  O   UNL     1      11.450  17.724  -3.547  1.00  0.00    -0.744 OA
ENDBRANCH  73  74
ENDBRANCH  52  66
BRANCH  53  78
ATOM     78  C   UNL     1       2.510   9.376 -12.139  1.00  0.00     0.058 A 
ATOM     79  C   UNL     1       2.660   9.086 -13.502  1.00  0.00     0.135 A 
ATOM     80  C   UNL     1       1.354   8.911 -11.492  1.00  0.00     0.135 A 
ATOM     81  F   UNL     1       3.741   9.522 -14.166  1.00  0.00    -0.206 F 
ATOM     82  C   UNL     1       1.703   8.356 -14.199  1.00  0.00     0.059 A 
ATOM     83  C   UNL     1       0.394   8.160 -12.161  1.00  0.00     0.059 A 
ATOM     84  F   UNL     1       1.171   9.158 -10.185  1.00  0.00    -0.206 F 
ATOM     85  C   UNL     1       0.577   7.889 -13.517  1.00  0.00     0.060 A 
BRANCH  85  86
ATOM     86  S   UNL     1      -0.614   6.867 -14.410  1.00  0.00     0.124 S 
ATOM     87  O   UNL     1      -1.304   7.861 -15.224  1.00  0.00    -0.237 OA
ATOM     88  O   UNL     1       0.256   5.943 -15.133  1.00  0.00    -0.237 OA
ATOM     89  O   UNL     1      -1.405   6.263 -13.343  1.00  0.00    -0.744 OA
ENDBRANCH  85  86
ENDBRANCH  53  78
BRANCH  65  90
ATOM     90  C   UNL     1       4.530  16.055 -12.011  1.00  0.00     0.058 A 
ATOM     91  C   UNL     1       3.319  16.682 -11.676  1.00  0.00     0.135 A 
ATOM     92  C   UNL     1       5.316  16.645 -13.014  1.00  0.00     0.135 A 
ATOM     93  F   UNL     1       2.525  16.154 -10.732  1.00  0.00    -0.206 F 
ATOM     94  C   UNL     1       2.899  17.844 -12.316  1.00  0.00     0.059 A 
ATOM     95  C   UNL     1       4.926  17.819 -13.653  1.00  0.00     0.059 A 
ATOM     96  F   UNL     1       6.486  16.090 -13.370  1.00  0.00    -0.206 F 
ATOM     97  C   UNL     1       3.711  18.408 -13.302  1.00  0.00     0.060 A 
BRANCH  97  98
ATOM     98  S   UNL     1       3.177  19.942 -14.093  1.00  0.00     0.124 S 
ATOM     99  O   UNL     1       2.124  19.464 -14.982  1.00  0.00    -0.237 OA
ATOM    100  O   UNL     1       2.733  20.743 -12.956  1.00  0.00    -0.237 OA
ATOM    101  O   UNL     1       4.387  20.422 -14.754  1.00  0.00    -0.744 OA
ENDBRANCH  97  98
ENDBRANCH  65  90
ENDBRANCH  39  40
ENDBRANCH  31  34
ENDBRANCH  29  30
ENDBRANCH   1  29
TORSDOF 15
