REMARK SMILES CCc1c(C(=O)NCCCNC(=O)c2ccc(-c3c4nc(c(-c5c(F)cc(S(=O)(=O)[O-])cc5F)c5ccc([nH]5)c(-c5c(F)cc(S(=O)(=O)[O-])cc5F)c5nc(c(-c6c(F)cc(S(=O)(=O)[O-])cc6F)c6ccc3[nH]6)C=C5)C=C4)cc2)nnn1-c1ccc(OC)cc1
REMARK SMILES IDX 9 1 8 2 7 3 5 4 6 5 4 7 3 8 82 9 80 10 81 11 2 12 1 13 83 14
REMARK SMILES IDX 84 15 90 16 85 17 89 18 86 19 87 20 88 21 10 22 11 23 12 24
REMARK SMILES IDX 13 26 14 27 15 28 79 29 16 30 78 31 17 32 18 33 19 34 72 35
REMARK SMILES IDX 20 36 77 37 71 38 73 39 21 40 76 41 70 42 69 43 22 45 56 46
REMARK SMILES IDX 35 47 55 48 36 49 39 50 54 51 74 52 37 53 38 54 53 56 75 57
REMARK SMILES IDX 40 58 23 59 24 60 33 61 25 62 26 63 32 64 34 65 27 66 28 67
REMARK SMILES IDX 29 68 30 69 31 70 57 71 58 72 67 73 59 74 60 75 66 76 68 77
REMARK SMILES IDX 61 78 62 79 63 80 64 81 65 82 41 83 42 84 51 85 43 86 44 87
REMARK SMILES IDX 50 88 52 89 45 90 46 91 47 92 48 93 49 94
REMARK H PARENT 7 6 11 25 73 44 39 55
REMARK Flexibility Score: inf
ROOT
ATOM      1  C   UNL     1      -1.393   1.035  -0.062  1.00  0.00     0.042 C 
ENDROOT
BRANCH   1   2
ATOM      2  C   UNL     1      -0.101   1.830   0.157  1.00  0.00     0.118 C 
BRANCH   2   3
ATOM      3  N   UNL     1      -0.015   2.478   1.445  1.00  0.00    -0.351 N 
ATOM      4  C   UNL     1       0.545   2.202   2.663  1.00  0.00     0.273 C 
ATOM      5  O   UNL     1       0.556   3.178   3.422  1.00  0.00    -0.267 OA
ATOM      6  H   UNL     1      -0.481   3.345   1.448  1.00  0.00     0.163 HD
BRANCH   4   7
ATOM      7  C   UNL     1       1.071   0.912   3.136  1.00  0.00     0.174 A 
ATOM      8  C   UNL     1       1.342  -0.354   2.608  1.00  0.00     0.077 A 
ATOM      9  N   UNL     1       1.758  -1.096   3.713  1.00  0.00    -0.217 N 
ATOM     10  N   UNL     1       1.321   0.848   4.501  1.00  0.00    -0.124 NA
ATOM     11  N   UNL     1       1.630  -0.386   4.841  1.00  0.00    -0.061 NA
BRANCH   8  12
ATOM     12  C   UNL     1       1.089  -1.023   1.302  1.00  0.00     0.055 C 
ATOM     13  C   UNL     1       2.140  -0.780   0.232  1.00  0.00     0.011 C 
ENDBRANCH   8  12
BRANCH   9  14
ATOM     14  C   UNL     1       2.137  -2.454   3.763  1.00  0.00     0.067 A 
ATOM     15  C   UNL     1       1.566  -3.294   4.720  1.00  0.00     0.032 A 
ATOM     16  C   UNL     1       3.028  -2.966   2.817  1.00  0.00     0.032 A 
ATOM     17  C   UNL     1       1.816  -4.667   4.654  1.00  0.00     0.048 A 
ATOM     18  C   UNL     1       3.281  -4.335   2.765  1.00  0.00     0.048 A 
ATOM     19  C   UNL     1       2.656  -5.195   3.667  1.00  0.00     0.119 A 
BRANCH  19  20
ATOM     20  O   UNL     1       2.790  -6.556   3.687  1.00  0.00    -0.497 OA
ATOM     21  C   UNL     1       3.549  -7.131   2.630  1.00  0.00     0.278 C 
ENDBRANCH  19  20
ENDBRANCH   9  14
ENDBRANCH   4   7
ENDBRANCH   2   3
ENDBRANCH   1   2
BRANCH   1  22
ATOM     22  C   UNL     1      -2.108   1.425  -1.343  1.00  0.00     0.118 C 
BRANCH  22  23
ATOM     23  N   UNL     1      -1.306   1.153  -2.546  1.00  0.00    -0.352 N 
ATOM     24  C   UNL     1      -1.450   1.704  -3.812  1.00  0.00     0.251 C 
ATOM     25  H   UNL     1      -0.576   0.501  -2.440  1.00  0.00     0.163 HD
ATOM     26  O   UNL     1      -0.932   1.202  -4.791  1.00  0.00    -0.269 OA
BRANCH  24  27
ATOM     27  C   UNL     1      -2.266   2.926  -3.912  1.00  0.00     0.039 A 
ATOM     28  C   UNL     1      -3.395   2.991  -4.734  1.00  0.00     0.014 A 
ATOM     29  C   UNL     1      -1.997   3.903  -2.967  1.00  0.00     0.014 A 
ATOM     30  C   UNL     1      -4.336   3.996  -4.500  1.00  0.00     0.010 A 
ATOM     31  C   UNL     1      -3.021   4.736  -2.606  1.00  0.00     0.010 A 
ATOM     32  C   UNL     1      -4.165   4.845  -3.400  1.00  0.00    -0.014 A 
BRANCH  32  33
ATOM     33  C   UNL     1      -5.178   5.823  -2.994  1.00  0.00     0.031 A 
ATOM     34  C   UNL     1      -6.560   5.318  -2.704  1.00  0.00     0.074 A 
ATOM     35  C   UNL     1      -4.804   7.059  -2.589  1.00  0.00     0.049 A 
ATOM     36  N   UNL     1      -7.685   5.683  -3.231  1.00  0.00    -0.248 NA
ATOM     37  C   UNL     1      -6.704   4.224  -1.728  1.00  0.00     0.031 C 
ATOM     38  C   UNL     1      -3.440   7.609  -2.475  1.00  0.00     0.029 A 
ATOM     39  N   UNL     1      -5.561   8.044  -2.043  1.00  0.00    -0.354 N 
ATOM     40  C   UNL     1      -8.695   5.002  -2.540  1.00  0.00     0.074 A 
ATOM     41  C   UNL     1      -8.023   4.021  -1.729  1.00  0.00     0.031 C 
ATOM     42  C   UNL     1      -3.450   8.681  -1.659  1.00  0.00     0.029 A 
ATOM     43  C   UNL     1      -4.830   9.030  -1.398  1.00  0.00     0.049 A 
ATOM     44  H   UNL     1      -6.544   8.057  -2.100  1.00  0.00     0.167 HD
ATOM     45  C   UNL     1      -9.998   5.414  -2.552  1.00  0.00     0.037 A 
ATOM     46  C   UNL     1      -5.314  10.075  -0.694  1.00  0.00     0.037 A 
ATOM     47  C   UNL     1     -10.219   6.402  -3.575  1.00  0.00     0.049 A 
ATOM     48  C   UNL     1      -6.717  10.268  -1.126  1.00  0.00     0.074 A 
ATOM     49  C   UNL     1     -10.194   6.412  -4.953  1.00  0.00     0.029 A 
ATOM     50  N   UNL     1     -10.192   7.717  -3.182  1.00  0.00    -0.354 N 
ATOM     51  N   UNL     1      -7.068  10.601  -2.340  1.00  0.00    -0.248 NA
ATOM     52  C   UNL     1      -7.776   9.700  -0.308  1.00  0.00     0.031 C 
ATOM     53  C   UNL     1      -9.705   7.704  -5.307  1.00  0.00     0.029 A 
ATOM     54  C   UNL     1      -9.496   8.424  -4.128  1.00  0.00     0.049 A 
ATOM     55  H   UNL     1     -10.599   8.086  -2.365  1.00  0.00     0.167 HD
ATOM     56  C   UNL     1      -8.258   9.928  -2.568  1.00  0.00     0.074 A 
ATOM     57  C   UNL     1      -8.708   9.506  -1.245  1.00  0.00     0.031 C 
ATOM     58  C   UNL     1      -8.623   9.542  -3.826  1.00  0.00     0.037 A 
BRANCH  45  59
ATOM     59  C   UNL     1     -11.026   5.180  -1.459  1.00  0.00     0.058 A 
ATOM     60  C   UNL     1     -12.382   5.514  -1.687  1.00  0.00     0.135 A 
ATOM     61  C   UNL     1     -10.697   4.902  -0.115  1.00  0.00     0.135 A 
ATOM     62  F   UNL     1     -12.818   5.800  -2.925  1.00  0.00    -0.206 F 
ATOM     63  C   UNL     1     -13.315   5.637  -0.653  1.00  0.00     0.059 A 
ATOM     64  C   UNL     1     -11.624   4.966   0.924  1.00  0.00     0.059 A 
ATOM     65  F   UNL     1      -9.440   4.652   0.271  1.00  0.00    -0.206 F 
ATOM     66  C   UNL     1     -12.919   5.381   0.654  1.00  0.00     0.060 A 
BRANCH  66  67
ATOM     67  S   UNL     1     -14.079   5.663   2.006  1.00  0.00     0.124 S 
ATOM     68  O   UNL     1     -14.147   7.119   2.031  1.00  0.00    -0.237 OA
ATOM     69  O   UNL     1     -15.276   4.974   1.535  1.00  0.00    -0.237 OA
ATOM     70  O   UNL     1     -13.417   5.042   3.150  1.00  0.00    -0.744 OA
ENDBRANCH  66  67
ENDBRANCH  45  59
BRANCH  46  71
ATOM     71  C   UNL     1      -4.721  10.709   0.503  1.00  0.00     0.058 A 
ATOM     72  C   UNL     1      -5.080  12.008   0.889  1.00  0.00     0.135 A 
ATOM     73  C   UNL     1      -3.987   9.950   1.440  1.00  0.00     0.135 A 
ATOM     74  F   UNL     1      -5.788  12.785   0.057  1.00  0.00    -0.206 F 
ATOM     75  C   UNL     1      -4.775  12.513   2.155  1.00  0.00     0.059 A 
ATOM     76  C   UNL     1      -3.666  10.435   2.707  1.00  0.00     0.059 A 
ATOM     77  F   UNL     1      -3.640   8.680   1.177  1.00  0.00    -0.206 F 
ATOM     78  C   UNL     1      -4.089  11.709   3.067  1.00  0.00     0.060 A 
BRANCH  78  79
ATOM     79  S   UNL     1      -3.871  12.294   4.763  1.00  0.00     0.124 S 
ATOM     80  O   UNL     1      -2.901  13.369   4.588  1.00  0.00    -0.237 OA
ATOM     81  O   UNL     1      -5.225  12.708   5.119  1.00  0.00    -0.237 OA
ATOM     82  O   UNL     1      -3.378  11.114   5.468  1.00  0.00    -0.744 OA
ENDBRANCH  78  79
ENDBRANCH  46  71
BRANCH  58  83
ATOM     83  C   UNL     1      -7.886  10.143  -4.999  1.00  0.00     0.058 A 
ATOM     84  C   UNL     1      -6.553   9.844  -5.330  1.00  0.00     0.135 A 
ATOM     85  C   UNL     1      -8.619  10.895  -5.929  1.00  0.00     0.135 A 
ATOM     86  F   UNL     1      -5.812   9.053  -4.547  1.00  0.00    -0.206 F 
ATOM     87  C   UNL     1      -5.970  10.282  -6.519  1.00  0.00     0.059 A 
ATOM     88  C   UNL     1      -8.067  11.318  -7.136  1.00  0.00     0.059 A 
ATOM     89  F   UNL     1      -9.915  11.163  -5.701  1.00  0.00    -0.206 F 
ATOM     90  C   UNL     1      -6.739  11.010  -7.424  1.00  0.00     0.060 A 
BRANCH  90  91
ATOM     91  S   UNL     1      -6.024  11.456  -9.022  1.00  0.00     0.124 S 
ATOM     92  O   UNL     1      -5.120  12.543  -8.662  1.00  0.00    -0.237 OA
ATOM     93  O   UNL     1      -5.384  10.214  -9.445  1.00  0.00    -0.237 OA
ATOM     94  O   UNL     1      -7.186  11.847  -9.817  1.00  0.00    -0.744 OA
ENDBRANCH  90  91
ENDBRANCH  58  83
ENDBRANCH  32  33
ENDBRANCH  24  27
ENDBRANCH  22  23
ENDBRANCH   1  22
TORSDOF 16
