REMARK SMILES O=C(CNC(=O)CN1C(=O)S/C(=C\c2cccc(F)c2)C1=O)NCCCNC(=O)c1ccc(-c2c3nc(c(-c4c(F)cc(S(=O)(=O)[O-])cc4F)c4ccc([nH]4)c(-c4c(F)cc(S(=O)(=O)[O-])cc4F)c4nc(c(-c5c(F)cc(S(=O)(=O)[O-])cc5F)c5ccc2[nH]5)C=C4)C=C3)cc1
REMARK SMILES IDX 24 1 23 2 1 3 2 4 3 6 4 7 5 8 6 10 7 11 8 12 9 13 21 14
REMARK SMILES IDX 10 15 11 16 12 17 22 18 13 19 14 20 15 21 20 22 16 23 18 24
REMARK SMILES IDX 17 25 19 26 25 27 26 28 27 29 28 30 29 32 30 33 31 34 95 35
REMARK SMILES IDX 32 36 94 37 33 38 34 39 35 40 88 41 36 42 93 43 87 44 89 45
REMARK SMILES IDX 37 46 92 47 86 48 85 49 38 51 72 52 51 53 71 54 52 55 55 56
REMARK SMILES IDX 70 57 90 58 53 59 54 60 69 62 91 63 56 64 39 65 40 66 49 67
REMARK SMILES IDX 41 68 42 69 48 70 50 71 43 72 44 73 45 74 46 75 47 76 73 77
REMARK SMILES IDX 74 78 83 79 75 80 76 81 82 82 84 83 77 84 78 85 79 86 80 87
REMARK SMILES IDX 81 88 57 89 58 90 67 91 59 92 60 93 66 94 68 95 61 96 62 97
REMARK SMILES IDX 63 98 64 99 65 100
REMARK H PARENT 23 5 4 9 27 31 89 50 55 61
REMARK Flexibility Score: inf
ROOT
ATOM      1  C   UNL     1       1.847   1.881   1.811  1.00  0.00     0.117 C 
ENDROOT
BRANCH   1   2
ATOM      2  N   UNL     1       2.553   1.184   0.743  1.00  0.00    -0.355 N 
ATOM      3  O   UNL     1       0.925  -0.368   0.258  1.00  0.00    -0.273 OA
ATOM      4  C   UNL     1       2.016   0.139   0.016  1.00  0.00     0.239 C 
ATOM      5  H   UNL     1       3.468   1.475   0.526  1.00  0.00     0.163 HD
BRANCH   4   6
ATOM      6  C   UNL     1       2.956  -0.445  -1.053  1.00  0.00     0.216 C 
BRANCH   6   7
ATOM      7  N   UNL     1       3.966   0.515  -1.480  1.00  0.00    -0.345 N 
ATOM      8  C   UNL     1       5.317   0.433  -1.570  1.00  0.00     0.240 C 
ATOM      9  H   UNL     1       3.599   1.386  -1.756  1.00  0.00     0.164 HD
ATOM     10  O   UNL     1       5.872   1.345  -2.194  1.00  0.00    -0.273 OA
BRANCH   8  11
ATOM     11  C   UNL     1       6.122  -0.794  -1.129  1.00  0.00     0.229 C 
BRANCH  11  12
ATOM     12  N   UNL     1       5.799  -1.381   0.159  1.00  0.00    -0.259 N 
ATOM     13  C   UNL     1       5.504  -2.714   0.280  1.00  0.00     0.294 C 
ATOM     14  C   UNL     1       5.991  -0.689   1.327  1.00  0.00     0.268 C 
ATOM     15  O   UNL     1       5.431  -3.526  -0.621  1.00  0.00    -0.261 OA
ATOM     16  S   UNL     1       5.243  -3.130   1.963  1.00  0.00    -0.022 SA
ATOM     17  C   UNL     1       5.674  -1.564   2.496  1.00  0.00     0.083 C 
ATOM     18  O   UNL     1       6.313   0.488   1.408  1.00  0.00    -0.268 OA
ATOM     19  C   UNL     1       5.675  -1.087   3.743  1.00  0.00     0.029 C 
BRANCH  19  20
ATOM     20  C   UNL     1       5.238  -1.733   4.994  1.00  0.00    -0.021 A 
ATOM     21  C   UNL     1       5.956  -2.798   5.540  1.00  0.00     0.008 A 
ATOM     22  C   UNL     1       4.160  -1.214   5.734  1.00  0.00     0.047 A 
ATOM     23  C   UNL     1       5.589  -3.337   6.781  1.00  0.00     0.004 A 
ATOM     24  C   UNL     1       3.810  -1.748   6.965  1.00  0.00     0.123 A 
ATOM     25  C   UNL     1       4.507  -2.817   7.491  1.00  0.00     0.039 A 
ATOM     26  F   UNL     1       2.808  -1.184   7.655  1.00  0.00    -0.207 F 
ENDBRANCH  19  20
ENDBRANCH  11  12
ENDBRANCH   8  11
ENDBRANCH   6   7
ENDBRANCH   4   6
ENDBRANCH   1   2
BRANCH   1  27
ATOM     27  C   UNL     1       2.275   1.442   3.220  1.00  0.00     0.042 C 
BRANCH  27  28
ATOM     28  C   UNL     1       3.768   1.653   3.544  1.00  0.00     0.118 C 
BRANCH  28  29
ATOM     29  N   UNL     1       4.121   2.801   4.366  1.00  0.00    -0.352 N 
ATOM     30  C   UNL     1       4.976   3.017   5.440  1.00  0.00     0.251 C 
ATOM     31  H   UNL     1       3.641   3.618   4.098  1.00  0.00     0.163 HD
ATOM     32  O   UNL     1       5.245   4.196   5.686  1.00  0.00    -0.269 OA
BRANCH  30  33
ATOM     33  C   UNL     1       5.526   1.996   6.394  1.00  0.00     0.039 A 
ATOM     34  C   UNL     1       5.173   2.107   7.742  1.00  0.00     0.014 A 
ATOM     35  C   UNL     1       6.572   1.117   6.127  1.00  0.00     0.014 A 
ATOM     36  C   UNL     1       5.747   1.275   8.743  1.00  0.00     0.010 A 
ATOM     37  C   UNL     1       7.033   0.181   7.112  1.00  0.00     0.010 A 
ATOM     38  C   UNL     1       6.605   0.193   8.454  1.00  0.00    -0.014 A 
BRANCH  38  39
ATOM     39  C   UNL     1       6.958  -0.865   9.533  1.00  0.00     0.031 A 
ATOM     40  C   UNL     1       8.324  -1.571   9.669  1.00  0.00     0.074 A 
ATOM     41  C   UNL     1       6.013  -1.308  10.414  1.00  0.00     0.049 A 
ATOM     42  N   UNL     1       8.716  -2.462  10.566  1.00  0.00    -0.248 NA
ATOM     43  C   UNL     1       9.362  -1.290   8.671  1.00  0.00     0.031 C 
ATOM     44  C   UNL     1       4.599  -0.925  10.419  1.00  0.00     0.029 A 
ATOM     45  N   UNL     1       6.086  -2.199  11.478  1.00  0.00    -0.354 N 
ATOM     46  C   UNL     1      10.020  -2.836  10.231  1.00  0.00     0.074 A 
ATOM     47  C   UNL     1      10.313  -2.160   8.986  1.00  0.00     0.031 C 
ATOM     48  C   UNL     1       3.964  -1.512  11.443  1.00  0.00     0.029 A 
ATOM     49  C   UNL     1       4.900  -2.357  12.173  1.00  0.00     0.049 A 
ATOM     50  H   UNL     1       6.912  -2.677  11.718  1.00  0.00     0.167 HD
ATOM     51  C   UNL     1      10.931  -3.602  10.897  1.00  0.00     0.037 A 
ATOM     52  C   UNL     1       4.558  -3.070  13.270  1.00  0.00     0.037 A 
ATOM     53  C   UNL     1      10.716  -4.262  12.166  1.00  0.00     0.049 A 
ATOM     54  C   UNL     1       5.577  -3.886  14.019  1.00  0.00     0.074 A 
ATOM     55  C   UNL     1      11.641  -4.943  12.947  1.00  0.00     0.029 A 
ATOM     56  N   UNL     1       9.511  -4.336  12.840  1.00  0.00    -0.354 N 
ATOM     57  N   UNL     1       6.842  -4.079  13.744  1.00  0.00    -0.248 NA
ATOM     58  C   UNL     1       5.123  -4.564  15.246  1.00  0.00     0.031 C 
ATOM     59  C   UNL     1      10.984  -5.472  14.064  1.00  0.00     0.029 A 
ATOM     60  C   UNL     1       9.663  -5.072  14.011  1.00  0.00     0.049 A 
ATOM     61  H   UNL     1       8.668  -3.928  12.536  1.00  0.00     0.167 HD
ATOM     62  C   UNL     1       7.341  -4.862  14.783  1.00  0.00     0.074 A 
ATOM     63  C   UNL     1       6.248  -5.098  15.699  1.00  0.00     0.031 C 
ATOM     64  C   UNL     1       8.601  -5.332  14.950  1.00  0.00     0.037 A 
BRANCH  51  65
ATOM     65  C   UNL     1      12.325  -3.717  10.310  1.00  0.00     0.058 A 
ATOM     66  C   UNL     1      12.847  -4.953   9.888  1.00  0.00     0.135 A 
ATOM     67  C   UNL     1      13.186  -2.607  10.270  1.00  0.00     0.135 A 
ATOM     68  F   UNL     1      12.086  -6.059   9.924  1.00  0.00    -0.206 F 
ATOM     69  C   UNL     1      14.163  -5.080   9.444  1.00  0.00     0.059 A 
ATOM     70  C   UNL     1      14.492  -2.703   9.797  1.00  0.00     0.059 A 
ATOM     71  F   UNL     1      12.749  -1.401  10.667  1.00  0.00    -0.206 F 
ATOM     72  C   UNL     1      14.976  -3.946   9.396  1.00  0.00     0.060 A 
BRANCH  72  73
ATOM     73  S   UNL     1      16.661  -4.109   8.766  1.00  0.00     0.124 S 
ATOM     74  O   UNL     1      17.303  -4.892   9.816  1.00  0.00    -0.237 OA
ATOM     75  O   UNL     1      16.446  -4.799   7.497  1.00  0.00    -0.237 OA
ATOM     76  O   UNL     1      17.113  -2.726   8.647  1.00  0.00    -0.744 OA
ENDBRANCH  72  73
ENDBRANCH  51  65
BRANCH  52  77
ATOM     77  C   UNL     1       3.164  -2.982  13.803  1.00  0.00     0.058 A 
ATOM     78  C   UNL     1       2.083  -3.591  13.149  1.00  0.00     0.135 A 
ATOM     79  C   UNL     1       2.895  -2.274  14.986  1.00  0.00     0.135 A 
ATOM     80  F   UNL     1       2.282  -4.276  12.012  1.00  0.00    -0.206 F 
ATOM     81  C   UNL     1       0.782  -3.481  13.634  1.00  0.00     0.059 A 
ATOM     82  C   UNL     1       1.608  -2.175  15.507  1.00  0.00     0.059 A 
ATOM     83  F   UNL     1       3.900  -1.695  15.661  1.00  0.00    -0.206 F 
ATOM     84  C   UNL     1       0.555  -2.767  14.813  1.00  0.00     0.060 A 
BRANCH  84  85
ATOM     85  S   UNL     1      -1.142  -2.618  15.417  1.00  0.00     0.124 S 
ATOM     86  O   UNL     1      -1.749  -1.791  14.378  1.00  0.00    -0.237 OA
ATOM     87  O   UNL     1      -1.575  -4.010  15.456  1.00  0.00    -0.237 OA
ATOM     88  O   UNL     1      -0.984  -1.974  16.717  1.00  0.00    -0.744 OA
ENDBRANCH  84  85
ENDBRANCH  52  77
BRANCH  64  89
ATOM     89  C   UNL     1       8.905  -6.134  16.192  1.00  0.00     0.058 A 
ATOM     90  C   UNL     1       9.773  -5.630  17.176  1.00  0.00     0.135 A 
ATOM     91  C   UNL     1       8.365  -7.415  16.402  1.00  0.00     0.135 A 
ATOM     92  F   UNL     1      10.327  -4.416  17.033  1.00  0.00    -0.206 F 
ATOM     93  C   UNL     1      10.092  -6.362  18.317  1.00  0.00     0.059 A 
ATOM     94  C   UNL     1       8.646  -8.152  17.552  1.00  0.00     0.059 A 
ATOM     95  F   UNL     1       7.525  -7.948  15.501  1.00  0.00    -0.206 F 
ATOM     96  C   UNL     1       9.519  -7.620  18.500  1.00  0.00     0.060 A 
BRANCH  96  97
ATOM     97  S   UNL     1       9.899  -8.530  20.015  1.00  0.00     0.124 S 
ATOM     98  O   UNL     1      11.291  -8.907  19.798  1.00  0.00    -0.237 OA
ATOM     99  O   UNL     1       9.666  -7.524  21.047  1.00  0.00    -0.237 OA
ATOM    100  O   UNL     1       8.941  -9.632  19.998  1.00  0.00    -0.744 OA
ENDBRANCH  96  97
ENDBRANCH  64  89
ENDBRANCH  38  39
ENDBRANCH  30  33
ENDBRANCH  28  29
ENDBRANCH  27  28
ENDBRANCH   1  27
TORSDOF 17
