REMARK SMILES C[C@@H](C(=O)NCCCNC(=O)c1ccc(-c2c3nc(c(-c4c(F)cc(S(=O)(=O)[O-])cc4F)c4ccc([nH]4)c(-c4c(F)cc(S(=O)(=O)[O-])cc4F)c4nc(c(-c5c(F)cc(S(=O)(=O)[O-])cc5F)c5ccc2[nH]5)C=C4)C=C3)cc1)[C@H](C)[N@@H+]1C[C@H]2C[NH2+]C[C@@H]2[C@@H]1C
REMARK SMILES IDX 7 1 6 2 5 3 3 4 4 5 2 7 1 8 78 9 79 10 80 11 81 12 87 13
REMARK SMILES IDX 82 15 86 16 88 17 83 18 85 19 84 20 8 23 9 24 10 25 11 27
REMARK SMILES IDX 12 28 13 29 77 30 14 31 76 32 15 33 16 34 17 35 70 36 18 37
REMARK SMILES IDX 75 38 69 39 71 40 19 41 74 42 68 43 67 44 20 46 54 47 33 48
REMARK SMILES IDX 53 49 34 50 37 51 52 52 72 53 35 54 36 55 51 57 73 58 38 59
REMARK SMILES IDX 21 60 22 61 31 62 23 63 24 64 30 65 32 66 25 67 26 68 27 69
REMARK SMILES IDX 28 70 29 71 55 72 56 73 65 74 57 75 58 76 64 77 66 78 59 79
REMARK SMILES IDX 60 80 61 81 62 82 63 83 39 84 40 85 49 86 41 87 42 88 48 89
REMARK SMILES IDX 50 90 43 91 44 92 45 93 46 94 47 95
REMARK H PARENT 5 6 80 14 84 21 84 22 9 26 71 45 37 56
REMARK Flexibility Score: inf
ROOT
ATOM      1  C   UNL     1      -1.468   4.638   3.133  1.00  0.00     0.042 C 
ENDROOT
BRANCH   1   2
ATOM      2  C   UNL     1      -1.993   3.200   3.075  1.00  0.00     0.117 C 
BRANCH   2   3
ATOM      3  N   UNL     1      -2.750   2.947   1.872  1.00  0.00    -0.356 N 
ATOM      4  C   UNL     1      -2.461   2.489   0.638  1.00  0.00     0.228 C 
ATOM      5  O   UNL     1      -3.390   2.671  -0.145  1.00  0.00    -0.275 OA
ATOM      6  H   UNL     1      -3.705   3.161   1.979  1.00  0.00     0.163 HD
BRANCH   4   7
ATOM      7  C   UNL     1      -1.175   1.751   0.265  1.00  0.00     0.133 C 
ATOM      8  C   UNL     1       0.098   2.561   0.510  1.00  0.00     0.024 C 
BRANCH   7   9
ATOM      9  C   UNL     1      -1.224   1.025  -1.147  1.00  0.00     0.193 C 
ATOM     10  C   UNL     1       0.124   0.309  -1.414  1.00  0.00     0.076 C 
BRANCH   9  11
ATOM     11  N   UNL     1      -1.543   1.671  -2.429  1.00  0.00    -0.329 N 
ATOM     12  C   UNL     1      -0.884   2.935  -2.818  1.00  0.00     0.272 C 
ATOM     13  C   UNL     1      -2.948   1.718  -2.927  1.00  0.00     0.190 C 
ATOM     14  H   UNL     1      -1.066   0.902  -2.900  1.00  0.00     0.348 HD
ATOM     15  C   UNL     1      -2.007   3.908  -2.621  1.00  0.00     0.114 C 
ATOM     16  C   UNL     1      -3.165   3.188  -3.278  1.00  0.00     0.116 C 
ATOM     17  C   UNL     1      -4.110   0.948  -2.306  1.00  0.00     0.076 C 
ATOM     18  C   UNL     1      -2.172   5.269  -3.235  1.00  0.00     0.270 C 
ATOM     19  C   UNL     1      -4.285   4.129  -2.919  1.00  0.00     0.271 C 
ATOM     20  N   UNL     1      -3.644   5.476  -3.082  1.00  0.00    -0.345 N 
ATOM     21  H   UNL     1      -4.017   5.939  -3.910  1.00  0.00     0.346 HD
ATOM     22  H   UNL     1      -3.837   6.062  -2.270  1.00  0.00     0.346 HD
ENDBRANCH   9  11
ENDBRANCH   7   9
ENDBRANCH   4   7
ENDBRANCH   2   3
ENDBRANCH   1   2
BRANCH   1  23
ATOM     23  C   UNL     1      -2.415   5.712   2.591  1.00  0.00     0.118 C 
BRANCH  23  24
ATOM     24  N   UNL     1      -3.687   5.776   3.294  1.00  0.00    -0.352 N 
ATOM     25  C   UNL     1      -4.179   6.698   4.180  1.00  0.00     0.251 C 
ATOM     26  H   UNL     1      -4.298   5.028   3.102  1.00  0.00     0.163 HD
ATOM     27  O   UNL     1      -5.231   6.452   4.773  1.00  0.00    -0.269 OA
BRANCH  25  28
ATOM     28  C   UNL     1      -3.457   7.957   4.460  1.00  0.00     0.039 A 
ATOM     29  C   UNL     1      -3.361   8.383   5.787  1.00  0.00     0.014 A 
ATOM     30  C   UNL     1      -2.913   8.741   3.438  1.00  0.00     0.014 A 
ATOM     31  C   UNL     1      -2.661   9.551   6.095  1.00  0.00     0.010 A 
ATOM     32  C   UNL     1      -2.150   9.867   3.753  1.00  0.00     0.010 A 
ATOM     33  C   UNL     1      -2.013  10.283   5.085  1.00  0.00    -0.014 A 
BRANCH  33  34
ATOM     34  C   UNL     1      -1.173  11.460   5.430  1.00  0.00     0.031 A 
ATOM     35  C   UNL     1      -1.546  12.841   4.965  1.00  0.00     0.074 A 
ATOM     36  C   UNL     1      -0.046  11.272   6.147  1.00  0.00     0.049 A 
ATOM     37  N   UNL     1      -0.933  13.977   5.184  1.00  0.00    -0.248 NA
ATOM     38  C   UNL     1      -2.750  12.963   4.130  1.00  0.00     0.031 C 
ATOM     39  C   UNL     1       0.459   9.974   6.602  1.00  0.00     0.029 A 
ATOM     40  N   UNL     1       0.878  12.169   6.621  1.00  0.00    -0.354 N 
ATOM     41  C   UNL     1      -1.675  14.946   4.518  1.00  0.00     0.074 A 
ATOM     42  C   UNL     1      -2.751  14.256   3.838  1.00  0.00     0.031 C 
ATOM     43  C   UNL     1       1.583  10.162   7.310  1.00  0.00     0.029 A 
ATOM     44  C   UNL     1       1.898  11.586   7.336  1.00  0.00     0.049 A 
ATOM     45  H   UNL     1       0.817  13.139   6.463  1.00  0.00     0.167 HD
ATOM     46  C   UNL     1      -1.492  16.289   4.495  1.00  0.00     0.037 A 
ATOM     47  C   UNL     1       2.967  12.134   7.945  1.00  0.00     0.037 A 
ATOM     48  C   UNL     1      -0.426  16.973   5.182  1.00  0.00     0.049 A 
ATOM     49  C   UNL     1       3.139  13.628   7.919  1.00  0.00     0.074 A 
ATOM     50  C   UNL     1      -0.182  18.334   5.257  1.00  0.00     0.029 A 
ATOM     51  N   UNL     1       0.576  16.350   5.912  1.00  0.00    -0.354 N 
ATOM     52  N   UNL     1       2.389  14.533   7.337  1.00  0.00    -0.248 NA
ATOM     53  C   UNL     1       4.294  14.175   8.642  1.00  0.00     0.031 C 
ATOM     54  C   UNL     1       0.988  18.531   6.000  1.00  0.00     0.029 A 
ATOM     55  C   UNL     1       1.448  17.297   6.427  1.00  0.00     0.049 A 
ATOM     56  H   UNL     1       0.656  15.378   6.045  1.00  0.00     0.167 HD
ATOM     57  C   UNL     1       2.974  15.759   7.635  1.00  0.00     0.074 A 
ATOM     58  C   UNL     1       4.124  15.479   8.470  1.00  0.00     0.031 C 
ATOM     59  C   UNL     1       2.597  17.003   7.247  1.00  0.00     0.037 A 
BRANCH  46  60
ATOM     60  C   UNL     1      -2.479  17.113   3.712  1.00  0.00     0.058 A 
ATOM     61  C   UNL     1      -3.801  17.287   4.152  1.00  0.00     0.135 A 
ATOM     62  C   UNL     1      -2.092  17.773   2.534  1.00  0.00     0.135 A 
ATOM     63  F   UNL     1      -4.230  16.669   5.265  1.00  0.00    -0.206 F 
ATOM     64  C   UNL     1      -4.711  18.062   3.441  1.00  0.00     0.059 A 
ATOM     65  C   UNL     1      -2.978  18.576   1.820  1.00  0.00     0.059 A 
ATOM     66  F   UNL     1      -0.840  17.643   2.067  1.00  0.00    -0.206 F 
ATOM     67  C   UNL     1      -4.289  18.704   2.275  1.00  0.00     0.060 A 
BRANCH  67  68
ATOM     68  S   UNL     1      -5.479  19.717   1.371  1.00  0.00     0.124 S 
ATOM     69  O   UNL     1      -6.334  18.697   0.771  1.00  0.00    -0.237 OA
ATOM     70  O   UNL     1      -6.089  20.508   2.436  1.00  0.00    -0.237 OA
ATOM     71  O   UNL     1      -4.647  20.467   0.436  1.00  0.00    -0.744 OA
ENDBRANCH  67  68
ENDBRANCH  46  60
BRANCH  47  72
ATOM     72  C   UNL     1       3.946  11.263   8.648  1.00  0.00     0.058 A 
ATOM     73  C   UNL     1       4.037  11.257  10.048  1.00  0.00     0.135 A 
ATOM     74  C   UNL     1       4.799  10.408   7.933  1.00  0.00     0.135 A 
ATOM     75  F   UNL     1       3.247  12.060  10.775  1.00  0.00    -0.206 F 
ATOM     76  C   UNL     1       4.951  10.447  10.714  1.00  0.00     0.059 A 
ATOM     77  C   UNL     1       5.702   9.570   8.578  1.00  0.00     0.059 A 
ATOM     78  F   UNL     1       4.737  10.363   6.593  1.00  0.00    -0.206 F 
ATOM     79  C   UNL     1       5.779   9.605   9.970  1.00  0.00     0.060 A 
BRANCH  79  80
ATOM     80  S   UNL     1       6.926   8.516  10.842  1.00  0.00     0.124 S 
ATOM     81  O   UNL     1       7.960   9.457  11.261  1.00  0.00    -0.237 OA
ATOM     82  O   UNL     1       6.085   7.977  11.909  1.00  0.00    -0.237 OA
ATOM     83  O   UNL     1       7.320   7.556   9.820  1.00  0.00    -0.744 OA
ENDBRANCH  79  80
ENDBRANCH  47  72
BRANCH  59  84
ATOM     84  C   UNL     1       3.435  18.153   7.735  1.00  0.00     0.058 A 
ATOM     85  C   UNL     1       4.725  18.386   7.234  1.00  0.00     0.135 A 
ATOM     86  C   UNL     1       2.938  19.038   8.705  1.00  0.00     0.135 A 
ATOM     87  F   UNL     1       5.250  17.567   6.310  1.00  0.00    -0.206 F 
ATOM     88  C   UNL     1       5.510  19.434   7.707  1.00  0.00     0.059 A 
ATOM     89  C   UNL     1       3.694  20.109   9.172  1.00  0.00     0.059 A 
ATOM     90  F   UNL     1       1.705  18.868   9.209  1.00  0.00    -0.206 F 
ATOM     91  C   UNL     1       4.987  20.287   8.680  1.00  0.00     0.060 A 
BRANCH  91  92
ATOM     92  S   UNL     1       6.014  21.642   9.287  1.00  0.00     0.124 S 
ATOM     93  O   UNL     1       6.944  20.935  10.162  1.00  0.00    -0.237 OA
ATOM     94  O   UNL     1       6.585  22.179   8.056  1.00  0.00    -0.237 OA
ATOM     95  O   UNL     1       5.059  22.516   9.961  1.00  0.00    -0.744 OA
ENDBRANCH  91  92
ENDBRANCH  59  84
ENDBRANCH  33  34
ENDBRANCH  25  28
ENDBRANCH  23  24
ENDBRANCH   1  23
TORSDOF 15
