REMARK SMILES CCCCCCNC(=O)Oc1cccc(-c2ccc([C@@H](C)C(=O)NCCCNC(=O)c3ccc(-c4c5nc(c(-c6c(F)cc(S(=O)(=O)[O-])cc6F)c6ccc([nH]6)c(-c6c(F)cc(S(=O)(=O)[O-])cc6F)c6nc(c(-c7c(F)cc(S(=O)(=O)[O-])cc7F)c7ccc4[nH]7)C=C6)C=C5)cc3)cc2F)c1
REMARK SMILES IDX 20 1 21 2 19 3 16 4 17 5 98 6 18 7 97 8 99 9 15 10 11 11
REMARK SMILES IDX 12 12 100 13 13 14 14 15 10 16 8 17 7 18 9 20 6 21 5 22 4 23
REMARK SMILES IDX 3 24 2 25 1 26 22 27 23 28 24 29 25 31 26 32 27 33 28 34
REMARK SMILES IDX 29 35 30 37 31 38 32 39 96 40 33 41 95 42 34 43 35 44 36 45
REMARK SMILES IDX 89 46 37 47 94 48 88 49 90 50 38 51 93 52 87 53 86 54 39 56
REMARK SMILES IDX 73 57 52 58 72 59 53 60 56 61 71 62 91 63 54 64 55 65 70 67
REMARK SMILES IDX 92 68 57 69 40 70 41 71 50 72 42 73 43 74 49 75 51 76 44 77
REMARK SMILES IDX 45 78 46 79 47 80 48 81 74 82 75 83 84 84 76 85 77 86 83 87
REMARK SMILES IDX 85 88 78 89 79 90 80 91 81 92 82 93 58 94 59 95 68 96 60 97
REMARK SMILES IDX 61 98 67 99 69 100 62 101 63 102 64 103 65 104 66 105
REMARK H PARENT 7 19 24 30 28 36 90 55 56 66
REMARK Flexibility Score: inf
ROOT
ATOM      1  C   UNL     1      -4.585   1.514 -13.536  1.00  0.00     0.105 C 
ATOM      2  C   UNL     1      -5.716   1.668 -14.550  1.00  0.00     0.023 C 
ENDROOT
BRANCH   1   3
ATOM      3  C   UNL     1      -4.907   1.952 -12.117  1.00  0.00    -0.033 A 
ATOM      4  C   UNL     1      -5.239   2.824  -9.411  1.00  0.00     0.018 A 
ATOM      5  C   UNL     1      -5.649   3.613 -10.497  1.00  0.00     0.012 A 
ATOM      6  C   UNL     1      -4.717   1.559  -9.719  1.00  0.00     0.131 A 
ATOM      7  C   UNL     1      -5.524   3.169 -11.819  1.00  0.00     0.005 A 
ATOM      8  C   UNL     1      -4.532   1.137 -11.039  1.00  0.00     0.044 A 
ATOM      9  F   UNL     1      -4.366   0.708  -8.742  1.00  0.00    -0.206 F 
BRANCH   4  10
ATOM     10  C   UNL     1      -5.322   3.345  -8.030  1.00  0.00    -0.012 A 
ATOM     11  C   UNL     1      -4.364   3.649  -5.815  1.00  0.00     0.133 A 
ATOM     12  C   UNL     1      -5.429   4.453  -5.424  1.00  0.00     0.047 A 
ATOM     13  C   UNL     1      -4.307   3.090  -7.093  1.00  0.00     0.056 A 
ATOM     14  C   UNL     1      -6.447   4.714  -6.333  1.00  0.00     0.004 A 
ATOM     15  C   UNL     1      -6.396   4.160  -7.617  1.00  0.00     0.009 A 
BRANCH  11  16
ATOM     16  O   UNL     1      -3.412   3.334  -4.835  1.00  0.00    -0.410 OA
BRANCH  16  17
ATOM     17  C   UNL     1      -2.074   3.550  -5.127  1.00  0.00     0.412 C 
ATOM     18  N   UNL     1      -1.241   3.155  -4.115  1.00  0.00    -0.321 N 
ATOM     19  H   UNL     1      -0.279   3.313  -4.248  1.00  0.00     0.167 HD
ATOM     20  O   UNL     1      -1.626   4.034  -6.158  1.00  0.00    -0.224 OA
BRANCH  18  21
ATOM     21  C   UNL     1      -1.633   2.528  -2.870  1.00  0.00     0.119 C 
BRANCH  21  22
ATOM     22  C   UNL     1      -1.038   1.127  -2.732  1.00  0.00     0.021 C 
BRANCH  22  23
ATOM     23  C   UNL     1       0.492   1.091  -2.635  1.00  0.00     0.002 C 
BRANCH  23  24
ATOM     24  C   UNL     1       1.095   1.878  -1.466  1.00  0.00    -0.000 C 
BRANCH  24  25
ATOM     25  C   UNL     1       0.613   1.456  -0.075  1.00  0.00    -0.003 C 
ATOM     26  C   UNL     1       0.983   0.024   0.279  1.00  0.00     0.004 C 
ENDBRANCH  24  25
ENDBRANCH  23  24
ENDBRANCH  22  23
ENDBRANCH  21  22
ENDBRANCH  18  21
ENDBRANCH  16  17
ENDBRANCH  11  16
ENDBRANCH   4  10
ENDBRANCH   1   3
BRANCH   1  27
ATOM     27  C   UNL     1      -3.215   2.006 -14.033  1.00  0.00     0.227 C 
ATOM     28  O   UNL     1      -2.268   1.212 -14.105  1.00  0.00    -0.274 OA
ATOM     29  N   UNL     1      -2.960   3.283 -14.426  1.00  0.00    -0.356 N 
ATOM     30  H   UNL     1      -2.046   3.423 -14.763  1.00  0.00     0.163 HD
BRANCH  29  31
ATOM     31  C   UNL     1      -3.784   4.474 -14.442  1.00  0.00     0.117 C 
BRANCH  31  32
ATOM     32  C   UNL     1      -3.526   5.376 -13.239  1.00  0.00     0.042 C 
BRANCH  32  33
ATOM     33  C   UNL     1      -2.326   6.297 -13.403  1.00  0.00     0.118 C 
BRANCH  33  34
ATOM     34  N   UNL     1      -2.546   7.298 -14.437  1.00  0.00    -0.352 N 
ATOM     35  C   UNL     1      -2.567   8.667 -14.368  1.00  0.00     0.251 C 
ATOM     36  H   UNL     1      -2.705   6.930 -15.336  1.00  0.00     0.163 HD
ATOM     37  O   UNL     1      -3.013   9.294 -15.328  1.00  0.00    -0.269 OA
BRANCH  35  38
ATOM     38  C   UNL     1      -2.069   9.395 -13.177  1.00  0.00     0.039 A 
ATOM     39  C   UNL     1      -2.650  10.627 -12.857  1.00  0.00     0.014 A 
ATOM     40  C   UNL     1      -0.990   8.928 -12.422  1.00  0.00     0.014 A 
ATOM     41  C   UNL     1      -2.159  11.374 -11.783  1.00  0.00     0.010 A 
ATOM     42  C   UNL     1      -0.569   9.623 -11.291  1.00  0.00     0.010 A 
ATOM     43  C   UNL     1      -1.120  10.873 -10.982  1.00  0.00    -0.014 A 
BRANCH  43  44
ATOM     44  C   UNL     1      -0.558  11.678  -9.867  1.00  0.00     0.031 A 
ATOM     45  C   UNL     1       0.882  12.125  -9.911  1.00  0.00     0.074 A 
ATOM     46  C   UNL     1      -1.333  11.987  -8.809  1.00  0.00     0.049 A 
ATOM     47  N   UNL     1       1.557  12.828  -9.038  1.00  0.00    -0.248 NA
ATOM     48  C   UNL     1       1.677  11.705 -11.077  1.00  0.00     0.031 C 
ATOM     49  C   UNL     1      -2.724  11.565  -8.628  1.00  0.00     0.029 A 
ATOM     50  N   UNL     1      -1.064  12.730  -7.689  1.00  0.00    -0.354 N 
ATOM     51  C   UNL     1       2.851  12.919  -9.541  1.00  0.00     0.074 A 
ATOM     52  C   UNL     1       2.885  12.146 -10.761  1.00  0.00     0.031 C 
ATOM     53  C   UNL     1      -3.195  12.085  -7.483  1.00  0.00     0.029 A 
ATOM     54  C   UNL     1      -2.134  12.847  -6.833  1.00  0.00     0.049 A 
ATOM     55  H   UNL     1      -0.186  13.142  -7.513  1.00  0.00     0.167 HD
ATOM     56  C   UNL     1       3.908  13.610  -9.048  1.00  0.00     0.037 A 
ATOM     57  C   UNL     1      -2.247  13.498  -5.660  1.00  0.00     0.037 A 
ATOM     58  C   UNL     1       3.857  14.399  -7.845  1.00  0.00     0.049 A 
ATOM     59  C   UNL     1      -1.066  14.277  -5.144  1.00  0.00     0.074 A 
ATOM     60  C   UNL     1       4.853  15.175  -7.281  1.00  0.00     0.029 A 
ATOM     61  N   UNL     1       2.745  14.515  -7.022  1.00  0.00    -0.354 N 
ATOM     62  N   UNL     1       0.133  14.400  -5.662  1.00  0.00    -0.248 NA
ATOM     63  C   UNL     1      -1.260  15.021  -3.893  1.00  0.00     0.031 C 
ATOM     64  C   UNL     1       4.359  15.725  -6.093  1.00  0.00     0.029 A 
ATOM     65  C   UNL     1       3.035  15.341  -5.949  1.00  0.00     0.049 A 
ATOM     66  H   UNL     1       1.879  14.075  -7.178  1.00  0.00     0.167 HD
ATOM     67  C   UNL     1       0.824  15.266  -4.821  1.00  0.00     0.074 A 
ATOM     68  C   UNL     1      -0.097  15.642  -3.768  1.00  0.00     0.031 C 
ATOM     69  C   UNL     1       2.102  15.713  -4.914  1.00  0.00     0.037 A 
BRANCH  56  70
ATOM     70  C   UNL     1       5.203  13.546  -9.815  1.00  0.00     0.058 A 
ATOM     71  C   UNL     1       5.345  14.141 -11.080  1.00  0.00     0.135 A 
ATOM     72  C   UNL     1       6.327  12.905  -9.268  1.00  0.00     0.135 A 
ATOM     73  F   UNL     1       4.301  14.753 -11.661  1.00  0.00    -0.206 F 
ATOM     74  C   UNL     1       6.541  14.074 -11.788  1.00  0.00     0.059 A 
ATOM     75  C   UNL     1       7.543  12.854  -9.944  1.00  0.00     0.059 A 
ATOM     76  F   UNL     1       6.252  12.318  -8.063  1.00  0.00    -0.206 F 
ATOM     77  C   UNL     1       7.636  13.428 -11.211  1.00  0.00     0.060 A 
BRANCH  77  78
ATOM     78  S   UNL     1       9.182  13.358 -12.140  1.00  0.00     0.124 S 
ATOM     79  O   UNL     1       8.850  12.395 -13.186  1.00  0.00    -0.237 OA
ATOM     80  O   UNL     1       9.344  14.740 -12.581  1.00  0.00    -0.237 OA
ATOM     81  O   UNL     1      10.153  12.900 -11.152  1.00  0.00    -0.744 OA
ENDBRANCH  77  78
ENDBRANCH  56  70
BRANCH  57  82
ATOM     82  C   UNL     1      -3.536  13.477  -4.918  1.00  0.00     0.058 A 
ATOM     83  C   UNL     1      -4.330  14.629  -4.810  1.00  0.00     0.135 A 
ATOM     84  C   UNL     1      -4.008  12.302  -4.312  1.00  0.00     0.135 A 
ATOM     85  F   UNL     1      -3.922  15.779  -5.369  1.00  0.00    -0.206 F 
ATOM     86  C   UNL     1      -5.532  14.625  -4.109  1.00  0.00     0.059 A 
ATOM     87  C   UNL     1      -5.221  12.266  -3.631  1.00  0.00     0.059 A 
ATOM     88  F   UNL     1      -3.298  11.167  -4.401  1.00  0.00    -0.206 F 
ATOM     89  C   UNL     1      -5.970  13.436  -3.525  1.00  0.00     0.060 A 
BRANCH  89  90
ATOM     90  S   UNL     1      -7.552  13.431  -2.654  1.00  0.00     0.124 S 
ATOM     91  O   UNL     1      -7.225  14.177  -1.444  1.00  0.00    -0.237 OA
ATOM     92  O   UNL     1      -8.428  14.107  -3.605  1.00  0.00    -0.237 OA
ATOM     93  O   UNL     1      -7.826  12.009  -2.464  1.00  0.00    -0.744 OA
ENDBRANCH  89  90
ENDBRANCH  57  82
BRANCH  69  94
ATOM     94  C   UNL     1       2.559  16.706  -3.880  1.00  0.00     0.058 A 
ATOM     95  C   UNL     1       2.767  16.346  -2.539  1.00  0.00     0.135 A 
ATOM     96  C   UNL     1       2.808  18.039  -4.246  1.00  0.00     0.135 A 
ATOM     97  F   UNL     1       2.543  15.085  -2.135  1.00  0.00    -0.206 F 
ATOM     98  C   UNL     1       3.157  17.283  -1.588  1.00  0.00     0.059 A 
ATOM     99  C   UNL     1       3.233  18.985  -3.319  1.00  0.00     0.059 A 
ATOM    100  F   UNL     1       2.643  18.434  -5.518  1.00  0.00    -0.206 F 
ATOM    101  C   UNL     1       3.382  18.602  -1.987  1.00  0.00     0.060 A 
BRANCH 101 102
ATOM    102  S   UNL     1       3.879  19.811  -0.743  1.00  0.00     0.124 S 
ATOM    103  O   UNL     1       2.625  20.031  -0.031  1.00  0.00    -0.237 OA
ATOM    104  O   UNL     1       4.912  19.093  -0.002  1.00  0.00    -0.237 OA
ATOM    105  O   UNL     1       4.356  20.939  -1.537  1.00  0.00    -0.744 OA
ENDBRANCH 101 102
ENDBRANCH  69  94
ENDBRANCH  43  44
ENDBRANCH  35  38
ENDBRANCH  33  34
ENDBRANCH  32  33
ENDBRANCH  31  32
ENDBRANCH  29  31
ENDBRANCH   1  27
TORSDOF 22
