REMARK SMILES O=C(NCCCNC(=O)c1cc2ccccc2cc1NS(=O)(=O)c1ccccc1Br)c1ccc(-c2c3nc(c(-c4c(F)cc(S(=O)(=O)[O-])cc4F)c4ccc([nH]4)c(-c4c(F)cc(S(=O)(=O)[O-])cc4F)c4nc(c(-c5c(F)cc(S(=O)(=O)[O-])cc5F)c5ccc2[nH]5)C=C4)C=C3)cc1
REMARK SMILES IDX 5 1 4 2 3 3 1 4 2 5 31 7 32 8 96 9 33 10 95 11 34 12 35 13
REMARK SMILES IDX 36 14 89 15 37 16 94 17 88 18 90 19 38 20 93 21 87 22 86 23
REMARK SMILES IDX 39 25 73 26 52 27 72 28 53 29 56 30 71 31 91 32 54 33 55 34
REMARK SMILES IDX 70 36 92 37 57 38 40 39 41 40 50 41 42 42 43 43 49 44 51 45
REMARK SMILES IDX 44 46 45 47 46 48 47 49 48 50 74 51 75 52 84 53 76 54 77 55
REMARK SMILES IDX 83 56 85 57 78 58 79 59 80 60 81 61 82 62 58 63 59 64 68 65
REMARK SMILES IDX 60 66 61 67 67 68 69 69 62 70 63 71 64 72 65 73 66 74 6 75
REMARK SMILES IDX 7 76 8 77 9 79 10 80 11 81 19 82 12 83 18 84 13 85 17 86
REMARK SMILES IDX 14 87 16 88 15 89 20 90 21 92 22 93 23 94 24 95 25 96 29 97
REMARK SMILES IDX 26 98 28 99 30 100 27 101
REMARK H PARENT 3 6 90 24 56 35 7 78 20 91
REMARK Flexibility Score: inf
ROOT
ATOM      1  C   UNL     1       5.060   2.374   0.589  1.00  0.00     0.042 C 
ENDROOT
BRANCH   1   2
ATOM      2  C   UNL     1       4.583   0.969   0.911  1.00  0.00     0.118 C 
BRANCH   2   3
ATOM      3  N   UNL     1       3.139   0.812   0.793  1.00  0.00    -0.352 N 
ATOM      4  O   UNL     1       1.186   0.177  -0.136  1.00  0.00    -0.269 OA
ATOM      5  C   UNL     1       2.407   0.058  -0.092  1.00  0.00     0.251 C 
ATOM      6  H   UNL     1       2.608   1.323   1.447  1.00  0.00     0.163 HD
BRANCH   5   7
ATOM      7  C   UNL     1       3.098  -0.884  -0.996  1.00  0.00     0.039 A 
ATOM      8  C   UNL     1       4.128  -1.692  -0.514  1.00  0.00     0.014 A 
ATOM      9  C   UNL     1       2.703  -0.971  -2.334  1.00  0.00     0.014 A 
ATOM     10  C   UNL     1       4.865  -2.470  -1.393  1.00  0.00     0.010 A 
ATOM     11  C   UNL     1       3.371  -1.846  -3.195  1.00  0.00     0.010 A 
ATOM     12  C   UNL     1       4.465  -2.593  -2.732  1.00  0.00    -0.014 A 
BRANCH  12  13
ATOM     13  C   UNL     1       5.112  -3.626  -3.576  1.00  0.00     0.031 A 
ATOM     14  C   UNL     1       5.891  -3.264  -4.807  1.00  0.00     0.074 A 
ATOM     15  C   UNL     1       4.973  -4.914  -3.200  1.00  0.00     0.049 A 
ATOM     16  N   UNL     1       6.486  -4.060  -5.658  1.00  0.00    -0.248 NA
ATOM     17  C   UNL     1       6.020  -1.835  -5.132  1.00  0.00     0.031 C 
ATOM     18  C   UNL     1       4.216  -5.371  -2.028  1.00  0.00     0.029 A 
ATOM     19  N   UNL     1       5.453  -6.074  -3.750  1.00  0.00    -0.354 N 
ATOM     20  C   UNL     1       7.035  -3.237  -6.633  1.00  0.00     0.074 A 
ATOM     21  C   UNL     1       6.701  -1.876  -6.272  1.00  0.00     0.031 C 
ATOM     22  C   UNL     1       4.306  -6.704  -1.933  1.00  0.00     0.029 A 
ATOM     23  C   UNL     1       5.052  -7.205  -3.078  1.00  0.00     0.049 A 
ATOM     24  H   UNL     1       6.030  -6.095  -4.548  1.00  0.00     0.167 HD
ATOM     25  C   UNL     1       7.748  -3.597  -7.726  1.00  0.00     0.037 A 
ATOM     26  C   UNL     1       5.218  -8.507  -3.375  1.00  0.00     0.037 A 
ATOM     27  C   UNL     1       8.088  -4.960  -8.052  1.00  0.00     0.049 A 
ATOM     28  C   UNL     1       5.983  -8.868  -4.614  1.00  0.00     0.074 A 
ATOM     29  C   UNL     1       8.877  -5.421  -9.093  1.00  0.00     0.029 A 
ATOM     30  N   UNL     1       7.647  -6.080  -7.361  1.00  0.00    -0.354 N 
ATOM     31  N   UNL     1       6.568  -8.073  -5.479  1.00  0.00    -0.248 NA
ATOM     32  C   UNL     1       6.105 -10.296  -4.928  1.00  0.00     0.031 C 
ATOM     33  C   UNL     1       8.854  -6.818  -9.073  1.00  0.00     0.029 A 
ATOM     34  C   UNL     1       8.104  -7.230  -7.984  1.00  0.00     0.049 A 
ATOM     35  H   UNL     1       7.092  -6.060  -6.548  1.00  0.00     0.167 HD
ATOM     36  C   UNL     1       7.131  -8.906  -6.436  1.00  0.00     0.074 A 
ATOM     37  C   UNL     1       6.848 -10.266  -6.025  1.00  0.00     0.031 C 
ATOM     38  C   UNL     1       7.811  -8.576  -7.560  1.00  0.00     0.037 A 
BRANCH  25  39
ATOM     39  C   UNL     1       8.203  -2.526  -8.679  1.00  0.00     0.058 A 
ATOM     40  C   UNL     1       9.264  -1.661  -8.374  1.00  0.00     0.135 A 
ATOM     41  C   UNL     1       7.649  -2.452  -9.969  1.00  0.00     0.135 A 
ATOM     42  F   UNL     1       9.823  -1.678  -7.154  1.00  0.00    -0.206 F 
ATOM     43  C   UNL     1       9.764  -0.765  -9.316  1.00  0.00     0.059 A 
ATOM     44  C   UNL     1       8.147  -1.581 -10.933  1.00  0.00     0.059 A 
ATOM     45  F   UNL     1       6.630  -3.255 -10.312  1.00  0.00    -0.206 F 
ATOM     46  C   UNL     1       9.207  -0.741 -10.597  1.00  0.00     0.060 A 
BRANCH  46  47
ATOM     47  S   UNL     1       9.913   0.381 -11.823  1.00  0.00     0.124 S 
ATOM     48  O   UNL     1       9.498   1.681 -11.304  1.00  0.00    -0.237 OA
ATOM     49  O   UNL     1      11.339   0.088 -11.728  1.00  0.00    -0.237 OA
ATOM     50  O   UNL     1       9.273  -0.027 -13.070  1.00  0.00    -0.744 OA
ENDBRANCH  46  47
ENDBRANCH  25  39
BRANCH  26  51
ATOM     51  C   UNL     1       4.593  -9.552  -2.522  1.00  0.00     0.058 A 
ATOM     52  C   UNL     1       5.372 -10.462  -1.795  1.00  0.00     0.135 A 
ATOM     53  C   UNL     1       3.196  -9.670  -2.433  1.00  0.00     0.135 A 
ATOM     54  F   UNL     1       6.711 -10.391  -1.847  1.00  0.00    -0.206 F 
ATOM     55  C   UNL     1       4.791 -11.475  -1.040  1.00  0.00     0.059 A 
ATOM     56  C   UNL     1       2.591 -10.651  -1.655  1.00  0.00     0.059 A 
ATOM     57  F   UNL     1       2.402  -8.811  -3.092  1.00  0.00    -0.206 F 
ATOM     58  C   UNL     1       3.399 -11.564  -0.981  1.00  0.00     0.060 A 
BRANCH  58  59
ATOM     59  S   UNL     1       2.654 -12.885  -0.003  1.00  0.00     0.124 S 
ATOM     60  O   UNL     1       2.919 -14.050  -0.839  1.00  0.00    -0.237 OA
ATOM     61  O   UNL     1       3.409 -12.807   1.244  1.00  0.00    -0.237 OA
ATOM     62  O   UNL     1       1.254 -12.482   0.095  1.00  0.00    -0.744 OA
ENDBRANCH  58  59
ENDBRANCH  26  51
BRANCH  38  63
ATOM     63  C   UNL     1       8.302  -9.705  -8.422  1.00  0.00     0.058 A 
ATOM     64  C   UNL     1       7.417 -10.472  -9.196  1.00  0.00     0.135 A 
ATOM     65  C   UNL     1       9.674  -9.984  -8.521  1.00  0.00     0.135 A 
ATOM     66  F   UNL     1       6.094 -10.255  -9.125  1.00  0.00    -0.206 F 
ATOM     67  C   UNL     1       7.875 -11.487 -10.028  1.00  0.00     0.059 A 
ATOM     68  C   UNL     1      10.157 -10.973  -9.371  1.00  0.00     0.059 A 
ATOM     69  F   UNL     1      10.563  -9.276  -7.805  1.00  0.00    -0.206 F 
ATOM     70  C   UNL     1       9.248 -11.724 -10.116  1.00  0.00     0.060 A 
BRANCH  70  71
ATOM     71  S   UNL     1       9.830 -13.006 -11.244  1.00  0.00     0.124 S 
ATOM     72  O   UNL     1       9.402 -14.220 -10.557  1.00  0.00    -0.237 OA
ATOM     73  O   UNL     1       9.111 -12.686 -12.474  1.00  0.00    -0.237 OA
ATOM     74  O   UNL     1      11.273 -12.789 -11.293  1.00  0.00    -0.744 OA
ENDBRANCH  70  71
ENDBRANCH  38  63
ENDBRANCH  12  13
ENDBRANCH   5   7
ENDBRANCH   2   3
ENDBRANCH   1   2
BRANCH   1  75
ATOM     75  C   UNL     1       4.520   3.428   1.534  1.00  0.00     0.118 C 
BRANCH  75  76
ATOM     76  N   UNL     1       4.902   3.222   2.916  1.00  0.00    -0.352 N 
ATOM     77  C   UNL     1       5.631   4.030   3.740  1.00  0.00     0.253 C 
ATOM     78  H   UNL     1       4.590   2.379   3.319  1.00  0.00     0.163 HD
ATOM     79  O   UNL     1       5.988   3.613   4.839  1.00  0.00    -0.269 OA
BRANCH  77  80
ATOM     80  C   UNL     1       6.015   5.396   3.333  1.00  0.00     0.064 A 
ATOM     81  C   UNL     1       7.393   5.679   3.420  1.00  0.00     0.024 A 
ATOM     82  C   UNL     1       5.092   6.418   3.045  1.00  0.00     0.062 A 
ATOM     83  C   UNL     1       7.881   6.977   3.206  1.00  0.00    -0.017 A 
ATOM     84  C   UNL     1       5.589   7.722   2.955  1.00  0.00     0.036 A 
ATOM     85  C   UNL     1       9.250   7.286   3.261  1.00  0.00     0.009 A 
ATOM     86  C   UNL     1       6.960   8.010   2.959  1.00  0.00    -0.016 A 
ATOM     87  C   UNL     1       9.696   8.591   3.033  1.00  0.00     0.001 A 
ATOM     88  C   UNL     1       7.419   9.316   2.730  1.00  0.00     0.009 A 
ATOM     89  C   UNL     1       8.782   9.602   2.754  1.00  0.00     0.001 A 
BRANCH  82  90
ATOM     90  N   UNL     1       3.656   6.232   3.032  1.00  0.00    -0.279 N 
ATOM     91  H   UNL     1       3.216   5.859   3.829  1.00  0.00     0.180 HD
BRANCH  90  92
ATOM     92  S   UNL     1       2.697   6.644   1.665  1.00  0.00     0.263 S 
ATOM     93  O   UNL     1       2.838   5.612   0.669  1.00  0.00    -0.201 OA
ATOM     94  O   UNL     1       1.374   6.900   2.208  1.00  0.00    -0.201 OA
BRANCH  92  95
ATOM     95  C   UNL     1       3.300   8.172   0.998  1.00  0.00     0.101 A 
ATOM     96  C   UNL     1       2.698   9.349   1.480  1.00  0.00     0.023 A 
ATOM     97  C   UNL     1       4.341   8.260   0.062  1.00  0.00     0.038 A 
ATOM     98  C   UNL     1       3.183  10.600   1.101  1.00  0.00     0.001 A 
ATOM     99  C   UNL     1       4.821   9.526  -0.306  1.00  0.00     0.017 A 
ATOM    100  Br  UNL     1       5.271   6.798  -0.713  1.00  0.00    -0.049 Br
ATOM    101  C   UNL     1       4.255  10.688   0.221  1.00  0.00     0.001 A 
ENDBRANCH  92  95
ENDBRANCH  90  92
ENDBRANCH  82  90
ENDBRANCH  77  80
ENDBRANCH  75  76
ENDBRANCH   1  75
TORSDOF 16
