REMARK SMILES CC(C)(O)C#Cc1ccc(C(=O)N[C@@H](CCC(N)=O)C(=O)NCCCNC(=O)c2ccc(-c3c4nc(c(-c5c(F)cc(S(=O)(=O)[O-])cc5F)c5ccc([nH]5)c(-c5c(F)cc(S(=O)(=O)[O-])cc5F)c5nc(c(-c6c(F)cc(S(=O)(=O)[O-])cc6F)c6ccc3[nH]6)C=C5)C=C4)cc2)s1
REMARK SMILES IDX 23 1 22 2 20 3 21 4 14 6 13 7 11 8 12 9 10 11 7 12 8 13
REMARK SMILES IDX 95 14 9 15 6 16 5 17 2 18 1 19 3 20 4 21 15 23 16 24 17 25
REMARK SMILES IDX 18 26 19 27 24 30 25 31 26 32 27 33 28 35 29 36 30 37 94 38
REMARK SMILES IDX 31 39 93 40 32 41 33 42 34 43 87 44 35 45 92 46 86 47 88 48
REMARK SMILES IDX 36 49 91 50 85 51 84 52 37 54 71 55 50 56 70 57 51 58 54 59
REMARK SMILES IDX 69 60 89 61 52 62 53 63 68 65 90 66 55 67 38 68 39 69 48 70
REMARK SMILES IDX 40 71 41 72 47 73 49 74 42 75 43 76 44 77 45 78 46 79 72 80
REMARK SMILES IDX 73 81 82 82 74 83 75 84 81 85 83 86 76 87 77 88 78 89 79 90
REMARK SMILES IDX 80 91 56 92 57 93 66 94 58 95 59 96 65 97 67 98 60 99 61 100
REMARK SMILES IDX 62 101 63 102 64 103
REMARK H PARENT 22 5 13 10 4 22 18 28 18 29 26 34 88 53 54 64
REMARK Flexibility Score: inf
ROOT
ATOM      1  C   UNL     1       3.634  -7.473  -8.341  1.00  0.00     0.117 C 
ENDROOT
BRANCH   1   2
ATOM      2  N   UNL     1       4.132  -6.955  -7.088  1.00  0.00    -0.354 N 
ATOM      3  C   UNL     1       3.603  -6.060  -6.211  1.00  0.00     0.242 C 
ATOM      4  O   UNL     1       4.164  -5.954  -5.117  1.00  0.00    -0.273 OA
ATOM      5  H   UNL     1       5.010  -7.314  -6.821  1.00  0.00     0.163 HD
BRANCH   3   6
ATOM      6  C   UNL     1       2.336  -5.242  -6.520  1.00  0.00     0.172 C 
BRANCH   6   7
ATOM      7  N   UNL     1       2.398  -4.525  -7.811  1.00  0.00    -0.340 N 
ATOM      8  C   UNL     1       2.434  -3.169  -8.067  1.00  0.00     0.262 C 
ATOM      9  O   UNL     1       2.740  -2.833  -9.213  1.00  0.00    -0.268 OA
ATOM     10  H   UNL     1       2.417  -5.102  -8.609  1.00  0.00     0.164 HD
BRANCH   8  11
ATOM     11  C   UNL     1       2.199  -2.212  -7.009  1.00  0.00     0.093 A 
ATOM     12  C   UNL     1       1.709  -1.349  -4.799  1.00  0.00     0.078 A 
ATOM     13  C   UNL     1       2.582  -0.518  -5.465  1.00  0.00     0.030 A 
ATOM     14  S   UNL     1       0.913  -2.385  -5.891  1.00  0.00    -0.121 S 
ATOM     15  C   UNL     1       2.848  -1.010  -6.782  1.00  0.00     0.027 A 
BRANCH  12  16
ATOM     16  C   UNL     1       1.406  -1.339  -3.417  1.00  0.00    -0.053 C 
ATOM     17  C   UNL     1       0.972  -1.291  -2.189  1.00  0.00    -0.063 C 
BRANCH  17  18
ATOM     18  C   UNL     1       0.465  -1.235  -0.757  1.00  0.00     0.120 C 
ATOM     19  C   UNL     1       0.953   0.047  -0.086  1.00  0.00     0.056 C 
ATOM     20  C   UNL     1       0.934  -2.473   0.005  1.00  0.00     0.056 C 
BRANCH  18  21
ATOM     21  O   UNL     1      -0.961  -1.219  -0.788  1.00  0.00    -0.378 OA
ATOM     22  H   UNL     1      -1.304  -1.183   0.118  1.00  0.00     0.212 HD
ENDBRANCH  18  21
ENDBRANCH  17  18
ENDBRANCH  12  16
ENDBRANCH   8  11
ENDBRANCH   6   7
BRANCH   6  23
ATOM     23  C   UNL     1       0.962  -5.908  -6.281  1.00  0.00     0.045 C 
BRANCH  23  24
ATOM     24  C   UNL     1       0.699  -7.325  -6.786  1.00  0.00     0.102 C 
BRANCH  24  25
ATOM     25  C   UNL     1       1.327  -8.402  -5.928  1.00  0.00     0.217 C 
ATOM     26  N   UNL     1       1.334  -9.646  -6.483  1.00  0.00    -0.370 N 
ATOM     27  O   UNL     1       1.770  -8.215  -4.804  1.00  0.00    -0.275 OA
ATOM     28  H   UNL     1       0.974  -9.783  -7.389  1.00  0.00     0.159 HD
ATOM     29  H   UNL     1       1.699 -10.408  -5.978  1.00  0.00     0.159 HD
ENDBRANCH  24  25
ENDBRANCH  23  24
ENDBRANCH   6  23
ENDBRANCH   3   6
ENDBRANCH   1   2
BRANCH   1  30
ATOM     30  C   UNL     1       4.675  -7.469  -9.452  1.00  0.00     0.042 C 
BRANCH  30  31
ATOM     31  C   UNL     1       5.702  -8.578  -9.285  1.00  0.00     0.118 C 
BRANCH  31  32
ATOM     32  N   UNL     1       5.089  -9.904  -9.318  1.00  0.00    -0.352 N 
ATOM     33  C   UNL     1       5.631 -11.109  -8.911  1.00  0.00     0.251 C 
ATOM     34  H   UNL     1       4.173  -9.944  -9.677  1.00  0.00     0.163 HD
ATOM     35  O   UNL     1       5.092 -12.160  -9.175  1.00  0.00    -0.269 OA
BRANCH  33  36
ATOM     36  C   UNL     1       6.919 -11.059  -8.193  1.00  0.00     0.039 A 
ATOM     37  C   UNL     1       8.042 -11.626  -8.790  1.00  0.00     0.014 A 
ATOM     38  C   UNL     1       7.020 -10.293  -7.032  1.00  0.00     0.014 A 
ATOM     39  C   UNL     1       9.297 -11.312  -8.279  1.00  0.00     0.010 A 
ATOM     40  C   UNL     1       8.275  -9.914  -6.582  1.00  0.00     0.010 A 
ATOM     41  C   UNL     1       9.424 -10.406  -7.208  1.00  0.00    -0.014 A 
BRANCH  41  42
ATOM     42  C   UNL     1      10.759  -9.861  -6.910  1.00  0.00     0.031 A 
ATOM     43  C   UNL     1      11.524  -9.371  -8.097  1.00  0.00     0.074 A 
ATOM     44  C   UNL     1      11.257  -9.585  -5.686  1.00  0.00     0.049 A 
ATOM     45  N   UNL     1      12.602  -9.869  -8.608  1.00  0.00    -0.248 NA
ATOM     46  C   UNL     1      10.969  -8.245  -8.867  1.00  0.00     0.031 C 
ATOM     47  C   UNL     1      10.553  -9.647  -4.403  1.00  0.00     0.029 A 
ATOM     48  N   UNL     1      12.484  -9.080  -5.340  1.00  0.00    -0.354 N 
ATOM     49  C   UNL     1      12.996  -8.983  -9.610  1.00  0.00     0.074 A 
ATOM     50  C   UNL     1      11.873  -8.113  -9.842  1.00  0.00     0.031 C 
ATOM     51  C   UNL     1      11.266  -8.984  -3.468  1.00  0.00     0.029 A 
ATOM     52  C   UNL     1      12.553  -8.618  -4.033  1.00  0.00     0.049 A 
ATOM     53  H   UNL     1      13.247  -9.047  -5.962  1.00  0.00     0.167 HD
ATOM     54  C   UNL     1      14.304  -8.869  -9.975  1.00  0.00     0.037 A 
ATOM     55  C   UNL     1      13.581  -7.986  -3.421  1.00  0.00     0.037 A 
ATOM     56  C   UNL     1      15.098  -9.934  -9.418  1.00  0.00     0.049 A 
ATOM     57  C   UNL     1      14.839  -8.356  -4.110  1.00  0.00     0.074 A 
ATOM     58  C   UNL     1      15.342 -11.264  -9.669  1.00  0.00     0.029 A 
ATOM     59  N   UNL     1      15.588  -9.657  -8.173  1.00  0.00    -0.354 N 
ATOM     60  N   UNL     1      15.324  -9.568  -4.128  1.00  0.00    -0.248 NA
ATOM     61  C   UNL     1      15.474  -7.418  -5.030  1.00  0.00     0.031 C 
ATOM     62  C   UNL     1      15.853 -11.815  -8.454  1.00  0.00     0.029 A 
ATOM     63  C   UNL     1      15.916 -10.803  -7.500  1.00  0.00     0.049 A 
ATOM     64  H   UNL     1      15.693  -8.749  -7.806  1.00  0.00     0.167 HD
ATOM     65  C   UNL     1      16.002  -9.647  -5.325  1.00  0.00     0.074 A 
ATOM     66  C   UNL     1      16.224  -8.269  -5.735  1.00  0.00     0.031 C 
ATOM     67  C   UNL     1      16.002 -10.799  -6.054  1.00  0.00     0.037 A 
BRANCH  54  68
ATOM     68  C   UNL     1      14.987  -7.585 -10.418  1.00  0.00     0.058 A 
ATOM     69  C   UNL     1      16.320  -7.646 -10.886  1.00  0.00     0.135 A 
ATOM     70  C   UNL     1      14.520  -6.293 -10.092  1.00  0.00     0.135 A 
ATOM     71  F   UNL     1      16.870  -8.821 -11.231  1.00  0.00    -0.206 F 
ATOM     72  C   UNL     1      17.150  -6.524 -10.939  1.00  0.00     0.059 A 
ATOM     73  C   UNL     1      15.316  -5.154 -10.188  1.00  0.00     0.059 A 
ATOM     74  F   UNL     1      13.308  -6.085  -9.566  1.00  0.00    -0.206 F 
ATOM     75  C   UNL     1      16.643  -5.284 -10.565  1.00  0.00     0.060 A 
BRANCH  75  76
ATOM     76  S   UNL     1      17.738  -3.853 -10.515  1.00  0.00     0.124 S 
ATOM     77  O   UNL     1      18.535  -4.140  -9.328  1.00  0.00    -0.237 OA
ATOM     78  O   UNL     1      18.433  -3.953 -11.794  1.00  0.00    -0.237 OA
ATOM     79  O   UNL     1      16.811  -2.730 -10.401  1.00  0.00    -0.744 OA
ENDBRANCH  75  76
ENDBRANCH  54  68
BRANCH  55  80
ATOM     80  C   UNL     1      13.530  -6.974  -2.339  1.00  0.00     0.058 A 
ATOM     81  C   UNL     1      14.667  -6.663  -1.575  1.00  0.00     0.135 A 
ATOM     82  C   UNL     1      12.432  -6.098  -2.212  1.00  0.00     0.135 A 
ATOM     83  F   UNL     1      15.763  -7.434  -1.647  1.00  0.00    -0.206 F 
ATOM     84  C   UNL     1      14.736  -5.519  -0.777  1.00  0.00     0.059 A 
ATOM     85  C   UNL     1      12.471  -4.960  -1.410  1.00  0.00     0.059 A 
ATOM     86  F   UNL     1      11.319  -6.277  -2.940  1.00  0.00    -0.206 F 
ATOM     87  C   UNL     1      13.639  -4.660  -0.720  1.00  0.00     0.060 A 
BRANCH  87  88
ATOM     88  S   UNL     1      13.799  -3.083   0.148  1.00  0.00     0.124 S 
ATOM     89  O   UNL     1      13.841  -3.509   1.542  1.00  0.00    -0.237 OA
ATOM     90  O   UNL     1      15.047  -2.558  -0.397  1.00  0.00    -0.237 OA
ATOM     91  O   UNL     1      12.596  -2.355  -0.248  1.00  0.00    -0.744 OA
ENDBRANCH  87  88
ENDBRANCH  55  80
BRANCH  67  92
ATOM     92  C   UNL     1      15.911 -12.097  -5.312  1.00  0.00     0.058 A 
ATOM     93  C   UNL     1      14.809 -12.520  -4.551  1.00  0.00     0.135 A 
ATOM     94  C   UNL     1      17.001 -12.977  -5.411  1.00  0.00     0.135 A 
ATOM     95  F   UNL     1      13.694 -11.778  -4.479  1.00  0.00    -0.206 F 
ATOM     96  C   UNL     1      14.816 -13.741  -3.873  1.00  0.00     0.059 A 
ATOM     97  C   UNL     1      17.016 -14.212  -4.771  1.00  0.00     0.059 A 
ATOM     98  F   UNL     1      18.066 -12.649  -6.162  1.00  0.00    -0.206 F 
ATOM     99  C   UNL     1      15.927 -14.578  -3.985  1.00  0.00     0.060 A 
BRANCH  99 100
ATOM    100  S   UNL     1      15.920 -16.175  -3.144  1.00  0.00     0.124 S 
ATOM    101  O   UNL     1      16.114 -15.790  -1.751  1.00  0.00    -0.237 OA
ATOM    102  O   UNL     1      14.602 -16.706  -3.479  1.00  0.00    -0.237 OA
ATOM    103  O   UNL     1      17.041 -16.887  -3.756  1.00  0.00    -0.744 OA
ENDBRANCH  99 100
ENDBRANCH  67  92
ENDBRANCH  41  42
ENDBRANCH  33  36
ENDBRANCH  31  32
ENDBRANCH  30  31
ENDBRANCH   1  30
TORSDOF 21
