REMARK SMILES Nc1ccc(N2CC3(CCC3)C2)c(C(=O)NCCCNC(=O)c2ccc(-c3c4nc(c(-c5c(F)cc(S(=O)(=O)[O-])cc5F)c5ccc([nH]5)c(-c5c(F)cc(S(=O)(=O)[O-])cc5F)c5nc(c(-c6c(F)cc(S(=O)(=O)[O-])cc6F)c6ccc3[nH]6)C=C5)C=C4)cc2)c1
REMARK SMILES IDX 19 1 18 2 17 3 16 4 14 5 15 6 13 8 2 9 3 10 89 11 4 12 5 13
REMARK SMILES IDX 1 14 6 17 7 18 12 19 8 20 9 21 11 22 10 23 20 24 21 25 22 27
REMARK SMILES IDX 23 28 24 29 88 30 25 31 87 32 26 33 27 34 28 35 81 36 29 37
REMARK SMILES IDX 86 38 80 39 82 40 30 41 85 42 79 43 78 44 31 46 65 47 44 48
REMARK SMILES IDX 64 49 45 50 48 51 63 52 83 53 46 54 47 55 62 57 84 58 49 59
REMARK SMILES IDX 32 60 33 61 42 62 34 63 35 64 41 65 43 66 36 67 37 68 38 69
REMARK SMILES IDX 39 70 40 71 66 72 67 73 76 74 68 75 69 76 75 77 77 78 70 79
REMARK SMILES IDX 71 80 72 81 73 82 74 83 50 84 51 85 60 86 52 87 53 88 59 89
REMARK SMILES IDX 61 90 54 91 55 92 56 93 57 94 58 95
REMARK H PARENT 16 7 1 15 1 16 20 26 82 45 48 56
REMARK Flexibility Score: inf
ROOT
ATOM      1  C   UNL     1       0.413   5.929  -1.069  1.00  0.00     0.118 C 
ENDROOT
BRANCH   1   2
ATOM      2  C   UNL     1       0.975   4.541  -0.758  1.00  0.00     0.042 C 
BRANCH   2   3
ATOM      3  C   UNL     1       0.381   3.932   0.511  1.00  0.00     0.118 C 
BRANCH   3   4
ATOM      4  N   UNL     1      -1.018   3.620   0.304  1.00  0.00    -0.352 N 
ATOM      5  C   UNL     1      -1.743   2.515  -0.058  1.00  0.00     0.253 C 
ATOM      6  O   UNL     1      -2.935   2.775  -0.204  1.00  0.00    -0.269 OA
ATOM      7  H   UNL     1      -1.595   4.401   0.466  1.00  0.00     0.163 HD
BRANCH   5   8
ATOM      8  C   UNL     1      -1.194   1.120  -0.190  1.00  0.00     0.065 A 
ATOM      9  C   UNL     1       0.801  -0.317  -0.185  1.00  0.00     0.032 A 
ATOM     10  C   UNL     1      -0.000  -1.423   0.052  1.00  0.00     0.027 A 
ATOM     11  C   UNL     1       0.187   0.923  -0.370  1.00  0.00     0.041 A 
ATOM     12  C   UNL     1      -1.386  -1.280   0.117  1.00  0.00     0.029 A 
ATOM     13  C   UNL     1      -2.014  -0.024  -0.025  1.00  0.00     0.050 A 
BRANCH   9  14
ATOM     14  N   UNL     1       2.172  -0.448  -0.311  1.00  0.00    -0.399 N 
ATOM     15  H   UNL     1       2.597  -1.327  -0.179  1.00  0.00     0.156 HD
ATOM     16  H   UNL     1       2.724   0.337  -0.533  1.00  0.00     0.156 HD
ENDBRANCH   9  14
BRANCH  13  17
ATOM     17  N   UNL     1      -3.418  -0.041  -0.005  1.00  0.00    -0.370 N 
ATOM     18  C   UNL     1      -4.323  -0.405   1.046  1.00  0.00     0.125 C 
ATOM     19  C   UNL     1      -4.431   0.509  -0.855  1.00  0.00     0.125 C 
ATOM     20  C   UNL     1      -5.314   0.493   0.364  1.00  0.00     0.005 C 
ATOM     21  C   UNL     1      -6.765   0.123   0.217  1.00  0.00     0.011 C 
ATOM     22  C   UNL     1      -5.688   1.794   1.044  1.00  0.00     0.011 C 
ATOM     23  C   UNL     1      -7.069   1.640   0.364  1.00  0.00     0.001 C 
ENDBRANCH  13  17
ENDBRANCH   5   8
ENDBRANCH   3   4
ENDBRANCH   2   3
ENDBRANCH   1   2
BRANCH   1  24
ATOM     24  N   UNL     1       0.799   6.909  -0.060  1.00  0.00    -0.352 N 
ATOM     25  C   UNL     1       1.586   8.028  -0.184  1.00  0.00     0.251 C 
ATOM     26  H   UNL     1       0.442   6.745   0.842  1.00  0.00     0.163 HD
ATOM     27  O   UNL     1       2.018   8.585   0.819  1.00  0.00    -0.269 OA
BRANCH  25  28
ATOM     28  C   UNL     1       1.911   8.547  -1.528  1.00  0.00     0.039 A 
ATOM     29  C   UNL     1       3.222   8.940  -1.810  1.00  0.00     0.014 A 
ATOM     30  C   UNL     1       0.916   8.653  -2.503  1.00  0.00     0.014 A 
ATOM     31  C   UNL     1       3.549   9.374  -3.097  1.00  0.00     0.010 A 
ATOM     32  C   UNL     1       1.259   9.013  -3.801  1.00  0.00     0.010 A 
ATOM     33  C   UNL     1       2.579   9.376  -4.112  1.00  0.00    -0.014 A 
BRANCH  33  34
ATOM     34  C   UNL     1       2.912   9.742  -5.512  1.00  0.00     0.031 A 
ATOM     35  C   UNL     1       2.249  10.930  -6.154  1.00  0.00     0.074 A 
ATOM     36  C   UNL     1       3.731   8.949  -6.230  1.00  0.00     0.049 A 
ATOM     37  N   UNL     1       2.299  11.332  -7.397  1.00  0.00    -0.248 NA
ATOM     38  C   UNL     1       1.395  11.760  -5.288  1.00  0.00     0.031 C 
ATOM     39  C   UNL     1       4.401   7.747  -5.727  1.00  0.00     0.029 A 
ATOM     40  N   UNL     1       4.123   9.019  -7.544  1.00  0.00    -0.354 N 
ATOM     41  C   UNL     1       1.469  12.445  -7.468  1.00  0.00     0.074 A 
ATOM     42  C   UNL     1       0.890  12.626  -6.155  1.00  0.00     0.031 C 
ATOM     43  C   UNL     1       5.128   7.201  -6.714  1.00  0.00     0.029 A 
ATOM     44  C   UNL     1       4.938   7.981  -7.933  1.00  0.00     0.049 A 
ATOM     45  H   UNL     1       3.847   9.743  -8.150  1.00  0.00     0.167 HD
ATOM     46  C   UNL     1       1.227  13.252  -8.528  1.00  0.00     0.037 A 
ATOM     47  C   UNL     1       5.456   7.679  -9.140  1.00  0.00     0.037 A 
ATOM     48  C   UNL     1       1.826  13.072  -9.826  1.00  0.00     0.049 A 
ATOM     49  C   UNL     1       5.157   8.580 -10.309  1.00  0.00     0.074 A 
ATOM     50  C   UNL     1       1.692  13.866 -10.951  1.00  0.00     0.029 A 
ATOM     51  N   UNL     1       2.666  12.023 -10.173  1.00  0.00    -0.354 N 
ATOM     52  N   UNL     1       4.419   9.664 -10.345  1.00  0.00    -0.248 NA
ATOM     53  C   UNL     1       5.762   8.221 -11.599  1.00  0.00     0.031 C 
ATOM     54  C   UNL     1       2.407  13.269 -11.993  1.00  0.00     0.029 A 
ATOM     55  C   UNL     1       3.038  12.136 -11.502  1.00  0.00     0.049 A 
ATOM     56  H   UNL     1       2.955  11.305  -9.565  1.00  0.00     0.167 HD
ATOM     57  C   UNL     1       4.498  10.134 -11.651  1.00  0.00     0.074 A 
ATOM     58  C   UNL     1       5.359   9.221 -12.372  1.00  0.00     0.031 C 
ATOM     59  C   UNL     1       3.912  11.226 -12.201  1.00  0.00     0.037 A 
BRANCH  46  60
ATOM     60  C   UNL     1       0.275  14.401  -8.334  1.00  0.00     0.058 A 
ATOM     61  C   UNL     1       0.602  15.504  -7.528  1.00  0.00     0.135 A 
ATOM     62  C   UNL     1      -0.965  14.421  -8.994  1.00  0.00     0.135 A 
ATOM     63  F   UNL     1       1.767  15.533  -6.861  1.00  0.00    -0.206 F 
ATOM     64  C   UNL     1      -0.277  16.569  -7.359  1.00  0.00     0.059 A 
ATOM     65  C   UNL     1      -1.846  15.490  -8.866  1.00  0.00     0.059 A 
ATOM     66  F   UNL     1      -1.330  13.393  -9.777  1.00  0.00    -0.206 F 
ATOM     67  C   UNL     1      -1.499  16.553  -8.034  1.00  0.00     0.060 A 
BRANCH  67  68
ATOM     68  S   UNL     1      -2.622  17.948  -7.810  1.00  0.00     0.124 S 
ATOM     69  O   UNL     1      -3.075  17.740  -6.438  1.00  0.00    -0.237 OA
ATOM     70  O   UNL     1      -1.742  19.093  -8.019  1.00  0.00    -0.237 OA
ATOM     71  O   UNL     1      -3.633  17.742  -8.842  1.00  0.00    -0.744 OA
ENDBRANCH  67  68
ENDBRANCH  46  60
BRANCH  47  72
ATOM     72  C   UNL     1       6.316   6.475  -9.300  1.00  0.00     0.058 A 
ATOM     73  C   UNL     1       7.690   6.599  -9.555  1.00  0.00     0.135 A 
ATOM     74  C   UNL     1       5.788   5.179  -9.187  1.00  0.00     0.135 A 
ATOM     75  F   UNL     1       8.242   7.816  -9.678  1.00  0.00    -0.206 F 
ATOM     76  C   UNL     1       8.508   5.484  -9.708  1.00  0.00     0.059 A 
ATOM     77  C   UNL     1       6.591   4.048  -9.309  1.00  0.00     0.059 A 
ATOM     78  F   UNL     1       4.484   5.004  -8.927  1.00  0.00    -0.206 F 
ATOM     79  C   UNL     1       7.949   4.212  -9.579  1.00  0.00     0.060 A 
BRANCH  79  80
ATOM     80  S   UNL     1       9.029   2.773  -9.733  1.00  0.00     0.124 S 
ATOM     81  O   UNL     1       9.322   2.776 -11.161  1.00  0.00    -0.237 OA
ATOM     82  O   UNL     1      10.137   3.128  -8.852  1.00  0.00    -0.237 OA
ATOM     83  O   UNL     1       8.193   1.673  -9.262  1.00  0.00    -0.744 OA
ENDBRANCH  79  80
ENDBRANCH  47  72
BRANCH  59  84
ATOM     84  C   UNL     1       4.215  11.532 -13.643  1.00  0.00     0.058 A 
ATOM     85  C   UNL     1       3.675  10.771 -14.691  1.00  0.00     0.135 A 
ATOM     86  C   UNL     1       4.986  12.657 -13.978  1.00  0.00     0.135 A 
ATOM     87  F   UNL     1       2.939   9.680 -14.425  1.00  0.00    -0.206 F 
ATOM     88  C   UNL     1       3.897  11.110 -16.022  1.00  0.00     0.059 A 
ATOM     89  C   UNL     1       5.195  13.032 -15.301  1.00  0.00     0.059 A 
ATOM     90  F   UNL     1       5.519  13.424 -13.013  1.00  0.00    -0.206 F 
ATOM     91  C   UNL     1       4.650  12.249 -16.317  1.00  0.00     0.060 A 
BRANCH  91  92
ATOM     92  S   UNL     1       4.872  12.714 -18.047  1.00  0.00     0.124 S 
ATOM     93  O   UNL     1       5.793  11.683 -18.514  1.00  0.00    -0.237 OA
ATOM     94  O   UNL     1       3.511  12.632 -18.568  1.00  0.00    -0.237 OA
ATOM     95  O   UNL     1       5.427  14.062 -17.969  1.00  0.00    -0.744 OA
ENDBRANCH  91  92
ENDBRANCH  59  84
ENDBRANCH  33  34
ENDBRANCH  25  28
ENDBRANCH   1  24
TORSDOF 15
