REMARK SMILES O=C(NCCCNC(=O)[C@H]1CC=CC[C@H]1C(=O)N[C@@H]1CCN(c2cccc(Cl)c2)C1)c1ccc(-c2c3nc(c(-c4c(F)cc(S(=O)(=O)[O-])cc4F)c4ccc([nH]4)c(-c4c(F)cc(S(=O)(=O)[O-])cc4F)c4nc(c(-c5c(F)cc(S(=O)(=O)[O-])cc5F)c5ccc2[nH]5)C=C4)C=C3)cc1
REMARK SMILES IDX 5 1 4 2 3 3 1 4 2 5 31 7 32 8 96 9 33 10 95 11 34 12 35 13
REMARK SMILES IDX 36 14 89 15 37 16 94 17 88 18 90 19 38 20 93 21 87 22 86 23
REMARK SMILES IDX 39 25 73 26 52 27 72 28 53 29 56 30 71 31 91 32 54 33 55 34
REMARK SMILES IDX 70 36 92 37 57 38 40 39 41 40 50 41 42 42 43 43 49 44 51 45
REMARK SMILES IDX 44 46 45 47 46 48 47 49 48 50 74 51 75 52 84 53 76 54 77 55
REMARK SMILES IDX 83 56 85 57 78 58 79 59 80 60 81 61 82 62 58 63 59 64 68 65
REMARK SMILES IDX 60 66 61 67 67 68 69 69 62 70 63 71 64 72 65 73 66 74 6 75
REMARK SMILES IDX 7 76 8 77 9 79 10 80 11 81 15 82 12 83 14 84 13 85 16 86
REMARK SMILES IDX 17 87 18 88 19 90 20 91 30 92 21 93 22 94 23 95 24 96 29 97
REMARK SMILES IDX 25 98 27 99 26 100 28 101
REMARK H PARENT 3 6 90 24 56 35 7 78 18 89
REMARK Flexibility Score: inf
ROOT
ATOM      1  C   UNL     1       2.770  -3.423   0.038  1.00  0.00     0.042 C 
ENDROOT
BRANCH   1   2
ATOM      2  C   UNL     1       2.910  -1.888  -0.062  1.00  0.00     0.118 C 
BRANCH   2   3
ATOM      3  N   UNL     1       1.676  -1.125  -0.178  1.00  0.00    -0.352 N 
ATOM      4  O   UNL     1       0.270   0.616   0.112  1.00  0.00    -0.269 OA
ATOM      5  C   UNL     1       1.387   0.141   0.306  1.00  0.00     0.251 C 
ATOM      6  H   UNL     1       0.947  -1.570  -0.669  1.00  0.00     0.163 HD
BRANCH   5   7
ATOM      7  C   UNL     1       2.374   0.934   1.094  1.00  0.00     0.039 A 
ATOM      8  C   UNL     1       3.570   1.385   0.538  1.00  0.00     0.014 A 
ATOM      9  C   UNL     1       2.042   1.347   2.389  1.00  0.00     0.014 A 
ATOM     10  C   UNL     1       4.478   2.147   1.303  1.00  0.00     0.010 A 
ATOM     11  C   UNL     1       2.930   2.144   3.138  1.00  0.00     0.010 A 
ATOM     12  C   UNL     1       4.179   2.531   2.623  1.00  0.00    -0.014 A 
BRANCH  12  13
ATOM     13  C   UNL     1       5.143   3.329   3.459  1.00  0.00     0.031 A 
ATOM     14  C   UNL     1       5.686   2.772   4.761  1.00  0.00     0.074 A 
ATOM     15  C   UNL     1       5.524   4.573   3.092  1.00  0.00     0.049 A 
ATOM     16  N   UNL     1       6.457   3.343   5.657  1.00  0.00    -0.248 NA
ATOM     17  C   UNL     1       5.300   1.396   5.105  1.00  0.00     0.031 C 
ATOM     18  C   UNL     1       5.093   5.265   1.877  1.00  0.00     0.029 A 
ATOM     19  N   UNL     1       6.352   5.485   3.711  1.00  0.00    -0.354 N 
ATOM     20  C   UNL     1       6.619   2.413   6.682  1.00  0.00     0.074 A 
ATOM     21  C   UNL     1       5.846   1.247   6.304  1.00  0.00     0.031 C 
ATOM     22  C   UNL     1       5.671   6.477   1.830  1.00  0.00     0.029 A 
ATOM     23  C   UNL     1       6.472   6.679   3.035  1.00  0.00     0.049 A 
ATOM     24  H   UNL     1       6.816   5.299   4.560  1.00  0.00     0.167 HD
ATOM     25  C   UNL     1       7.345   2.508   7.826  1.00  0.00     0.037 A 
ATOM     26  C   UNL     1       7.127   7.818   3.348  1.00  0.00     0.037 A 
ATOM     27  C   UNL     1       8.139   3.653   8.203  1.00  0.00     0.049 A 
ATOM     28  C   UNL     1       7.906   7.912   4.635  1.00  0.00     0.074 A 
ATOM     29  C   UNL     1       8.945   3.810   9.320  1.00  0.00     0.029 A 
ATOM     30  N   UNL     1       8.227   4.836   7.486  1.00  0.00    -0.354 N 
ATOM     31  N   UNL     1       8.072   7.006   5.569  1.00  0.00    -0.248 NA
ATOM     32  C   UNL     1       8.590   9.185   4.909  1.00  0.00     0.031 C 
ATOM     33  C   UNL     1       9.475   5.104   9.306  1.00  0.00     0.029 A 
ATOM     34  C   UNL     1       9.055   5.733   8.147  1.00  0.00     0.049 A 
ATOM     35  H   UNL     1       7.770   5.014   6.633  1.00  0.00     0.167 HD
ATOM     36  C   UNL     1       8.911   7.586   6.518  1.00  0.00     0.074 A 
ATOM     37  C   UNL     1       9.222   8.917   6.043  1.00  0.00     0.031 C 
ATOM     38  C   UNL     1       9.383   7.055   7.673  1.00  0.00     0.037 A 
BRANCH  25  39
ATOM     39  C   UNL     1       7.305   1.343   8.786  1.00  0.00     0.058 A 
ATOM     40  C   UNL     1       7.918   0.114   8.493  1.00  0.00     0.135 A 
ATOM     41  C   UNL     1       6.689   1.478  10.043  1.00  0.00     0.135 A 
ATOM     42  F   UNL     1       8.518  -0.077   7.307  1.00  0.00    -0.206 F 
ATOM     43  C   UNL     1       7.890  -0.948   9.393  1.00  0.00     0.059 A 
ATOM     44  C   UNL     1       6.677   0.440  10.971  1.00  0.00     0.059 A 
ATOM     45  F   UNL     1       6.096   2.633  10.384  1.00  0.00    -0.206 F 
ATOM     46  C   UNL     1       7.265  -0.776  10.629  1.00  0.00     0.060 A 
BRANCH  46  47
ATOM     47  S   UNL     1       7.233  -2.165  11.783  1.00  0.00     0.124 S 
ATOM     48  O   UNL     1       6.275  -3.057  11.137  1.00  0.00    -0.237 OA
ATOM     49  O   UNL     1       8.623  -2.614  11.770  1.00  0.00    -0.237 OA
ATOM     50  O   UNL     1       6.784  -1.562  13.033  1.00  0.00    -0.744 OA
ENDBRANCH  46  47
ENDBRANCH  25  39
BRANCH  26  51
ATOM     51  C   UNL     1       7.087   8.981   2.416  1.00  0.00     0.058 A 
ATOM     52  C   UNL     1       8.236   9.387   1.720  1.00  0.00     0.135 A 
ATOM     53  C   UNL     1       5.907   9.712   2.206  1.00  0.00     0.135 A 
ATOM     54  F   UNL     1       9.394   8.733   1.898  1.00  0.00    -0.206 F 
ATOM     55  C   UNL     1       8.222  10.481   0.860  1.00  0.00     0.059 A 
ATOM     56  C   UNL     1       5.859  10.790   1.328  1.00  0.00     0.059 A 
ATOM     57  F   UNL     1       4.778   9.363   2.842  1.00  0.00    -0.206 F 
ATOM     58  C   UNL     1       7.026  11.174   0.666  1.00  0.00     0.060 A 
BRANCH  58  59
ATOM     59  S   UNL     1       7.005  12.556  -0.496  1.00  0.00     0.124 S 
ATOM     60  O   UNL     1       7.751  13.571   0.240  1.00  0.00    -0.237 OA
ATOM     61  O   UNL     1       7.679  11.986  -1.659  1.00  0.00    -0.237 OA
ATOM     62  O   UNL     1       5.582  12.824  -0.675  1.00  0.00    -0.744 OA
ENDBRANCH  58  59
ENDBRANCH  26  51
BRANCH  38  63
ATOM     63  C   UNL     1      10.349   7.883   8.482  1.00  0.00     0.058 A 
ATOM     64  C   UNL     1       9.951   9.037   9.177  1.00  0.00     0.135 A 
ATOM     65  C   UNL     1      11.697   7.496   8.585  1.00  0.00     0.135 A 
ATOM     66  F   UNL     1       8.678   9.459   9.113  1.00  0.00    -0.206 F 
ATOM     67  C   UNL     1      10.859   9.797   9.911  1.00  0.00     0.059 A 
ATOM     68  C   UNL     1      12.615   8.222   9.339  1.00  0.00     0.059 A 
ATOM     69  F   UNL     1      12.134   6.396   7.953  1.00  0.00    -0.206 F 
ATOM     70  C   UNL     1      12.191   9.382   9.985  1.00  0.00     0.060 A 
BRANCH  70  71
ATOM     71  S   UNL     1      13.357  10.368  10.947  1.00  0.00     0.124 S 
ATOM     72  O   UNL     1      13.542  11.531  10.085  1.00  0.00    -0.237 OA
ATOM     73  O   UNL     1      12.621  10.606  12.184  1.00  0.00    -0.237 OA
ATOM     74  O   UNL     1      14.519   9.492  11.076  1.00  0.00    -0.744 OA
ENDBRANCH  70  71
ENDBRANCH  38  63
ENDBRANCH  12  13
ENDBRANCH   5   7
ENDBRANCH   2   3
ENDBRANCH   1   2
BRANCH   1  75
ATOM     75  C   UNL     1       2.936  -4.453  -1.129  1.00  0.00     0.117 C 
BRANCH  75  76
ATOM     76  N   UNL     1       3.734  -4.184  -2.324  1.00  0.00    -0.356 N 
ATOM     77  C   UNL     1       4.873  -4.658  -2.911  1.00  0.00     0.224 C 
ATOM     78  H   UNL     1       3.338  -3.457  -2.856  1.00  0.00     0.163 HD
ATOM     79  O   UNL     1       5.006  -4.306  -4.092  1.00  0.00    -0.275 OA
BRANCH  77  80
ATOM     80  C   UNL     1       5.953  -5.546  -2.256  1.00  0.00     0.095 C 
ATOM     81  C   UNL     1       6.911  -6.142  -3.339  1.00  0.00     0.041 C 
ATOM     82  C   UNL     1       6.756  -4.987  -1.058  1.00  0.00     0.095 C 
ATOM     83  C   UNL     1       8.213  -5.423  -3.553  1.00  0.00    -0.030 C 
ATOM     84  C   UNL     1       8.239  -4.574  -1.229  1.00  0.00     0.041 C 
ATOM     85  C   UNL     1       8.817  -4.723  -2.591  1.00  0.00    -0.030 C 
BRANCH  82  86
ATOM     86  C   UNL     1       6.088  -3.878  -0.284  1.00  0.00     0.224 C 
ATOM     87  O   UNL     1       5.736  -4.083   0.879  1.00  0.00    -0.275 OA
ATOM     88  N   UNL     1       5.909  -2.635  -0.815  1.00  0.00    -0.351 N 
ATOM     89  H   UNL     1       5.443  -2.002  -0.223  1.00  0.00     0.163 HD
BRANCH  88  90
ATOM     90  C   UNL     1       6.293  -2.079  -2.125  1.00  0.00     0.103 C 
ATOM     91  C   UNL     1       7.200  -0.872  -1.926  1.00  0.00     0.048 C 
ATOM     92  C   UNL     1       5.135  -1.489  -2.973  1.00  0.00     0.141 C 
ATOM     93  C   UNL     1       6.239   0.308  -1.817  1.00  0.00     0.119 C 
ATOM     94  N   UNL     1       5.099  -0.075  -2.635  1.00  0.00    -0.369 N 
BRANCH  94  95
ATOM     95  C   UNL     1       4.233   0.785  -3.267  1.00  0.00     0.038 A 
ATOM     96  C   UNL     1       4.691   1.948  -3.894  1.00  0.00     0.026 A 
ATOM     97  C   UNL     1       2.852   0.535  -3.312  1.00  0.00     0.046 A 
ATOM     98  C   UNL     1       3.815   2.841  -4.521  1.00  0.00     0.004 A 
ATOM     99  C   UNL     1       1.968   1.440  -3.909  1.00  0.00     0.043 A 
ATOM    100  C   UNL     1       2.446   2.596  -4.514  1.00  0.00     0.020 A 
ATOM    101  Cl  UNL     1       0.274   1.128  -3.889  1.00  0.00    -0.084 Cl
ENDBRANCH  94  95
ENDBRANCH  88  90
ENDBRANCH  82  86
ENDBRANCH  77  80
ENDBRANCH  75  76
ENDBRANCH   1  75
TORSDOF 16
