REMARK SMILES CCCc1c(C(=O)NCCCNC(=O)c2ccc(-c3c4nc(c(-c5c(F)cc(S(=O)(=O)[O-])cc5F)c5ccc([nH]5)c(-c5c(F)cc(S(=O)(=O)[O-])cc5F)c5nc(c(-c6c(F)cc(S(=O)(=O)[O-])cc6F)c6ccc3[nH]6)C=C5)C=C4)cc2)nnn1[C@@H](C)[C@H](C)O
REMARK SMILES IDX 10 1 9 2 8 3 6 4 7 5 5 7 4 8 83 9 81 10 82 11 3 12 2 13 1 14
REMARK SMILES IDX 84 15 85 16 86 17 87 18 88 19 11 21 12 22 13 23 14 25 15 26
REMARK SMILES IDX 16 27 80 28 17 29 79 30 18 31 19 32 20 33 73 34 21 35 78 36
REMARK SMILES IDX 72 37 74 38 22 39 77 40 71 41 70 42 23 44 57 45 36 46 56 47
REMARK SMILES IDX 37 48 40 49 55 50 75 51 38 52 39 53 54 55 76 56 41 57 24 58
REMARK SMILES IDX 25 59 34 60 26 61 27 62 33 63 35 64 28 65 29 66 30 67 31 68
REMARK SMILES IDX 32 69 58 70 59 71 68 72 60 73 61 74 67 75 69 76 62 77 63 78
REMARK SMILES IDX 64 79 65 80 66 81 42 82 43 83 52 84 44 85 45 86 51 87 53 88
REMARK SMILES IDX 46 89 47 90 48 91 49 92 50 93
REMARK H PARENT 8 6 88 20 12 24 74 43 40 54
REMARK Flexibility Score: inf
ROOT
ATOM      1  C   UNL     1       7.610   3.929   4.018  1.00  0.00     0.042 C 
ENDROOT
BRANCH   1   2
ATOM      2  C   UNL     1       7.339   2.474   4.319  1.00  0.00     0.118 C 
BRANCH   2   3
ATOM      3  N   UNL     1       7.186   2.006   5.662  1.00  0.00    -0.351 N 
ATOM      4  C   UNL     1       6.302   1.033   6.107  1.00  0.00     0.273 C 
ATOM      5  O   UNL     1       6.465   0.658   7.271  1.00  0.00    -0.267 OA
ATOM      6  H   UNL     1       7.768   2.417   6.341  1.00  0.00     0.163 HD
BRANCH   4   7
ATOM      7  C   UNL     1       5.173   0.516   5.294  1.00  0.00     0.173 A 
ATOM      8  C   UNL     1       4.893   0.346   3.919  1.00  0.00     0.072 A 
ATOM      9  N   UNL     1       3.549   0.034   3.935  1.00  0.00    -0.243 N 
ATOM     10  N   UNL     1       4.075   0.065   6.007  1.00  0.00    -0.125 NA
ATOM     11  N   UNL     1       3.111  -0.243   5.168  1.00  0.00    -0.066 NA
BRANCH   8  12
ATOM     12  C   UNL     1       5.694   0.579   2.660  1.00  0.00     0.058 C 
BRANCH  12  13
ATOM     13  C   UNL     1       5.722  -0.412   1.497  1.00  0.00     0.003 C 
ATOM     14  C   UNL     1       4.838  -0.065   0.300  1.00  0.00     0.004 C 
ENDBRANCH  12  13
ENDBRANCH   8  12
BRANCH   9  15
ATOM     15  C   UNL     1       2.626  -0.146   2.825  1.00  0.00     0.135 C 
ATOM     16  C   UNL     1       2.360  -1.639   2.643  1.00  0.00     0.036 C 
BRANCH  15  17
ATOM     17  C   UNL     1       1.369   0.746   2.932  1.00  0.00     0.135 C 
ATOM     18  C   UNL     1       0.273   0.347   1.947  1.00  0.00     0.040 C 
BRANCH  17  19
ATOM     19  O   UNL     1       1.729   2.108   2.639  1.00  0.00    -0.391 OA
ATOM     20  H   UNL     1       2.062   2.166   1.730  1.00  0.00     0.211 HD
ENDBRANCH  17  19
ENDBRANCH  15  17
ENDBRANCH   9  15
ENDBRANCH   4   7
ENDBRANCH   2   3
ENDBRANCH   1   2
BRANCH   1  21
ATOM     21  C   UNL     1       9.050   4.323   4.186  1.00  0.00     0.118 C 
BRANCH  21  22
ATOM     22  N   UNL     1       9.986   3.680   3.253  1.00  0.00    -0.352 N 
ATOM     23  C   UNL     1      11.343   3.983   3.096  1.00  0.00     0.251 C 
ATOM     24  H   UNL     1       9.623   2.965   2.683  1.00  0.00     0.163 HD
ATOM     25  O   UNL     1      11.988   3.585   2.163  1.00  0.00    -0.269 OA
BRANCH  23  26
ATOM     26  C   UNL     1      11.936   4.832   4.154  1.00  0.00     0.039 A 
ATOM     27  C   UNL     1      12.575   6.040   3.865  1.00  0.00     0.014 A 
ATOM     28  C   UNL     1      11.600   4.483   5.453  1.00  0.00     0.014 A 
ATOM     29  C   UNL     1      12.760   6.956   4.902  1.00  0.00     0.010 A 
ATOM     30  C   UNL     1      11.545   5.477   6.387  1.00  0.00     0.010 A 
ATOM     31  C   UNL     1      12.204   6.682   6.158  1.00  0.00    -0.014 A 
BRANCH  31  32
ATOM     32  C   UNL     1      12.219   7.646   7.255  1.00  0.00     0.031 A 
ATOM     33  C   UNL     1      11.577   8.967   6.979  1.00  0.00     0.074 A 
ATOM     34  C   UNL     1      12.503   7.241   8.515  1.00  0.00     0.049 A 
ATOM     35  N   UNL     1      12.117  10.143   6.976  1.00  0.00    -0.248 NA
ATOM     36  C   UNL     1      10.171   8.972   6.537  1.00  0.00     0.031 C 
ATOM     37  C   UNL     1      12.780   5.872   8.989  1.00  0.00     0.029 A 
ATOM     38  N   UNL     1      12.444   7.936   9.678  1.00  0.00    -0.354 N 
ATOM     39  C   UNL     1      11.076  11.050   6.763  1.00  0.00     0.074 A 
ATOM     40  C   UNL     1       9.962  10.268   6.296  1.00  0.00     0.031 C 
ATOM     41  C   UNL     1      12.576   5.801  10.319  1.00  0.00     0.029 A 
ATOM     42  C   UNL     1      12.377   7.144  10.819  1.00  0.00     0.049 A 
ATOM     43  H   UNL     1      12.449   8.920   9.712  1.00  0.00     0.167 HD
ATOM     44  C   UNL     1      11.135  12.335   7.219  1.00  0.00     0.037 A 
ATOM     45  C   UNL     1      12.143   7.561  12.086  1.00  0.00     0.037 A 
ATOM     46  C   UNL     1      12.478  12.677   7.615  1.00  0.00     0.049 A 
ATOM     47  C   UNL     1      12.418   9.020  12.111  1.00  0.00     0.074 A 
ATOM     48  C   UNL     1      13.700  12.728   6.975  1.00  0.00     0.029 A 
ATOM     49  N   UNL     1      12.758  12.672   8.961  1.00  0.00    -0.354 N 
ATOM     50  N   UNL     1      13.595   9.546  11.895  1.00  0.00    -0.248 NA
ATOM     51  C   UNL     1      11.292   9.921  11.925  1.00  0.00     0.031 C 
ATOM     52  C   UNL     1      14.638  12.256   7.940  1.00  0.00     0.029 A 
ATOM     53  C   UNL     1      13.949  12.015   9.131  1.00  0.00     0.049 A 
ATOM     54  H   UNL     1      12.204  13.067   9.673  1.00  0.00     0.167 HD
ATOM     55  C   UNL     1      13.345  10.696  11.158  1.00  0.00     0.074 A 
ATOM     56  C   UNL     1      11.909  10.924  11.293  1.00  0.00     0.031 C 
ATOM     57  C   UNL     1      14.267  11.190  10.279  1.00  0.00     0.037 A 
BRANCH  44  58
ATOM     58  C   UNL     1       9.948  13.173   7.659  1.00  0.00     0.058 A 
ATOM     59  C   UNL     1      10.148  14.532   7.994  1.00  0.00     0.135 A 
ATOM     60  C   UNL     1       8.694  12.642   8.034  1.00  0.00     0.135 A 
ATOM     61  F   UNL     1      11.299  15.151   7.686  1.00  0.00    -0.206 F 
ATOM     62  C   UNL     1       9.215  15.273   8.723  1.00  0.00     0.059 A 
ATOM     63  C   UNL     1       7.727  13.380   8.711  1.00  0.00     0.059 A 
ATOM     64  F   UNL     1       8.377  11.355   7.856  1.00  0.00    -0.206 F 
ATOM     65  C   UNL     1       8.014  14.680   9.094  1.00  0.00     0.060 A 
BRANCH  65  66
ATOM     66  S   UNL     1       6.859  15.587  10.136  1.00  0.00     0.124 S 
ATOM     67  O   UNL     1       7.573  15.611  11.407  1.00  0.00    -0.237 OA
ATOM     68  O   UNL     1       6.755  16.863   9.436  1.00  0.00    -0.237 OA
ATOM     69  O   UNL     1       5.656  14.760  10.101  1.00  0.00    -0.744 OA
ENDBRANCH  65  66
ENDBRANCH  44  58
BRANCH  45  70
ATOM     70  C   UNL     1      11.388   6.848  13.148  1.00  0.00     0.058 A 
ATOM     71  C   UNL     1      11.495   7.228  14.495  1.00  0.00     0.135 A 
ATOM     72  C   UNL     1      10.344   5.950  12.836  1.00  0.00     0.135 A 
ATOM     73  F   UNL     1      12.448   8.094  14.875  1.00  0.00    -0.206 F 
ATOM     74  C   UNL     1      10.596   6.782  15.469  1.00  0.00     0.059 A 
ATOM     75  C   UNL     1       9.442   5.483  13.791  1.00  0.00     0.059 A 
ATOM     76  F   UNL     1      10.118   5.569  11.569  1.00  0.00    -0.206 F 
ATOM     77  C   UNL     1       9.559   5.924  15.103  1.00  0.00     0.060 A 
BRANCH  77  78
ATOM     78  S   UNL     1       8.298   5.486  16.325  1.00  0.00     0.124 S 
ATOM     79  O   UNL     1       9.048   4.630  17.238  1.00  0.00    -0.237 OA
ATOM     80  O   UNL     1       7.912   6.792  16.849  1.00  0.00    -0.237 OA
ATOM     81  O   UNL     1       7.276   4.810  15.531  1.00  0.00    -0.744 OA
ENDBRANCH  77  78
ENDBRANCH  45  70
BRANCH  57  82
ATOM     82  C   UNL     1      15.682  10.674  10.340  1.00  0.00     0.058 A 
ATOM     83  C   UNL     1      16.071   9.370   9.986  1.00  0.00     0.135 A 
ATOM     84  C   UNL     1      16.706  11.608  10.557  1.00  0.00     0.135 A 
ATOM     85  F   UNL     1      15.160   8.440   9.673  1.00  0.00    -0.206 F 
ATOM     86  C   UNL     1      17.415   9.010   9.861  1.00  0.00     0.059 A 
ATOM     87  C   UNL     1      18.051  11.281  10.410  1.00  0.00     0.059 A 
ATOM     88  F   UNL     1      16.399  12.885  10.841  1.00  0.00    -0.206 F 
ATOM     89  C   UNL     1      18.399   9.978  10.063  1.00  0.00     0.060 A 
BRANCH  89  90
ATOM     90  S   UNL     1      20.130   9.550   9.772  1.00  0.00     0.124 S 
ATOM     91  O   UNL     1      20.436   8.710  10.925  1.00  0.00    -0.237 OA
ATOM     92  O   UNL     1      20.077   8.864   8.484  1.00  0.00    -0.237 OA
ATOM     93  O   UNL     1      20.802  10.847   9.748  1.00  0.00    -0.744 OA
ENDBRANCH  89  90
ENDBRANCH  57  82
ENDBRANCH  31  32
ENDBRANCH  23  26
ENDBRANCH  21  22
ENDBRANCH   1  21
TORSDOF 18
