REMARK SMILES Cc1ccc(C(F)(F)F)cc1-c1ccc(/C=C/C(=O)NCCCNC(=O)c2ccc(-c3c4nc(c(-c5c(F)cc(S(=O)(=O)[O-])cc5F)c5ccc([nH]5)c(-c5c(F)cc(S(=O)(=O)[O-])cc5F)c5nc(c(-c6c(F)cc(S(=O)(=O)[O-])cc6F)c6ccc3[nH]6)C=C5)C=C4)cc2)s1
REMARK SMILES IDX 22 1 21 2 20 3 18 4 19 5 17 7 16 8 15 9 12 10 13 11 93 12
REMARK SMILES IDX 14 13 11 14 1 15 2 16 3 17 4 18 10 19 5 20 6 21 7 22 8 23
REMARK SMILES IDX 9 24 23 25 24 26 25 27 26 29 27 30 28 31 92 32 29 33 91 34
REMARK SMILES IDX 30 35 31 36 32 37 85 38 33 39 90 40 84 41 86 42 34 43 89 44
REMARK SMILES IDX 83 45 82 46 35 48 69 49 48 50 68 51 49 52 52 53 67 54 87 55
REMARK SMILES IDX 50 56 51 57 66 59 88 60 53 61 36 62 37 63 46 64 38 65 39 66
REMARK SMILES IDX 45 67 47 68 40 69 41 70 42 71 43 72 44 73 70 74 71 75 80 76
REMARK SMILES IDX 72 77 73 78 79 79 81 80 74 81 75 82 76 83 77 84 78 85 54 86
REMARK SMILES IDX 55 87 64 88 56 89 57 90 63 91 65 92 58 93 59 94 60 95 61 96
REMARK SMILES IDX 62 97
REMARK H PARENT 20 6 24 28 86 47 52 58
REMARK Flexibility Score: inf
ROOT
ATOM      1  C   UNL     1       4.049   8.438  -0.419  1.00  0.00     0.042 C 
ENDROOT
BRANCH   1   2
ATOM      2  C   UNL     1       4.489   8.049   0.992  1.00  0.00     0.118 C 
BRANCH   2   3
ATOM      3  N   UNL     1       3.488   8.394   1.997  1.00  0.00    -0.352 N 
ATOM      4  C   UNL     1       2.512   7.634   2.569  1.00  0.00     0.244 C 
ATOM      5  O   UNL     1       1.866   8.070   3.519  1.00  0.00    -0.270 OA
ATOM      6  H   UNL     1       3.524   9.326   2.313  1.00  0.00     0.163 HD
BRANCH   4   7
ATOM      7  C   UNL     1       2.258   6.246   2.113  1.00  0.00     0.072 C 
ATOM      8  C   UNL     1       2.088   5.926   0.824  1.00  0.00     0.024 C 
BRANCH   8   9
ATOM      9  C   UNL     1       1.829   4.614   0.339  1.00  0.00     0.028 A 
ATOM     10  C   UNL     1       0.970   2.324  -0.096  1.00  0.00     0.035 A 
ATOM     11  C   UNL     1       1.752   2.790  -1.130  1.00  0.00     0.021 A 
ATOM     12  S   UNL     1       0.873   3.462   1.180  1.00  0.00    -0.136 S 
ATOM     13  C   UNL     1       2.239   4.102  -0.882  1.00  0.00     0.020 A 
BRANCH  10  14
ATOM     14  C   UNL     1       0.263   1.046   0.005  1.00  0.00    -0.005 A 
ATOM     15  C   UNL     1       2.448  -0.286   0.105  1.00  0.00     0.045 C 
ATOM     16  C   UNL     1       0.945  -0.184   0.085  1.00  0.00    -0.042 A 
ATOM     17  C   UNL     1       0.202  -1.376   0.103  1.00  0.00     0.005 A 
ATOM     18  C   UNL     1      -1.193  -1.354   0.071  1.00  0.00     0.013 A 
ATOM     19  C   UNL     1      -1.145   1.054  -0.025  1.00  0.00     0.023 A 
ATOM     20  C   UNL     1      -1.883  -0.137   0.013  1.00  0.00     0.056 A 
BRANCH  20  21
ATOM     21  C   UNL     1      -3.390  -0.123  -0.025  1.00  0.00     0.416 C 
ATOM     22  F   UNL     1      -3.886  -0.749  -1.130  1.00  0.00    -0.166 F 
ATOM     23  F   UNL     1      -3.944  -0.766   1.042  1.00  0.00    -0.166 F 
ATOM     24  F   UNL     1      -3.932   1.125  -0.031  1.00  0.00    -0.166 F 
ENDBRANCH  20  21
ENDBRANCH  10  14
ENDBRANCH   8   9
ENDBRANCH   4   7
ENDBRANCH   2   3
ENDBRANCH   1   2
BRANCH   1  25
ATOM     25  C   UNL     1       4.582   9.787  -0.883  1.00  0.00     0.118 C 
BRANCH  25  26
ATOM     26  N   UNL     1       5.348   9.677  -2.122  1.00  0.00    -0.352 N 
ATOM     27  C   UNL     1       5.682  10.691  -3.000  1.00  0.00     0.251 C 
ATOM     28  H   UNL     1       5.663   8.775  -2.360  1.00  0.00     0.163 HD
ATOM     29  O   UNL     1       6.214  10.491  -4.079  1.00  0.00    -0.269 OA
BRANCH  27  30
ATOM     30  C   UNL     1       5.447  12.061  -2.513  1.00  0.00     0.039 A 
ATOM     31  C   UNL     1       6.541  12.717  -1.940  1.00  0.00     0.014 A 
ATOM     32  C   UNL     1       4.137  12.478  -2.289  1.00  0.00     0.014 A 
ATOM     33  C   UNL     1       6.316  13.687  -0.972  1.00  0.00     0.010 A 
ATOM     34  C   UNL     1       3.917  13.394  -1.278  1.00  0.00     0.010 A 
ATOM     35  C   UNL     1       5.005  13.945  -0.578  1.00  0.00    -0.014 A 
BRANCH  35  36
ATOM     36  C   UNL     1       4.670  14.711   0.616  1.00  0.00     0.031 A 
ATOM     37  C   UNL     1       4.131  16.081   0.475  1.00  0.00     0.074 A 
ATOM     38  C   UNL     1       4.791  14.149   1.838  1.00  0.00     0.049 A 
ATOM     39  N   UNL     1       4.003  16.923   1.443  1.00  0.00    -0.248 NA
ATOM     40  C   UNL     1       3.786  16.646  -0.825  1.00  0.00     0.031 C 
ATOM     41  C   UNL     1       4.189  14.611   3.085  1.00  0.00     0.029 A 
ATOM     42  N   UNL     1       5.693  13.155   2.233  1.00  0.00    -0.354 N 
ATOM     43  C   UNL     1       3.312  18.013   0.965  1.00  0.00     0.074 A 
ATOM     44  C   UNL     1       3.326  17.847  -0.465  1.00  0.00     0.031 C 
ATOM     45  C   UNL     1       4.884  14.110   4.117  1.00  0.00     0.029 A 
ATOM     46  C   UNL     1       6.050  13.442   3.566  1.00  0.00     0.049 A 
ATOM     47  H   UNL     1       6.016  12.402   1.686  1.00  0.00     0.167 HD
ATOM     48  C   UNL     1       2.699  18.841   1.860  1.00  0.00     0.037 A 
ATOM     49  C   UNL     1       7.338  13.739   3.910  1.00  0.00     0.037 A 
ATOM     50  C   UNL     1       3.249  18.624   3.204  1.00  0.00     0.049 A 
ATOM     51  C   UNL     1       7.516  15.116   4.506  1.00  0.00     0.074 A 
ATOM     52  C   UNL     1       2.790  17.968   4.334  1.00  0.00     0.029 A 
ATOM     53  N   UNL     1       4.603  18.879   3.427  1.00  0.00    -0.354 N 
ATOM     54  N   UNL     1       6.640  16.078   4.404  1.00  0.00    -0.248 NA
ATOM     55  C   UNL     1       8.698  15.520   5.263  1.00  0.00     0.031 C 
ATOM     56  C   UNL     1       3.902  17.739   5.191  1.00  0.00     0.029 A 
ATOM     57  C   UNL     1       5.028  18.291   4.604  1.00  0.00     0.049 A 
ATOM     58  H   UNL     1       5.178  19.406   2.827  1.00  0.00     0.167 HD
ATOM     59  C   UNL     1       7.116  17.206   5.024  1.00  0.00     0.074 A 
ATOM     60  C   UNL     1       8.395  16.793   5.574  1.00  0.00     0.031 C 
ATOM     61  C   UNL     1       6.423  18.385   5.026  1.00  0.00     0.037 A 
BRANCH  48  62
ATOM     62  C   UNL     1       1.434  19.651   1.571  1.00  0.00     0.058 A 
ATOM     63  C   UNL     1       0.675  20.197   2.635  1.00  0.00     0.135 A 
ATOM     64  C   UNL     1       0.829  19.818   0.305  1.00  0.00     0.135 A 
ATOM     65  F   UNL     1       1.119  20.157   3.899  1.00  0.00    -0.206 F 
ATOM     66  C   UNL     1      -0.588  20.785   2.462  1.00  0.00     0.059 A 
ATOM     67  C   UNL     1      -0.424  20.404   0.106  1.00  0.00     0.059 A 
ATOM     68  F   UNL     1       1.398  19.416  -0.831  1.00  0.00    -0.206 F 
ATOM     69  C   UNL     1      -1.141  20.865   1.192  1.00  0.00     0.060 A 
BRANCH  69  70
ATOM     70  S   UNL     1      -2.788  21.557   0.962  1.00  0.00     0.124 S 
ATOM     71  O   UNL     1      -3.621  20.608   1.694  1.00  0.00    -0.237 OA
ATOM     72  O   UNL     1      -2.654  22.881   1.560  1.00  0.00    -0.237 OA
ATOM     73  O   UNL     1      -2.965  21.547  -0.488  1.00  0.00    -0.744 OA
ENDBRANCH  69  70
ENDBRANCH  48  62
BRANCH  49  74
ATOM     74  C   UNL     1       8.346  12.985   3.116  1.00  0.00     0.058 A 
ATOM     75  C   UNL     1       8.415  11.592   3.318  1.00  0.00     0.135 A 
ATOM     76  C   UNL     1       8.869  13.492   1.919  1.00  0.00     0.135 A 
ATOM     77  F   UNL     1       7.944  11.055   4.455  1.00  0.00    -0.206 F 
ATOM     78  C   UNL     1       8.820  10.726   2.309  1.00  0.00     0.059 A 
ATOM     79  C   UNL     1       9.289  12.639   0.894  1.00  0.00     0.059 A 
ATOM     80  F   UNL     1       8.837  14.810   1.673  1.00  0.00    -0.206 F 
ATOM     81  C   UNL     1       9.188  11.258   1.076  1.00  0.00     0.060 A 
BRANCH  81  82
ATOM     82  S   UNL     1       9.327  10.115  -0.320  1.00  0.00     0.124 S 
ATOM     83  O   UNL     1      10.441   9.269   0.090  1.00  0.00    -0.237 OA
ATOM     84  O   UNL     1       8.012   9.472  -0.310  1.00  0.00    -0.237 OA
ATOM     85  O   UNL     1       9.583  10.997  -1.452  1.00  0.00    -0.744 OA
ENDBRANCH  81  82
ENDBRANCH  49  74
BRANCH  61  86
ATOM     86  C   UNL     1       6.958  19.723   5.496  1.00  0.00     0.058 A 
ATOM     87  C   UNL     1       8.315  20.093   5.458  1.00  0.00     0.135 A 
ATOM     88  C   UNL     1       6.065  20.752   5.887  1.00  0.00     0.135 A 
ATOM     89  F   UNL     1       9.253  19.258   4.990  1.00  0.00    -0.206 F 
ATOM     90  C   UNL     1       8.762  21.358   5.851  1.00  0.00     0.059 A 
ATOM     91  C   UNL     1       6.484  22.037   6.226  1.00  0.00     0.059 A 
ATOM     92  F   UNL     1       4.740  20.545   5.939  1.00  0.00    -0.206 F 
ATOM     93  C   UNL     1       7.840  22.325   6.233  1.00  0.00     0.060 A 
BRANCH  93  94
ATOM     94  S   UNL     1       8.398  23.983   6.671  1.00  0.00     0.124 S 
ATOM     95  O   UNL     1       8.531  23.872   8.120  1.00  0.00    -0.237 OA
ATOM     96  O   UNL     1       9.650  24.113   5.932  1.00  0.00    -0.237 OA
ATOM     97  O   UNL     1       7.310  24.833   6.197  1.00  0.00    -0.744 OA
ENDBRANCH  93  94
ENDBRANCH  61  86
ENDBRANCH  35  36
ENDBRANCH  27  30
ENDBRANCH  25  26
ENDBRANCH   1  25
TORSDOF 16
