REMARK SMILES O=C(NCCCNC(=O)[C@H]1CCCN1C(=S)Nc1ccccc1)c1ccc(-c2c3nc(c(-c4c(F)cc(S(=O)(=O)[O-])cc4F)c4ccc([nH]4)c(-c4c(F)cc(S(=O)(=O)[O-])cc4F)c4nc(c(-c5c(F)cc(S(=O)(=O)[O-])cc5F)c5ccc2[nH]5)C=C4)C=C3)cc1
REMARK SMILES IDX 5 1 4 2 3 3 1 4 2 5 24 7 25 8 89 9 26 10 88 11 27 12 28 13
REMARK SMILES IDX 29 14 82 15 30 16 87 17 81 18 83 19 31 20 86 21 80 22 79 23
REMARK SMILES IDX 32 25 66 26 45 27 65 28 46 29 49 30 64 31 84 32 47 33 48 34
REMARK SMILES IDX 63 36 85 37 50 38 33 39 34 40 43 41 35 42 36 43 42 44 44 45
REMARK SMILES IDX 37 46 38 47 39 48 40 49 41 50 67 51 68 52 77 53 69 54 70 55
REMARK SMILES IDX 76 56 78 57 71 58 72 59 73 60 74 61 75 62 51 63 52 64 61 65
REMARK SMILES IDX 53 66 54 67 60 68 62 69 55 70 56 71 57 72 58 73 59 74 6 75
REMARK SMILES IDX 7 76 8 77 9 79 10 80 11 81 14 82 12 83 13 84 15 85 16 86
REMARK SMILES IDX 17 87 18 89 19 90 23 91 20 92 22 93 21 94
REMARK H PARENT 3 6 83 24 49 35 7 78 17 88
REMARK Flexibility Score: inf
ROOT
ATOM      1  C   UNL     1       6.552  -4.032   0.669  1.00  0.00     0.042 C 
ENDROOT
BRANCH   1   2
ATOM      2  C   UNL     1       7.590  -3.925   1.772  1.00  0.00     0.118 C 
BRANCH   2   3
ATOM      3  N   UNL     1       7.915  -2.538   2.096  1.00  0.00    -0.352 N 
ATOM      4  O   UNL     1       7.984  -0.668   3.349  1.00  0.00    -0.269 OA
ATOM      5  C   UNL     1       7.848  -1.881   3.305  1.00  0.00     0.251 C 
ATOM      6  H   UNL     1       8.229  -1.993   1.339  1.00  0.00     0.163 HD
BRANCH   5   7
ATOM      7  C   UNL     1       7.584  -2.658   4.536  1.00  0.00     0.039 A 
ATOM      8  C   UNL     1       8.199  -3.893   4.731  1.00  0.00     0.014 A 
ATOM      9  C   UNL     1       6.693  -2.158   5.490  1.00  0.00     0.014 A 
ATOM     10  C   UNL     1       7.778  -4.713   5.767  1.00  0.00     0.010 A 
ATOM     11  C   UNL     1       6.361  -2.939   6.601  1.00  0.00     0.010 A 
ATOM     12  C   UNL     1       6.865  -4.242   6.724  1.00  0.00    -0.014 A 
BRANCH  12  13
ATOM     13  C   UNL     1       6.496  -5.135   7.853  1.00  0.00     0.031 A 
ATOM     14  C   UNL     1       5.079  -5.598   8.052  1.00  0.00     0.074 A 
ATOM     15  C   UNL     1       7.478  -5.580   8.664  1.00  0.00     0.049 A 
ATOM     16  N   UNL     1       4.603  -6.419   8.954  1.00  0.00    -0.248 NA
ATOM     17  C   UNL     1       4.060  -5.067   7.133  1.00  0.00     0.031 C 
ATOM     18  C   UNL     1       8.888  -5.185   8.571  1.00  0.00     0.029 A 
ATOM     19  N   UNL     1       7.457  -6.485   9.692  1.00  0.00    -0.354 N 
ATOM     20  C   UNL     1       3.230  -6.474   8.737  1.00  0.00     0.074 A 
ATOM     21  C   UNL     1       2.946  -5.593   7.625  1.00  0.00     0.031 C 
ATOM     22  C   UNL     1       9.605  -5.902   9.447  1.00  0.00     0.029 A 
ATOM     23  C   UNL     1       8.701  -6.751  10.213  1.00  0.00     0.049 A 
ATOM     24  H   UNL     1       6.631  -6.905  10.025  1.00  0.00     0.167 HD
ATOM     25  C   UNL     1       2.297  -7.198   9.403  1.00  0.00     0.037 A 
ATOM     26  C   UNL     1       9.076  -7.581  11.204  1.00  0.00     0.037 A 
ATOM     27  C   UNL     1       2.599  -8.103  10.483  1.00  0.00     0.049 A 
ATOM     28  C   UNL     1       8.027  -8.390  11.905  1.00  0.00     0.074 A 
ATOM     29  C   UNL     1       1.731  -8.909  11.200  1.00  0.00     0.029 A 
ATOM     30  N   UNL     1       3.868  -8.329  10.997  1.00  0.00    -0.354 N 
ATOM     31  N   UNL     1       6.735  -8.435  11.678  1.00  0.00    -0.248 NA
ATOM     32  C   UNL     1       8.480  -9.256  12.999  1.00  0.00     0.031 C 
ATOM     33  C   UNL     1       2.471  -9.596  12.170  1.00  0.00     0.029 A 
ATOM     34  C   UNL     1       3.805  -9.251  12.030  1.00  0.00     0.049 A 
ATOM     35  H   UNL     1       4.693  -7.898  10.676  1.00  0.00     0.167 HD
ATOM     36  C   UNL     1       6.223  -9.345  12.593  1.00  0.00     0.074 A 
ATOM     37  C   UNL     1       7.347  -9.840  13.363  1.00  0.00     0.031 C 
ATOM     38  C   UNL     1       4.937  -9.732  12.781  1.00  0.00     0.037 A 
BRANCH  25  39
ATOM     39  C   UNL     1       0.857  -7.023   9.002  1.00  0.00     0.058 A 
ATOM     40  C   UNL     1       0.348  -7.548   7.804  1.00  0.00     0.135 A 
ATOM     41  C   UNL     1      -0.036  -6.349   9.851  1.00  0.00     0.135 A 
ATOM     42  F   UNL     1       1.160  -8.188   6.948  1.00  0.00    -0.206 F 
ATOM     43  C   UNL     1      -0.989  -7.388   7.449  1.00  0.00     0.059 A 
ATOM     44  C   UNL     1      -1.382  -6.198   9.528  1.00  0.00     0.059 A 
ATOM     45  F   UNL     1       0.396  -5.828  11.010  1.00  0.00    -0.206 F 
ATOM     46  C   UNL     1      -1.846  -6.708   8.316  1.00  0.00     0.060 A 
BRANCH  46  47
ATOM     47  S   UNL     1      -3.578  -6.508   7.846  1.00  0.00     0.124 S 
ATOM     48  O   UNL     1      -3.485  -5.459   6.835  1.00  0.00    -0.237 OA
ATOM     49  O   UNL     1      -3.926  -7.836   7.351  1.00  0.00    -0.237 OA
ATOM     50  O   UNL     1      -4.226  -6.119   9.095  1.00  0.00    -0.744 OA
ENDBRANCH  46  47
ENDBRANCH  25  39
BRANCH  26  51
ATOM     51  C   UNL     1      10.511  -7.684  11.575  1.00  0.00     0.058 A 
ATOM     52  C   UNL     1      11.250  -8.840  11.289  1.00  0.00     0.135 A 
ATOM     53  C   UNL     1      11.181  -6.613  12.187  1.00  0.00     0.135 A 
ATOM     54  F   UNL     1      10.653  -9.891  10.705  1.00  0.00    -0.206 F 
ATOM     55  C   UNL     1      12.601  -8.937  11.605  1.00  0.00     0.059 A 
ATOM     56  C   UNL     1      12.537  -6.675  12.488  1.00  0.00     0.059 A 
ATOM     57  F   UNL     1      10.522  -5.476  12.461  1.00  0.00    -0.206 F 
ATOM     58  C   UNL     1      13.236  -7.846  12.202  1.00  0.00     0.060 A 
BRANCH  58  59
ATOM     59  S   UNL     1      15.004  -7.954  12.556  1.00  0.00     0.124 S 
ATOM     60  O   UNL     1      15.012  -8.790  13.751  1.00  0.00    -0.237 OA
ATOM     61  O   UNL     1      15.526  -8.572  11.341  1.00  0.00    -0.237 OA
ATOM     62  O   UNL     1      15.390  -6.561  12.755  1.00  0.00    -0.744 OA
ENDBRANCH  58  59
ENDBRANCH  26  51
BRANCH  38  63
ATOM     63  C   UNL     1       4.691 -10.766  13.842  1.00  0.00     0.058 A 
ATOM     64  C   UNL     1       4.756 -10.449  15.208  1.00  0.00     0.135 A 
ATOM     65  C   UNL     1       4.370 -12.085  13.486  1.00  0.00     0.135 A 
ATOM     66  F   UNL     1       5.067  -9.203  15.599  1.00  0.00    -0.206 F 
ATOM     67  C   UNL     1       4.543 -11.414  16.186  1.00  0.00     0.059 A 
ATOM     68  C   UNL     1       4.129 -13.060  14.448  1.00  0.00     0.059 A 
ATOM     69  F   UNL     1       4.286 -12.435  12.193  1.00  0.00    -0.206 F 
ATOM     70  C   UNL     1       4.235 -12.719  15.796  1.00  0.00     0.060 A 
BRANCH  70  71
ATOM     71  S   UNL     1       3.952 -13.964  17.072  1.00  0.00     0.124 S 
ATOM     72  O   UNL     1       5.316 -14.272  17.487  1.00  0.00    -0.237 OA
ATOM     73  O   UNL     1       3.142 -13.239  18.046  1.00  0.00    -0.237 OA
ATOM     74  O   UNL     1       3.256 -15.029  16.356  1.00  0.00    -0.744 OA
ENDBRANCH  70  71
ENDBRANCH  38  63
ENDBRANCH  12  13
ENDBRANCH   5   7
ENDBRANCH   2   3
ENDBRANCH   1   2
BRANCH   1  75
ATOM     75  C   UNL     1       7.109  -3.601  -0.673  1.00  0.00     0.117 C 
BRANCH  75  76
ATOM     76  N   UNL     1       7.949  -4.608  -1.262  1.00  0.00    -0.354 N 
ATOM     77  C   UNL     1       7.687  -5.433  -2.310  1.00  0.00     0.242 C 
ATOM     78  H   UNL     1       8.837  -4.715  -0.850  1.00  0.00     0.163 HD
ATOM     79  O   UNL     1       8.640  -6.122  -2.696  1.00  0.00    -0.273 OA
BRANCH  77  80
ATOM     80  C   UNL     1       6.340  -5.375  -3.102  1.00  0.00     0.173 C 
ATOM     81  C   UNL     1       6.311  -6.530  -4.111  1.00  0.00     0.037 C 
ATOM     82  N   UNL     1       5.065  -5.614  -2.378  1.00  0.00    -0.337 N 
ATOM     83  C   UNL     1       5.883  -7.702  -3.236  1.00  0.00     0.024 C 
ATOM     84  C   UNL     1       4.905  -7.074  -2.249  1.00  0.00     0.120 C 
BRANCH  82  85
ATOM     85  C   UNL     1       4.082  -4.758  -1.934  1.00  0.00     0.174 C 
ATOM     86  S   UNL     1       2.848  -5.230  -0.878  1.00  0.00    -0.041 S 
BRANCH  85  87
ATOM     87  N   UNL     1       4.066  -3.426  -2.194  1.00  0.00    -0.333 N 
ATOM     88  H   UNL     1       3.499  -2.922  -1.566  1.00  0.00     0.169 HD
BRANCH  87  89
ATOM     89  C   UNL     1       4.673  -2.607  -3.152  1.00  0.00     0.040 A 
ATOM     90  C   UNL     1       5.194  -1.387  -2.703  1.00  0.00     0.026 A 
ATOM     91  C   UNL     1       4.798  -2.964  -4.491  1.00  0.00     0.026 A 
ATOM     92  C   UNL     1       5.990  -0.616  -3.547  1.00  0.00     0.002 A 
ATOM     93  C   UNL     1       5.569  -2.173  -5.346  1.00  0.00     0.002 A 
ATOM     94  C   UNL     1       6.193  -1.020  -4.864  1.00  0.00     0.000 A 
ENDBRANCH  87  89
ENDBRANCH  85  87
ENDBRANCH  82  85
ENDBRANCH  77  80
ENDBRANCH  75  76
ENDBRANCH   1  75
TORSDOF 16
