REMARK SMILES O=C(CCCNC(=O)COc1ccc2c3c(c(=O)oc2c1)CCC3)NCCCNC(=O)c1ccc(-c2c3nc(c(-c4c(F)cc(S(=O)(=O)[O-])cc4F)c4ccc([nH]4)c(-c4c(F)cc(S(=O)(=O)[O-])cc4F)c4nc(c(-c5c(F)cc(S(=O)(=O)[O-])cc5F)c5ccc2[nH]5)C=C4)C=C3)cc1
REMARK SMILES IDX 1 1 2 2 25 3 3 5 4 6 5 7 6 8 7 9 8 11 9 12 10 13 11 14 12 15
REMARK SMILES IDX 21 16 13 17 20 18 14 19 19 20 15 21 17 22 16 23 24 24 18 25
REMARK SMILES IDX 22 26 23 27 26 28 27 29 28 30 29 31 30 32 31 34 32 35 33 36
REMARK SMILES IDX 97 37 34 38 96 39 35 40 36 41 37 42 90 43 38 44 95 45 89 46
REMARK SMILES IDX 91 47 39 48 94 49 88 50 87 51 40 53 74 54 53 55 73 56 54 57
REMARK SMILES IDX 57 58 72 59 92 60 55 61 56 62 71 64 93 65 58 66 41 67 42 68
REMARK SMILES IDX 51 69 43 70 44 71 50 72 52 73 45 74 46 75 47 76 48 77 49 78
REMARK SMILES IDX 75 79 76 80 85 81 77 82 78 83 84 84 86 85 79 86 80 87 81 88
REMARK SMILES IDX 82 89 83 90 59 91 60 92 69 93 61 94 62 95 68 96 70 97 63 98
REMARK SMILES IDX 64 99 65 100 66 101 67 102
REMARK H PARENT 25 4 6 10 29 33 91 52 57 63
REMARK Flexibility Score: inf
ROOT
ATOM      1  O   UNL     1       0.974  -0.418  -0.466  1.00  0.00    -0.275 OA
ATOM      2  C   UNL     1       2.128  -0.125  -0.177  1.00  0.00     0.220 C 
ATOM      3  N   UNL     1       2.721   1.075  -0.490  1.00  0.00    -0.356 N 
ATOM      4  H   UNL     1       3.634   1.244  -0.164  1.00  0.00     0.163 HD
ENDROOT
BRANCH   2   5
ATOM      5  C   UNL     1       3.058  -1.091   0.528  1.00  0.00     0.102 C 
BRANCH   5   6
ATOM      6  C   UNL     1       3.949  -1.859  -0.452  1.00  0.00     0.031 C 
BRANCH   6   7
ATOM      7  C   UNL     1       4.963  -1.012  -1.226  1.00  0.00     0.116 C 
BRANCH   7   8
ATOM      8  N   UNL     1       5.853  -0.268  -0.355  1.00  0.00    -0.353 N 
ATOM      9  C   UNL     1       7.213  -0.305  -0.279  1.00  0.00     0.257 C 
ATOM     10  H   UNL     1       5.412   0.352   0.270  1.00  0.00     0.163 HD
ATOM     11  O   UNL     1       7.763   0.511   0.463  1.00  0.00    -0.271 OA
BRANCH   9  12
ATOM     12  C   UNL     1       8.018  -1.330  -1.080  1.00  0.00     0.329 C 
BRANCH  12  13
ATOM     13  O   UNL     1       7.566  -2.674  -1.148  1.00  0.00    -0.484 OA
BRANCH  13  14
ATOM     14  C   UNL     1       7.661  -3.434  -0.017  1.00  0.00     0.123 A 
ATOM     15  C   UNL     1       7.821  -4.807  -0.241  1.00  0.00     0.047 A 
ATOM     16  C   UNL     1       7.530  -2.969   1.287  1.00  0.00     0.094 A 
ATOM     17  C   UNL     1       7.865  -5.712   0.827  1.00  0.00     0.016 A 
ATOM     18  C   UNL     1       7.553  -3.880   2.340  1.00  0.00     0.142 A 
ATOM     19  C   UNL     1       7.721  -5.251   2.134  1.00  0.00     0.021 A 
ATOM     20  O   UNL     1       7.374  -3.345   3.640  1.00  0.00    -0.422 OA
ATOM     21  C   UNL     1       7.728  -6.102   3.304  1.00  0.00    -0.027 A 
ATOM     22  C   UNL     1       7.368  -4.151   4.775  1.00  0.00     0.339 A 
ATOM     23  C   UNL     1       7.571  -5.580   4.523  1.00  0.00     0.042 A 
ATOM     24  C   UNL     1       7.899  -7.579   3.353  1.00  0.00     0.037 C 
ATOM     25  O   UNL     1       7.198  -3.709   5.901  1.00  0.00    -0.246 OA
ATOM     26  C   UNL     1       7.617  -6.607   5.593  1.00  0.00     0.044 C 
ATOM     27  C   UNL     1       7.465  -7.903   4.790  1.00  0.00     0.010 C 
ENDBRANCH  13  14
ENDBRANCH  12  13
ENDBRANCH   9  12
ENDBRANCH   7   8
ENDBRANCH   6   7
ENDBRANCH   5   6
ENDBRANCH   2   5
BRANCH   3  28
ATOM     28  C   UNL     1       2.070   2.103  -1.276  1.00  0.00     0.117 C 
BRANCH  28  29
ATOM     29  C   UNL     1       2.402   3.502  -0.774  1.00  0.00     0.042 C 
BRANCH  29  30
ATOM     30  C   UNL     1       3.883   3.871  -0.810  1.00  0.00     0.118 C 
BRANCH  30  31
ATOM     31  N   UNL     1       4.432   3.931  -2.155  1.00  0.00    -0.352 N 
ATOM     32  C   UNL     1       5.155   4.929  -2.764  1.00  0.00     0.251 C 
ATOM     33  H   UNL     1       4.260   3.138  -2.712  1.00  0.00     0.163 HD
ATOM     34  O   UNL     1       5.408   4.833  -3.963  1.00  0.00    -0.269 OA
BRANCH  32  35
ATOM     35  C   UNL     1       5.605   6.121  -2.005  1.00  0.00     0.039 A 
ATOM     36  C   UNL     1       5.542   7.371  -2.628  1.00  0.00     0.014 A 
ATOM     37  C   UNL     1       6.118   6.021  -0.709  1.00  0.00     0.014 A 
ATOM     38  C   UNL     1       5.954   8.516  -1.939  1.00  0.00     0.010 A 
ATOM     39  C   UNL     1       6.445   7.173   0.007  1.00  0.00     0.010 A 
ATOM     40  C   UNL     1       6.389   8.433  -0.606  1.00  0.00    -0.014 A 
BRANCH  40  41
ATOM     41  C   UNL     1       6.824   9.651   0.132  1.00  0.00     0.031 A 
ATOM     42  C   UNL     1       8.248   9.782   0.613  1.00  0.00     0.074 A 
ATOM     43  C   UNL     1       5.937  10.634   0.390  1.00  0.00     0.049 A 
ATOM     44  N   UNL     1       8.814  10.767   1.263  1.00  0.00    -0.248 NA
ATOM     45  C   UNL     1       9.148   8.648   0.349  1.00  0.00     0.031 C 
ATOM     46  C   UNL     1       4.519  10.611   0.026  1.00  0.00     0.029 A 
ATOM     47  N   UNL     1       6.097  11.846   1.016  1.00  0.00    -0.354 N 
ATOM     48  C   UNL     1      10.127  10.369   1.491  1.00  0.00     0.074 A 
ATOM     49  C   UNL     1      10.256   9.027   0.969  1.00  0.00     0.031 C 
ATOM     50  C   UNL     1       3.947  11.766   0.405  1.00  0.00     0.029 A 
ATOM     51  C   UNL     1       4.946  12.599   1.068  1.00  0.00     0.049 A 
ATOM     52  H   UNL     1       6.955  12.149   1.393  1.00  0.00     0.167 HD
ATOM     53  C   UNL     1      11.143  11.066   2.057  1.00  0.00     0.037 A 
ATOM     54  C   UNL     1       4.720  13.822   1.587  1.00  0.00     0.037 A 
ATOM     55  C   UNL     1      11.016  12.410   2.559  1.00  0.00     0.049 A 
ATOM     56  C   UNL     1       5.865  14.580   2.207  1.00  0.00     0.074 A 
ATOM     57  C   UNL     1      11.996  13.219   3.108  1.00  0.00     0.029 A 
ATOM     58  N   UNL     1       9.839  13.143   2.577  1.00  0.00    -0.354 N 
ATOM     59  N   UNL     1       7.115  14.211   2.356  1.00  0.00    -0.248 NA
ATOM     60  C   UNL     1       5.572  15.927   2.715  1.00  0.00     0.031 C 
ATOM     61  C   UNL     1      11.401  14.421   3.504  1.00  0.00     0.029 A 
ATOM     62  C   UNL     1      10.064  14.388   3.142  1.00  0.00     0.049 A 
ATOM     63  H   UNL     1       8.971  12.826   2.238  1.00  0.00     0.167 HD
ATOM     64  C   UNL     1       7.766  15.296   2.936  1.00  0.00     0.074 A 
ATOM     65  C   UNL     1       6.771  16.336   3.103  1.00  0.00     0.031 C 
ATOM     66  C   UNL     1       9.069  15.421   3.292  1.00  0.00     0.037 A 
BRANCH  53  67
ATOM     67  C   UNL     1      12.484  10.387   2.159  1.00  0.00     0.058 A 
ATOM     68  C   UNL     1      13.257  10.100   1.021  1.00  0.00     0.135 A 
ATOM     69  C   UNL     1      13.021  10.049   3.412  1.00  0.00     0.135 A 
ATOM     70  F   UNL     1      12.789  10.387  -0.204  1.00  0.00    -0.206 F 
ATOM     71  C   UNL     1      14.495   9.474   1.119  1.00  0.00     0.059 A 
ATOM     72  C   UNL     1      14.273   9.452   3.536  1.00  0.00     0.059 A 
ATOM     73  F   UNL     1      12.329  10.300   4.535  1.00  0.00    -0.206 F 
ATOM     74  C   UNL     1      14.996   9.155   2.382  1.00  0.00     0.060 A 
BRANCH  74  75
ATOM     75  S   UNL     1      16.608   8.351   2.490  1.00  0.00     0.124 S 
ATOM     76  O   UNL     1      16.303   7.015   1.987  1.00  0.00    -0.237 OA
ATOM     77  O   UNL     1      17.431   9.183   1.618  1.00  0.00    -0.237 OA
ATOM     78  O   UNL     1      16.932   8.426   3.911  1.00  0.00    -0.744 OA
ENDBRANCH  74  75
ENDBRANCH  53  67
BRANCH  54  79
ATOM     79  C   UNL     1       3.360  14.424   1.513  1.00  0.00     0.058 A 
ATOM     80  C   UNL     1       3.101  15.532   0.692  1.00  0.00     0.135 A 
ATOM     81  C   UNL     1       2.292  13.903   2.261  1.00  0.00     0.135 A 
ATOM     82  F   UNL     1       4.089  16.072  -0.038  1.00  0.00    -0.206 F 
ATOM     83  C   UNL     1       1.839  16.116   0.631  1.00  0.00     0.059 A 
ATOM     84  C   UNL     1       1.015  14.451   2.193  1.00  0.00     0.059 A 
ATOM     85  F   UNL     1       2.481  12.834   3.049  1.00  0.00    -0.206 F 
ATOM     86  C   UNL     1       0.801  15.566   1.384  1.00  0.00     0.060 A 
BRANCH  86  87
ATOM     87  S   UNL     1      -0.842  16.307   1.265  1.00  0.00     0.124 S 
ATOM     88  O   UNL     1      -0.653  17.560   1.986  1.00  0.00    -0.237 OA
ATOM     89  O   UNL     1      -1.021  16.421  -0.179  1.00  0.00    -0.237 OA
ATOM     90  O   UNL     1      -1.701  15.325   1.920  1.00  0.00    -0.744 OA
ENDBRANCH  86  87
ENDBRANCH  54  79
BRANCH  66  91
ATOM     91  C   UNL     1       9.513  16.751   3.842  1.00  0.00     0.058 A 
ATOM     92  C   UNL     1       9.111  17.211   5.106  1.00  0.00     0.135 A 
ATOM     93  C   UNL     1      10.381  17.567   3.097  1.00  0.00     0.135 A 
ATOM     94  F   UNL     1       8.281  16.473   5.861  1.00  0.00    -0.206 F 
ATOM     95  C   UNL     1       9.518  18.450   5.593  1.00  0.00     0.059 A 
ATOM     96  C   UNL     1      10.828  18.794   3.579  1.00  0.00     0.059 A 
ATOM     97  F   UNL     1      10.811  17.172   1.888  1.00  0.00    -0.206 F 
ATOM     98  C   UNL     1      10.374  19.235   4.820  1.00  0.00     0.060 A 
BRANCH  98  99
ATOM     99  S   UNL     1      10.897  20.839   5.463  1.00  0.00     0.124 S 
ATOM    100  O   UNL     1       9.680  21.628   5.308  1.00  0.00    -0.237 OA
ATOM    101  O   UNL     1      11.274  20.518   6.836  1.00  0.00    -0.237 OA
ATOM    102  O   UNL     1      12.003  21.213   4.586  1.00  0.00    -0.744 OA
ENDBRANCH  98  99
ENDBRANCH  66  91
ENDBRANCH  40  41
ENDBRANCH  32  35
ENDBRANCH  30  31
ENDBRANCH  29  30
ENDBRANCH  28  29
ENDBRANCH   3  28
TORSDOF 19
