REMARK SMILES C[C@@](NC(=O)[C@H]1COc2ccccc21)(C(=O)NCCCNC(=O)c1ccc(-c2c3nc(c(-c4c(F)cc(S(=O)(=O)[O-])cc4F)c4ccc([nH]4)c(-c4c(F)cc(S(=O)(=O)[O-])cc4F)c4nc(c(-c5c(F)cc(S(=O)(=O)[O-])cc5F)c5ccc2[nH]5)C=C4)C=C3)cc1)C(F)(F)F
REMARK SMILES IDX 19 1 18 2 17 3 15 4 16 5 2 7 1 8 3 9 4 10 5 12 6 13 7 14
REMARK SMILES IDX 14 15 8 16 9 17 13 18 10 19 12 20 11 21 90 22 91 23 92 24
REMARK SMILES IDX 93 25 20 26 21 27 22 28 23 30 24 31 25 32 89 33 26 34 88 35
REMARK SMILES IDX 27 36 28 37 29 38 82 39 30 40 87 41 81 42 83 43 31 44 86 45
REMARK SMILES IDX 80 46 79 47 32 49 66 50 45 51 65 52 46 53 49 54 64 55 84 56
REMARK SMILES IDX 47 57 48 58 63 60 85 61 50 62 33 63 34 64 43 65 35 66 36 67
REMARK SMILES IDX 42 68 44 69 37 70 38 71 39 72 40 73 41 74 67 75 68 76 77 77
REMARK SMILES IDX 69 78 70 79 76 80 78 81 71 82 72 83 73 84 74 85 75 86 51 87
REMARK SMILES IDX 52 88 61 89 53 90 54 91 60 92 62 93 55 94 56 95 57 96 58 97
REMARK SMILES IDX 59 98
REMARK H PARENT 17 6 3 11 21 29 83 48 49 59
REMARK Flexibility Score: inf
ROOT
ATOM      1  C   UNL     1      -0.599  -1.546   3.147  1.00  0.00     0.042 C 
ENDROOT
BRANCH   1   2
ATOM      2  C   UNL     1      -0.358  -1.575   1.646  1.00  0.00     0.117 C 
BRANCH   2   3
ATOM      3  N   UNL     1      -0.719  -0.327   0.990  1.00  0.00    -0.354 N 
ATOM      4  C   UNL     1      -0.306   0.179  -0.217  1.00  0.00     0.254 C 
ATOM      5  O   UNL     1      -0.705   1.306  -0.518  1.00  0.00    -0.272 OA
ATOM      6  H   UNL     1      -1.354   0.239   1.486  1.00  0.00     0.163 HD
BRANCH   4   7
ATOM      7  C   UNL     1       0.773  -0.537  -1.034  1.00  0.00     0.212 C 
ATOM      8  C   UNL     1       2.109  -0.167  -0.332  1.00  0.00     0.056 C 
BRANCH   7   9
ATOM      9  N   UNL     1       0.658  -2.029  -1.043  1.00  0.00    -0.334 N 
ATOM     10  C   UNL     1      -0.209  -2.921  -1.570  1.00  0.00     0.232 C 
ATOM     11  H   UNL     1       1.388  -2.465  -0.546  1.00  0.00     0.164 HD
ATOM     12  O   UNL     1       0.338  -4.013  -1.802  1.00  0.00    -0.274 OA
BRANCH  10  13
ATOM     13  C   UNL     1      -1.680  -2.756  -1.940  1.00  0.00     0.150 C 
ATOM     14  C   UNL     1      -2.403  -4.026  -1.409  1.00  0.00     0.248 C 
ATOM     15  C   UNL     1      -2.595  -1.769  -1.302  1.00  0.00     0.010 A 
ATOM     16  O   UNL     1      -3.006  -3.707  -0.128  1.00  0.00    -0.492 OA
ATOM     17  C   UNL     1      -3.305  -2.379  -0.275  1.00  0.00     0.123 A 
ATOM     18  C   UNL     1      -2.923  -0.473  -1.664  1.00  0.00     0.008 A 
ATOM     19  C   UNL     1      -4.249  -1.720   0.488  1.00  0.00     0.047 A 
ATOM     20  C   UNL     1      -3.870   0.225  -0.900  1.00  0.00     0.001 A 
ATOM     21  C   UNL     1      -4.519  -0.389   0.181  1.00  0.00     0.004 A 
ENDBRANCH  10  13
ENDBRANCH   7   9
BRANCH   7  22
ATOM     22  C   UNL     1       0.851   0.044  -2.458  1.00  0.00     0.420 C 
ATOM     23  F   UNL     1       1.073   1.374  -2.500  1.00  0.00    -0.168 F 
ATOM     24  F   UNL     1       1.895  -0.530  -3.124  1.00  0.00    -0.168 F 
ATOM     25  F   UNL     1      -0.251  -0.227  -3.192  1.00  0.00    -0.168 F 
ENDBRANCH   7  22
ENDBRANCH   4   7
ENDBRANCH   2   3
ENDBRANCH   1   2
BRANCH   1  26
ATOM     26  C   UNL     1      -2.066  -1.658   3.532  1.00  0.00     0.118 C 
BRANCH  26  27
ATOM     27  N   UNL     1      -2.658  -2.950   3.215  1.00  0.00    -0.352 N 
ATOM     28  C   UNL     1      -3.693  -3.585   3.861  1.00  0.00     0.251 C 
ATOM     29  H   UNL     1      -2.270  -3.426   2.446  1.00  0.00     0.163 HD
ATOM     30  O   UNL     1      -4.048  -4.710   3.526  1.00  0.00    -0.269 OA
BRANCH  28  31
ATOM     31  C   UNL     1      -4.349  -2.905   4.995  1.00  0.00     0.039 A 
ATOM     32  C   UNL     1      -4.446  -3.581   6.211  1.00  0.00     0.014 A 
ATOM     33  C   UNL     1      -4.801  -1.587   4.874  1.00  0.00     0.014 A 
ATOM     34  C   UNL     1      -4.920  -2.903   7.333  1.00  0.00     0.010 A 
ATOM     35  C   UNL     1      -5.210  -0.892   6.008  1.00  0.00     0.010 A 
ATOM     36  C   UNL     1      -5.260  -1.540   7.250  1.00  0.00    -0.014 A 
BRANCH  36  37
ATOM     37  C   UNL     1      -5.604  -0.784   8.478  1.00  0.00     0.031 A 
ATOM     38  C   UNL     1      -6.987  -0.239   8.686  1.00  0.00     0.074 A 
ATOM     39  C   UNL     1      -4.641  -0.566   9.396  1.00  0.00     0.049 A 
ATOM     40  N   UNL     1      -7.477   0.381   9.728  1.00  0.00    -0.248 NA
ATOM     41  C   UNL     1      -7.937  -0.387   7.573  1.00  0.00     0.031 C 
ATOM     42  C   UNL     1      -3.239  -0.974   9.262  1.00  0.00     0.029 A 
ATOM     43  N   UNL     1      -4.691   0.043  10.623  1.00  0.00    -0.354 N 
ATOM     44  C   UNL     1      -8.790   0.692   9.401  1.00  0.00     0.074 A 
ATOM     45  C   UNL     1      -9.003   0.247   8.040  1.00  0.00     0.031 C 
ATOM     46  C   UNL     1      -2.574  -0.641  10.380  1.00  0.00     0.029 A 
ATOM     47  C   UNL     1      -3.494   0.019  11.300  1.00  0.00     0.049 A 
ATOM     48  H   UNL     1      -5.507   0.458  10.986  1.00  0.00     0.167 HD
ATOM     49  C   UNL     1      -9.739   1.270  10.176  1.00  0.00     0.037 A 
ATOM     50  C   UNL     1      -3.179   0.462  12.532  1.00  0.00     0.037 A 
ATOM     51  C   UNL     1      -9.519   1.701  11.533  1.00  0.00     0.049 A 
ATOM     52  C   UNL     1      -4.260   1.064  13.386  1.00  0.00     0.074 A 
ATOM     53  C   UNL     1     -10.427   2.248  12.423  1.00  0.00     0.029 A 
ATOM     54  N   UNL     1      -8.302   1.636  12.197  1.00  0.00    -0.354 N 
ATOM     55  N   UNL     1      -5.523   1.269  13.095  1.00  0.00    -0.248 NA
ATOM     56  C   UNL     1      -3.878   1.475  14.743  1.00  0.00     0.031 C 
ATOM     57  C   UNL     1      -9.751   2.549  13.611  1.00  0.00     0.029 A 
ATOM     58  C   UNL     1      -8.431   2.147  13.478  1.00  0.00     0.049 A 
ATOM     59  H   UNL     1      -7.468   1.280  11.813  1.00  0.00     0.167 HD
ATOM     60  C   UNL     1      -6.093   1.812  14.241  1.00  0.00     0.074 A 
ATOM     61  C   UNL     1      -5.040   1.884  15.234  1.00  0.00     0.031 C 
ATOM     62  C   UNL     1      -7.371   2.215  14.452  1.00  0.00     0.037 A 
BRANCH  49  63
ATOM     63  C   UNL     1     -11.106   1.459   9.575  1.00  0.00     0.058 A 
ATOM     64  C   UNL     1     -11.950   0.366   9.316  1.00  0.00     0.135 A 
ATOM     65  C   UNL     1     -11.591   2.743   9.283  1.00  0.00     0.135 A 
ATOM     66  F   UNL     1     -11.531  -0.885   9.561  1.00  0.00    -0.206 F 
ATOM     67  C   UNL     1     -13.214   0.538   8.761  1.00  0.00     0.059 A 
ATOM     68  C   UNL     1     -12.864   2.941   8.753  1.00  0.00     0.059 A 
ATOM     69  F   UNL     1     -10.827   3.823   9.510  1.00  0.00    -0.206 F 
ATOM     70  C   UNL     1     -13.662   1.830   8.482  1.00  0.00     0.060 A 
BRANCH  70  71
ATOM     71  S   UNL     1     -15.306   2.036   7.766  1.00  0.00     0.124 S 
ATOM     72  O   UNL     1     -15.084   1.589   6.394  1.00  0.00    -0.237 OA
ATOM     73  O   UNL     1     -16.122   1.154   8.595  1.00  0.00    -0.237 OA
ATOM     74  O   UNL     1     -15.570   3.463   7.926  1.00  0.00    -0.744 OA
ENDBRANCH  70  71
ENDBRANCH  49  63
BRANCH  50  75
ATOM     75  C   UNL     1      -1.794   0.302  13.046  1.00  0.00     0.058 A 
ATOM     76  C   UNL     1      -1.501  -0.629  14.054  1.00  0.00     0.135 A 
ATOM     77  C   UNL     1      -0.733   1.060  12.528  1.00  0.00     0.135 A 
ATOM     78  F   UNL     1      -2.482  -1.377  14.581  1.00  0.00    -0.206 F 
ATOM     79  C   UNL     1      -0.210  -0.789  14.546  1.00  0.00     0.059 A 
ATOM     80  C   UNL     1       0.571   0.901  12.986  1.00  0.00     0.059 A 
ATOM     81  F   UNL     1      -0.958   1.948  11.547  1.00  0.00    -0.206 F 
ATOM     82  C   UNL     1       0.821  -0.019  14.004  1.00  0.00     0.060 A 
BRANCH  82  83
ATOM     83  S   UNL     1       2.503  -0.268  14.613  1.00  0.00     0.124 S 
ATOM     84  O   UNL     1       2.447   0.397  15.909  1.00  0.00    -0.237 OA
ATOM     85  O   UNL     1       2.607  -1.723  14.644  1.00  0.00    -0.237 OA
ATOM     86  O   UNL     1       3.325   0.389  13.600  1.00  0.00    -0.744 OA
ENDBRANCH  82  83
ENDBRANCH  50  75
BRANCH  62  87
ATOM     87  C   UNL     1      -7.699   2.746  15.820  1.00  0.00     0.058 A 
ATOM     88  C   UNL     1      -7.231   3.994  16.260  1.00  0.00     0.135 A 
ATOM     89  C   UNL     1      -8.499   1.999  16.699  1.00  0.00     0.135 A 
ATOM     90  F   UNL     1      -6.459   4.746  15.460  1.00  0.00    -0.206 F 
ATOM     91  C   UNL     1      -7.507   4.464  17.540  1.00  0.00     0.059 A 
ATOM     92  C   UNL     1      -8.812   2.462  17.973  1.00  0.00     0.059 A 
ATOM     93  F   UNL     1      -8.985   0.805  16.323  1.00  0.00    -0.206 F 
ATOM     94  C   UNL     1      -8.293   3.686  18.392  1.00  0.00     0.060 A 
BRANCH  94  95
ATOM     95  S   UNL     1      -8.641   4.300  20.053  1.00  0.00     0.124 S 
ATOM     96  O   UNL     1      -7.377   4.035  20.733  1.00  0.00    -0.237 OA
ATOM     97  O   UNL     1      -8.947   5.707  19.812  1.00  0.00    -0.237 OA
ATOM     98  O   UNL     1      -9.771   3.485  20.486  1.00  0.00    -0.744 OA
ENDBRANCH  94  95
ENDBRANCH  62  87
ENDBRANCH  36  37
ENDBRANCH  28  31
ENDBRANCH  26  27
ENDBRANCH   1  26
TORSDOF 16
