REMARK SMILES CCC1C[NH+]([C@@H](Cc2c[nH]c3ccccc23)C(=O)NCCCNC(=O)c2ccc(-c3c4nc(c(-c5c(F)cc(S(=O)(=O)[O-])cc5F)c5ccc([nH]5)c(-c5c(F)cc(S(=O)(=O)[O-])cc5F)c5nc(c(-c6c(F)cc(S(=O)(=O)[O-])cc6F)c6ccc3[nH]6)C=C5)C=C4)cc2)C1
REMARK SMILES IDX 21 1 20 2 19 3 17 4 18 5 6 7 5 8 3 9 4 10 92 11 2 13 1 14
REMARK SMILES IDX 7 15 8 16 9 17 16 18 10 19 11 20 15 21 12 23 14 24 13 25
REMARK SMILES IDX 22 26 23 27 24 28 25 30 26 31 27 32 91 33 28 34 90 35 29 36
REMARK SMILES IDX 30 37 31 38 84 39 32 40 89 41 83 42 85 43 33 44 88 45 82 46
REMARK SMILES IDX 81 47 34 49 68 50 47 51 67 52 48 53 51 54 66 55 86 56 49 57
REMARK SMILES IDX 50 58 65 60 87 61 52 62 35 63 36 64 45 65 37 66 38 67 44 68
REMARK SMILES IDX 46 69 39 70 40 71 41 72 42 73 43 74 69 75 70 76 79 77 71 78
REMARK SMILES IDX 72 79 78 80 80 81 73 82 74 83 75 84 76 85 77 86 53 87 54 88
REMARK SMILES IDX 63 89 55 90 56 91 62 92 64 93 57 94 58 95 59 96 60 97 61 98
REMARK H PARENT 19 6 5 12 10 22 23 29 85 48 51 59
REMARK Flexibility Score: inf
ROOT
ATOM      1  C   UNL     1      -1.009  -0.760   4.483  1.00  0.00     0.042 C 
ENDROOT
BRANCH   1   2
ATOM      2  C   UNL     1       0.358  -1.260   4.905  1.00  0.00     0.118 C 
BRANCH   2   3
ATOM      3  N   UNL     1       0.433  -2.681   5.103  1.00  0.00    -0.351 N 
ATOM      4  C   UNL     1       1.091  -3.641   4.404  1.00  0.00     0.278 C 
ATOM      5  O   UNL     1       1.200  -4.731   4.987  1.00  0.00    -0.268 OA
ATOM      6  H   UNL     1      -0.079  -3.015   5.875  1.00  0.00     0.163 HD
BRANCH   4   7
ATOM      7  C   UNL     1       1.635  -3.477   2.950  1.00  0.00     0.278 C 
BRANCH   7   8
ATOM      8  N   UNL     1       0.531  -3.819   2.003  1.00  0.00    -0.324 N 
ATOM      9  C   UNL     1       0.770  -2.690   0.229  1.00  0.00     0.099 C 
ATOM     10  C   UNL     1      -0.197  -2.677   1.447  1.00  0.00     0.272 C 
ATOM     11  C   UNL     1       0.991  -4.165   0.633  1.00  0.00     0.272 C 
ATOM     12  H   UNL     1       0.048  -4.500   2.589  1.00  0.00     0.348 HD
BRANCH   9  13
ATOM     13  C   UNL     1       0.194  -2.271  -1.112  1.00  0.00     0.012 C 
ATOM     14  C   UNL     1       0.303  -0.755  -1.260  1.00  0.00     0.004 C 
ENDBRANCH   9  13
ENDBRANCH   7   8
BRANCH   7  15
ATOM     15  C   UNL     1       2.849  -2.516   2.722  1.00  0.00     0.113 C 
BRANCH  15  16
ATOM     16  C   UNL     1       2.797  -0.997   2.651  1.00  0.00    -0.016 A 
ATOM     17  C   UNL     1       1.890  -0.156   2.029  1.00  0.00     0.087 A 
ATOM     18  C   UNL     1       3.793  -0.104   3.211  1.00  0.00     0.003 A 
ATOM     19  N   UNL     1       2.204   1.149   2.290  1.00  0.00    -0.361 N 
ATOM     20  C   UNL     1       3.377   1.211   2.986  1.00  0.00     0.046 A 
ATOM     21  C   UNL     1       5.015  -0.291   3.893  1.00  0.00     0.010 A 
ATOM     22  H   UNL     1       1.665   1.926   2.017  1.00  0.00     0.166 HD
ATOM     23  C   UNL     1       4.086   2.334   3.421  1.00  0.00     0.026 A 
ATOM     24  C   UNL     1       5.754   0.824   4.316  1.00  0.00     0.001 A 
ATOM     25  C   UNL     1       5.290   2.117   4.087  1.00  0.00     0.002 A 
ENDBRANCH  15  16
ENDBRANCH   7  15
ENDBRANCH   4   7
ENDBRANCH   2   3
ENDBRANCH   1   2
BRANCH   1  26
ATOM     26  C   UNL     1      -1.499   0.368   5.373  1.00  0.00     0.118 C 
BRANCH  26  27
ATOM     27  N   UNL     1      -0.641   1.549   5.336  1.00  0.00    -0.352 N 
ATOM     28  C   UNL     1      -0.939   2.878   5.123  1.00  0.00     0.251 C 
ATOM     29  H   UNL     1       0.314   1.365   5.490  1.00  0.00     0.163 HD
ATOM     30  O   UNL     1      -0.027   3.685   5.029  1.00  0.00    -0.269 OA
BRANCH  28  31
ATOM     31  C   UNL     1      -2.345   3.317   4.942  1.00  0.00     0.039 A 
ATOM     32  C   UNL     1      -2.615   4.353   4.041  1.00  0.00     0.014 A 
ATOM     33  C   UNL     1      -3.399   2.706   5.619  1.00  0.00     0.014 A 
ATOM     34  C   UNL     1      -3.939   4.694   3.748  1.00  0.00     0.010 A 
ATOM     35  C   UNL     1      -4.708   2.946   5.223  1.00  0.00     0.010 A 
ATOM     36  C   UNL     1      -4.998   3.951   4.292  1.00  0.00    -0.014 A 
BRANCH  36  37
ATOM     37  C   UNL     1      -6.415   4.210   3.924  1.00  0.00     0.031 A 
ATOM     38  C   UNL     1      -7.420   4.537   4.999  1.00  0.00     0.074 A 
ATOM     39  C   UNL     1      -6.817   4.060   2.646  1.00  0.00     0.049 A 
ATOM     40  N   UNL     1      -8.718   4.672   4.905  1.00  0.00    -0.248 NA
ATOM     41  C   UNL     1      -6.904   4.682   6.371  1.00  0.00     0.031 C 
ATOM     42  C   UNL     1      -5.956   3.678   1.523  1.00  0.00     0.029 A 
ATOM     43  N   UNL     1      -8.057   4.201   2.074  1.00  0.00    -0.354 N 
ATOM     44  C   UNL     1      -9.171   4.881   6.203  1.00  0.00     0.074 A 
ATOM     45  C   UNL     1      -8.021   4.787   7.073  1.00  0.00     0.031 C 
ATOM     46  C   UNL     1      -6.684   3.652   0.396  1.00  0.00     0.029 A 
ATOM     47  C   UNL     1      -8.071   3.970   0.719  1.00  0.00     0.049 A 
ATOM     48  H   UNL     1      -8.861   4.444   2.587  1.00  0.00     0.167 HD
ATOM     49  C   UNL     1     -10.425   5.160   6.631  1.00  0.00     0.037 A 
ATOM     50  C   UNL     1      -9.088   4.008  -0.165  1.00  0.00     0.037 A 
ATOM     51  C   UNL     1     -11.554   5.309   5.753  1.00  0.00     0.049 A 
ATOM     52  C   UNL     1     -10.466   4.358   0.325  1.00  0.00     0.074 A 
ATOM     53  C   UNL     1     -12.851   5.670   6.071  1.00  0.00     0.029 A 
ATOM     54  N   UNL     1     -11.517   5.112   4.380  1.00  0.00    -0.354 N 
ATOM     55  N   UNL     1     -10.864   4.617   1.548  1.00  0.00    -0.248 NA
ATOM     56  C   UNL     1     -11.532   4.428  -0.684  1.00  0.00     0.031 C 
ATOM     57  C   UNL     1     -13.607   5.657   4.894  1.00  0.00     0.029 A 
ATOM     58  C   UNL     1     -12.772   5.331   3.837  1.00  0.00     0.049 A 
ATOM     59  H   UNL     1     -10.717   4.855   3.867  1.00  0.00     0.167 HD
ATOM     60  C   UNL     1     -12.221   4.904   1.453  1.00  0.00     0.074 A 
ATOM     61  C   UNL     1     -12.572   4.798   0.051  1.00  0.00     0.031 C 
ATOM     62  C   UNL     1     -13.098   5.227   2.436  1.00  0.00     0.037 A 
BRANCH  49  63
ATOM     63  C   UNL     1     -10.630   5.336   8.112  1.00  0.00     0.058 A 
ATOM     64  C   UNL     1     -10.095   6.434   8.806  1.00  0.00     0.135 A 
ATOM     65  C   UNL     1     -11.369   4.396   8.848  1.00  0.00     0.135 A 
ATOM     66  F   UNL     1      -9.366   7.355   8.156  1.00  0.00    -0.206 F 
ATOM     67  C   UNL     1     -10.246   6.571  10.181  1.00  0.00     0.059 A 
ATOM     68  C   UNL     1     -11.560   4.529  10.220  1.00  0.00     0.059 A 
ATOM     69  F   UNL     1     -11.905   3.328   8.237  1.00  0.00    -0.206 F 
ATOM     70  C   UNL     1     -10.976   5.609  10.881  1.00  0.00     0.060 A 
BRANCH  70  71
ATOM     71  S   UNL     1     -11.148   5.791  12.669  1.00  0.00     0.124 S 
ATOM     72  O   UNL     1      -9.819   5.399  13.129  1.00  0.00    -0.237 OA
ATOM     73  O   UNL     1     -11.475   7.206  12.811  1.00  0.00    -0.237 OA
ATOM     74  O   UNL     1     -12.226   4.865  13.002  1.00  0.00    -0.744 OA
ENDBRANCH  70  71
ENDBRANCH  49  63
BRANCH  50  75
ATOM     75  C   UNL     1      -8.827   3.748  -1.606  1.00  0.00     0.058 A 
ATOM     76  C   UNL     1      -8.859   4.795  -2.539  1.00  0.00     0.135 A 
ATOM     77  C   UNL     1      -8.507   2.464  -2.074  1.00  0.00     0.135 A 
ATOM     78  F   UNL     1      -9.165   6.039  -2.141  1.00  0.00    -0.206 F 
ATOM     79  C   UNL     1      -8.593   4.578  -3.887  1.00  0.00     0.059 A 
ATOM     80  C   UNL     1      -8.214   2.227  -3.414  1.00  0.00     0.059 A 
ATOM     81  F   UNL     1      -8.445   1.433  -1.218  1.00  0.00    -0.206 F 
ATOM     82  C   UNL     1      -8.265   3.290  -4.314  1.00  0.00     0.060 A 
BRANCH  82  83
ATOM     83  S   UNL     1      -7.854   3.034  -6.055  1.00  0.00     0.124 S 
ATOM     84  O   UNL     1      -9.165   3.134  -6.684  1.00  0.00    -0.237 OA
ATOM     85  O   UNL     1      -6.934   4.137  -6.317  1.00  0.00    -0.237 OA
ATOM     86  O   UNL     1      -7.247   1.707  -6.063  1.00  0.00    -0.744 OA
ENDBRANCH  82  83
ENDBRANCH  50  75
BRANCH  62  87
ATOM     87  C   UNL     1     -14.514   5.521   2.030  1.00  0.00     0.058 A 
ATOM     88  C   UNL     1     -15.396   4.501   1.643  1.00  0.00     0.135 A 
ATOM     89  C   UNL     1     -15.009   6.834   2.085  1.00  0.00     0.135 A 
ATOM     90  F   UNL     1     -14.969   3.231   1.568  1.00  0.00    -0.206 F 
ATOM     91  C   UNL     1     -16.716   4.775   1.305  1.00  0.00     0.059 A 
ATOM     92  C   UNL     1     -16.333   7.127   1.777  1.00  0.00     0.059 A 
ATOM     93  F   UNL     1     -14.207   7.844   2.459  1.00  0.00    -0.206 F 
ATOM     94  C   UNL     1     -17.177   6.091   1.377  1.00  0.00     0.060 A 
BRANCH  94  95
ATOM     95  S   UNL     1     -18.903   6.429   0.974  1.00  0.00     0.124 S 
ATOM     96  O   UNL     1     -18.891   6.319  -0.481  1.00  0.00    -0.237 OA
ATOM     97  O   UNL     1     -19.605   5.364   1.685  1.00  0.00    -0.237 OA
ATOM     98  O   UNL     1     -19.119   7.773   1.500  1.00  0.00    -0.744 OA
ENDBRANCH  94  95
ENDBRANCH  62  87
ENDBRANCH  36  37
ENDBRANCH  28  31
ENDBRANCH  26  27
ENDBRANCH   1  26
TORSDOF 17
