REMARK SMILES Cc1ccc(NS(=O)(=O)N2CCCC[C@@H]2C(=O)NCCCNC(=O)c2ccc(-c3c4nc(c(-c5c(F)cc(S(=O)(=O)[O-])cc5F)c5ccc([nH]5)c(-c5c(F)cc(S(=O)(=O)[O-])cc5F)c5nc(c(-c6c(F)cc(S(=O)(=O)[O-])cc6F)c6ccc3[nH]6)C=C5)C=C4)cc2)c(C)n1
REMARK SMILES IDX 20 1 19 2 18 3 16 4 17 5 15 7 10 8 11 9 12 10 14 11 13 12
REMARK SMILES IDX 7 13 8 14 9 15 6 16 5 18 1 19 2 20 3 21 93 22 4 23 91 24
REMARK SMILES IDX 92 25 21 26 22 27 23 28 24 30 25 31 26 32 90 33 27 34 89 35
REMARK SMILES IDX 28 36 29 37 30 38 83 39 31 40 88 41 82 42 84 43 32 44 87 45
REMARK SMILES IDX 81 46 80 47 33 49 67 50 46 51 66 52 47 53 50 54 65 55 85 56
REMARK SMILES IDX 48 57 49 58 64 60 86 61 51 62 34 63 35 64 44 65 36 66 37 67
REMARK SMILES IDX 43 68 45 69 38 70 39 71 40 72 41 73 42 74 68 75 69 76 78 77
REMARK SMILES IDX 70 78 71 79 77 80 79 81 72 82 73 83 74 84 75 85 76 86 52 87
REMARK SMILES IDX 53 88 62 89 54 90 55 91 61 92 63 93 56 94 57 95 58 96 59 97
REMARK SMILES IDX 60 98
REMARK H PARENT 18 6 6 17 22 29 84 48 50 59
REMARK Flexibility Score: inf
ROOT
ATOM      1  C   UNL     1      -1.328   1.789  -1.310  1.00  0.00     0.042 C 
ENDROOT
BRANCH   1   2
ATOM      2  C   UNL     1       0.123   1.432  -0.967  1.00  0.00     0.117 C 
BRANCH   2   3
ATOM      3  N   UNL     1       0.824   0.751  -2.048  1.00  0.00    -0.355 N 
ATOM      4  C   UNL     1       2.125   0.602  -2.402  1.00  0.00     0.238 C 
ATOM      5  O   UNL     1       2.316  -0.259  -3.274  1.00  0.00    -0.273 OA
ATOM      6  H   UNL     1       0.210   0.292  -2.666  1.00  0.00     0.163 HD
BRANCH   4   7
ATOM      7  C   UNL     1       3.316   1.393  -1.843  1.00  0.00     0.163 C 
ATOM      8  N   UNL     1       3.906   0.938  -0.527  1.00  0.00    -0.172 NA
ATOM      9  C   UNL     1       5.141   1.720  -0.193  1.00  0.00     0.105 C 
ATOM     10  C   UNL     1       4.822   3.205  -0.104  1.00  0.00     0.017 C 
ATOM     11  C   UNL     1       3.067   2.910  -1.848  1.00  0.00     0.030 C 
ATOM     12  C   UNL     1       4.301   3.709  -1.440  1.00  0.00     0.004 C 
BRANCH   8  13
ATOM     13  S   UNL     1       4.205  -0.737  -0.399  1.00  0.00     0.302 S 
ATOM     14  O   UNL     1       4.974  -1.007   0.794  1.00  0.00    -0.189 OA
ATOM     15  O   UNL     1       4.697  -1.207  -1.670  1.00  0.00    -0.189 OA
BRANCH  13  16
ATOM     16  N   UNL     1       2.695  -1.362  -0.178  1.00  0.00    -0.269 N 
ATOM     17  H   UNL     1       2.364  -1.952  -0.892  1.00  0.00     0.181 HD
BRANCH  16  18
ATOM     18  C   UNL     1       1.802  -1.151   0.930  1.00  0.00     0.071 A 
ATOM     19  C   UNL     1      -1.699   0.101   2.998  1.00  0.00     0.067 C 
ATOM     20  C   UNL     1      -0.460  -0.503   2.416  1.00  0.00     0.038 A 
ATOM     21  C   UNL     1      -0.512  -1.595   1.574  1.00  0.00     0.026 A 
ATOM     22  N   UNL     1       0.685   0.175   2.620  1.00  0.00    -0.256 NA
ATOM     23  C   UNL     1       0.619  -1.903   0.819  1.00  0.00     0.030 A 
ATOM     24  C   UNL     1       1.810  -0.157   1.921  1.00  0.00     0.062 A 
ATOM     25  C   UNL     1       2.956   0.699   2.341  1.00  0.00     0.069 C 
ENDBRANCH  16  18
ENDBRANCH  13  16
ENDBRANCH   8  13
ENDBRANCH   4   7
ENDBRANCH   2   3
ENDBRANCH   1   2
BRANCH   1  26
ATOM     26  C   UNL     1      -2.202   0.636  -1.807  1.00  0.00     0.118 C 
BRANCH  26  27
ATOM     27  N   UNL     1      -2.607  -0.317  -0.784  1.00  0.00    -0.352 N 
ATOM     28  C   UNL     1      -3.683  -0.347   0.072  1.00  0.00     0.251 C 
ATOM     29  H   UNL     1      -1.996  -1.083  -0.687  1.00  0.00     0.163 HD
ATOM     30  O   UNL     1      -3.768  -1.257   0.895  1.00  0.00    -0.269 OA
BRANCH  28  31
ATOM     31  C   UNL     1      -4.720   0.706   0.054  1.00  0.00     0.039 A 
ATOM     32  C   UNL     1      -5.215   1.200   1.270  1.00  0.00     0.014 A 
ATOM     33  C   UNL     1      -5.270   1.151  -1.144  1.00  0.00     0.014 A 
ATOM     34  C   UNL     1      -6.214   2.180   1.279  1.00  0.00     0.010 A 
ATOM     35  C   UNL     1      -6.198   2.183  -1.140  1.00  0.00     0.010 A 
ATOM     36  C   UNL     1      -6.697   2.694   0.069  1.00  0.00    -0.014 A 
BRANCH  36  37
ATOM     37  C   UNL     1      -7.782   3.702  -0.015  1.00  0.00     0.031 A 
ATOM     38  C   UNL     1      -9.053   3.324  -0.728  1.00  0.00     0.074 A 
ATOM     39  C   UNL     1      -7.566   4.970   0.382  1.00  0.00     0.049 A 
ATOM     40  N   UNL     1      -9.983   4.089  -1.232  1.00  0.00    -0.248 NA
ATOM     41  C   UNL     1      -9.268   1.884  -0.959  1.00  0.00     0.031 C 
ATOM     42  C   UNL     1      -6.361   5.457   1.056  1.00  0.00     0.029 A 
ATOM     43  N   UNL     1      -8.336   6.095   0.225  1.00  0.00    -0.354 N 
ATOM     44  C   UNL     1     -10.852   3.233  -1.901  1.00  0.00     0.074 A 
ATOM     45  C   UNL     1     -10.330   1.893  -1.751  1.00  0.00     0.031 C 
ATOM     46  C   UNL     1      -6.461   6.785   1.231  1.00  0.00     0.029 A 
ATOM     47  C   UNL     1      -7.713   7.249   0.642  1.00  0.00     0.049 A 
ATOM     48  H   UNL     1      -9.246   6.078  -0.150  1.00  0.00     0.167 HD
ATOM     49  C   UNL     1     -11.984   3.543  -2.576  1.00  0.00     0.037 A 
ATOM     50  C   UNL     1      -8.094   8.536   0.524  1.00  0.00     0.037 A 
ATOM     51  C   UNL     1     -12.527   4.875  -2.642  1.00  0.00     0.049 A 
ATOM     52  C   UNL     1      -9.400   8.847  -0.156  1.00  0.00     0.074 A 
ATOM     53  C   UNL     1     -13.718   5.293  -3.207  1.00  0.00     0.029 A 
ATOM     54  N   UNL     1     -11.919   6.001  -2.105  1.00  0.00    -0.354 N 
ATOM     55  N   UNL     1     -10.232   8.027  -0.755  1.00  0.00    -0.248 NA
ATOM     56  C   UNL     1      -9.824  10.254  -0.175  1.00  0.00     0.031 C 
ATOM     57  C   UNL     1     -13.819   6.677  -3.033  1.00  0.00     0.029 A 
ATOM     58  C   UNL     1     -12.709   7.114  -2.328  1.00  0.00     0.049 A 
ATOM     59  H   UNL     1     -11.054   6.006  -1.635  1.00  0.00     0.167 HD
ATOM     60  C   UNL     1     -11.286   8.815  -1.203  1.00  0.00     0.074 A 
ATOM     61  C   UNL     1     -10.994  10.174  -0.794  1.00  0.00     0.031 C 
ATOM     62  C   UNL     1     -12.395   8.452  -1.894  1.00  0.00     0.037 A 
BRANCH  49  63
ATOM     63  C   UNL     1     -12.711   2.436  -3.288  1.00  0.00     0.058 A 
ATOM     64  C   UNL     1     -13.402   1.432  -2.592  1.00  0.00     0.135 A 
ATOM     65  C   UNL     1     -12.752   2.402  -4.692  1.00  0.00     0.135 A 
ATOM     66  F   UNL     1     -13.382   1.405  -1.250  1.00  0.00    -0.206 F 
ATOM     67  C   UNL     1     -14.085   0.420  -3.259  1.00  0.00     0.059 A 
ATOM     68  C   UNL     1     -13.453   1.415  -5.381  1.00  0.00     0.059 A 
ATOM     69  F   UNL     1     -12.107   3.335  -5.411  1.00  0.00    -0.206 F 
ATOM     70  C   UNL     1     -14.106   0.421  -4.655  1.00  0.00     0.060 A 
BRANCH  70  71
ATOM     71  S   UNL     1     -15.015  -0.886  -5.506  1.00  0.00     0.124 S 
ATOM     72  O   UNL     1     -14.116  -2.023  -5.336  1.00  0.00    -0.237 OA
ATOM     73  O   UNL     1     -16.261  -0.946  -4.747  1.00  0.00    -0.237 OA
ATOM     74  O   UNL     1     -15.139  -0.382  -6.870  1.00  0.00    -0.744 OA
ENDBRANCH  70  71
ENDBRANCH  49  63
BRANCH  50  75
ATOM     75  C   UNL     1      -7.231   9.622   1.059  1.00  0.00     0.058 A 
ATOM     76  C   UNL     1      -7.598  10.328   2.214  1.00  0.00     0.135 A 
ATOM     77  C   UNL     1      -6.018   9.966   0.442  1.00  0.00     0.135 A 
ATOM     78  F   UNL     1      -8.751  10.039   2.836  1.00  0.00    -0.206 F 
ATOM     79  C   UNL     1      -6.806  11.348   2.729  1.00  0.00     0.059 A 
ATOM     80  C   UNL     1      -5.196  10.968   0.952  1.00  0.00     0.059 A 
ATOM     81  F   UNL     1      -5.610   9.309  -0.655  1.00  0.00    -0.206 F 
ATOM     82  C   UNL     1      -5.604  11.660   2.091  1.00  0.00     0.060 A 
BRANCH  82  83
ATOM     83  S   UNL     1      -4.556  12.951   2.798  1.00  0.00     0.124 S 
ATOM     84  O   UNL     1      -5.268  14.159   2.396  1.00  0.00    -0.237 OA
ATOM     85  O   UNL     1      -4.593  12.633   4.222  1.00  0.00    -0.237 OA
ATOM     86  O   UNL     1      -3.268  12.729   2.147  1.00  0.00    -0.744 OA
ENDBRANCH  82  83
ENDBRANCH  50  75
BRANCH  62  87
ATOM     87  C   UNL     1     -13.387   9.531  -2.217  1.00  0.00     0.058 A 
ATOM     88  C   UNL     1     -13.151  10.463  -3.238  1.00  0.00     0.135 A 
ATOM     89  C   UNL     1     -14.612   9.595  -1.534  1.00  0.00     0.135 A 
ATOM     90  F   UNL     1     -11.991  10.445  -3.914  1.00  0.00    -0.206 F 
ATOM     91  C   UNL     1     -14.090  11.435  -3.561  1.00  0.00     0.059 A 
ATOM     92  C   UNL     1     -15.575  10.544  -1.856  1.00  0.00     0.059 A 
ATOM     93  F   UNL     1     -14.888   8.717  -0.556  1.00  0.00    -0.206 F 
ATOM     94  C   UNL     1     -15.300  11.467  -2.865  1.00  0.00     0.060 A 
BRANCH  94  95
ATOM     95  S   UNL     1     -16.528  12.711  -3.317  1.00  0.00     0.124 S 
ATOM     96  O   UNL     1     -15.970  13.910  -2.701  1.00  0.00    -0.237 OA
ATOM     97  O   UNL     1     -16.493  12.672  -4.776  1.00  0.00    -0.237 OA
ATOM     98  O   UNL     1     -17.758  12.207  -2.713  1.00  0.00    -0.744 OA
ENDBRANCH  94  95
ENDBRANCH  62  87
ENDBRANCH  36  37
ENDBRANCH  28  31
ENDBRANCH  26  27
ENDBRANCH   1  26
TORSDOF 16
