REMARK SMILES O=C(NCCCNC(=O)c1cccnc1Nc1cccc(C(F)(F)F)c1)c1ccc(-c2c3nc(c(-c4c(F)cc(S(=O)(=O)[O-])cc4F)c4ccc([nH]4)c(-c4c(F)cc(S(=O)(=O)[O-])cc4F)c4nc(c(-c5c(F)cc(S(=O)(=O)[O-])cc5F)c5ccc2[nH]5)C=C4)C=C3)cc1
REMARK SMILES IDX 5 1 4 2 3 3 1 4 2 5 27 7 28 8 92 9 29 10 91 11 30 12 31 13
REMARK SMILES IDX 32 14 85 15 33 16 90 17 84 18 86 19 34 20 89 21 83 22 82 23
REMARK SMILES IDX 35 25 69 26 48 27 68 28 49 29 52 30 67 31 87 32 50 33 51 34
REMARK SMILES IDX 66 36 88 37 53 38 36 39 37 40 46 41 38 42 39 43 45 44 47 45
REMARK SMILES IDX 40 46 41 47 42 48 43 49 44 50 70 51 71 52 80 53 72 54 73 55
REMARK SMILES IDX 79 56 81 57 74 58 75 59 76 60 77 61 78 62 54 63 55 64 64 65
REMARK SMILES IDX 56 66 57 67 63 68 65 69 58 70 59 71 60 72 61 73 62 74 6 75
REMARK SMILES IDX 7 76 8 77 9 79 10 80 11 81 15 82 12 83 14 84 13 85 16 86
REMARK SMILES IDX 17 88 18 89 26 90 19 91 21 92 20 93 22 94 23 95 24 96 25 97
REMARK H PARENT 3 6 86 24 52 35 7 78 16 87
REMARK Flexibility Score: inf
ROOT
ATOM      1  C   UNL     1       4.835  -2.161  -1.165  1.00  0.00     0.042 C 
ENDROOT
BRANCH   1   2
ATOM      2  C   UNL     1       4.531  -0.669  -1.157  1.00  0.00     0.118 C 
BRANCH   2   3
ATOM      3  N   UNL     1       3.109  -0.377  -1.019  1.00  0.00    -0.352 N 
ATOM      4  O   UNL     1       1.175   0.167  -0.013  1.00  0.00    -0.269 OA
ATOM      5  C   UNL     1       2.404   0.175   0.024  1.00  0.00     0.251 C 
ATOM      6  H   UNL     1       2.564  -0.614  -1.803  1.00  0.00     0.163 HD
BRANCH   5   7
ATOM      7  C   UNL     1       3.104   0.750   1.195  1.00  0.00     0.039 A 
ATOM      8  C   UNL     1       4.261   1.513   1.038  1.00  0.00     0.014 A 
ATOM      9  C   UNL     1       2.582   0.540   2.476  1.00  0.00     0.014 A 
ATOM     10  C   UNL     1       4.993   1.898   2.154  1.00  0.00     0.010 A 
ATOM     11  C   UNL     1       3.265   1.024   3.598  1.00  0.00     0.010 A 
ATOM     12  C   UNL     1       4.503   1.667   3.450  1.00  0.00    -0.014 A 
BRANCH  12  13
ATOM     13  C   UNL     1       5.293   2.143   4.617  1.00  0.00     0.031 A 
ATOM     14  C   UNL     1       5.856   1.177   5.625  1.00  0.00     0.074 A 
ATOM     15  C   UNL     1       5.551   3.462   4.731  1.00  0.00     0.049 A 
ATOM     16  N   UNL     1       6.622   1.421   6.659  1.00  0.00    -0.248 NA
ATOM     17  C   UNL     1       5.509  -0.243   5.463  1.00  0.00     0.031 C 
ATOM     18  C   UNL     1       5.046   4.499   3.826  1.00  0.00     0.029 A 
ATOM     19  N   UNL     1       6.322   4.155   5.628  1.00  0.00    -0.354 N 
ATOM     20  C   UNL     1       6.825   0.196   7.285  1.00  0.00     0.074 A 
ATOM     21  C   UNL     1       6.083  -0.789   6.527  1.00  0.00     0.031 C 
ATOM     22  C   UNL     1       5.576   5.681   4.170  1.00  0.00     0.029 A 
ATOM     23  C   UNL     1       6.406   5.500   5.355  1.00  0.00     0.049 A 
ATOM     24  H   UNL     1       6.773   3.730   6.393  1.00  0.00     0.167 HD
ATOM     25  C   UNL     1       7.566  -0.083   8.385  1.00  0.00     0.037 A 
ATOM     26  C   UNL     1       7.074   6.483   5.988  1.00  0.00     0.037 A 
ATOM     27  C   UNL     1       8.328   0.897   9.118  1.00  0.00     0.049 A 
ATOM     28  C   UNL     1       7.895   6.146   7.199  1.00  0.00     0.074 A 
ATOM     29  C   UNL     1       9.150   0.705  10.216  1.00  0.00     0.029 A 
ATOM     30  N   UNL     1       8.361   2.254   8.829  1.00  0.00    -0.354 N 
ATOM     31  N   UNL     1       8.100   4.975   7.753  1.00  0.00    -0.248 NA
ATOM     32  C   UNL     1       8.569   7.262   7.872  1.00  0.00     0.031 C 
ATOM     33  C   UNL     1       9.648   1.950  10.615  1.00  0.00     0.029 A 
ATOM     34  C   UNL     1       9.172   2.913   9.740  1.00  0.00     0.049 A 
ATOM     35  H   UNL     1       7.880   2.685   8.087  1.00  0.00     0.167 HD
ATOM     36  C   UNL     1       8.941   5.212   8.833  1.00  0.00     0.074 A 
ATOM     37  C   UNL     1       9.219   6.634   8.842  1.00  0.00     0.031 C 
ATOM     38  C   UNL     1       9.438   4.330   9.736  1.00  0.00     0.037 A 
BRANCH  25  39
ATOM     39  C   UNL     1       7.575  -1.504   8.881  1.00  0.00     0.058 A 
ATOM     40  C   UNL     1       8.258  -2.524   8.201  1.00  0.00     0.135 A 
ATOM     41  C   UNL     1       6.913  -1.843  10.073  1.00  0.00     0.135 A 
ATOM     42  F   UNL     1       8.896  -2.260   7.050  1.00  0.00    -0.206 F 
ATOM     43  C   UNL     1       8.260  -3.836   8.668  1.00  0.00     0.059 A 
ATOM     44  C   UNL     1       6.922  -3.143  10.571  1.00  0.00     0.059 A 
ATOM     45  F   UNL     1       6.246  -0.906  10.765  1.00  0.00    -0.206 F 
ATOM     46  C   UNL     1       7.584  -4.136   9.852  1.00  0.00     0.060 A 
BRANCH  46  47
ATOM     47  S   UNL     1       7.582  -5.844  10.439  1.00  0.00     0.124 S 
ATOM     48  O   UNL     1       6.634  -6.465   9.520  1.00  0.00    -0.237 OA
ATOM     49  O   UNL     1       8.978  -6.236  10.269  1.00  0.00    -0.237 OA
ATOM     50  O   UNL     1       7.132  -5.727  11.822  1.00  0.00    -0.744 OA
ENDBRANCH  46  47
ENDBRANCH  25  39
BRANCH  26  51
ATOM     51  C   UNL     1       7.002   7.874   5.471  1.00  0.00     0.058 A 
ATOM     52  C   UNL     1       8.111   8.474   4.858  1.00  0.00     0.135 A 
ATOM     53  C   UNL     1       5.813   8.617   5.549  1.00  0.00     0.135 A 
ATOM     54  F   UNL     1       9.269   7.804   4.764  1.00  0.00    -0.206 F 
ATOM     55  C   UNL     1       8.049   9.766   4.347  1.00  0.00     0.059 A 
ATOM     56  C   UNL     1       5.719   9.900   5.023  1.00  0.00     0.059 A 
ATOM     57  F   UNL     1       4.719   8.079   6.111  1.00  0.00    -0.206 F 
ATOM     58  C   UNL     1       6.846  10.470   4.431  1.00  0.00     0.060 A 
BRANCH  58  59
ATOM     59  S   UNL     1       6.754  12.123   3.711  1.00  0.00     0.124 S 
ATOM     60  O   UNL     1       7.463  12.916   4.707  1.00  0.00    -0.237 OA
ATOM     61  O   UNL     1       7.438  11.942   2.434  1.00  0.00    -0.237 OA
ATOM     62  O   UNL     1       5.318  12.366   3.614  1.00  0.00    -0.744 OA
ENDBRANCH  58  59
ENDBRANCH  26  51
BRANCH  38  63
ATOM     63  C   UNL     1      10.355   4.880  10.791  1.00  0.00     0.058 A 
ATOM     64  C   UNL     1       9.869   5.647  11.862  1.00  0.00     0.135 A 
ATOM     65  C   UNL     1      11.733   4.619  10.742  1.00  0.00     0.135 A 
ATOM     66  F   UNL     1       8.560   5.932  11.950  1.00  0.00    -0.206 F 
ATOM     67  C   UNL     1      10.723   6.163  12.831  1.00  0.00     0.059 A 
ATOM     68  C   UNL     1      12.602   5.103  11.713  1.00  0.00     0.059 A 
ATOM     69  F   UNL     1      12.246   3.882   9.743  1.00  0.00    -0.206 F 
ATOM     70  C   UNL     1      12.090   5.888  12.746  1.00  0.00     0.060 A 
BRANCH  70  71
ATOM     71  S   UNL     1      13.190   6.550  14.015  1.00  0.00     0.124 S 
ATOM     72  O   UNL     1      13.305   7.945  13.605  1.00  0.00    -0.237 OA
ATOM     73  O   UNL     1      12.436   6.310  15.242  1.00  0.00    -0.237 OA
ATOM     74  O   UNL     1      14.400   5.747  13.865  1.00  0.00    -0.744 OA
ENDBRANCH  70  71
ENDBRANCH  38  63
ENDBRANCH  12  13
ENDBRANCH   5   7
ENDBRANCH   2   3
ENDBRANCH   1   2
BRANCH   1  75
ATOM     75  C   UNL     1       4.251  -2.908  -2.358  1.00  0.00     0.118 C 
BRANCH  75  76
ATOM     76  N   UNL     1       4.789  -2.425  -3.623  1.00  0.00    -0.352 N 
ATOM     77  C   UNL     1       5.748  -2.969  -4.439  1.00  0.00     0.255 C 
ATOM     78  H   UNL     1       4.404  -1.577  -3.942  1.00  0.00     0.163 HD
ATOM     79  O   UNL     1       6.278  -2.264  -5.297  1.00  0.00    -0.269 OA
BRANCH  77  80
ATOM     80  C   UNL     1       6.154  -4.383  -4.312  1.00  0.00     0.082 A 
ATOM     81  C   UNL     1       5.181  -5.380  -4.162  1.00  0.00     0.019 A 
ATOM     82  C   UNL     1       7.499  -4.755  -4.451  1.00  0.00     0.143 A 
ATOM     83  C   UNL     1       5.570  -6.706  -4.032  1.00  0.00     0.021 A 
ATOM     84  N   UNL     1       7.868  -6.059  -4.327  1.00  0.00    -0.238 NA
ATOM     85  C   UNL     1       6.917  -6.991  -4.107  1.00  0.00     0.113 A 
BRANCH  82  86
ATOM     86  N   UNL     1       8.512  -3.792  -4.637  1.00  0.00    -0.340 N 
ATOM     87  H   UNL     1       8.257  -2.855  -4.474  1.00  0.00     0.168 HD
BRANCH  86  88
ATOM     88  C   UNL     1       9.843  -4.017  -5.030  1.00  0.00     0.040 A 
ATOM     89  C   UNL     1      10.870  -3.257  -4.463  1.00  0.00     0.026 A 
ATOM     90  C   UNL     1      10.165  -4.935  -6.037  1.00  0.00     0.039 A 
ATOM     91  C   UNL     1      12.198  -3.453  -4.849  1.00  0.00     0.003 A 
ATOM     92  C   UNL     1      11.490  -5.126  -6.456  1.00  0.00     0.058 A 
ATOM     93  C   UNL     1      12.508  -4.385  -5.839  1.00  0.00     0.013 A 
BRANCH  92  94
ATOM     94  C   UNL     1      11.819  -6.114  -7.544  1.00  0.00     0.416 C 
ATOM     95  F   UNL     1      12.558  -5.556  -8.547  1.00  0.00    -0.166 F 
ATOM     96  F   UNL     1      12.552  -7.171  -7.094  1.00  0.00    -0.166 F 
ATOM     97  F   UNL     1      10.726  -6.653  -8.155  1.00  0.00    -0.166 F 
ENDBRANCH  92  94
ENDBRANCH  86  88
ENDBRANCH  82  86
ENDBRANCH  77  80
ENDBRANCH  75  76
ENDBRANCH   1  75
TORSDOF 16
