REMARK SMILES NS(=O)(=O)c1ccc(C(=O)N2CC[C@H](c3ccccc3C(=O)NCCCNC(=O)c3ccc(-c4c5nc(c(-c6c(F)cc(S(=O)(=O)[O-])cc6F)c6ccc([nH]6)c(-c6c(F)cc(S(=O)(=O)[O-])cc6F)c6nc(c(-c7c(F)cc(S(=O)(=O)[O-])cc7F)c7ccc4[nH]7)C=C6)C=C5)cc3)C2)cc1
REMARK SMILES IDX 24 1 23 2 21 3 22 4 20 6 15 7 16 8 17 9 19 10 18 11 14 12
REMARK SMILES IDX 11 13 12 14 96 15 13 16 9 17 10 18 8 19 5 20 6 21 98 22 7 23
REMARK SMILES IDX 97 24 2 25 3 26 4 27 1 28 25 31 26 32 27 33 28 34 29 36
REMARK SMILES IDX 30 37 31 38 95 39 32 40 94 41 33 42 34 43 35 44 88 45 36 46
REMARK SMILES IDX 93 47 87 48 89 49 37 50 92 51 86 52 85 53 38 55 72 56 51 57
REMARK SMILES IDX 71 58 52 59 55 60 70 61 90 62 53 63 54 64 69 66 91 67 56 68
REMARK SMILES IDX 39 69 40 70 49 71 41 72 42 73 48 74 50 75 43 76 44 77 45 78
REMARK SMILES IDX 46 79 47 80 73 81 74 82 83 83 75 84 76 85 82 86 84 87 77 88
REMARK SMILES IDX 78 89 79 90 80 91 81 92 57 93 58 94 67 95 59 96 60 97 66 98
REMARK SMILES IDX 68 99 61 100 62 101 63 102 64 103 65 104
REMARK H PARENT 23 5 1 29 1 30 27 35 89 54 55 65
REMARK Flexibility Score: inf
ROOT
ATOM      1  C   UNL     1       6.613  -5.130  -6.981  1.00  0.00     0.118 C 
ENDROOT
BRANCH   1   2
ATOM      2  N   UNL     1       6.121  -4.572  -8.224  1.00  0.00    -0.352 N 
ATOM      3  C   UNL     1       5.371  -3.424  -8.286  1.00  0.00     0.251 C 
ATOM      4  O   UNL     1       5.944  -2.348  -8.456  1.00  0.00    -0.269 OA
ATOM      5  H   UNL     1       6.335  -5.038  -9.065  1.00  0.00     0.163 HD
BRANCH   3   6
ATOM      6  C   UNL     1       3.888  -3.523  -8.490  1.00  0.00     0.043 A 
ATOM      7  C   UNL     1       2.933  -4.198  -7.684  1.00  0.00    -0.030 A 
ATOM      8  C   UNL     1       1.578  -4.108  -8.068  1.00  0.00     0.005 A 
ATOM      9  C   UNL     1       1.168  -3.361  -9.174  1.00  0.00     0.000 A 
ATOM     10  C   UNL     1       3.450  -2.782  -9.611  1.00  0.00     0.014 A 
ATOM     11  C   UNL     1       2.103  -2.695  -9.947  1.00  0.00     0.001 A 
BRANCH   7  12
ATOM     12  C   UNL     1       3.295  -4.944  -6.420  1.00  0.00     0.041 C 
ATOM     13  N   UNL     1       2.622  -5.610  -4.218  1.00  0.00    -0.338 N 
ATOM     14  C   UNL     1       3.904  -4.941  -4.135  1.00  0.00     0.120 C 
ATOM     15  C   UNL     1       2.245  -5.780  -5.622  1.00  0.00     0.128 C 
ATOM     16  C   UNL     1       3.809  -3.994  -5.321  1.00  0.00     0.032 C 
BRANCH  13  17
ATOM     17  C   UNL     1       1.656  -5.778  -3.237  1.00  0.00     0.253 C 
ATOM     18  O   UNL     1       0.795  -6.652  -3.328  1.00  0.00    -0.269 OA
BRANCH  17  19
ATOM     19  C   UNL     1       1.521  -4.770  -2.136  1.00  0.00     0.040 A 
ATOM     20  C   UNL     1       0.905  -2.787  -0.241  1.00  0.00     0.082 A 
ATOM     21  C   UNL     1       0.426  -4.090  -0.068  1.00  0.00     0.022 A 
ATOM     22  C   UNL     1       1.695  -2.471  -1.339  1.00  0.00     0.022 A 
ATOM     23  C   UNL     1       0.743  -5.080  -1.011  1.00  0.00     0.015 A 
ATOM     24  C   UNL     1       1.963  -3.450  -2.289  1.00  0.00     0.015 A 
BRANCH  20  25
ATOM     25  S   UNL     1       0.424  -1.519   0.890  1.00  0.00     0.238 S 
ATOM     26  O   UNL     1       1.106  -1.727   2.139  1.00  0.00    -0.207 OA
ATOM     27  O   UNL     1      -1.009  -1.337   0.789  1.00  0.00    -0.207 OA
BRANCH  25  28
ATOM     28  N   UNL     1       1.087  -0.111   0.242  1.00  0.00    -0.225 NA
ATOM     29  H   UNL     1       0.854   0.681   0.840  1.00  0.00     0.137 HD
ATOM     30  H   UNL     1       0.708   0.045  -0.692  1.00  0.00     0.137 HD
ENDBRANCH  25  28
ENDBRANCH  20  25
ENDBRANCH  17  19
ENDBRANCH  13  17
ENDBRANCH   7  12
ENDBRANCH   3   6
ENDBRANCH   1   2
BRANCH   1  31
ATOM     31  C   UNL     1       6.581  -6.645  -7.005  1.00  0.00     0.042 C 
BRANCH  31  32
ATOM     32  C   UNL     1       7.701  -7.241  -6.182  1.00  0.00     0.118 C 
BRANCH  32  33
ATOM     33  N   UNL     1       7.703  -6.833  -4.782  1.00  0.00    -0.352 N 
ATOM     34  C   UNL     1       8.031  -7.580  -3.671  1.00  0.00     0.251 C 
ATOM     35  H   UNL     1       7.435  -5.902  -4.608  1.00  0.00     0.163 HD
ATOM     36  O   UNL     1       7.922  -7.090  -2.552  1.00  0.00    -0.269 OA
BRANCH  34  37
ATOM     37  C   UNL     1       8.457  -8.986  -3.847  1.00  0.00     0.039 A 
ATOM     38  C   UNL     1       7.907  -9.971  -3.024  1.00  0.00     0.014 A 
ATOM     39  C   UNL     1       9.318  -9.341  -4.887  1.00  0.00     0.014 A 
ATOM     40  C   UNL     1       8.133 -11.317  -3.321  1.00  0.00     0.010 A 
ATOM     41  C   UNL     1       9.431 -10.671  -5.258  1.00  0.00     0.010 A 
ATOM     42  C   UNL     1       8.840 -11.676  -4.481  1.00  0.00    -0.014 A 
BRANCH  42  43
ATOM     43  C   UNL     1       8.969 -13.089  -4.917  1.00  0.00     0.031 A 
ATOM     44  C   UNL     1      10.336 -13.691  -5.102  1.00  0.00     0.074 A 
ATOM     45  C   UNL     1       7.863 -13.789  -5.244  1.00  0.00     0.049 A 
ATOM     46  N   UNL     1      10.665 -14.859  -5.588  1.00  0.00    -0.248 NA
ATOM     47  C   UNL     1      11.489 -12.852  -4.731  1.00  0.00     0.031 C 
ATOM     48  C   UNL     1       6.488 -13.287  -5.173  1.00  0.00     0.029 A 
ATOM     49  N   UNL     1       7.719 -15.070  -5.714  1.00  0.00    -0.354 N 
ATOM     50  C   UNL     1      12.055 -14.884  -5.601  1.00  0.00     0.074 A 
ATOM     51  C   UNL     1      12.508 -13.591  -5.141  1.00  0.00     0.031 C 
ATOM     52  C   UNL     1       5.642 -14.257  -5.553  1.00  0.00     0.029 A 
ATOM     53  C   UNL     1       6.412 -15.433  -5.942  1.00  0.00     0.049 A 
ATOM     54  H   UNL     1       8.481 -15.673  -5.874  1.00  0.00     0.167 HD
ATOM     55  C   UNL     1      12.879 -15.904  -5.936  1.00  0.00     0.037 A 
ATOM     56  C   UNL     1       5.894 -16.580  -6.422  1.00  0.00     0.037 A 
ATOM     57  C   UNL     1      12.414 -17.199  -6.356  1.00  0.00     0.049 A 
ATOM     58  C   UNL     1       6.829 -17.701  -6.783  1.00  0.00     0.074 A 
ATOM     59  C   UNL     1      13.159 -18.328  -6.645  1.00  0.00     0.029 A 
ATOM     60  N   UNL     1      11.082 -17.537  -6.549  1.00  0.00    -0.354 N 
ATOM     61  N   UNL     1       8.139 -17.735  -6.714  1.00  0.00    -0.248 NA
ATOM     62  C   UNL     1       6.220 -18.940  -7.285  1.00  0.00     0.031 C 
ATOM     63  C   UNL     1      12.281 -19.333  -7.062  1.00  0.00     0.029 A 
ATOM     64  C   UNL     1      10.985 -18.848  -6.981  1.00  0.00     0.049 A 
ATOM     65  H   UNL     1      10.319 -16.933  -6.400  1.00  0.00     0.167 HD
ATOM     66  C   UNL     1       8.510 -19.003  -7.147  1.00  0.00     0.074 A 
ATOM     67  C   UNL     1       7.285 -19.712  -7.454  1.00  0.00     0.031 C 
ATOM     68  C   UNL     1       9.752 -19.532  -7.284  1.00  0.00     0.037 A 
BRANCH  55  69
ATOM     69  C   UNL     1      14.362 -15.663  -5.848  1.00  0.00     0.058 A 
ATOM     70  C   UNL     1      15.009 -15.485  -4.613  1.00  0.00     0.135 A 
ATOM     71  C   UNL     1      15.152 -15.636  -7.008  1.00  0.00     0.135 A 
ATOM     72  F   UNL     1      14.301 -15.483  -3.472  1.00  0.00    -0.206 F 
ATOM     73  C   UNL     1      16.379 -15.259  -4.535  1.00  0.00     0.059 A 
ATOM     74  C   UNL     1      16.529 -15.442  -6.951  1.00  0.00     0.059 A 
ATOM     75  F   UNL     1      14.587 -15.795  -8.215  1.00  0.00    -0.206 F 
ATOM     76  C   UNL     1      17.131 -15.241  -5.710  1.00  0.00     0.060 A 
BRANCH  76  77
ATOM     77  S   UNL     1      18.909 -14.955  -5.587  1.00  0.00     0.124 S 
ATOM     78  O   UNL     1      18.952 -13.539  -5.235  1.00  0.00    -0.237 OA
ATOM     79  O   UNL     1      19.301 -15.882  -4.531  1.00  0.00    -0.237 OA
ATOM     80  O   UNL     1      19.400 -15.284  -6.921  1.00  0.00    -0.744 OA
ENDBRANCH  76  77
ENDBRANCH  55  69
BRANCH  56  81
ATOM     81  C   UNL     1       4.420 -16.730  -6.571  1.00  0.00     0.058 A 
ATOM     82  C   UNL     1       3.696 -17.599  -5.742  1.00  0.00     0.135 A 
ATOM     83  C   UNL     1       3.704 -15.998  -7.532  1.00  0.00     0.135 A 
ATOM     84  F   UNL     1       4.335 -18.325  -4.812  1.00  0.00    -0.206 F 
ATOM     85  C   UNL     1       2.319 -17.753  -5.870  1.00  0.00     0.059 A 
ATOM     86  C   UNL     1       2.323 -16.114  -7.661  1.00  0.00     0.059 A 
ATOM     87  F   UNL     1       4.345 -15.139  -8.339  1.00  0.00    -0.206 F 
ATOM     88  C   UNL     1       1.641 -17.003  -6.832  1.00  0.00     0.060 A 
BRANCH  88  89
ATOM     89  S   UNL     1      -0.152 -17.181  -6.961  1.00  0.00     0.124 S 
ATOM     90  O   UNL     1      -0.274 -18.506  -7.557  1.00  0.00    -0.237 OA
ATOM     91  O   UNL     1      -0.572 -17.066  -5.568  1.00  0.00    -0.237 OA
ATOM     92  O   UNL     1      -0.539 -16.064  -7.819  1.00  0.00    -0.744 OA
ENDBRANCH  88  89
ENDBRANCH  56  81
BRANCH  68  93
ATOM     93  C   UNL     1       9.846 -20.950  -7.773  1.00  0.00     0.058 A 
ATOM     94  C   UNL     1       9.573 -21.285  -9.109  1.00  0.00     0.135 A 
ATOM     95  C   UNL     1      10.270 -21.975  -6.912  1.00  0.00     0.135 A 
ATOM     96  F   UNL     1       9.157 -20.343  -9.970  1.00  0.00    -0.206 F 
ATOM     97  C   UNL     1       9.696 -22.591  -9.568  1.00  0.00     0.059 A 
ATOM     98  C   UNL     1      10.430 -23.283  -7.358  1.00  0.00     0.059 A 
ATOM     99  F   UNL     1      10.554 -21.706  -5.628  1.00  0.00    -0.206 F 
ATOM    100  C   UNL     1      10.130 -23.583  -8.686  1.00  0.00     0.060 A 
BRANCH 100 101
ATOM    101  S   UNL     1      10.323 -25.266  -9.308  1.00  0.00     0.124 S 
ATOM    102  O   UNL     1       8.934 -25.684  -9.462  1.00  0.00    -0.237 OA
ATOM    103  O   UNL     1      11.064 -25.056 -10.547  1.00  0.00    -0.237 OA
ATOM    104  O   UNL     1      11.067 -25.937  -8.246  1.00  0.00    -0.744 OA
ENDBRANCH 100 101
ENDBRANCH  68  93
ENDBRANCH  42  43
ENDBRANCH  34  37
ENDBRANCH  32  33
ENDBRANCH  31  32
ENDBRANCH   1  31
TORSDOF 18
