REMARK SMILES O=C(NCCCNC(=O)c1ccc(-c2cccc(O)c2)cc1Cl)c1ccc(-c2c3nc(c(-c4c(F)cc(S(=O)(=O)[O-])cc4F)c4ccc([nH]4)c(-c4c(F)cc(S(=O)(=O)[O-])cc4F)c4nc(c(-c5c(F)cc(S(=O)(=O)[O-])cc5F)c5ccc2[nH]5)C=C4)C=C3)cc1
REMARK SMILES IDX 4 1 3 2 1 3 2 4 24 6 25 7 89 8 26 9 88 10 27 11 28 12 29 13
REMARK SMILES IDX 82 14 30 15 87 16 81 17 83 18 31 19 86 20 80 21 79 22 32 24
REMARK SMILES IDX 66 25 45 26 65 27 46 28 49 29 64 30 84 31 47 32 48 33 63 35
REMARK SMILES IDX 85 36 50 37 33 38 34 39 43 40 35 41 36 42 42 43 44 44 37 45
REMARK SMILES IDX 38 46 39 47 40 48 41 49 67 50 68 51 77 52 69 53 70 54 76 55
REMARK SMILES IDX 78 56 71 57 72 58 73 59 74 60 75 61 51 62 52 63 61 64 53 65
REMARK SMILES IDX 54 66 60 67 62 68 55 69 56 70 57 71 58 72 59 73 5 74 6 75
REMARK SMILES IDX 7 76 8 77 9 79 10 80 11 81 22 82 12 83 21 84 23 85 13 86
REMARK SMILES IDX 14 87 15 88 20 89 16 90 18 91 17 92 19 93
REMARK H PARENT 3 5 83 23 49 34 7 78 19 94
REMARK Flexibility Score: inf
ROOT
ATOM      1  C   UNL     1       4.498  -0.672  -1.185  1.00  0.00     0.118 C 
ENDROOT
BRANCH   1   2
ATOM      2  N   UNL     1       3.068  -0.425  -1.049  1.00  0.00    -0.352 N 
ATOM      3  O   UNL     1       1.118   0.124  -0.072  1.00  0.00    -0.269 OA
ATOM      4  C   UNL     1       2.346   0.159  -0.034  1.00  0.00     0.251 C 
ATOM      5  H   UNL     1       2.526  -0.729  -1.813  1.00  0.00     0.163 HD
BRANCH   4   6
ATOM      6  C   UNL     1       3.030   0.796   1.114  1.00  0.00     0.039 A 
ATOM      7  C   UNL     1       4.174   1.571   0.932  1.00  0.00     0.014 A 
ATOM      8  C   UNL     1       2.509   0.626   2.402  1.00  0.00     0.014 A 
ATOM      9  C   UNL     1       4.904   1.997   2.035  1.00  0.00     0.010 A 
ATOM     10  C   UNL     1       3.185   1.156   3.507  1.00  0.00     0.010 A 
ATOM     11  C   UNL     1       4.418   1.803   3.338  1.00  0.00    -0.014 A 
BRANCH  11  12
ATOM     12  C   UNL     1       5.212   2.314   4.488  1.00  0.00     0.031 A 
ATOM     13  C   UNL     1       5.771   1.380   5.530  1.00  0.00     0.074 A 
ATOM     14  C   UNL     1       5.480   3.634   4.555  1.00  0.00     0.049 A 
ATOM     15  N   UNL     1       6.540   1.655   6.553  1.00  0.00    -0.248 NA
ATOM     16  C   UNL     1       5.415  -0.043   5.419  1.00  0.00     0.031 C 
ATOM     17  C   UNL     1       4.980   4.643   3.617  1.00  0.00     0.029 A 
ATOM     18  N   UNL     1       6.264   4.351   5.422  1.00  0.00    -0.354 N 
ATOM     19  C   UNL     1       6.734   0.452   7.224  1.00  0.00     0.074 A 
ATOM     20  C   UNL     1       5.985  -0.554   6.502  1.00  0.00     0.031 C 
ATOM     21  C   UNL     1       5.527   5.830   3.913  1.00  0.00     0.029 A 
ATOM     22  C   UNL     1       6.364   5.684   5.097  1.00  0.00     0.049 A 
ATOM     23  H   UNL     1       6.712   3.951   6.202  1.00  0.00     0.167 HD
ATOM     24  C   UNL     1       7.473   0.208   8.334  1.00  0.00     0.037 A 
ATOM     25  C   UNL     1       7.051   6.681   5.685  1.00  0.00     0.037 A 
ATOM     26  C   UNL     1       8.246   1.207   9.027  1.00  0.00     0.049 A 
ATOM     27  C   UNL     1       7.876   6.380   6.902  1.00  0.00     0.074 A 
ATOM     28  C   UNL     1       9.066   1.048  10.132  1.00  0.00     0.029 A 
ATOM     29  N   UNL     1       8.298   2.550   8.684  1.00  0.00    -0.354 N 
ATOM     30  N   UNL     1       8.068   5.230   7.502  1.00  0.00    -0.248 NA
ATOM     31  C   UNL     1       8.571   7.513   7.526  1.00  0.00     0.031 C 
ATOM     32  C   UNL     1       9.584   2.302  10.479  1.00  0.00     0.029 A 
ATOM     33  C   UNL     1       9.120   3.235   9.566  1.00  0.00     0.049 A 
ATOM     34  H   UNL     1       7.820   2.958   7.926  1.00  0.00     0.167 HD
ATOM     35  C   UNL     1       8.918   5.497   8.567  1.00  0.00     0.074 A 
ATOM     36  C   UNL     1       9.217   6.915   8.518  1.00  0.00     0.031 C 
ATOM     37  C   UNL     1       9.406   4.646   9.503  1.00  0.00     0.037 A 
BRANCH  24  38
ATOM     38  C   UNL     1       7.467  -1.193   8.884  1.00  0.00     0.058 A 
ATOM     39  C   UNL     1       8.148  -2.243   8.249  1.00  0.00     0.135 A 
ATOM     40  C   UNL     1       6.796  -1.480  10.084  1.00  0.00     0.135 A 
ATOM     41  F   UNL     1       8.794  -2.029   7.093  1.00  0.00    -0.206 F 
ATOM     42  C   UNL     1       8.139  -3.535   8.769  1.00  0.00     0.059 A 
ATOM     43  C   UNL     1       6.793  -2.759  10.634  1.00  0.00     0.059 A 
ATOM     44  F   UNL     1       6.131  -0.512  10.734  1.00  0.00    -0.206 F 
ATOM     45  C   UNL     1       7.455  -3.784   9.960  1.00  0.00     0.060 A 
BRANCH  45  46
ATOM     46  S   UNL     1       7.444  -5.465  10.619  1.00  0.00     0.124 S 
ATOM     47  O   UNL     1       6.490  -6.119   9.729  1.00  0.00    -0.237 OA
ATOM     48  O   UNL     1       8.837  -5.873  10.463  1.00  0.00    -0.237 OA
ATOM     49  O   UNL     1       6.998  -5.287  11.997  1.00  0.00    -0.744 OA
ENDBRANCH  45  46
ENDBRANCH  24  38
BRANCH  25  50
ATOM     50  C   UNL     1       6.994   8.051   5.114  1.00  0.00     0.058 A 
ATOM     51  C   UNL     1       8.105   8.608   4.465  1.00  0.00     0.135 A 
ATOM     52  C   UNL     1       5.818   8.815   5.174  1.00  0.00     0.135 A 
ATOM     53  F   UNL     1       9.253   7.917   4.386  1.00  0.00    -0.206 F 
ATOM     54  C   UNL     1       8.057   9.879   3.902  1.00  0.00     0.059 A 
ATOM     55  C   UNL     1       5.737  10.077   4.596  1.00  0.00     0.059 A 
ATOM     56  F   UNL     1       4.723   8.317   5.768  1.00  0.00    -0.206 F 
ATOM     57  C   UNL     1       6.866  10.604   3.969  1.00  0.00     0.060 A 
BRANCH  57  58
ATOM     58  S   UNL     1       6.790  12.228   3.182  1.00  0.00     0.124 S 
ATOM     59  O   UNL     1       7.507  13.054   4.145  1.00  0.00    -0.237 OA
ATOM     60  O   UNL     1       7.470  11.988   1.913  1.00  0.00    -0.237 OA
ATOM     61  O   UNL     1       5.355  12.479   3.075  1.00  0.00    -0.744 OA
ENDBRANCH  57  58
ENDBRANCH  25  50
BRANCH  37  62
ATOM     62  C   UNL     1      10.334   5.225  10.532  1.00  0.00     0.058 A 
ATOM     63  C   UNL     1       9.861   6.035  11.576  1.00  0.00     0.135 A 
ATOM     64  C   UNL     1      11.710   4.951  10.483  1.00  0.00     0.135 A 
ATOM     65  F   UNL     1       8.555   6.332  11.662  1.00  0.00    -0.206 F 
ATOM     66  C   UNL     1      10.725   6.579  12.521  1.00  0.00     0.059 A 
ATOM     67  C   UNL     1      12.589   5.465  11.431  1.00  0.00     0.059 A 
ATOM     68  F   UNL     1      12.211   4.175   9.509  1.00  0.00    -0.206 F 
ATOM     69  C   UNL     1      12.089   6.291  12.437  1.00  0.00     0.060 A 
BRANCH  69  70
ATOM     70  S   UNL     1      13.202   6.990  13.674  1.00  0.00     0.124 S 
ATOM     71  O   UNL     1      13.336   8.365  13.204  1.00  0.00    -0.237 OA
ATOM     72  O   UNL     1      12.450   6.814  14.912  1.00  0.00    -0.237 OA
ATOM     73  O   UNL     1      14.401   6.165  13.554  1.00  0.00    -0.744 OA
ENDBRANCH  69  70
ENDBRANCH  37  62
ENDBRANCH  11  12
ENDBRANCH   4   6
ENDBRANCH   1   2
BRANCH   1  74
ATOM     74  C   UNL     1       4.864  -2.148  -1.121  1.00  0.00     0.042 C 
BRANCH  74  75
ATOM     75  C   UNL     1       4.305  -2.981  -2.265  1.00  0.00     0.118 C 
BRANCH  75  76
ATOM     76  N   UNL     1       4.779  -2.534  -3.568  1.00  0.00    -0.352 N 
ATOM     77  C   UNL     1       5.524  -3.207  -4.502  1.00  0.00     0.252 C 
ATOM     78  H   UNL     1       4.527  -1.615  -3.814  1.00  0.00     0.163 HD
ATOM     79  O   UNL     1       5.901  -2.645  -5.526  1.00  0.00    -0.269 OA
BRANCH  77  80
ATOM     80  C   UNL     1       5.927  -4.599  -4.254  1.00  0.00     0.058 A 
ATOM     81  C   UNL     1       7.296  -4.860  -4.138  1.00  0.00     0.016 A 
ATOM     82  C   UNL     1       5.007  -5.644  -4.160  1.00  0.00     0.054 A 
ATOM     83  C   UNL     1       7.738  -6.158  -3.868  1.00  0.00     0.009 A 
ATOM     84  C   UNL     1       5.457  -6.933  -3.858  1.00  0.00     0.030 A 
ATOM     85  Cl  UNL     1       3.312  -5.431  -4.424  1.00  0.00    -0.083 Cl
ATOM     86  C   UNL     1       6.827  -7.215  -3.702  1.00  0.00    -0.017 A 
BRANCH  86  87
ATOM     87  C   UNL     1       7.281  -8.580  -3.374  1.00  0.00    -0.015 A 
ATOM     88  C   UNL     1       6.721  -9.704  -4.010  1.00  0.00     0.009 A 
ATOM     89  C   UNL     1       8.268  -8.807  -2.402  1.00  0.00     0.054 A 
ATOM     90  C   UNL     1       7.120 -11.002  -3.677  1.00  0.00     0.004 A 
ATOM     91  C   UNL     1       8.664 -10.102  -2.077  1.00  0.00     0.116 A 
ATOM     92  C   UNL     1       8.095 -11.204  -2.704  1.00  0.00     0.046 A 
BRANCH  91  93
ATOM     93  O   UNL     1       9.624 -10.248  -1.120  1.00  0.00    -0.508 OA
ATOM     94  H   UNL     1       9.915 -11.105  -0.875  1.00  0.00     0.293 HD
ENDBRANCH  91  93
ENDBRANCH  86  87
ENDBRANCH  77  80
ENDBRANCH  75  76
ENDBRANCH  74  75
ENDBRANCH   1  74
TORSDOF 15
