REMARK SMILES Cc1cscc1C(=O)N1Cc2nc[nH]c2C[C@H]1C(=O)NCCCNC(=O)c1ccc(-c2c3nc(c(-c4c(F)cc(S(=O)(=O)[O-])cc4F)c4ccc([nH]4)c(-c4c(F)cc(S(=O)(=O)[O-])cc4F)c4nc(c(-c5c(F)cc(S(=O)(=O)[O-])cc5F)c5ccc2[nH]5)C=C4)C=C3)cc1
REMARK SMILES IDX 22 1 21 2 20 3 18 4 19 5 17 7 9 8 10 9 11 10 16 11 12 12
REMARK SMILES IDX 15 13 13 14 14 15 7 17 8 18 6 19 1 20 2 21 3 22 4 23 5 24
REMARK SMILES IDX 23 25 24 26 25 27 26 29 27 30 28 31 92 32 29 33 91 34 30 35
REMARK SMILES IDX 31 36 32 37 85 38 33 39 90 40 84 41 86 42 34 43 89 44 83 45
REMARK SMILES IDX 82 46 35 48 69 49 48 50 68 51 49 52 52 53 67 54 87 55 50 56
REMARK SMILES IDX 51 57 66 59 88 60 53 61 36 62 37 63 46 64 38 65 39 66 45 67
REMARK SMILES IDX 47 68 40 69 41 70 42 71 43 72 44 73 70 74 71 75 80 76 72 77
REMARK SMILES IDX 73 78 79 79 81 80 74 81 75 82 76 83 77 84 78 85 54 86 55 87
REMARK SMILES IDX 64 88 56 89 57 90 63 91 65 92 58 93 59 94 60 95 61 96 62 97
REMARK H PARENT 20 6 14 16 24 28 86 47 52 58
REMARK Flexibility Score: inf
ROOT
ATOM      1  C   UNL     1       5.751   2.946   2.173  1.00  0.00     0.042 C 
ENDROOT
BRANCH   1   2
ATOM      2  C   UNL     1       6.244   2.373   0.847  1.00  0.00     0.117 C 
BRANCH   2   3
ATOM      3  N   UNL     1       5.499   1.209   0.390  1.00  0.00    -0.354 N 
ATOM      4  C   UNL     1       4.701   1.077  -0.705  1.00  0.00     0.243 C 
ATOM      5  O   UNL     1       4.992   0.133  -1.455  1.00  0.00    -0.273 OA
ATOM      6  H   UNL     1       5.584   0.405   0.951  1.00  0.00     0.163 HD
BRANCH   4   7
ATOM      7  C   UNL     1       3.568   2.050  -1.145  1.00  0.00     0.181 C 
ATOM      8  N   UNL     1       2.637   2.688  -0.152  1.00  0.00    -0.320 N 
ATOM      9  C   UNL     1       3.049   3.933   0.537  1.00  0.00     0.178 C 
ATOM     10  C   UNL     1       4.083   4.676  -0.227  1.00  0.00     0.081 A 
ATOM     11  C   UNL     1       4.157   3.071  -2.172  1.00  0.00     0.091 C 
ATOM     12  N   UNL     1       4.793   5.745   0.255  1.00  0.00    -0.240 NA
ATOM     13  C   UNL     1       4.578   4.288  -1.448  1.00  0.00     0.042 A 
ATOM     14  C   UNL     1       5.698   6.003  -0.665  1.00  0.00     0.197 A 
ATOM     15  N   UNL     1       5.592   5.154  -1.736  1.00  0.00    -0.348 N 
ATOM     16  H   UNL     1       6.141   5.166  -2.554  1.00  0.00     0.167 HD
BRANCH   8  17
ATOM     17  C   UNL     1       1.247   2.491  -0.162  1.00  0.00     0.256 C 
ATOM     18  O   UNL     1       0.516   3.484  -0.071  1.00  0.00    -0.269 OA
BRANCH  17  19
ATOM     19  C   UNL     1       0.591   1.163  -0.227  1.00  0.00     0.053 A 
ATOM     20  C   UNL     1       2.392  -0.711   0.308  1.00  0.00     0.046 C 
ATOM     21  C   UNL     1       1.030  -0.207  -0.010  1.00  0.00    -0.028 A 
ATOM     22  C   UNL     1      -0.027  -1.104  -0.095  1.00  0.00     0.069 A 
ATOM     23  S   UNL     1      -1.526  -0.366  -0.382  1.00  0.00    -0.151 S 
ATOM     24  C   UNL     1      -0.792   1.164  -0.413  1.00  0.00     0.079 A 
ENDBRANCH  17  19
ENDBRANCH   8  17
ENDBRANCH   4   7
ENDBRANCH   2   3
ENDBRANCH   1   2
BRANCH   1  25
ATOM     25  C   UNL     1       6.754   2.819   3.302  1.00  0.00     0.118 C 
BRANCH  25  26
ATOM     26  N   UNL     1       7.954   3.637   3.106  1.00  0.00    -0.352 N 
ATOM     27  C   UNL     1       9.150   3.556   3.804  1.00  0.00     0.251 C 
ATOM     28  H   UNL     1       7.905   4.322   2.400  1.00  0.00     0.163 HD
ATOM     29  O   UNL     1       9.966   4.458   3.788  1.00  0.00    -0.269 OA
BRANCH  27  30
ATOM     30  C   UNL     1       9.382   2.327   4.586  1.00  0.00     0.039 A 
ATOM     31  C   UNL     1       9.622   2.381   5.960  1.00  0.00     0.014 A 
ATOM     32  C   UNL     1       9.130   1.124   3.941  1.00  0.00     0.014 A 
ATOM     33  C   UNL     1       9.473   1.215   6.713  1.00  0.00     0.010 A 
ATOM     34  C   UNL     1       8.807   0.032   4.710  1.00  0.00     0.010 A 
ATOM     35  C   UNL     1       9.013   0.044   6.092  1.00  0.00    -0.014 A 
BRANCH  35  36
ATOM     36  C   UNL     1       8.624  -1.134   6.880  1.00  0.00     0.031 A 
ATOM     37  C   UNL     1       7.724  -0.902   8.056  1.00  0.00     0.074 A 
ATOM     38  C   UNL     1       8.835  -2.395   6.438  1.00  0.00     0.049 A 
ATOM     39  N   UNL     1       7.937  -1.209   9.296  1.00  0.00    -0.248 NA
ATOM     40  C   UNL     1       6.460  -0.178   7.843  1.00  0.00     0.031 C 
ATOM     41  C   UNL     1       9.450  -2.823   5.173  1.00  0.00     0.029 A 
ATOM     42  N   UNL     1       8.401  -3.573   6.964  1.00  0.00    -0.354 N 
ATOM     43  C   UNL     1       6.765  -0.901   9.991  1.00  0.00     0.074 A 
ATOM     44  C   UNL     1       5.954  -0.137   9.078  1.00  0.00     0.031 C 
ATOM     45  C   UNL     1       9.100  -4.097   4.907  1.00  0.00     0.029 A 
ATOM     46  C   UNL     1       8.417  -4.634   6.067  1.00  0.00     0.049 A 
ATOM     47  H   UNL     1       8.102  -3.665   7.898  1.00  0.00     0.167 HD
ATOM     48  C   UNL     1       6.468  -1.464  11.199  1.00  0.00     0.037 A 
ATOM     49  C   UNL     1       7.895  -5.870   6.241  1.00  0.00     0.037 A 
ATOM     50  C   UNL     1       7.627  -2.086  11.787  1.00  0.00     0.049 A 
ATOM     51  C   UNL     1       7.778  -6.085   7.704  1.00  0.00     0.074 A 
ATOM     52  C   UNL     1       8.880  -1.645  12.168  1.00  0.00     0.029 A 
ATOM     53  N   UNL     1       7.717  -3.457  11.740  1.00  0.00    -0.354 N 
ATOM     54  N   UNL     1       8.803  -6.172   8.508  1.00  0.00    -0.248 NA
ATOM     55  C   UNL     1       6.512  -5.771   8.347  1.00  0.00     0.031 C 
ATOM     56  C   UNL     1       9.763  -2.713  11.833  1.00  0.00     0.029 A 
ATOM     57  C   UNL     1       8.990  -3.759  11.327  1.00  0.00     0.049 A 
ATOM     58  H   UNL     1       7.005  -4.099  11.961  1.00  0.00     0.167 HD
ATOM     59  C   UNL     1       8.410  -5.508   9.659  1.00  0.00     0.074 A 
ATOM     60  C   UNL     1       6.958  -5.389   9.547  1.00  0.00     0.031 C 
ATOM     61  C   UNL     1       9.318  -4.868  10.457  1.00  0.00     0.037 A 
BRANCH  48  62
ATOM     62  C   UNL     1       5.072  -1.750  11.713  1.00  0.00     0.058 A 
ATOM     63  C   UNL     1       4.891  -2.171  13.050  1.00  0.00     0.135 A 
ATOM     64  C   UNL     1       3.949  -1.908  10.873  1.00  0.00     0.135 A 
ATOM     65  F   UNL     1       5.891  -2.068  13.941  1.00  0.00    -0.206 F 
ATOM     66  C   UNL     1       3.717  -2.785  13.492  1.00  0.00     0.059 A 
ATOM     67  C   UNL     1       2.750  -2.468  11.308  1.00  0.00     0.059 A 
ATOM     68  F   UNL     1       3.992  -1.625   9.566  1.00  0.00    -0.206 F 
ATOM     69  C   UNL     1       2.660  -2.951  12.603  1.00  0.00     0.060 A 
BRANCH  69  70
ATOM     70  S   UNL     1       1.200  -3.873  13.120  1.00  0.00     0.124 S 
ATOM     71  O   UNL     1       1.725  -5.233  13.176  1.00  0.00    -0.237 OA
ATOM     72  O   UNL     1       0.885  -3.256  14.404  1.00  0.00    -0.237 OA
ATOM     73  O   UNL     1       0.242  -3.609  12.051  1.00  0.00    -0.744 OA
ENDBRANCH  69  70
ENDBRANCH  48  62
BRANCH  49  74
ATOM     74  C   UNL     1       7.277  -6.751   5.219  1.00  0.00     0.058 A 
ATOM     75  C   UNL     1       7.023  -8.107   5.481  1.00  0.00     0.135 A 
ATOM     76  C   UNL     1       6.686  -6.223   4.050  1.00  0.00     0.135 A 
ATOM     77  F   UNL     1       7.529  -8.688   6.580  1.00  0.00    -0.206 F 
ATOM     78  C   UNL     1       6.192  -8.881   4.664  1.00  0.00     0.059 A 
ATOM     79  C   UNL     1       5.869  -6.979   3.212  1.00  0.00     0.059 A 
ATOM     80  F   UNL     1       6.809  -4.925   3.735  1.00  0.00    -0.206 F 
ATOM     81  C   UNL     1       5.602  -8.301   3.541  1.00  0.00     0.060 A 
BRANCH  81  82
ATOM     82  S   UNL     1       4.378  -9.236   2.595  1.00  0.00     0.124 S 
ATOM     83  O   UNL     1       5.207 -10.235   1.932  1.00  0.00    -0.237 OA
ATOM     84  O   UNL     1       3.493  -9.733   3.643  1.00  0.00    -0.237 OA
ATOM     85  O   UNL     1       3.789  -8.228   1.716  1.00  0.00    -0.744 OA
ENDBRANCH  81  82
ENDBRANCH  49  74
BRANCH  61  86
ATOM     86  C   UNL     1      10.786  -5.139  10.237  1.00  0.00     0.058 A 
ATOM     87  C   UNL     1      11.483  -4.813   9.060  1.00  0.00     0.135 A 
ATOM     88  C   UNL     1      11.551  -5.591  11.323  1.00  0.00     0.135 A 
ATOM     89  F   UNL     1      10.853  -4.271   8.011  1.00  0.00    -0.206 F 
ATOM     90  C   UNL     1      12.866  -4.967   8.952  1.00  0.00     0.059 A 
ATOM     91  C   UNL     1      12.936  -5.723  11.249  1.00  0.00     0.059 A 
ATOM     92  F   UNL     1      10.957  -5.856  12.498  1.00  0.00    -0.206 F 
ATOM     93  C   UNL     1      13.586  -5.421  10.054  1.00  0.00     0.060 A 
BRANCH  93  94
ATOM     94  S   UNL     1      15.384  -5.534   9.939  1.00  0.00     0.124 S 
ATOM     95  O   UNL     1      15.564  -6.716   9.103  1.00  0.00    -0.237 OA
ATOM     96  O   UNL     1      15.746  -4.261   9.321  1.00  0.00    -0.237 OA
ATOM     97  O   UNL     1      15.806  -5.682  11.330  1.00  0.00    -0.744 OA
ENDBRANCH  93  94
ENDBRANCH  61  86
ENDBRANCH  35  36
ENDBRANCH  27  30
ENDBRANCH  25  26
ENDBRANCH   1  25
TORSDOF 15
