REMARK SMILES CC(C)[C@@H](CC(=O)OC(C)(C)C)C(=O)NCCCNC(=O)c1ccc(-c2c3nc(c(-c4c(F)cc(S(=O)(=O)[O-])cc4F)c4ccc([nH]4)c(-c4c(F)cc(S(=O)(=O)[O-])cc4F)c4nc(c(-c5c(F)cc(S(=O)(=O)[O-])cc5F)c5ccc2[nH]5)C=C4)C=C3)cc1
REMARK SMILES IDX 16 1 15 2 13 3 14 4 4 6 2 7 1 8 3 9 5 10 6 11 7 12 8 13 9 14
REMARK SMILES IDX 10 15 11 16 12 17 17 18 18 19 19 20 20 21 21 23 22 24 23 25
REMARK SMILES IDX 87 26 24 27 86 28 25 29 26 30 27 31 80 32 28 33 85 34 79 35
REMARK SMILES IDX 81 36 29 37 84 38 78 39 77 40 30 42 64 43 43 44 63 45 44 46
REMARK SMILES IDX 47 47 62 48 82 49 45 50 46 51 61 53 83 54 48 55 31 56 32 57
REMARK SMILES IDX 41 58 33 59 34 60 40 61 42 62 35 63 36 64 37 65 38 66 39 67
REMARK SMILES IDX 65 68 66 69 75 70 67 71 68 72 74 73 76 74 69 75 70 76 71 77
REMARK SMILES IDX 72 78 73 79 49 80 50 81 59 82 51 83 52 84 58 85 60 86 53 87
REMARK SMILES IDX 54 88 55 89 56 90 57 91
REMARK H PARENT 15 5 19 22 81 41 47 52
REMARK Flexibility Score: inf
ROOT
ATOM      1  C   UNL     1      -0.467   3.043   3.074  1.00  0.00     0.117 C 
ENDROOT
BRANCH   1   2
ATOM      2  N   UNL     1      -1.297   3.315   1.935  1.00  0.00    -0.356 N 
ATOM      3  C   UNL     1      -1.634   2.462   0.930  1.00  0.00     0.223 C 
ATOM      4  O   UNL     1      -2.525   2.817   0.154  1.00  0.00    -0.275 OA
ATOM      5  H   UNL     1      -1.667   4.225   1.873  1.00  0.00     0.163 HD
BRANCH   3   6
ATOM      6  C   UNL     1      -0.931   1.109   0.736  1.00  0.00     0.092 C 
BRANCH   6   7
ATOM      7  C   UNL     1       0.607   1.180   0.522  1.00  0.00    -0.004 C 
ATOM      8  C   UNL     1       1.146  -0.132  -0.062  1.00  0.00     0.008 C 
ATOM      9  C   UNL     1       1.004   2.328  -0.421  1.00  0.00     0.008 C 
ENDBRANCH   6   7
BRANCH   6  10
ATOM     10  C   UNL     1      -1.482   0.006   1.668  1.00  0.00     0.136 C 
BRANCH  10  11
ATOM     11  C   UNL     1      -1.177   0.011   3.157  1.00  0.00     0.307 C 
ATOM     12  O   UNL     1      -2.052   0.071   4.007  1.00  0.00    -0.252 OA
BRANCH  11  13
ATOM     13  O   UNL     1       0.153  -0.101   3.411  1.00  0.00    -0.460 OA
BRANCH  13  14
ATOM     14  C   UNL     1       0.689  -0.123   4.773  1.00  0.00     0.104 C 
ATOM     15  C   UNL     1       0.246   1.048   5.662  1.00  0.00     0.056 C 
ATOM     16  C   UNL     1       0.355  -1.452   5.450  1.00  0.00     0.056 C 
ATOM     17  C   UNL     1       2.211  -0.007   4.586  1.00  0.00     0.056 C 
ENDBRANCH  13  14
ENDBRANCH  11  13
ENDBRANCH  10  11
ENDBRANCH   6  10
ENDBRANCH   3   6
ENDBRANCH   1   2
BRANCH   1  18
ATOM     18  C   UNL     1       0.663   4.021   3.306  1.00  0.00     0.042 C 
BRANCH  18  19
ATOM     19  C   UNL     1       0.298   5.156   4.244  1.00  0.00     0.118 C 
BRANCH  19  20
ATOM     20  N   UNL     1      -0.235   4.707   5.533  1.00  0.00    -0.352 N 
ATOM     21  C   UNL     1       0.281   4.720   6.807  1.00  0.00     0.251 C 
ATOM     22  H   UNL     1      -1.139   4.322   5.475  1.00  0.00     0.163 HD
ATOM     23  O   UNL     1      -0.303   4.101   7.693  1.00  0.00    -0.269 OA
BRANCH  21  24
ATOM     24  C   UNL     1       1.532   5.444   7.115  1.00  0.00     0.039 A 
ATOM     25  C   UNL     1       2.394   4.949   8.100  1.00  0.00     0.014 A 
ATOM     26  C   UNL     1       1.854   6.621   6.448  1.00  0.00     0.014 A 
ATOM     27  C   UNL     1       3.613   5.590   8.339  1.00  0.00     0.010 A 
ATOM     28  C   UNL     1       3.122   7.164   6.574  1.00  0.00     0.010 A 
ATOM     29  C   UNL     1       4.010   6.671   7.538  1.00  0.00    -0.014 A 
BRANCH  29  30
ATOM     30  C   UNL     1       5.326   7.343   7.690  1.00  0.00     0.031 A 
ATOM     31  C   UNL     1       5.376   8.827   7.950  1.00  0.00     0.074 A 
ATOM     32  C   UNL     1       6.461   6.647   7.483  1.00  0.00     0.049 A 
ATOM     33  N   UNL     1       6.405   9.634   7.947  1.00  0.00    -0.248 NA
ATOM     34  C   UNL     1       4.089   9.504   8.195  1.00  0.00     0.031 C 
ATOM     35  C   UNL     1       6.538   5.218   7.167  1.00  0.00     0.029 A 
ATOM     36  N   UNL     1       7.771   7.053   7.489  1.00  0.00    -0.354 N 
ATOM     37  C   UNL     1       5.886  10.907   8.158  1.00  0.00     0.074 A 
ATOM     38  C   UNL     1       4.448  10.777   8.208  1.00  0.00     0.031 C 
ATOM     39  C   UNL     1       7.826   4.863   7.039  1.00  0.00     0.029 A 
ATOM     40  C   UNL     1       8.664   6.045   7.210  1.00  0.00     0.049 A 
ATOM     41  H   UNL     1       8.047   7.980   7.675  1.00  0.00     0.167 HD
ATOM     42  C   UNL     1       6.550  12.075   8.328  1.00  0.00     0.037 A 
ATOM     43  C   UNL     1      10.006   6.074   7.093  1.00  0.00     0.037 A 
ATOM     44  C   UNL     1       7.984  12.183   8.319  1.00  0.00     0.049 A 
ATOM     45  C   UNL     1      10.723   7.381   7.292  1.00  0.00     0.074 A 
ATOM     46  C   UNL     1       8.764  13.302   8.548  1.00  0.00     0.029 A 
ATOM     47  N   UNL     1       8.855  11.130   8.073  1.00  0.00    -0.354 N 
ATOM     48  N   UNL     1      10.222   8.566   7.551  1.00  0.00    -0.248 NA
ATOM     49  C   UNL     1      12.188   7.356   7.190  1.00  0.00     0.031 C 
ATOM     50  C   UNL     1      10.105  12.937   8.392  1.00  0.00     0.029 A 
ATOM     51  C   UNL     1      10.164  11.578   8.124  1.00  0.00     0.049 A 
ATOM     52  H   UNL     1       8.582  10.203   7.889  1.00  0.00     0.167 HD
ATOM     53  C   UNL     1      11.312   9.421   7.674  1.00  0.00     0.074 A 
ATOM     54  C   UNL     1      12.498   8.614   7.473  1.00  0.00     0.031 C 
ATOM     55  C   UNL     1      11.331  10.753   7.931  1.00  0.00     0.037 A 
BRANCH  42  56
ATOM     56  C   UNL     1       5.732  13.319   8.552  1.00  0.00     0.058 A 
ATOM     57  C   UNL     1       4.976  13.507   9.721  1.00  0.00     0.135 A 
ATOM     58  C   UNL     1       5.720  14.348   7.596  1.00  0.00     0.135 A 
ATOM     59  F   UNL     1       4.935  12.550  10.662  1.00  0.00    -0.206 F 
ATOM     60  C   UNL     1       4.210  14.651   9.918  1.00  0.00     0.059 A 
ATOM     61  C   UNL     1       4.989  15.517   7.788  1.00  0.00     0.059 A 
ATOM     62  F   UNL     1       6.421  14.223   6.458  1.00  0.00    -0.206 F 
ATOM     63  C   UNL     1       4.224  15.652   8.946  1.00  0.00     0.060 A 
BRANCH  63  64
ATOM     64  S   UNL     1       3.229  17.132   9.223  1.00  0.00     0.124 S 
ATOM     65  O   UNL     1       1.877  16.612   9.039  1.00  0.00    -0.237 OA
ATOM     66  O   UNL     1       3.587  17.496  10.590  1.00  0.00    -0.237 OA
ATOM     67  O   UNL     1       3.692  18.052   8.189  1.00  0.00    -0.744 OA
ENDBRANCH  63  64
ENDBRANCH  42  56
BRANCH  43  68
ATOM     68  C   UNL     1      10.756   4.822   6.801  1.00  0.00     0.058 A 
ATOM     69  C   UNL     1      11.575   4.232   7.776  1.00  0.00     0.135 A 
ATOM     70  C   UNL     1      10.659   4.181   5.556  1.00  0.00     0.135 A 
ATOM     71  F   UNL     1      11.703   4.808   8.981  1.00  0.00    -0.206 F 
ATOM     72  C   UNL     1      12.287   3.065   7.523  1.00  0.00     0.059 A 
ATOM     73  C   UNL     1      11.339   2.997   5.288  1.00  0.00     0.059 A 
ATOM     74  F   UNL     1       9.873   4.692   4.596  1.00  0.00    -0.206 F 
ATOM     75  C   UNL     1      12.159   2.452   6.275  1.00  0.00     0.060 A 
BRANCH  75  76
ATOM     76  S   UNL     1      13.053   0.912   5.974  1.00  0.00     0.124 S 
ATOM     77  O   UNL     1      14.430   1.383   5.884  1.00  0.00    -0.237 OA
ATOM     78  O   UNL     1      12.721   0.130   7.161  1.00  0.00    -0.237 OA
ATOM     79  O   UNL     1      12.469   0.424   4.728  1.00  0.00    -0.744 OA
ENDBRANCH  75  76
ENDBRANCH  43  68
BRANCH  55  80
ATOM     80  C   UNL     1      12.676  11.415   8.053  1.00  0.00     0.058 A 
ATOM     81  C   UNL     1      13.498  11.633   6.937  1.00  0.00     0.135 A 
ATOM     82  C   UNL     1      13.120  11.889   9.298  1.00  0.00     0.135 A 
ATOM     83  F   UNL     1      13.123  11.194   5.725  1.00  0.00    -0.206 F 
ATOM     84  C   UNL     1      14.726  12.275   7.055  1.00  0.00     0.059 A 
ATOM     85  C   UNL     1      14.329  12.562   9.434  1.00  0.00     0.059 A 
ATOM     86  F   UNL     1      12.366  11.717  10.396  1.00  0.00    -0.206 F 
ATOM     87  C   UNL     1      15.131  12.740   8.308  1.00  0.00     0.060 A 
BRANCH  87  88
ATOM     88  S   UNL     1      16.710  13.603   8.439  1.00  0.00     0.124 S 
ATOM     89  O   UNL     1      17.659  12.507   8.276  1.00  0.00    -0.237 OA
ATOM     90  O   UNL     1      16.639  14.552   7.332  1.00  0.00    -0.237 OA
ATOM     91  O   UNL     1      16.662  14.200   9.771  1.00  0.00    -0.744 OA
ENDBRANCH  87  88
ENDBRANCH  55  80
ENDBRANCH  29  30
ENDBRANCH  21  24
ENDBRANCH  19  20
ENDBRANCH  18  19
ENDBRANCH   1  18
TORSDOF 18
