REMARK SMILES Cc1ccc(/C=C2/SC(=O)N(CC(=O)NCCCNC(=O)c3ccc(-c4c5nc(c(-c6c(F)cc(S(=O)(=O)[O-])cc6F)c6ccc([nH]6)c(-c6c(F)cc(S(=O)(=O)[O-])cc6F)c6nc(c(-c7c(F)cc(S(=O)(=O)[O-])cc7F)c7ccc4[nH]7)C=C6)C=C5)cc3)C2=O)cc1
REMARK SMILES IDX 17 1 16 2 15 3 13 4 14 5 12 7 11 8 6 9 7 10 8 11 88 12 9 13
REMARK SMILES IDX 89 14 10 15 5 16 1 17 2 18 3 19 91 20 4 21 90 22 18 23 19 24
REMARK SMILES IDX 20 25 21 27 22 28 23 29 87 30 24 31 86 32 25 33 26 34 27 35
REMARK SMILES IDX 80 36 28 37 85 38 79 39 81 40 29 41 84 42 78 43 77 44 30 46
REMARK SMILES IDX 64 47 43 48 63 49 44 50 47 51 62 52 82 53 45 54 46 55 61 57
REMARK SMILES IDX 83 58 48 59 31 60 32 61 41 62 33 63 34 64 40 65 42 66 35 67
REMARK SMILES IDX 36 68 37 69 38 70 39 71 65 72 66 73 75 74 67 75 68 76 74 77
REMARK SMILES IDX 76 78 69 79 70 80 71 81 72 82 73 83 49 84 50 85 59 86 51 87
REMARK SMILES IDX 52 88 58 89 60 90 53 91 54 92 55 93 56 94 57 95
REMARK H PARENT 15 6 19 26 81 45 47 56
REMARK Flexibility Score: inf
ROOT
ATOM      1  C   UNL     1      -5.370   4.546  -2.130  1.00  0.00     0.042 C 
ENDROOT
BRANCH   1   2
ATOM      2  C   UNL     1      -5.020   4.724  -3.597  1.00  0.00     0.117 C 
BRANCH   2   3
ATOM      3  N   UNL     1      -3.597   4.549  -3.842  1.00  0.00    -0.354 N 
ATOM      4  C   UNL     1      -2.924   3.468  -4.333  1.00  0.00     0.240 C 
ATOM      5  O   UNL     1      -1.740   3.614  -4.645  1.00  0.00    -0.273 OA
ATOM      6  H   UNL     1      -3.035   5.326  -3.619  1.00  0.00     0.163 HD
BRANCH   4   7
ATOM      7  C   UNL     1      -3.636   2.131  -4.556  1.00  0.00     0.229 C 
BRANCH   7   8
ATOM      8  N   UNL     1      -4.059   1.523  -3.308  1.00  0.00    -0.259 N 
ATOM      9  C   UNL     1      -3.220   0.045  -0.092  1.00  0.00     0.029 C 
ATOM     10  C   UNL     1      -3.806   0.472  -1.220  1.00  0.00     0.083 C 
ATOM     11  S   UNL     1      -5.517   0.535  -1.437  1.00  0.00    -0.022 SA
ATOM     12  C   UNL     1      -3.133   0.971  -2.458  1.00  0.00     0.268 C 
ATOM     13  C   UNL     1      -5.374   1.287  -3.020  1.00  0.00     0.294 C 
ATOM     14  O   UNL     1      -1.945   0.847  -2.712  1.00  0.00    -0.268 OA
ATOM     15  O   UNL     1      -6.336   1.505  -3.730  1.00  0.00    -0.261 OA
BRANCH   9  16
ATOM     16  C   UNL     1      -1.769   0.019   0.100  1.00  0.00    -0.024 A 
ATOM     17  C   UNL     1       2.534  -0.050   0.088  1.00  0.00     0.044 C 
ATOM     18  C   UNL     1       1.036  -0.025   0.155  1.00  0.00    -0.051 A 
ATOM     19  C   UNL     1       0.310  -1.220   0.090  1.00  0.00     0.004 A 
ATOM     20  C   UNL     1       0.347   1.188   0.252  1.00  0.00     0.004 A 
ATOM     21  C   UNL     1      -1.087  -1.200   0.063  1.00  0.00     0.008 A 
ATOM     22  C   UNL     1      -1.048   1.211   0.232  1.00  0.00     0.008 A 
ENDBRANCH   9  16
ENDBRANCH   7   8
ENDBRANCH   4   7
ENDBRANCH   2   3
ENDBRANCH   1   2
BRANCH   1  23
ATOM     23  C   UNL     1      -5.079   5.779  -1.289  1.00  0.00     0.118 C 
BRANCH  23  24
ATOM     24  N   UNL     1      -6.214   6.689  -1.160  1.00  0.00    -0.352 N 
ATOM     25  C   UNL     1      -6.496   7.575  -0.128  1.00  0.00     0.251 C 
ATOM     26  H   UNL     1      -6.863   6.672  -1.900  1.00  0.00     0.163 HD
ATOM     27  O   UNL     1      -7.629   7.983   0.096  1.00  0.00    -0.269 OA
BRANCH  25  28
ATOM     28  C   UNL     1      -5.341   8.164   0.583  1.00  0.00     0.039 A 
ATOM     29  C   UNL     1      -5.083   9.523   0.347  1.00  0.00     0.014 A 
ATOM     30  C   UNL     1      -4.350   7.315   1.044  1.00  0.00     0.014 A 
ATOM     31  C   UNL     1      -3.769   9.964   0.300  1.00  0.00     0.010 A 
ATOM     32  C   UNL     1      -3.058   7.690   0.800  1.00  0.00     0.010 A 
ATOM     33  C   UNL     1      -2.776   9.004   0.397  1.00  0.00    -0.014 A 
BRANCH  33  34
ATOM     34  C   UNL     1      -1.363   9.234   0.202  1.00  0.00     0.031 A 
ATOM     35  C   UNL     1      -0.542   9.243   1.428  1.00  0.00     0.074 A 
ATOM     36  C   UNL     1      -0.874   9.089  -1.049  1.00  0.00     0.049 A 
ATOM     37  N   UNL     1       0.715   9.479   1.463  1.00  0.00    -0.248 NA
ATOM     38  C   UNL     1      -1.102   8.985   2.756  1.00  0.00     0.031 C 
ATOM     39  C   UNL     1       0.486   8.757  -1.454  1.00  0.00     0.029 A 
ATOM     40  N   UNL     1      -1.521   9.397  -2.250  1.00  0.00    -0.354 N 
ATOM     41  C   UNL     1       1.182   9.120   2.712  1.00  0.00     0.074 A 
ATOM     42  C   UNL     1       0.002   8.890   3.500  1.00  0.00     0.031 C 
ATOM     43  C   UNL     1       0.665   9.127  -2.735  1.00  0.00     0.029 A 
ATOM     44  C   UNL     1      -0.527   9.859  -3.136  1.00  0.00     0.049 A 
ATOM     45  H   UNL     1      -2.483   9.309  -2.439  1.00  0.00     0.167 HD
ATOM     46  C   UNL     1       2.526   8.943   2.850  1.00  0.00     0.037 A 
ATOM     47  C   UNL     1      -0.519  11.176  -3.512  1.00  0.00     0.037 A 
ATOM     48  C   UNL     1       3.187   9.402   1.627  1.00  0.00     0.049 A 
ATOM     49  C   UNL     1       0.676  11.918  -2.957  1.00  0.00     0.074 A 
ATOM     50  C   UNL     1       3.617   8.735   0.493  1.00  0.00     0.029 A 
ATOM     51  N   UNL     1       3.102  10.749   1.290  1.00  0.00    -0.354 N 
ATOM     52  N   UNL     1       1.304  11.582  -1.860  1.00  0.00    -0.248 NA
ATOM     53  C   UNL     1       1.310  13.039  -3.644  1.00  0.00     0.031 C 
ATOM     54  C   UNL     1       3.693   9.685  -0.561  1.00  0.00     0.029 A 
ATOM     55  C   UNL     1       3.336  10.927  -0.059  1.00  0.00     0.049 A 
ATOM     56  H   UNL     1       2.902  11.474   1.925  1.00  0.00     0.167 HD
ATOM     57  C   UNL     1       2.400  12.390  -1.696  1.00  0.00     0.074 A 
ATOM     58  C   UNL     1       2.358  13.284  -2.839  1.00  0.00     0.031 C 
ATOM     59  C   UNL     1       3.279  12.254  -0.656  1.00  0.00     0.037 A 
BRANCH  46  60
ATOM     60  C   UNL     1       3.240   8.157   3.932  1.00  0.00     0.058 A 
ATOM     61  C   UNL     1       4.571   7.728   3.711  1.00  0.00     0.135 A 
ATOM     62  C   UNL     1       2.693   7.726   5.159  1.00  0.00     0.135 A 
ATOM     63  F   UNL     1       5.250   8.085   2.611  1.00  0.00    -0.206 F 
ATOM     64  C   UNL     1       5.270   6.903   4.592  1.00  0.00     0.059 A 
ATOM     65  C   UNL     1       3.370   6.886   6.053  1.00  0.00     0.059 A 
ATOM     66  F   UNL     1       1.485   8.111   5.575  1.00  0.00    -0.206 F 
ATOM     67  C   UNL     1       4.657   6.472   5.757  1.00  0.00     0.060 A 
BRANCH  67  68
ATOM     68  S   UNL     1       5.574   5.395   6.870  1.00  0.00     0.124 S 
ATOM     69  O   UNL     1       5.808   4.222   6.032  1.00  0.00    -0.237 OA
ATOM     70  O   UNL     1       6.750   6.202   7.176  1.00  0.00    -0.237 OA
ATOM     71  O   UNL     1       4.652   5.189   7.983  1.00  0.00    -0.744 OA
ENDBRANCH  67  68
ENDBRANCH  46  60
BRANCH  47  72
ATOM     72  C   UNL     1      -1.904  11.713  -3.702  1.00  0.00     0.058 A 
ATOM     73  C   UNL     1      -2.639  11.176  -4.780  1.00  0.00     0.135 A 
ATOM     74  C   UNL     1      -2.635  12.243  -2.628  1.00  0.00     0.135 A 
ATOM     75  F   UNL     1      -1.995  10.693  -5.855  1.00  0.00    -0.206 F 
ATOM     76  C   UNL     1      -4.011  10.961  -4.696  1.00  0.00     0.059 A 
ATOM     77  C   UNL     1      -4.018  12.054  -2.533  1.00  0.00     0.059 A 
ATOM     78  F   UNL     1      -1.999  12.792  -1.582  1.00  0.00    -0.206 F 
ATOM     79  C   UNL     1      -4.675  11.327  -3.528  1.00  0.00     0.060 A 
BRANCH  79  80
ATOM     80  S   UNL     1      -6.337  10.657  -3.261  1.00  0.00     0.124 S 
ATOM     81  O   UNL     1      -7.062  11.169  -4.419  1.00  0.00    -0.237 OA
ATOM     82  O   UNL     1      -6.081   9.215  -3.263  1.00  0.00    -0.237 OA
ATOM     83  O   UNL     1      -6.725  11.229  -1.977  1.00  0.00    -0.744 OA
ENDBRANCH  79  80
ENDBRANCH  47  72
BRANCH  59  84
ATOM     84  C   UNL     1       4.254  13.315  -0.188  1.00  0.00     0.058 A 
ATOM     85  C   UNL     1       4.117  14.684  -0.476  1.00  0.00     0.135 A 
ATOM     86  C   UNL     1       5.305  12.994   0.711  1.00  0.00     0.135 A 
ATOM     87  F   UNL     1       3.079  15.156  -1.180  1.00  0.00    -0.206 F 
ATOM     88  C   UNL     1       5.021  15.640  -0.018  1.00  0.00     0.059 A 
ATOM     89  C   UNL     1       6.169  13.944   1.245  1.00  0.00     0.059 A 
ATOM     90  F   UNL     1       5.529  11.738   1.123  1.00  0.00    -0.206 F 
ATOM     91  C   UNL     1       6.050  15.260   0.835  1.00  0.00     0.060 A 
BRANCH  91  92
ATOM     92  S   UNL     1       7.215  16.498   1.418  1.00  0.00     0.124 S 
ATOM     93  O   UNL     1       8.133  16.581   0.286  1.00  0.00    -0.237 OA
ATOM     94  O   UNL     1       6.363  17.664   1.626  1.00  0.00    -0.237 OA
ATOM     95  O   UNL     1       7.762  15.904   2.633  1.00  0.00    -0.744 OA
ENDBRANCH  91  92
ENDBRANCH  59  84
ENDBRANCH  33  34
ENDBRANCH  25  28
ENDBRANCH  23  24
ENDBRANCH   1  23
TORSDOF 15
