REMARK SMILES Cc1nn(C)c(C)c1[C@H](C)N1C(=O)CC[C@@H](C(=O)NCCCNC(=O)c2ccc(-c3c4nc(c(-c5c(F)cc(S(=O)(=O)[O-])cc5F)c5ccc([nH]5)c(-c5c(F)cc(S(=O)(=O)[O-])cc5F)c5nc(c(-c6c(F)cc(S(=O)(=O)[O-])cc6F)c6ccc3[nH]6)C=C5)C=C4)cc2)[C@@H]1c1ccco1
REMARK SMILES IDX 21 1 20 2 19 3 17 4 18 5 16 7 11 8 12 9 92 10 13 11 14 12
REMARK SMILES IDX 15 13 9 14 10 15 8 16 1 17 2 18 3 19 4 20 6 21 5 22 7 23
REMARK SMILES IDX 93 24 94 25 97 26 95 27 96 28 22 29 23 30 24 31 25 33 26 34
REMARK SMILES IDX 27 35 91 36 28 37 90 38 29 39 30 40 31 41 84 42 32 43 89 44
REMARK SMILES IDX 83 45 85 46 33 47 88 48 82 49 81 50 34 52 68 53 47 54 67 55
REMARK SMILES IDX 48 56 51 57 66 58 86 59 49 60 50 61 65 63 87 64 52 65 35 66
REMARK SMILES IDX 36 67 45 68 37 69 38 70 44 71 46 72 39 73 40 74 41 75 42 76
REMARK SMILES IDX 43 77 69 78 70 79 79 80 71 81 72 82 78 83 80 84 73 85 74 86
REMARK SMILES IDX 75 87 76 88 77 89 53 90 54 91 63 92 55 93 56 94 62 95 64 96
REMARK SMILES IDX 57 97 58 98 59 99 60 100 61 101
REMARK H PARENT 19 6 23 32 85 51 51 62
REMARK Flexibility Score: inf
ROOT
ATOM      1  C   UNL     1       0.439   9.450  -2.818  1.00  0.00     0.042 C 
ENDROOT
BRANCH   1   2
ATOM      2  C   UNL     1       0.381   8.561  -1.579  1.00  0.00     0.117 C 
BRANCH   2   3
ATOM      3  N   UNL     1      -0.690   7.590  -1.683  1.00  0.00    -0.356 N 
ATOM      4  C   UNL     1      -0.681   6.303  -2.117  1.00  0.00     0.225 C 
ATOM      5  O   UNL     1      -1.780   5.794  -2.334  1.00  0.00    -0.275 OA
ATOM      6  H   UNL     1      -1.571   7.918  -1.391  1.00  0.00     0.163 HD
BRANCH   4   7
ATOM      7  C   UNL     1       0.627   5.522  -2.234  1.00  0.00     0.109 C 
ATOM      8  N   UNL     1      -0.196   3.421  -1.083  1.00  0.00    -0.325 N 
ATOM      9  C   UNL     1      -0.770   3.011  -2.286  1.00  0.00     0.223 C 
ATOM     10  C   UNL     1       0.730   4.570  -1.029  1.00  0.00     0.164 C 
ATOM     11  O   UNL     1      -1.666   2.163  -2.340  1.00  0.00    -0.275 OA
ATOM     12  C   UNL     1      -0.293   3.611  -3.596  1.00  0.00     0.101 C 
ATOM     13  C   UNL     1       0.717   4.734  -3.527  1.00  0.00     0.026 C 
BRANCH   8  14
ATOM     14  C   UNL     1      -0.661   2.715   0.155  1.00  0.00     0.117 C 
ATOM     15  C   UNL     1      -0.373   1.207   0.066  1.00  0.00     0.036 C 
BRANCH  14  16
ATOM     16  C   UNL     1      -0.206   3.345   1.476  1.00  0.00     0.018 A 
ATOM     17  C   UNL     1       1.236   1.488   2.780  1.00  0.00     0.069 C 
ATOM     18  C   UNL     1       0.604   2.814   2.544  1.00  0.00     0.065 A 
ATOM     19  N   UNL     1       0.778   3.707   3.526  1.00  0.00    -0.178 NA
ATOM     20  N   UNL     1       0.094   4.782   3.138  1.00  0.00    -0.272 N 
ATOM     21  C   UNL     1      -0.598   4.595   1.974  1.00  0.00     0.040 A 
ATOM     22  C   UNL     1       0.176   5.963   3.965  1.00  0.00     0.174 C 
ATOM     23  C   UNL     1      -1.520   5.629   1.427  1.00  0.00     0.067 C 
ENDBRANCH  14  16
ENDBRANCH   8  14
BRANCH  10  24
ATOM     24  C   UNL     1       2.148   4.148  -0.769  1.00  0.00     0.127 A 
ATOM     25  C   UNL     1       3.235   4.851  -0.283  1.00  0.00     0.048 A 
ATOM     26  O   UNL     1       2.503   2.850  -0.995  1.00  0.00    -0.467 OA
ATOM     27  C   UNL     1       4.302   3.930  -0.188  1.00  0.00     0.042 A 
ATOM     28  C   UNL     1       3.803   2.725  -0.622  1.00  0.00     0.195 A 
ENDBRANCH  10  24
ENDBRANCH   4   7
ENDBRANCH   2   3
ENDBRANCH   1   2
BRANCH   1  29
ATOM     29  C   UNL     1      -0.821  10.287  -3.044  1.00  0.00     0.118 C 
BRANCH  29  30
ATOM     30  N   UNL     1      -1.085  11.213  -1.950  1.00  0.00    -0.352 N 
ATOM     31  C   UNL     1      -1.153  12.584  -1.948  1.00  0.00     0.251 C 
ATOM     32  H   UNL     1      -1.237  10.789  -1.075  1.00  0.00     0.163 HD
ATOM     33  O   UNL     1      -1.188  13.180  -0.871  1.00  0.00    -0.269 OA
BRANCH  31  34
ATOM     34  C   UNL     1      -1.167  13.343  -3.216  1.00  0.00     0.039 A 
ATOM     35  C   UNL     1      -0.407  14.512  -3.312  1.00  0.00     0.014 A 
ATOM     36  C   UNL     1      -1.941  12.924  -4.301  1.00  0.00     0.014 A 
ATOM     37  C   UNL     1      -0.369  15.219  -4.517  1.00  0.00     0.010 A 
ATOM     38  C   UNL     1      -1.839  13.583  -5.524  1.00  0.00     0.010 A 
ATOM     39  C   UNL     1      -1.052  14.738  -5.647  1.00  0.00    -0.014 A 
BRANCH  39  40
ATOM     40  C   UNL     1      -0.942  15.421  -6.963  1.00  0.00     0.031 A 
ATOM     41  C   UNL     1      -2.162  16.008  -7.621  1.00  0.00     0.074 A 
ATOM     42  C   UNL     1       0.247  15.450  -7.599  1.00  0.00     0.049 A 
ATOM     43  N   UNL     1      -2.274  16.578  -8.794  1.00  0.00    -0.248 NA
ATOM     44  C   UNL     1      -3.428  15.921  -6.875  1.00  0.00     0.031 C 
ATOM     45  C   UNL     1       1.492  14.871  -7.089  1.00  0.00     0.029 A 
ATOM     46  N   UNL     1       0.602  15.976  -8.816  1.00  0.00    -0.354 N 
ATOM     47  C   UNL     1      -3.619  16.902  -8.933  1.00  0.00     0.074 A 
ATOM     48  C   UNL     1      -4.292  16.419  -7.748  1.00  0.00     0.031 C 
ATOM     49  C   UNL     1       2.475  15.089  -7.976  1.00  0.00     0.029 A 
ATOM     50  C   UNL     1       1.926  15.783  -9.136  1.00  0.00     0.049 A 
ATOM     51  H   UNL     1      -0.031  16.447  -9.405  1.00  0.00     0.167 HD
ATOM     52  C   UNL     1      -4.232  17.560  -9.947  1.00  0.00     0.037 A 
ATOM     53  C   UNL     1       2.619  16.114 -10.244  1.00  0.00     0.037 A 
ATOM     54  C   UNL     1      -3.549  18.055 -11.115  1.00  0.00     0.049 A 
ATOM     55  C   UNL     1       1.916  16.840 -11.358  1.00  0.00     0.074 A 
ATOM     56  C   UNL     1      -4.069  18.792 -12.165  1.00  0.00     0.029 A 
ATOM     57  N   UNL     1      -2.204  17.859 -11.393  1.00  0.00    -0.354 N 
ATOM     58  N   UNL     1       0.658  17.205 -11.439  1.00  0.00    -0.248 NA
ATOM     59  C   UNL     1       2.725  17.208 -12.529  1.00  0.00     0.031 C 
ATOM     60  C   UNL     1      -3.052  18.991 -13.105  1.00  0.00     0.029 A 
ATOM     61  C   UNL     1      -1.883  18.434 -12.612  1.00  0.00     0.049 A 
ATOM     62  H   UNL     1      -1.571  17.381 -10.810  1.00  0.00     0.167 HD
ATOM     63  C   UNL     1       0.532  17.868 -12.655  1.00  0.00     0.074 A 
ATOM     64  C   UNL     1       1.844  17.866 -13.269  1.00  0.00     0.031 C 
ATOM     65  C   UNL     1      -0.571  18.429 -13.211  1.00  0.00     0.037 A 
BRANCH  52  66
ATOM     66  C   UNL     1      -5.718  17.781  -9.842  1.00  0.00     0.058 A 
ATOM     67  C   UNL     1      -6.271  18.657  -8.894  1.00  0.00     0.135 A 
ATOM     68  C   UNL     1      -6.598  17.139 -10.728  1.00  0.00     0.135 A 
ATOM     69  F   UNL     1      -5.480  19.289  -8.012  1.00  0.00    -0.206 F 
ATOM     70  C   UNL     1      -7.644  18.863  -8.806  1.00  0.00     0.059 A 
ATOM     71  C   UNL     1      -7.973  17.354 -10.680  1.00  0.00     0.059 A 
ATOM     72  F   UNL     1      -6.125  16.291 -11.655  1.00  0.00    -0.206 F 
ATOM     73  C   UNL     1      -8.488  18.207  -9.704  1.00  0.00     0.060 A 
BRANCH  73  74
ATOM     74  S   UNL     1     -10.266  18.489  -9.579  1.00  0.00     0.124 S 
ATOM     75  O   UNL     1     -10.587  17.774  -8.347  1.00  0.00    -0.237 OA
ATOM     76  O   UNL     1     -10.345  19.944  -9.504  1.00  0.00    -0.237 OA
ATOM     77  O   UNL     1     -10.793  17.897 -10.804  1.00  0.00    -0.744 OA
ENDBRANCH  73  74
ENDBRANCH  52  66
BRANCH  53  78
ATOM     78  C   UNL     1       4.063  15.770 -10.345  1.00  0.00     0.058 A 
ATOM     79  C   UNL     1       5.050  16.767 -10.312  1.00  0.00     0.135 A 
ATOM     80  C   UNL     1       4.487  14.437 -10.458  1.00  0.00     0.135 A 
ATOM     81  F   UNL     1       4.696  18.057 -10.212  1.00  0.00    -0.206 F 
ATOM     82  C   UNL     1       6.403  16.457 -10.402  1.00  0.00     0.059 A 
ATOM     83  C   UNL     1       5.836  14.100 -10.521  1.00  0.00     0.059 A 
ATOM     84  F   UNL     1       3.585  13.443 -10.477  1.00  0.00    -0.206 F 
ATOM     85  C   UNL     1       6.787  15.119 -10.501  1.00  0.00     0.060 A 
BRANCH  85  86
ATOM     86  S   UNL     1       8.548  14.724 -10.560  1.00  0.00     0.124 S 
ATOM     87  O   UNL     1       8.907  15.180 -11.898  1.00  0.00    -0.237 OA
ATOM     88  O   UNL     1       9.074  15.515  -9.452  1.00  0.00    -0.237 OA
ATOM     89  O   UNL     1       8.575  13.279 -10.356  1.00  0.00    -0.744 OA
ENDBRANCH  85  86
ENDBRANCH  53  78
BRANCH  65  90
ATOM     90  C   UNL     1      -0.405  19.123 -14.537  1.00  0.00     0.058 A 
ATOM     91  C   UNL     1      -0.182  18.410 -15.725  1.00  0.00     0.135 A 
ATOM     92  C   UNL     1      -0.526  20.520 -14.626  1.00  0.00     0.135 A 
ATOM     93  F   UNL     1      -0.051  17.074 -15.697  1.00  0.00    -0.206 F 
ATOM     94  C   UNL     1      -0.060  19.058 -16.950  1.00  0.00     0.059 A 
ATOM     95  C   UNL     1      -0.440  21.186 -15.844  1.00  0.00     0.059 A 
ATOM     96  F   UNL     1      -0.750  21.251 -13.522  1.00  0.00    -0.206 F 
ATOM     97  C   UNL     1      -0.195  20.447 -17.000  1.00  0.00     0.060 A 
BRANCH  97  98
ATOM     98  S   UNL     1      -0.070  21.271 -18.601  1.00  0.00     0.124 S 
ATOM     99  O   UNL     1       1.359  21.162 -18.877  1.00  0.00    -0.237 OA
ATOM    100  O   UNL     1      -0.943  20.456 -19.440  1.00  0.00    -0.237 OA
ATOM    101  O   UNL     1      -0.554  22.621 -18.328  1.00  0.00    -0.744 OA
ENDBRANCH  97  98
ENDBRANCH  65  90
ENDBRANCH  39  40
ENDBRANCH  31  34
ENDBRANCH  29  30
ENDBRANCH   1  29
TORSDOF 16
