REMARK SMILES COc1ccc(C[N@@H+]2C[C@@H](C(=O)NCCCNC(=O)c3ccc(-c4c5nc(c(-c6c(F)cc(S(=O)(=O)[O-])cc6F)c6ccc([nH]6)c(-c6c(F)cc(S(=O)(=O)[O-])cc6F)c6nc(c(-c7c(F)cc(S(=O)(=O)[O-])cc7F)c7ccc4[nH]7)C=C6)C=C5)cc3)[C@H](c3ccccc3OC)C2)c(OC)c1
REMARK SMILES IDX 15 1 14 2 13 3 11 4 12 5 10 7 8 8 9 9 95 10 86 12 7 13 6 14
REMARK SMILES IDX 3 15 4 16 99 17 5 18 96 19 2 20 1 21 97 22 98 23 87 24 88 25
REMARK SMILES IDX 92 26 89 27 91 28 90 29 93 30 94 31 16 32 17 33 18 34 19 36
REMARK SMILES IDX 20 37 21 38 85 39 22 40 84 41 23 42 24 43 25 44 78 45 26 46
REMARK SMILES IDX 83 47 77 48 79 49 27 50 82 51 76 52 75 53 28 55 62 56 41 57
REMARK SMILES IDX 61 58 42 59 45 60 60 61 80 62 43 63 44 64 59 66 81 67 46 68
REMARK SMILES IDX 29 69 30 70 39 71 31 72 32 73 38 74 40 75 33 76 34 77 35 78
REMARK SMILES IDX 36 79 37 80 63 81 64 82 73 83 65 84 66 85 72 86 74 87 67 88
REMARK SMILES IDX 68 89 69 90 70 91 71 92 47 93 48 94 57 95 49 96 50 97 56 98
REMARK SMILES IDX 58 99 51 100 52 101 53 102 54 103 55 104
REMARK H PARENT 13 6 8 11 17 35 79 54 45 65
REMARK Flexibility Score: inf
ROOT
ATOM      1  C   UNL     1      -2.901  -3.529   1.870  1.00  0.00     0.042 C 
ENDROOT
BRANCH   1   2
ATOM      2  C   UNL     1      -1.912  -3.664   3.017  1.00  0.00     0.117 C 
BRANCH   2   3
ATOM      3  N   UNL     1      -1.951  -4.984   3.627  1.00  0.00    -0.356 N 
ATOM      4  C   UNL     1      -0.927  -5.857   3.873  1.00  0.00     0.229 C 
ATOM      5  O   UNL     1      -1.161  -6.825   4.599  1.00  0.00    -0.275 OA
ATOM      6  H   UNL     1      -2.843  -5.294   3.904  1.00  0.00     0.163 HD
BRANCH   4   7
ATOM      7  C   UNL     1       0.406  -5.670   3.180  1.00  0.00     0.146 C 
ATOM      8  N   UNL     1       1.957  -6.945   1.918  1.00  0.00    -0.330 N 
ATOM      9  C   UNL     1       0.549  -6.896   2.274  1.00  0.00     0.276 C 
ATOM     10  C   UNL     1       2.668  -6.508   3.131  1.00  0.00     0.272 C 
ATOM     11  H   UNL     1       2.264  -7.886   1.674  1.00  0.00     0.348 HD
ATOM     12  C   UNL     1       1.693  -5.684   4.037  1.00  0.00     0.096 C 
BRANCH   8  13
ATOM     13  C   UNL     1       2.312  -6.317   0.628  1.00  0.00     0.303 C 
BRANCH  13  14
ATOM     14  C   UNL     1       1.918  -4.870   0.373  1.00  0.00     0.048 A 
ATOM     15  C   UNL     1       1.035  -2.201   0.297  1.00  0.00     0.122 A 
ATOM     16  C   UNL     1       0.164  -3.228  -0.042  1.00  0.00     0.047 A 
ATOM     17  C   UNL     1       2.374  -2.486   0.549  1.00  0.00     0.093 A 
ATOM     18  C   UNL     1       0.601  -4.553  -0.009  1.00  0.00     0.017 A 
ATOM     19  C   UNL     1       2.830  -3.813   0.522  1.00  0.00     0.131 A 
BRANCH  15  20
ATOM     20  O   UNL     1       0.481  -0.968   0.499  1.00  0.00    -0.497 OA
ATOM     21  C   UNL     1       1.083   0.062  -0.276  1.00  0.00     0.278 C 
ENDBRANCH  15  20
BRANCH  19  22
ATOM     22  O   UNL     1       4.144  -4.162   0.706  1.00  0.00    -0.496 OA
ATOM     23  C   UNL     1       5.101  -3.205   0.268  1.00  0.00     0.278 C 
ENDBRANCH  19  22
ENDBRANCH  13  14
ENDBRANCH   8  13
BRANCH  12  24
ATOM     24  C   UNL     1       2.180  -4.291   4.473  1.00  0.00     0.004 A 
ATOM     25  C   UNL     1       3.216  -3.623   3.801  1.00  0.00     0.008 A 
ATOM     26  C   UNL     1       1.639  -3.607   5.576  1.00  0.00     0.122 A 
ATOM     27  C   UNL     1       3.615  -2.319   4.114  1.00  0.00     0.001 A 
ATOM     28  C   UNL     1       2.001  -2.281   5.877  1.00  0.00     0.047 A 
ATOM     29  C   UNL     1       2.975  -1.627   5.127  1.00  0.00     0.004 A 
BRANCH  26  30
ATOM     30  O   UNL     1       0.962  -4.303   6.544  1.00  0.00    -0.496 OA
ATOM     31  C   UNL     1      -0.446  -4.159   6.466  1.00  0.00     0.278 C 
ENDBRANCH  26  30
ENDBRANCH  12  24
ENDBRANCH   4   7
ENDBRANCH   2   3
ENDBRANCH   1   2
BRANCH   1  32
ATOM     32  C   UNL     1      -4.311  -3.220   2.351  1.00  0.00     0.118 C 
BRANCH  32  33
ATOM     33  N   UNL     1      -4.431  -1.846   2.838  1.00  0.00    -0.352 N 
ATOM     34  C   UNL     1      -5.292  -0.855   2.430  1.00  0.00     0.251 C 
ATOM     35  H   UNL     1      -3.809  -1.597   3.559  1.00  0.00     0.163 HD
ATOM     36  O   UNL     1      -5.131   0.302   2.811  1.00  0.00    -0.269 OA
BRANCH  34  37
ATOM     37  C   UNL     1      -6.394  -1.194   1.508  1.00  0.00     0.039 A 
ATOM     38  C   UNL     1      -6.620  -0.399   0.382  1.00  0.00     0.014 A 
ATOM     39  C   UNL     1      -7.164  -2.336   1.736  1.00  0.00     0.014 A 
ATOM     40  C   UNL     1      -7.566  -0.801  -0.564  1.00  0.00     0.010 A 
ATOM     41  C   UNL     1      -8.035  -2.780   0.752  1.00  0.00     0.010 A 
ATOM     42  C   UNL     1      -8.245  -2.019  -0.409  1.00  0.00    -0.014 A 
BRANCH  42  43
ATOM     43  C   UNL     1      -9.201  -2.535  -1.422  1.00  0.00     0.031 A 
ATOM     44  C   UNL     1     -10.628  -2.785  -1.017  1.00  0.00     0.074 A 
ATOM     45  C   UNL     1      -8.767  -2.887  -2.648  1.00  0.00     0.049 A 
ATOM     46  N   UNL     1     -11.565  -3.440  -1.649  1.00  0.00    -0.248 NA
ATOM     47  C   UNL     1     -11.040  -2.264   0.299  1.00  0.00     0.031 C 
ATOM     48  C   UNL     1      -7.399  -2.726  -3.146  1.00  0.00     0.029 A 
ATOM     49  N   UNL     1      -9.428  -3.487  -3.692  1.00  0.00    -0.354 N 
ATOM     50  C   UNL     1     -12.666  -3.431  -0.801  1.00  0.00     0.074 A 
ATOM     51  C   UNL     1     -12.264  -2.757   0.413  1.00  0.00     0.031 C 
ATOM     52  C   UNL     1      -7.323  -3.216  -4.394  1.00  0.00     0.029 A 
ATOM     53  C   UNL     1      -8.619  -3.772  -4.768  1.00  0.00     0.049 A 
ATOM     54  H   UNL     1     -10.390  -3.695  -3.671  1.00  0.00     0.167 HD
ATOM     55  C   UNL     1     -13.908  -3.920  -1.025  1.00  0.00     0.037 A 
ATOM     56  C   UNL     1      -8.885  -4.433  -5.912  1.00  0.00     0.037 A 
ATOM     57  C   UNL     1     -14.308  -4.558  -2.250  1.00  0.00     0.049 A 
ATOM     58  C   UNL     1     -10.274  -4.970  -6.140  1.00  0.00     0.074 A 
ATOM     59  C   UNL     1     -15.549  -5.062  -2.592  1.00  0.00     0.029 A 
ATOM     60  N   UNL     1     -13.475  -4.765  -3.340  1.00  0.00    -0.354 N 
ATOM     61  N   UNL     1     -11.313  -4.930  -5.339  1.00  0.00    -0.248 NA
ATOM     62  C   UNL     1     -10.533  -5.637  -7.424  1.00  0.00     0.031 C 
ATOM     63  C   UNL     1     -15.460  -5.601  -3.879  1.00  0.00     0.029 A 
ATOM     64  C   UNL     1     -14.176  -5.390  -4.356  1.00  0.00     0.049 A 
ATOM     65  H   UNL     1     -12.526  -4.506  -3.384  1.00  0.00     0.167 HD
ATOM     66  C   UNL     1     -12.354  -5.533  -6.036  1.00  0.00     0.074 A 
ATOM     67  C   UNL     1     -11.823  -5.929  -7.323  1.00  0.00     0.031 C 
ATOM     68  C   UNL     1     -13.635  -5.739  -5.646  1.00  0.00     0.037 A 
BRANCH  55  69
ATOM     69  C   UNL     1     -14.928  -3.763   0.068  1.00  0.00     0.058 A 
ATOM     70  C   UNL     1     -15.457  -2.505   0.399  1.00  0.00     0.135 A 
ATOM     71  C   UNL     1     -15.409  -4.880   0.768  1.00  0.00     0.135 A 
ATOM     72  F   UNL     1     -15.018  -1.401  -0.227  1.00  0.00    -0.206 F 
ATOM     73  C   UNL     1     -16.407  -2.357   1.403  1.00  0.00     0.059 A 
ATOM     74  C   UNL     1     -16.381  -4.760   1.756  1.00  0.00     0.059 A 
ATOM     75  F   UNL     1     -14.935  -6.106   0.493  1.00  0.00    -0.206 F 
ATOM     76  C   UNL     1     -16.864  -3.491   2.075  1.00  0.00     0.060 A 
BRANCH  76  77
ATOM     77  S   UNL     1     -18.107  -3.280   3.367  1.00  0.00     0.124 S 
ATOM     78  O   UNL     1     -17.315  -2.683   4.438  1.00  0.00    -0.237 OA
ATOM     79  O   UNL     1     -19.075  -2.395   2.727  1.00  0.00    -0.237 OA
ATOM     80  O   UNL     1     -18.573  -4.641   3.615  1.00  0.00    -0.744 OA
ENDBRANCH  76  77
ENDBRANCH  55  69
BRANCH  56  81
ATOM     81  C   UNL     1      -7.816  -4.631  -6.928  1.00  0.00     0.058 A 
ATOM     82  C   UNL     1      -7.858  -3.963  -8.161  1.00  0.00     0.135 A 
ATOM     83  C   UNL     1      -6.734  -5.493  -6.691  1.00  0.00     0.135 A 
ATOM     84  F   UNL     1      -8.874  -3.131  -8.438  1.00  0.00    -0.206 F 
ATOM     85  C   UNL     1      -6.882  -4.162  -9.133  1.00  0.00     0.059 A 
ATOM     86  C   UNL     1      -5.732  -5.688  -7.636  1.00  0.00     0.059 A 
ATOM     87  F   UNL     1      -6.635  -6.141  -5.519  1.00  0.00    -0.206 F 
ATOM     88  C   UNL     1      -5.823  -5.029  -8.861  1.00  0.00     0.060 A 
BRANCH  88  89
ATOM     89  S   UNL     1      -4.547  -5.261 -10.118  1.00  0.00     0.124 S 
ATOM     90  O   UNL     1      -5.241  -6.099 -11.089  1.00  0.00    -0.237 OA
ATOM     91  O   UNL     1      -4.275  -3.889 -10.537  1.00  0.00    -0.237 OA
ATOM     92  O   UNL     1      -3.466  -5.908  -9.381  1.00  0.00    -0.744 OA
ENDBRANCH  88  89
ENDBRANCH  56  81
BRANCH  68  93
ATOM     93  C   UNL     1     -14.581  -6.361  -6.633  1.00  0.00     0.058 A 
ATOM     94  C   UNL     1     -14.560  -7.735  -6.910  1.00  0.00     0.135 A 
ATOM     95  C   UNL     1     -15.596  -5.585  -7.216  1.00  0.00     0.135 A 
ATOM     96  F   UNL     1     -13.605  -8.517  -6.383  1.00  0.00    -0.206 F 
ATOM     97  C   UNL     1     -15.518  -8.321  -7.730  1.00  0.00     0.059 A 
ATOM     98  C   UNL     1     -16.578  -6.154  -8.020  1.00  0.00     0.059 A 
ATOM     99  F   UNL     1     -15.662  -4.265  -6.974  1.00  0.00    -0.206 F 
ATOM    100  C   UNL     1     -16.531  -7.524  -8.270  1.00  0.00     0.060 A 
BRANCH 100 101
ATOM    101  S   UNL     1     -17.819  -8.314  -9.258  1.00  0.00     0.124 S 
ATOM    102  O   UNL     1     -17.104  -8.606 -10.496  1.00  0.00    -0.237 OA
ATOM    103  O   UNL     1     -18.173  -9.471  -8.441  1.00  0.00    -0.237 OA
ATOM    104  O   UNL     1     -18.851  -7.285  -9.357  1.00  0.00    -0.744 OA
ENDBRANCH 100 101
ENDBRANCH  68  93
ENDBRANCH  42  43
ENDBRANCH  34  37
ENDBRANCH  32  33
ENDBRANCH   1  32
TORSDOF 19
