REMARK SMILES C[C@H](NC(=O)c1ccc(C(C)(C)C)cc1)C(=O)N[C@@H](C(=O)NCCCNC(=O)c1ccc(-c2c3nc(c(-c4c(F)cc(S(=O)(=O)[O-])cc4F)c4ccc([nH]4)c(-c4c(F)cc(S(=O)(=O)[O-])cc4F)c4nc(c(-c5c(F)cc(S(=O)(=O)[O-])cc5F)c5ccc2[nH]5)C=C4)C=C3)cc1)[C@H](C)O
REMARK SMILES IDX 23 1 22 2 20 3 21 4 19 6 18 7 16 8 17 9 2 11 1 12 3 13 4 14
REMARK SMILES IDX 5 16 6 17 7 18 15 19 8 20 14 21 9 22 10 23 11 24 12 25 13 26
REMARK SMILES IDX 95 27 96 28 97 29 24 31 25 32 26 33 27 34 28 36 29 37 30 38
REMARK SMILES IDX 94 39 31 40 93 41 32 42 33 43 34 44 87 45 35 46 92 47 86 48
REMARK SMILES IDX 88 49 36 50 91 51 85 52 84 53 37 55 71 56 50 57 70 58 51 59
REMARK SMILES IDX 54 60 69 61 89 62 52 63 53 64 68 66 90 67 55 68 38 69 39 70
REMARK SMILES IDX 48 71 40 72 41 73 47 74 49 75 42 76 43 77 44 78 45 79 46 80
REMARK SMILES IDX 72 81 73 82 82 83 74 84 75 85 81 86 83 87 76 88 77 89 78 90
REMARK SMILES IDX 79 91 80 92 56 93 57 94 66 95 58 96 59 97 65 98 67 99 60 100
REMARK SMILES IDX 61 101 62 102 63 103 64 104
REMARK H PARENT 22 5 18 10 3 15 97 30 26 35 88 54 54 65
REMARK Flexibility Score: inf
ROOT
ATOM      1  C   UNL     1       0.995   5.176  -3.579  1.00  0.00     0.117 C 
ENDROOT
BRANCH   1   2
ATOM      2  N   UNL     1       0.564   4.290  -4.644  1.00  0.00    -0.354 N 
ATOM      3  C   UNL     1      -0.153   3.134  -4.641  1.00  0.00     0.245 C 
ATOM      4  O   UNL     1      -0.421   2.666  -5.756  1.00  0.00    -0.273 OA
ATOM      5  H   UNL     1       0.846   4.581  -5.541  1.00  0.00     0.163 HD
BRANCH   3   6
ATOM      6  C   UNL     1      -0.769   2.508  -3.359  1.00  0.00     0.200 C 
BRANCH   6   7
ATOM      7  N   UNL     1       0.113   2.579  -2.198  1.00  0.00    -0.340 N 
ATOM      8  C   UNL     1      -0.081   3.045  -0.936  1.00  0.00     0.243 C 
ATOM      9  O   UNL     1       0.823   2.834  -0.122  1.00  0.00    -0.273 OA
ATOM     10  H   UNL     1       1.016   2.224  -2.359  1.00  0.00     0.164 HD
BRANCH   8  11
ATOM     11  C   UNL     1      -1.359   3.790  -0.486  1.00  0.00     0.168 C 
ATOM     12  C   UNL     1      -2.608   2.925  -0.453  1.00  0.00     0.041 C 
BRANCH  11  13
ATOM     13  N   UNL     1      -1.595   5.034  -1.236  1.00  0.00    -0.341 N 
ATOM     14  C   UNL     1      -2.035   6.249  -0.785  1.00  0.00     0.251 C 
ATOM     15  H   UNL     1      -1.410   4.984  -2.202  1.00  0.00     0.164 HD
ATOM     16  O   UNL     1      -2.174   7.187  -1.555  1.00  0.00    -0.269 OA
BRANCH  14  17
ATOM     17  C   UNL     1      -2.477   6.361   0.620  1.00  0.00     0.039 A 
ATOM     18  C   UNL     1      -3.844   6.483   0.845  1.00  0.00     0.014 A 
ATOM     19  C   UNL     1      -1.589   6.211   1.681  1.00  0.00     0.014 A 
ATOM     20  C   UNL     1      -4.335   6.311   2.136  1.00  0.00     0.005 A 
ATOM     21  C   UNL     1      -2.095   6.021   2.967  1.00  0.00     0.005 A 
ATOM     22  C   UNL     1      -3.480   5.998   3.210  1.00  0.00    -0.043 A 
BRANCH  22  23
ATOM     23  C   UNL     1      -4.072   5.606   4.575  1.00  0.00    -0.013 C 
ATOM     24  C   UNL     1      -4.647   6.858   5.257  1.00  0.00     0.016 C 
ATOM     25  C   UNL     1      -5.201   4.563   4.381  1.00  0.00     0.016 C 
ATOM     26  C   UNL     1      -3.043   4.960   5.530  1.00  0.00     0.016 C 
ENDBRANCH  22  23
ENDBRANCH  14  17
ENDBRANCH  11  13
ENDBRANCH   8  11
ENDBRANCH   6   7
BRANCH   6  27
ATOM     27  C   UNL     1      -1.129   1.024  -3.683  1.00  0.00     0.143 C 
ATOM     28  C   UNL     1      -1.699   0.238  -2.508  1.00  0.00     0.041 C 
BRANCH  27  29
ATOM     29  O   UNL     1       0.039   0.310  -4.116  1.00  0.00    -0.391 OA
ATOM     30  H   UNL     1       0.684   0.276  -3.392  1.00  0.00     0.211 HD
ENDBRANCH  27  29
ENDBRANCH   6  27
ENDBRANCH   3   6
ENDBRANCH   1   2
BRANCH   1  31
ATOM     31  C   UNL     1       2.456   4.999  -3.193  1.00  0.00     0.042 C 
BRANCH  31  32
ATOM     32  C   UNL     1       3.440   5.406  -4.283  1.00  0.00     0.118 C 
BRANCH  32  33
ATOM     33  N   UNL     1       3.353   6.819  -4.624  1.00  0.00    -0.352 N 
ATOM     34  C   UNL     1       4.274   7.830  -4.496  1.00  0.00     0.251 C 
ATOM     35  H   UNL     1       2.491   7.096  -5.010  1.00  0.00     0.163 HD
ATOM     36  O   UNL     1       3.917   8.990  -4.692  1.00  0.00    -0.269 OA
BRANCH  34  37
ATOM     37  C   UNL     1       5.676   7.547  -4.116  1.00  0.00     0.039 A 
ATOM     38  C   UNL     1       6.324   8.419  -3.235  1.00  0.00     0.014 A 
ATOM     39  C   UNL     1       6.373   6.464  -4.657  1.00  0.00     0.014 A 
ATOM     40  C   UNL     1       7.644   8.170  -2.848  1.00  0.00     0.010 A 
ATOM     41  C   UNL     1       7.663   6.176  -4.218  1.00  0.00     0.010 A 
ATOM     42  C   UNL     1       8.314   7.029  -3.314  1.00  0.00    -0.014 A 
BRANCH  42  43
ATOM     43  C   UNL     1       9.701   6.712  -2.891  1.00  0.00     0.031 A 
ATOM     44  C   UNL     1      10.807   6.684  -3.912  1.00  0.00     0.074 A 
ATOM     45  C   UNL     1       9.950   6.354  -1.616  1.00  0.00     0.049 A 
ATOM     46  N   UNL     1      12.042   6.274  -3.781  1.00  0.00    -0.248 NA
ATOM     47  C   UNL     1      10.468   7.143  -5.269  1.00  0.00     0.031 C 
ATOM     48  C   UNL     1       8.954   6.283  -0.543  1.00  0.00     0.029 A 
ATOM     49  N   UNL     1      11.116   5.959  -1.012  1.00  0.00    -0.354 N 
ATOM     50  C   UNL     1      12.608   6.367  -5.046  1.00  0.00     0.074 A 
ATOM     51  C   UNL     1      11.581   6.870  -5.934  1.00  0.00     0.031 C 
ATOM     52  C   UNL     1       9.555   5.877   0.588  1.00  0.00     0.029 A 
ATOM     53  C   UNL     1      10.967   5.632   0.315  1.00  0.00     0.049 A 
ATOM     54  H   UNL     1      11.979   5.913  -1.484  1.00  0.00     0.167 HD
ATOM     55  C   UNL     1      13.870   6.064  -5.433  1.00  0.00     0.037 A 
ATOM     56  C   UNL     1      11.867   5.177   1.208  1.00  0.00     0.037 A 
ATOM     57  C   UNL     1      14.913   5.645  -4.536  1.00  0.00     0.049 A 
ATOM     58  C   UNL     1      13.290   4.964   0.779  1.00  0.00     0.074 A 
ATOM     59  C   UNL     1      16.246   5.402  -4.818  1.00  0.00     0.029 A 
ATOM     60  N   UNL     1      14.743   5.426  -3.178  1.00  0.00    -0.354 N 
ATOM     61  N   UNL     1      13.817   5.096  -0.414  1.00  0.00    -0.248 NA
ATOM     62  C   UNL     1      14.243   4.545   1.817  1.00  0.00     0.031 C 
ATOM     63  C   UNL     1      16.884   5.032  -3.627  1.00  0.00     0.029 A 
ATOM     64  C   UNL     1      15.948   5.058  -2.606  1.00  0.00     0.049 A 
ATOM     65  H   UNL     1      13.892   5.519  -2.693  1.00  0.00     0.167 HD
ATOM     66  C   UNL     1      15.165   4.791  -0.268  1.00  0.00     0.074 A 
ATOM     67  C   UNL     1      15.375   4.476   1.130  1.00  0.00     0.031 C 
ATOM     68  C   UNL     1      16.139   4.768  -1.209  1.00  0.00     0.037 A 
BRANCH  55  69
ATOM     69  C   UNL     1      14.191   6.179  -6.894  1.00  0.00     0.058 A 
ATOM     70  C   UNL     1      14.415   7.423  -7.502  1.00  0.00     0.135 A 
ATOM     71  C   UNL     1      14.299   5.027  -7.689  1.00  0.00     0.135 A 
ATOM     72  F   UNL     1      14.306   8.554  -6.787  1.00  0.00    -0.206 F 
ATOM     73  C   UNL     1      14.712   7.524  -8.857  1.00  0.00     0.059 A 
ATOM     74  C   UNL     1      14.612   5.104  -9.042  1.00  0.00     0.059 A 
ATOM     75  F   UNL     1      14.089   3.814  -7.153  1.00  0.00    -0.206 F 
ATOM     76  C   UNL     1      14.802   6.359  -9.620  1.00  0.00     0.060 A 
BRANCH  76  77
ATOM     77  S   UNL     1      15.188   6.492 -11.379  1.00  0.00     0.124 S 
ATOM     78  O   UNL     1      13.872   6.781 -11.942  1.00  0.00    -0.237 OA
ATOM     79  O   UNL     1      16.146   7.592 -11.415  1.00  0.00    -0.237 OA
ATOM     80  O   UNL     1      15.736   5.179 -11.703  1.00  0.00    -0.744 OA
ENDBRANCH  76  77
ENDBRANCH  55  69
BRANCH  56  81
ATOM     81  C   UNL     1      11.453   4.912   2.607  1.00  0.00     0.058 A 
ATOM     82  C   UNL     1      11.762   5.822   3.629  1.00  0.00     0.135 A 
ATOM     83  C   UNL     1      10.738   3.755   2.949  1.00  0.00     0.135 A 
ATOM     84  F   UNL     1      12.448   6.939   3.345  1.00  0.00    -0.206 F 
ATOM     85  C   UNL     1      11.392   5.586   4.948  1.00  0.00     0.059 A 
ATOM     86  C   UNL     1      10.344   3.505   4.259  1.00  0.00     0.059 A 
ATOM     87  F   UNL     1      10.407   2.866   2.000  1.00  0.00    -0.206 F 
ATOM     88  C   UNL     1      10.686   4.421   5.254  1.00  0.00     0.060 A 
BRANCH  88  89
ATOM     89  S   UNL     1      10.165   4.133   6.960  1.00  0.00     0.124 S 
ATOM     90  O   UNL     1      11.356   3.515   7.528  1.00  0.00    -0.237 OA
ATOM     91  O   UNL     1       9.859   5.481   7.430  1.00  0.00    -0.237 OA
ATOM     92  O   UNL     1       9.007   3.258   6.805  1.00  0.00    -0.744 OA
ENDBRANCH  88  89
ENDBRANCH  56  81
BRANCH  68  93
ATOM     93  C   UNL     1      17.523   4.422  -0.751  1.00  0.00     0.058 A 
ATOM     94  C   UNL     1      17.913   3.090  -0.557  1.00  0.00     0.135 A 
ATOM     95  C   UNL     1      18.477   5.430  -0.547  1.00  0.00     0.135 A 
ATOM     96  F   UNL     1      17.031   2.094  -0.735  1.00  0.00    -0.206 F 
ATOM     97  C   UNL     1      19.207   2.766  -0.163  1.00  0.00     0.059 A 
ATOM     98  C   UNL     1      19.780   5.128  -0.165  1.00  0.00     0.059 A 
ATOM     99  F   UNL     1      18.148   6.719  -0.725  1.00  0.00    -0.206 F 
ATOM    100  C   UNL     1      20.133   3.793   0.034  1.00  0.00     0.060 A 
BRANCH 100 101
ATOM    101  S   UNL     1      21.823   3.372   0.509  1.00  0.00     0.124 S 
ATOM    102  O   UNL     1      21.695   3.238   1.956  1.00  0.00    -0.237 OA
ATOM    103  O   UNL     1      22.064   2.132  -0.223  1.00  0.00    -0.237 OA
ATOM    104  O   UNL     1      22.595   4.522   0.048  1.00  0.00    -0.744 OA
ENDBRANCH 100 101
ENDBRANCH  68  93
ENDBRANCH  42  43
ENDBRANCH  34  37
ENDBRANCH  32  33
ENDBRANCH  31  32
ENDBRANCH   1  31
TORSDOF 20
