REMARK SMILES COc1ccc(-c2[nH]nc3nc(-c4ccc(C(F)(F)F)cc4)cc(C(=O)NCCCNC(=O)c4ccc(-c5c6nc(c(-c7c(F)cc(S(=O)(=O)[O-])cc7F)c7ccc([nH]7)c(-c7c(F)cc(S(=O)(=O)[O-])cc7F)c7nc(c(-c8c(F)cc(S(=O)(=O)[O-])cc8F)c8ccc5[nH]8)C=C7)C=C6)cc4)c23)cc1
REMARK SMILES IDX 29 1 28 2 27 3 25 4 26 5 24 7 7 8 8 9 100 10 9 11 10 13
REMARK SMILES IDX 11 14 23 15 12 16 6 17 3 18 4 19 102 20 5 21 101 22 2 23
REMARK SMILES IDX 1 24 13 25 14 26 22 27 15 28 21 29 16 30 17 31 18 32 19 33
REMARK SMILES IDX 20 34 30 35 31 36 32 37 33 39 34 40 35 41 99 42 36 43 98 44
REMARK SMILES IDX 37 45 38 46 39 47 92 48 40 49 97 50 91 51 93 52 41 53 96 54
REMARK SMILES IDX 90 55 89 56 42 58 76 59 55 60 75 61 56 62 59 63 74 64 94 65
REMARK SMILES IDX 57 66 58 67 73 69 95 70 60 71 43 72 44 73 53 74 45 75 46 76
REMARK SMILES IDX 52 77 54 78 47 79 48 80 49 81 50 82 51 83 77 84 78 85 87 86
REMARK SMILES IDX 79 87 80 88 86 89 88 90 81 91 82 92 83 93 84 94 85 95 61 96
REMARK SMILES IDX 62 97 71 98 63 99 64 100 70 101 72 102 65 103 66 104 67 105
REMARK SMILES IDX 68 106 69 107
REMARK H PARENT 27 6 8 12 31 38 93 57 59 68
REMARK Flexibility Score: inf
ROOT
ATOM      1  C   UNL     1       6.991   7.609   1.169  1.00  0.00     0.042 C 
ENDROOT
BRANCH   1   2
ATOM      2  C   UNL     1       5.503   7.971   1.061  1.00  0.00     0.118 C 
BRANCH   2   3
ATOM      3  N   UNL     1       4.643   6.798   1.023  1.00  0.00    -0.352 N 
ATOM      4  C   UNL     1       3.944   6.076   1.962  1.00  0.00     0.252 C 
ATOM      5  O   UNL     1       3.159   5.261   1.493  1.00  0.00    -0.269 OA
ATOM      6  H   UNL     1       4.537   6.436   0.113  1.00  0.00     0.163 HD
BRANCH   4   7
ATOM      7  C   UNL     1       4.053   6.287   3.425  1.00  0.00     0.055 A 
ATOM      8  C   UNL     1       2.233   4.805   4.408  1.00  0.00     0.075 A 
ATOM      9  N   UNL     1       1.736   4.761   5.690  1.00  0.00    -0.275 N 
ATOM     10  C   UNL     1       3.213   5.786   4.441  1.00  0.00     0.059 A 
ATOM     11  N   UNL     1       2.322   5.596   6.560  1.00  0.00    -0.154 NA
ATOM     12  H   UNL     1       1.001   4.159   5.949  1.00  0.00     0.190 HD
ATOM     13  C   UNL     1       3.250   6.207   5.827  1.00  0.00     0.182 A 
ATOM     14  N   UNL     1       4.127   7.134   6.299  1.00  0.00    -0.226 NA
ATOM     15  C   UNL     1       5.015   7.120   4.004  1.00  0.00     0.043 A 
ATOM     16  C   UNL     1       4.992   7.557   5.348  1.00  0.00     0.074 A 
BRANCH   8  17
ATOM     17  C   UNL     1       1.752   3.846   3.419  1.00  0.00     0.001 A 
ATOM     18  C   UNL     1       0.859   2.036   1.454  1.00  0.00     0.118 A 
ATOM     19  C   UNL     1       0.016   3.043   1.933  1.00  0.00     0.047 A 
ATOM     20  C   UNL     1       2.146   1.923   1.976  1.00  0.00     0.047 A 
ATOM     21  C   UNL     1       0.451   3.938   2.914  1.00  0.00     0.014 A 
ATOM     22  C   UNL     1       2.586   2.817   2.961  1.00  0.00     0.014 A 
BRANCH  18  23
ATOM     23  O   UNL     1       0.319   1.264   0.463  1.00  0.00    -0.497 OA
ATOM     24  C   UNL     1       1.002   0.056   0.133  1.00  0.00     0.278 C 
ENDBRANCH  18  23
ENDBRANCH   8  17
BRANCH  16  25
ATOM     25  C   UNL     1       5.924   8.636   5.718  1.00  0.00     0.000 A 
ATOM     26  C   UNL     1       6.950   8.445   6.649  1.00  0.00     0.011 A 
ATOM     27  C   UNL     1       5.859   9.872   5.043  1.00  0.00     0.011 A 
ATOM     28  C   UNL     1       7.903   9.448   6.873  1.00  0.00     0.014 A 
ATOM     29  C   UNL     1       6.806  10.873   5.264  1.00  0.00     0.014 A 
ATOM     30  C   UNL     1       7.846  10.668   6.177  1.00  0.00     0.056 A 
BRANCH  30  31
ATOM     31  C   UNL     1       8.889  11.732   6.414  1.00  0.00     0.416 C 
ATOM     32  F   UNL     1       8.908  12.169   7.704  1.00  0.00    -0.166 F 
ATOM     33  F   UNL     1      10.151  11.297   6.147  1.00  0.00    -0.166 F 
ATOM     34  F   UNL     1       8.713  12.847   5.648  1.00  0.00    -0.166 F 
ENDBRANCH  30  31
ENDBRANCH  16  25
ENDBRANCH   4   7
ENDBRANCH   2   3
ENDBRANCH   1   2
BRANCH   1  35
ATOM     35  C   UNL     1       7.587   7.251  -0.180  1.00  0.00     0.118 C 
BRANCH  35  36
ATOM     36  N   UNL     1       7.642   8.406  -1.082  1.00  0.00    -0.352 N 
ATOM     37  C   UNL     1       8.009   8.450  -2.413  1.00  0.00     0.251 C 
ATOM     38  H   UNL     1       7.381   9.269  -0.685  1.00  0.00     0.163 HD
ATOM     39  O   UNL     1       8.322   9.517  -2.935  1.00  0.00    -0.269 OA
BRANCH  37  40
ATOM     40  C   UNL     1       8.024   7.198  -3.183  1.00  0.00     0.039 A 
ATOM     41  C   UNL     1       9.034   6.907  -4.104  1.00  0.00     0.014 A 
ATOM     42  C   UNL     1       7.021   6.275  -2.912  1.00  0.00     0.014 A 
ATOM     43  C   UNL     1       9.068   5.638  -4.677  1.00  0.00     0.010 A 
ATOM     44  C   UNL     1       7.183   4.976  -3.300  1.00  0.00     0.010 A 
ATOM     45  C   UNL     1       8.149   4.668  -4.246  1.00  0.00    -0.014 A 
BRANCH  45  46
ATOM     46  C   UNL     1       8.229   3.282  -4.689  1.00  0.00     0.031 A 
ATOM     47  C   UNL     1       9.549   2.647  -4.455  1.00  0.00     0.074 A 
ATOM     48  C   UNL     1       7.136   2.576  -5.056  1.00  0.00     0.049 A 
ATOM     49  N   UNL     1      10.456   2.373  -5.333  1.00  0.00    -0.248 NA
ATOM     50  C   UNL     1      10.000   2.466  -3.065  1.00  0.00     0.031 C 
ATOM     51  C   UNL     1       5.728   3.003  -5.033  1.00  0.00     0.029 A 
ATOM     52  N   UNL     1       7.041   1.275  -5.441  1.00  0.00    -0.354 N 
ATOM     53  C   UNL     1      11.476   1.734  -4.634  1.00  0.00     0.074 A 
ATOM     54  C   UNL     1      11.253   2.040  -3.247  1.00  0.00     0.031 C 
ATOM     55  C   UNL     1       4.920   1.929  -5.164  1.00  0.00     0.029 A 
ATOM     56  C   UNL     1       5.742   0.777  -5.475  1.00  0.00     0.049 A 
ATOM     57  H   UNL     1       7.826   0.731  -5.676  1.00  0.00     0.167 HD
ATOM     58  C   UNL     1      12.234   0.773  -5.235  1.00  0.00     0.037 A 
ATOM     59  C   UNL     1       5.359  -0.493  -5.754  1.00  0.00     0.037 A 
ATOM     60  C   UNL     1      12.014   0.781  -6.663  1.00  0.00     0.049 A 
ATOM     61  C   UNL     1       6.468  -1.106  -6.521  1.00  0.00     0.074 A 
ATOM     62  C   UNL     1      12.245   1.669  -7.693  1.00  0.00     0.029 A 
ATOM     63  N   UNL     1      11.087  -0.124  -7.122  1.00  0.00    -0.354 N 
ATOM     64  N   UNL     1       6.837  -0.697  -7.705  1.00  0.00    -0.248 NA
ATOM     65  C   UNL     1       7.460  -1.891  -5.801  1.00  0.00     0.031 C 
ATOM     66  C   UNL     1      11.164   1.479  -8.606  1.00  0.00     0.029 A 
ATOM     67  C   UNL     1      10.354   0.445  -8.130  1.00  0.00     0.049 A 
ATOM     68  H   UNL     1      10.967  -1.039  -6.780  1.00  0.00     0.167 HD
ATOM     69  C   UNL     1       8.220  -0.791  -7.699  1.00  0.00     0.074 A 
ATOM     70  C   UNL     1       8.530  -1.661  -6.568  1.00  0.00     0.031 C 
ATOM     71  C   UNL     1       8.982   0.077  -8.429  1.00  0.00     0.037 A 
BRANCH  58  72
ATOM     72  C   UNL     1      12.809  -0.451  -4.543  1.00  0.00     0.058 A 
ATOM     73  C   UNL     1      13.624  -1.331  -5.290  1.00  0.00     0.135 A 
ATOM     74  C   UNL     1      12.365  -0.954  -3.300  1.00  0.00     0.135 A 
ATOM     75  F   UNL     1      14.119  -0.959  -6.482  1.00  0.00    -0.206 F 
ATOM     76  C   UNL     1      13.888  -2.640  -4.883  1.00  0.00     0.059 A 
ATOM     77  C   UNL     1      12.659  -2.238  -2.853  1.00  0.00     0.059 A 
ATOM     78  F   UNL     1      11.544  -0.273  -2.495  1.00  0.00    -0.206 F 
ATOM     79  C   UNL     1      13.380  -3.090  -3.670  1.00  0.00     0.060 A 
BRANCH  79  80
ATOM     80  S   UNL     1      13.614  -4.810  -3.193  1.00  0.00     0.124 S 
ATOM     81  O   UNL     1      12.776  -5.498  -4.168  1.00  0.00    -0.237 OA
ATOM     82  O   UNL     1      15.055  -4.975  -3.354  1.00  0.00    -0.237 OA
ATOM     83  O   UNL     1      13.135  -4.843  -1.814  1.00  0.00    -0.744 OA
ENDBRANCH  79  80
ENDBRANCH  58  72
BRANCH  59  84
ATOM     84  C   UNL     1       4.241  -1.265  -5.157  1.00  0.00     0.058 A 
ATOM     85  C   UNL     1       3.739  -2.434  -5.755  1.00  0.00     0.135 A 
ATOM     86  C   UNL     1       3.822  -1.014  -3.835  1.00  0.00     0.135 A 
ATOM     87  F   UNL     1       4.109  -2.765  -7.001  1.00  0.00    -0.206 F 
ATOM     88  C   UNL     1       2.897  -3.321  -5.070  1.00  0.00     0.059 A 
ATOM     89  C   UNL     1       2.983  -1.879  -3.135  1.00  0.00     0.059 A 
ATOM     90  F   UNL     1       4.293   0.041  -3.152  1.00  0.00    -0.206 F 
ATOM     91  C   UNL     1       2.538  -3.042  -3.751  1.00  0.00     0.060 A 
BRANCH  91  92
ATOM     92  S   UNL     1       1.570  -4.246  -2.808  1.00  0.00     0.124 S 
ATOM     93  O   UNL     1       0.289  -4.217  -3.503  1.00  0.00    -0.237 OA
ATOM     94  O   UNL     1       2.356  -5.465  -2.966  1.00  0.00    -0.237 OA
ATOM     95  O   UNL     1       1.558  -3.685  -1.458  1.00  0.00    -0.744 OA
ENDBRANCH  91  92
ENDBRANCH  59  84
BRANCH  71  96
ATOM     96  C   UNL     1       8.299   0.858  -9.525  1.00  0.00     0.058 A 
ATOM     97  C   UNL     1       7.366   1.889  -9.314  1.00  0.00     0.135 A 
ATOM     98  C   UNL     1       8.726   0.644 -10.843  1.00  0.00     0.135 A 
ATOM     99  F   UNL     1       6.968   2.217  -8.079  1.00  0.00    -0.206 F 
ATOM    100  C   UNL     1       6.864   2.655 -10.369  1.00  0.00     0.059 A 
ATOM    101  C   UNL     1       8.262   1.415 -11.906  1.00  0.00     0.059 A 
ATOM    102  F   UNL     1       9.657  -0.289 -11.103  1.00  0.00    -0.206 F 
ATOM    103  C   UNL     1       7.324   2.414 -11.663  1.00  0.00     0.060 A 
BRANCH 103 104
ATOM    104  S   UNL     1       6.750   3.468 -13.013  1.00  0.00     0.124 S 
ATOM    105  O   UNL     1       5.370   3.025 -13.184  1.00  0.00    -0.237 OA
ATOM    106  O   UNL     1       6.922   4.810 -12.465  1.00  0.00    -0.237 OA
ATOM    107  O   UNL     1       7.653   3.135 -14.113  1.00  0.00    -0.744 OA
ENDBRANCH 103 104
ENDBRANCH  71  96
ENDBRANCH  45  46
ENDBRANCH  37  40
ENDBRANCH  35  36
ENDBRANCH   1  35
TORSDOF 17
