REMARK SMILES Cc1ccc2nc(Cl)c([C@@H]3CC(c4cccs4)=NN3C(=O)CCCC(=O)NCCCNC(=O)c3ccc(-c4c5nc(c(-c6c(F)cc(S(=O)(=O)[O-])cc6F)c6ccc([nH]6)c(-c6c(F)cc(S(=O)(=O)[O-])cc6F)c6nc(c(-c7c(F)cc(S(=O)(=O)[O-])cc7F)c7ccc4[nH]7)C=C6)C=C5)cc3)cc2c1
REMARK SMILES IDX 28 1 27 2 25 3 26 4 24 6 23 7 22 8 20 9 21 10 19 11 10 12
REMARK SMILES IDX 11 13 12 14 18 15 9 16 1 17 2 18 3 19 102 20 4 21 101 22
REMARK SMILES IDX 5 23 100 24 6 25 7 26 8 27 13 28 14 29 17 30 15 31 16 32
REMARK SMILES IDX 29 33 30 34 31 35 32 36 33 38 34 39 35 40 99 41 36 42 98 43
REMARK SMILES IDX 37 44 38 45 39 46 92 47 40 48 97 49 91 50 93 51 41 52 96 53
REMARK SMILES IDX 90 54 89 55 42 57 76 58 55 59 75 60 56 61 59 62 74 63 94 64
REMARK SMILES IDX 57 65 58 66 73 68 95 69 60 70 43 71 44 72 53 73 45 74 46 75
REMARK SMILES IDX 52 76 54 77 47 78 48 79 49 80 50 81 51 82 77 83 78 84 87 85
REMARK SMILES IDX 79 86 80 87 86 88 88 89 81 90 82 91 83 92 84 93 85 94 61 95
REMARK SMILES IDX 62 96 71 97 63 98 64 99 70 100 72 101 65 102 66 103 67 104
REMARK SMILES IDX 68 105 69 106
REMARK H PARENT 27 5 31 37 93 56 59 67
REMARK Flexibility Score: inf
ROOT
ATOM      1  C   UNL     1      -4.362   0.930  -2.479  1.00  0.00     0.117 C 
ENDROOT
BRANCH   1   2
ATOM      2  N   UNL     1      -3.499  -0.142  -2.922  1.00  0.00    -0.356 N 
ATOM      3  C   UNL     1      -2.190  -0.377  -2.657  1.00  0.00     0.220 C 
ATOM      4  O   UNL     1      -1.802  -1.548  -2.695  1.00  0.00    -0.275 OA
ATOM      5  H   UNL     1      -3.929  -0.806  -3.509  1.00  0.00     0.163 HD
BRANCH   3   6
ATOM      6  C   UNL     1      -1.234   0.720  -2.228  1.00  0.00     0.100 C 
BRANCH   6   7
ATOM      7  C   UNL     1      -1.040   1.913  -3.156  1.00  0.00     0.020 C 
BRANCH   7   8
ATOM      8  C   UNL     1      -1.892   3.158  -2.891  1.00  0.00     0.103 C 
BRANCH   8   9
ATOM      9  C   UNL     1      -1.617   3.818  -1.549  1.00  0.00     0.243 C 
ATOM     10  O   UNL     1      -0.545   4.395  -1.346  1.00  0.00    -0.273 OA
BRANCH   9  11
ATOM     11  N   UNL     1      -2.634   3.755  -0.572  1.00  0.00    -0.225 N 
ATOM     12  C   UNL     1      -2.499   2.793   0.563  1.00  0.00     0.150 C 
ATOM     13  C   UNL     1      -2.165   3.660   1.762  1.00  0.00     0.092 C 
ATOM     14  C   UNL     1      -2.573   4.996   1.227  1.00  0.00     0.081 C 
ATOM     15  N   UNL     1      -2.878   5.029  -0.035  1.00  0.00    -0.173 NA
BRANCH  12  16
ATOM     16  C   UNL     1      -3.687   1.854   0.770  1.00  0.00     0.015 A 
ATOM     17  C   UNL     1      -5.387  -3.886  -0.855  1.00  0.00     0.044 C 
ATOM     18  C   UNL     1      -5.556  -2.545  -0.201  1.00  0.00    -0.050 A 
ATOM     19  C   UNL     1      -6.828  -2.013   0.013  1.00  0.00     0.005 A 
ATOM     20  C   UNL     1      -4.434  -1.769   0.129  1.00  0.00     0.013 A 
ATOM     21  C   UNL     1      -6.970  -0.712   0.502  1.00  0.00     0.029 A 
ATOM     22  C   UNL     1      -4.582  -0.433   0.560  1.00  0.00     0.001 A 
ATOM     23  C   UNL     1      -5.869   0.098   0.739  1.00  0.00     0.072 A 
ATOM     24  C   UNL     1      -3.491   0.459   0.655  1.00  0.00     0.019 A 
ATOM     25  N   UNL     1      -6.061   1.390   1.019  1.00  0.00    -0.236 NA
ATOM     26  C   UNL     1      -5.004   2.235   1.003  1.00  0.00     0.135 A 
ATOM     27  Cl  UNL     1      -5.536   3.843   1.263  1.00  0.00    -0.062 Cl
ENDBRANCH  12  16
BRANCH  14  28
ATOM     28  C   UNL     1      -2.509   6.162   2.063  1.00  0.00     0.050 A 
ATOM     29  C   UNL     1      -1.470   6.541   2.891  1.00  0.00     0.022 A 
ATOM     30  S   UNL     1      -3.793   7.282   2.101  1.00  0.00    -0.142 S 
ATOM     31  C   UNL     1      -1.722   7.785   3.535  1.00  0.00     0.012 A 
ATOM     32  C   UNL     1      -2.962   8.287   3.210  1.00  0.00     0.065 A 
ENDBRANCH  14  28
ENDBRANCH   9  11
ENDBRANCH   8   9
ENDBRANCH   7   8
ENDBRANCH   6   7
ENDBRANCH   3   6
ENDBRANCH   1   2
BRANCH   1  33
ATOM     33  C   UNL     1      -5.229   1.536  -3.568  1.00  0.00     0.042 C 
BRANCH  33  34
ATOM     34  C   UNL     1      -6.703   1.327  -3.250  1.00  0.00     0.118 C 
BRANCH  34  35
ATOM     35  N   UNL     1      -7.205   2.120  -2.126  1.00  0.00    -0.352 N 
ATOM     36  C   UNL     1      -8.532   2.384  -1.852  1.00  0.00     0.251 C 
ATOM     37  H   UNL     1      -6.536   2.498  -1.510  1.00  0.00     0.163 HD
ATOM     38  O   UNL     1      -8.887   3.117  -0.935  1.00  0.00    -0.269 OA
BRANCH  36  39
ATOM     39  C   UNL     1      -9.524   1.775  -2.753  1.00  0.00     0.039 A 
ATOM     40  C   UNL     1     -10.251   2.599  -3.613  1.00  0.00     0.014 A 
ATOM     41  C   UNL     1      -9.521   0.387  -2.903  1.00  0.00     0.014 A 
ATOM     42  C   UNL     1     -10.891   2.030  -4.712  1.00  0.00     0.010 A 
ATOM     43  C   UNL     1     -10.079  -0.162  -4.046  1.00  0.00     0.010 A 
ATOM     44  C   UNL     1     -10.748   0.657  -4.972  1.00  0.00    -0.014 A 
BRANCH  44  45
ATOM     45  C   UNL     1     -11.251   0.037  -6.221  1.00  0.00     0.031 A 
ATOM     46  C   UNL     1     -12.263  -1.068  -6.131  1.00  0.00     0.074 A 
ATOM     47  C   UNL     1     -10.691   0.363  -7.403  1.00  0.00     0.049 A 
ATOM     48  N   UNL     1     -12.688  -1.876  -7.064  1.00  0.00    -0.248 NA
ATOM     49  C   UNL     1     -12.829  -1.332  -4.798  1.00  0.00     0.031 C 
ATOM     50  C   UNL     1      -9.642   1.368  -7.599  1.00  0.00     0.029 A 
ATOM     51  N   UNL     1     -10.903  -0.140  -8.662  1.00  0.00    -0.354 N 
ATOM     52  C   UNL     1     -13.531  -2.774  -6.423  1.00  0.00     0.074 A 
ATOM     53  C   UNL     1     -13.523  -2.438  -5.017  1.00  0.00     0.031 C 
ATOM     54  C   UNL     1      -9.311   1.413  -8.900  1.00  0.00     0.029 A 
ATOM     55  C   UNL     1     -10.093   0.418  -9.625  1.00  0.00     0.049 A 
ATOM     56  H   UNL     1     -11.572  -0.835  -8.859  1.00  0.00     0.167 HD
ATOM     57  C   UNL     1     -14.261  -3.777  -6.965  1.00  0.00     0.037 A 
ATOM     58  C   UNL     1      -9.986   0.146 -10.941  1.00  0.00     0.037 A 
ATOM     59  C   UNL     1     -14.306  -4.056  -8.373  1.00  0.00     0.049 A 
ATOM     60  C   UNL     1     -10.867  -0.916 -11.537  1.00  0.00     0.074 A 
ATOM     61  C   UNL     1     -15.086  -4.982  -9.043  1.00  0.00     0.029 A 
ATOM     62  N   UNL     1     -13.544  -3.402  -9.331  1.00  0.00    -0.354 N 
ATOM     63  N   UNL     1     -11.719  -1.709 -10.931  1.00  0.00    -0.248 NA
ATOM     64  C   UNL     1     -10.784  -1.119 -12.990  1.00  0.00     0.031 C 
ATOM     65  C   UNL     1     -14.776  -4.905 -10.405  1.00  0.00     0.029 A 
ATOM     66  C   UNL     1     -13.829  -3.908 -10.587  1.00  0.00     0.049 A 
ATOM     67  H   UNL     1     -12.897  -2.685  -9.145  1.00  0.00     0.167 HD
ATOM     68  C   UNL     1     -12.293  -2.487 -11.929  1.00  0.00     0.074 A 
ATOM     69  C   UNL     1     -11.691  -2.069 -13.180  1.00  0.00     0.031 C 
ATOM     70  C   UNL     1     -13.233  -3.457 -11.820  1.00  0.00     0.037 A 
BRANCH  57  71
ATOM     71  C   UNL     1     -15.064  -4.630  -6.025  1.00  0.00     0.058 A 
ATOM     72  C   UNL     1     -16.191  -4.130  -5.352  1.00  0.00     0.135 A 
ATOM     73  C   UNL     1     -14.694  -5.962  -5.781  1.00  0.00     0.135 A 
ATOM     74  F   UNL     1     -16.578  -2.857  -5.536  1.00  0.00    -0.206 F 
ATOM     75  C   UNL     1     -16.892  -4.902  -4.433  1.00  0.00     0.059 A 
ATOM     76  C   UNL     1     -15.399  -6.763  -4.888  1.00  0.00     0.059 A 
ATOM     77  F   UNL     1     -13.625  -6.492  -6.397  1.00  0.00    -0.206 F 
ATOM     78  C   UNL     1     -16.482  -6.216  -4.201  1.00  0.00     0.060 A 
BRANCH  78  79
ATOM     79  S   UNL     1     -17.380  -7.200  -2.983  1.00  0.00     0.124 S 
ATOM     80  O   UNL     1     -16.845  -6.669  -1.733  1.00  0.00    -0.237 OA
ATOM     81  O   UNL     1     -18.771  -6.864  -3.269  1.00  0.00    -0.237 OA
ATOM     82  O   UNL     1     -16.991  -8.570  -3.302  1.00  0.00    -0.744 OA
ENDBRANCH  78  79
ENDBRANCH  57  71
BRANCH  58  83
ATOM     83  C   UNL     1      -9.032   0.920 -11.777  1.00  0.00     0.058 A 
ATOM     84  C   UNL     1      -9.489   1.915 -12.654  1.00  0.00     0.135 A 
ATOM     85  C   UNL     1      -7.646   0.722 -11.680  1.00  0.00     0.135 A 
ATOM     86  F   UNL     1     -10.805   2.139 -12.785  1.00  0.00    -0.206 F 
ATOM     87  C   UNL     1      -8.608   2.686 -13.406  1.00  0.00     0.059 A 
ATOM     88  C   UNL     1      -6.744   1.493 -12.408  1.00  0.00     0.059 A 
ATOM     89  F   UNL     1      -7.157  -0.204 -10.841  1.00  0.00    -0.206 F 
ATOM     90  C   UNL     1      -7.235   2.471 -13.272  1.00  0.00     0.060 A 
BRANCH  90  91
ATOM     91  S   UNL     1      -6.098   3.531 -14.193  1.00  0.00     0.124 S 
ATOM     92  O   UNL     1      -6.232   3.000 -15.545  1.00  0.00    -0.237 OA
ATOM     93  O   UNL     1      -6.664   4.857 -13.969  1.00  0.00    -0.237 OA
ATOM     94  O   UNL     1      -4.814   3.288 -13.542  1.00  0.00    -0.744 OA
ENDBRANCH  90  91
ENDBRANCH  58  83
BRANCH  70  95
ATOM     95  C   UNL     1     -13.708  -4.114 -13.082  1.00  0.00     0.058 A 
ATOM     96  C   UNL     1     -12.952  -5.108 -13.719  1.00  0.00     0.135 A 
ATOM     97  C   UNL     1     -14.987  -3.829 -13.586  1.00  0.00     0.135 A 
ATOM     98  F   UNL     1     -11.721  -5.410 -13.276  1.00  0.00    -0.206 F 
ATOM     99  C   UNL     1     -13.452  -5.806 -14.812  1.00  0.00     0.059 A 
ATOM    100  C   UNL     1     -15.514  -4.528 -14.667  1.00  0.00     0.059 A 
ATOM    101  F   UNL     1     -15.749  -2.890 -13.004  1.00  0.00    -0.206 F 
ATOM    102  C   UNL     1     -14.739  -5.516 -15.272  1.00  0.00     0.060 A 
BRANCH 102 103
ATOM    103  S   UNL     1     -15.412  -6.492 -16.634  1.00  0.00     0.124 S 
ATOM    104  O   UNL     1     -14.708  -5.925 -17.779  1.00  0.00    -0.237 OA
ATOM    105  O   UNL     1     -15.031  -7.852 -16.264  1.00  0.00    -0.237 OA
ATOM    106  O   UNL     1     -16.844  -6.212 -16.575  1.00  0.00    -0.744 OA
ENDBRANCH 102 103
ENDBRANCH  70  95
ENDBRANCH  44  45
ENDBRANCH  36  39
ENDBRANCH  34  35
ENDBRANCH  33  34
ENDBRANCH   1  33
TORSDOF 19
