REMARK SMILES O=C(NCCCNC(=O)[C@H]1CCCN(C(=O)c2cc(Br)ccc2Cl)C1)c1ccc(-c2c3nc(c(-c4c(F)cc(S(=O)(=O)[O-])cc4F)c4ccc([nH]4)c(-c4c(F)cc(S(=O)(=O)[O-])cc4F)c4nc(c(-c5c(F)cc(S(=O)(=O)[O-])cc5F)c5ccc2[nH]5)C=C4)C=C3)cc1
REMARK SMILES IDX 4 1 3 2 1 3 2 4 26 6 27 7 91 8 28 9 90 10 29 11 30 12 31 13
REMARK SMILES IDX 84 14 32 15 89 16 83 17 85 18 33 19 88 20 82 21 81 22 34 24
REMARK SMILES IDX 68 25 47 26 67 27 48 28 51 29 66 30 86 31 49 32 50 33 65 35
REMARK SMILES IDX 87 36 52 37 35 38 36 39 45 40 37 41 38 42 44 43 46 44 39 45
REMARK SMILES IDX 40 46 41 47 42 48 43 49 69 50 70 51 79 52 71 53 72 54 78 55
REMARK SMILES IDX 80 56 73 57 74 58 75 59 76 60 77 61 53 62 54 63 63 64 55 65
REMARK SMILES IDX 56 66 62 67 64 68 57 69 58 70 59 71 60 72 61 73 5 74 6 75
REMARK SMILES IDX 7 76 8 77 9 79 10 80 11 81 25 82 12 83 14 84 13 85 15 86
REMARK SMILES IDX 16 87 17 88 18 89 23 90 19 91 22 92 24 93 20 94 21 95
REMARK H PARENT 3 5 85 23 51 34 7 78
REMARK Flexibility Score: inf
ROOT
ATOM      1  C   UNL     1      10.818  -4.758   6.650  1.00  0.00     0.118 C 
ENDROOT
BRANCH   1   2
ATOM      2  N   UNL     1      11.755  -5.720   6.098  1.00  0.00    -0.352 N 
ATOM      3  O   UNL     1      13.730  -6.466   5.342  1.00  0.00    -0.269 OA
ATOM      4  C   UNL     1      13.125  -5.702   6.097  1.00  0.00     0.251 C 
ATOM      5  H   UNL     1      11.345  -6.501   5.660  1.00  0.00     0.163 HD
BRANCH   4   6
ATOM      6  C   UNL     1      13.884  -4.789   6.982  1.00  0.00     0.039 A 
ATOM      7  C   UNL     1      13.514  -4.593   8.318  1.00  0.00     0.014 A 
ATOM      8  C   UNL     1      15.049  -4.193   6.490  1.00  0.00     0.014 A 
ATOM      9  C   UNL     1      14.264  -3.745   9.135  1.00  0.00     0.010 A 
ATOM     10  C   UNL     1      15.831  -3.391   7.325  1.00  0.00     0.010 A 
ATOM     11  C   UNL     1      15.441  -3.154   8.653  1.00  0.00    -0.014 A 
BRANCH  11  12
ATOM     12  C   UNL     1      16.311  -2.356   9.553  1.00  0.00     0.031 A 
ATOM     13  C   UNL     1      16.503  -0.885   9.328  1.00  0.00     0.074 A 
ATOM     14  C   UNL     1      16.972  -2.981  10.546  1.00  0.00     0.049 A 
ATOM     15  N   UNL     1      17.299  -0.052   9.948  1.00  0.00    -0.248 NA
ATOM     16  C   UNL     1      15.704  -0.271   8.257  1.00  0.00     0.031 C 
ATOM     17  C   UNL     1      16.875  -4.410  10.852  1.00  0.00     0.029 A 
ATOM     18  N   UNL     1      17.868  -2.504  11.469  1.00  0.00    -0.354 N 
ATOM     19  C   UNL     1      17.118   1.179   9.330  1.00  0.00     0.074 A 
ATOM     20  C   UNL     1      16.147   0.980   8.274  1.00  0.00     0.031 C 
ATOM     21  C   UNL     1      17.678  -4.693  11.888  1.00  0.00     0.029 A 
ATOM     22  C   UNL     1      18.383  -3.480  12.288  1.00  0.00     0.049 A 
ATOM     23  H   UNL     1      18.118  -1.554  11.538  1.00  0.00     0.167 HD
ATOM     24  C   UNL     1      17.710   2.364   9.618  1.00  0.00     0.037 A 
ATOM     25  C   UNL     1      19.339  -3.417  13.235  1.00  0.00     0.037 A 
ATOM     26  C   UNL     1      18.671   2.551  10.675  1.00  0.00     0.049 A 
ATOM     27  C   UNL     1      19.989  -2.097  13.534  1.00  0.00     0.074 A 
ATOM     28  C   UNL     1      19.301   3.719  11.069  1.00  0.00     0.029 A 
ATOM     29  N   UNL     1      19.148   1.542  11.499  1.00  0.00    -0.354 N 
ATOM     30  N   UNL     1      19.782  -0.934  12.964  1.00  0.00    -0.248 NA
ATOM     31  C   UNL     1      21.000  -2.076  14.599  1.00  0.00     0.031 C 
ATOM     32  C   UNL     1      20.185   3.408  12.109  1.00  0.00     0.029 A 
ATOM     33  C   UNL     1      20.077   2.055  12.390  1.00  0.00     0.049 A 
ATOM     34  H   UNL     1      18.868   0.599  11.457  1.00  0.00     0.167 HD
ATOM     35  C   UNL     1      20.620  -0.037  13.614  1.00  0.00     0.074 A 
ATOM     36  C   UNL     1      21.338  -0.792  14.622  1.00  0.00     0.031 C 
ATOM     37  C   UNL     1      20.775   1.291  13.395  1.00  0.00     0.037 A 
BRANCH  24  38
ATOM     38  C   UNL     1      17.351   3.540   8.753  1.00  0.00     0.058 A 
ATOM     39  C   UNL     1      16.096   4.165   8.836  1.00  0.00     0.135 A 
ATOM     40  C   UNL     1      18.273   4.047   7.823  1.00  0.00     0.135 A 
ATOM     41  F   UNL     1      15.173   3.714   9.701  1.00  0.00    -0.206 F 
ATOM     42  C   UNL     1      15.752   5.220   7.997  1.00  0.00     0.059 A 
ATOM     43  C   UNL     1      17.958   5.116   6.989  1.00  0.00     0.059 A 
ATOM     44  F   UNL     1      19.489   3.491   7.706  1.00  0.00    -0.206 F 
ATOM     45  C   UNL     1      16.686   5.680   7.067  1.00  0.00     0.060 A 
BRANCH  45  46
ATOM     46  S   UNL     1      16.213   7.019   5.952  1.00  0.00     0.124 S 
ATOM     47  O   UNL     1      15.387   6.309   4.980  1.00  0.00    -0.237 OA
ATOM     48  O   UNL     1      15.500   7.934   6.838  1.00  0.00    -0.237 OA
ATOM     49  O   UNL     1      17.493   7.510   5.449  1.00  0.00    -0.744 OA
ENDBRANCH  45  46
ENDBRANCH  24  38
BRANCH  25  50
ATOM     50  C   UNL     1      19.721  -4.657  13.956  1.00  0.00     0.058 A 
ATOM     51  C   UNL     1      19.294  -4.889  15.270  1.00  0.00     0.135 A 
ATOM     52  C   UNL     1      20.441  -5.675  13.310  1.00  0.00     0.135 A 
ATOM     53  F   UNL     1      18.607  -3.943  15.929  1.00  0.00    -0.206 F 
ATOM     54  C   UNL     1      19.553  -6.093  15.916  1.00  0.00     0.059 A 
ATOM     55  C   UNL     1      20.695  -6.896  13.928  1.00  0.00     0.059 A 
ATOM     56  F   UNL     1      20.857  -5.505  12.045  1.00  0.00    -0.206 F 
ATOM     57  C   UNL     1      20.244  -7.096  15.232  1.00  0.00     0.060 A 
BRANCH  57  58
ATOM     58  S   UNL     1      20.478  -8.694  16.040  1.00  0.00     0.124 S 
ATOM     59  O   UNL     1      21.543  -8.391  16.989  1.00  0.00    -0.237 OA
ATOM     60  O   UNL     1      19.160  -8.944  16.616  1.00  0.00    -0.237 OA
ATOM     61  O   UNL     1      20.846  -9.576  14.936  1.00  0.00    -0.744 OA
ENDBRANCH  57  58
ENDBRANCH  25  50
BRANCH  37  62
ATOM     62  C   UNL     1      21.733   2.034  14.282  1.00  0.00     0.058 A 
ATOM     63  C   UNL     1      23.120   1.964  14.088  1.00  0.00     0.135 A 
ATOM     64  C   UNL     1      21.248   2.895  15.280  1.00  0.00     0.135 A 
ATOM     65  F   UNL     1      23.632   1.148  13.154  1.00  0.00    -0.206 F 
ATOM     66  C   UNL     1      23.997   2.727  14.853  1.00  0.00     0.059 A 
ATOM     67  C   UNL     1      22.106   3.680  16.044  1.00  0.00     0.059 A 
ATOM     68  F   UNL     1      19.928   2.999  15.500  1.00  0.00    -0.206 F 
ATOM     69  C   UNL     1      23.480   3.588  15.824  1.00  0.00     0.060 A 
BRANCH  69  70
ATOM     70  S   UNL     1      24.621   4.629  16.759  1.00  0.00     0.124 S 
ATOM     71  O   UNL     1      25.187   3.671  17.703  1.00  0.00    -0.237 OA
ATOM     72  O   UNL     1      25.529   5.110  15.723  1.00  0.00    -0.237 OA
ATOM     73  O   UNL     1      23.751   5.646  17.342  1.00  0.00    -0.744 OA
ENDBRANCH  69  70
ENDBRANCH  37  62
ENDBRANCH  11  12
ENDBRANCH   4   6
ENDBRANCH   1   2
BRANCH   1  74
ATOM     74  C   UNL     1      10.052  -4.022   5.555  1.00  0.00     0.042 C 
BRANCH  74  75
ATOM     75  C   UNL     1       8.972  -4.870   4.878  1.00  0.00     0.117 C 
BRANCH  75  76
ATOM     76  N   UNL     1       7.850  -5.105   5.769  1.00  0.00    -0.356 N 
ATOM     77  C   UNL     1       6.682  -4.431   5.940  1.00  0.00     0.224 C 
ATOM     78  H   UNL     1       7.954  -5.892   6.353  1.00  0.00     0.163 HD
ATOM     79  O   UNL     1       5.937  -4.851   6.830  1.00  0.00    -0.275 OA
BRANCH  77  80
ATOM     80  C   UNL     1       6.264  -3.277   5.024  1.00  0.00     0.098 C 
ATOM     81  C   UNL     1       4.886  -2.736   5.485  1.00  0.00     0.017 C 
ATOM     82  C   UNL     1       7.253  -2.113   4.995  1.00  0.00     0.133 C 
ATOM     83  C   UNL     1       4.425  -1.509   4.693  1.00  0.00     0.022 C 
ATOM     84  N   UNL     1       6.746  -1.017   4.175  1.00  0.00    -0.338 N 
ATOM     85  C   UNL     1       5.501  -0.428   4.652  1.00  0.00     0.120 C 
BRANCH  84  86
ATOM     86  C   UNL     1       7.360  -0.746   2.956  1.00  0.00     0.255 C 
ATOM     87  O   UNL     1       8.222  -1.464   2.452  1.00  0.00    -0.269 OA
BRANCH  86  88
ATOM     88  C   UNL     1       6.930   0.430   2.183  1.00  0.00     0.059 A 
ATOM     89  C   UNL     1       6.298   0.197   0.955  1.00  0.00     0.031 A 
ATOM     90  C   UNL     1       7.180   1.737   2.618  1.00  0.00     0.053 A 
ATOM     91  C   UNL     1       5.880   1.279   0.185  1.00  0.00     0.018 A 
ATOM     92  C   UNL     1       6.754   2.813   1.835  1.00  0.00     0.022 A 
ATOM     93  Cl  UNL     1       8.010   2.085   4.090  1.00  0.00    -0.083 Cl
ATOM     94  Br  UNL     1       5.008   0.975  -1.464  1.00  0.00    -0.051 Br
ATOM     95  C   UNL     1       6.098   2.586   0.622  1.00  0.00     0.017 A 
ENDBRANCH  86  88
ENDBRANCH  84  86
ENDBRANCH  77  80
ENDBRANCH  75  76
ENDBRANCH  74  75
ENDBRANCH   1  74
TORSDOF 15
