REMARK SMILES C[C@@H]1C[C@@H]1C(=O)NCCC(=O)N[C@@](C)(C(=O)NCCCNC(=O)c1ccc(-c2c3nc(c(-c4c(F)cc(S(=O)(=O)[O-])cc4F)c4ccc([nH]4)c(-c4c(F)cc(S(=O)(=O)[O-])cc4F)c4nc(c(-c5c(F)cc(S(=O)(=O)[O-])cc5F)c5ccc2[nH]5)C=C4)C=C3)cc1)C(F)(F)F
REMARK SMILES IDX 18 1 17 2 15 3 16 4 13 6 14 7 12 8 10 9 11 10 9 12 8 13 7 14
REMARK SMILES IDX 5 15 6 16 4 18 1 19 2 20 3 21 90 22 91 23 92 24 93 25 19 26
REMARK SMILES IDX 20 27 21 28 22 29 23 31 24 32 25 33 89 34 26 35 88 36 27 37
REMARK SMILES IDX 28 38 29 39 82 40 30 41 87 42 81 43 83 44 31 45 86 46 80 47
REMARK SMILES IDX 79 48 32 50 66 51 45 52 65 53 46 54 49 55 64 56 84 57 47 58
REMARK SMILES IDX 48 59 63 61 85 62 50 63 33 64 34 65 43 66 35 67 36 68 42 69
REMARK SMILES IDX 44 70 37 71 38 72 39 73 40 74 41 75 67 76 68 77 77 78 69 79
REMARK SMILES IDX 70 80 76 81 78 82 71 83 72 84 73 85 74 86 75 87 51 88 52 89
REMARK SMILES IDX 61 90 53 91 54 92 60 93 62 94 55 95 56 96 57 97 58 98 59 99
REMARK H PARENT 17 5 12 11 7 17 21 30 83 49 49 60
REMARK Flexibility Score: inf
ROOT
ATOM      1  C   UNL     1       7.417   5.290  -0.230  1.00  0.00     0.117 C 
ENDROOT
BRANCH   1   2
ATOM      2  N   UNL     1       7.200   3.988   0.378  1.00  0.00    -0.354 N 
ATOM      3  C   UNL     1       6.121   3.362   0.917  1.00  0.00     0.254 C 
ATOM      4  O   UNL     1       6.383   2.287   1.461  1.00  0.00    -0.272 OA
ATOM      5  H   UNL     1       8.016   3.438   0.405  1.00  0.00     0.163 HD
BRANCH   3   6
ATOM      6  C   UNL     1       4.680   3.900   0.752  1.00  0.00     0.212 C 
ATOM      7  C   UNL     1       4.404   3.984  -0.763  1.00  0.00     0.056 C 
BRANCH   6   8
ATOM      8  N   UNL     1       4.606   5.279   1.354  1.00  0.00    -0.335 N 
ATOM      9  C   UNL     1       3.583   6.128   1.644  1.00  0.00     0.222 C 
ATOM     10  O   UNL     1       3.866   7.326   1.729  1.00  0.00    -0.275 OA
ATOM     11  H   UNL     1       5.489   5.646   1.589  1.00  0.00     0.164 HD
BRANCH   9  12
ATOM     12  C   UNL     1       2.171   5.671   1.940  1.00  0.00     0.121 C 
BRANCH  12  13
ATOM     13  C   UNL     1       1.155   5.904   0.825  1.00  0.00     0.125 C 
BRANCH  13  14
ATOM     14  N   UNL     1       1.389   5.167  -0.405  1.00  0.00    -0.355 N 
ATOM     15  C   UNL     1       0.924   3.960  -0.856  1.00  0.00     0.223 C 
ATOM     16  O   UNL     1       1.340   3.536  -1.935  1.00  0.00    -0.275 OA
ATOM     17  H   UNL     1       1.997   5.620  -1.033  1.00  0.00     0.163 HD
BRANCH  15  18
ATOM     18  C   UNL     1      -0.085   3.196  -0.073  1.00  0.00     0.081 C 
ATOM     19  C   UNL     1       1.069   0.793  -0.291  1.00  0.00     0.008 C 
ATOM     20  C   UNL     1      -0.023   1.694   0.185  1.00  0.00    -0.001 C 
ATOM     21  C   UNL     1      -0.998   2.244  -0.819  1.00  0.00     0.018 C 
ENDBRANCH  15  18
ENDBRANCH  13  14
ENDBRANCH  12  13
ENDBRANCH   9  12
ENDBRANCH   6   8
BRANCH   6  22
ATOM     22  C   UNL     1       3.806   2.814   1.415  1.00  0.00     0.420 C 
ATOM     23  F   UNL     1       3.966   2.780   2.758  1.00  0.00    -0.168 F 
ATOM     24  F   UNL     1       2.491   3.040   1.198  1.00  0.00    -0.168 F 
ATOM     25  F   UNL     1       4.030   1.573   0.926  1.00  0.00    -0.168 F 
ENDBRANCH   6  22
ENDBRANCH   3   6
ENDBRANCH   1   2
BRANCH   1  26
ATOM     26  C   UNL     1       8.355   6.123   0.636  1.00  0.00     0.042 C 
BRANCH  26  27
ATOM     27  C   UNL     1       9.643   5.400   1.024  1.00  0.00     0.118 C 
BRANCH  27  28
ATOM     28  N   UNL     1      10.393   4.911  -0.125  1.00  0.00    -0.352 N 
ATOM     29  C   UNL     1      11.727   5.075  -0.420  1.00  0.00     0.251 C 
ATOM     30  H   UNL     1       9.873   4.393  -0.782  1.00  0.00     0.163 HD
ATOM     31  O   UNL     1      12.166   4.730  -1.503  1.00  0.00    -0.269 OA
BRANCH  29  32
ATOM     32  C   UNL     1      12.604   5.706   0.589  1.00  0.00     0.039 A 
ATOM     33  C   UNL     1      13.432   6.759   0.198  1.00  0.00     0.014 A 
ATOM     34  C   UNL     1      12.560   5.289   1.921  1.00  0.00     0.014 A 
ATOM     35  C   UNL     1      14.168   7.443   1.166  1.00  0.00     0.010 A 
ATOM     36  C   UNL     1      13.225   6.027   2.892  1.00  0.00     0.010 A 
ATOM     37  C   UNL     1      14.039   7.109   2.524  1.00  0.00    -0.014 A 
BRANCH  37  38
ATOM     38  C   UNL     1      14.752   7.875   3.578  1.00  0.00     0.031 A 
ATOM     39  C   UNL     1      15.766   7.184   4.448  1.00  0.00     0.074 A 
ATOM     40  C   UNL     1      14.435   9.167   3.793  1.00  0.00     0.049 A 
ATOM     41  N   UNL     1      16.439   7.657   5.464  1.00  0.00    -0.248 NA
ATOM     42  C   UNL     1      16.035   5.766   4.159  1.00  0.00     0.031 C 
ATOM     43  C   UNL     1      13.425   9.928   3.052  1.00  0.00     0.029 A 
ATOM     44  N   UNL     1      14.923  10.069   4.704  1.00  0.00    -0.354 N 
ATOM     45  C   UNL     1      17.195   6.594   5.944  1.00  0.00     0.074 A 
ATOM     46  C   UNL     1      16.853   5.437   5.147  1.00  0.00     0.031 C 
ATOM     47  C   UNL     1      13.389  11.186   3.520  1.00  0.00     0.029 A 
ATOM     48  C   UNL     1      14.343  11.312   4.618  1.00  0.00     0.049 A 
ATOM     49  H   UNL     1      15.624   9.846   5.359  1.00  0.00     0.167 HD
ATOM     50  C   UNL     1      18.112   6.590   6.940  1.00  0.00     0.037 A 
ATOM     51  C   UNL     1      14.552  12.427   5.345  1.00  0.00     0.037 A 
ATOM     52  C   UNL     1      18.470   7.754   7.706  1.00  0.00     0.049 A 
ATOM     53  C   UNL     1      15.586  12.401   6.438  1.00  0.00     0.074 A 
ATOM     54  C   UNL     1      19.431   7.872   8.694  1.00  0.00     0.029 A 
ATOM     55  N   UNL     1      17.881   9.003   7.569  1.00  0.00    -0.354 N 
ATOM     56  N   UNL     1      16.341  11.404   6.834  1.00  0.00    -0.248 NA
ATOM     57  C   UNL     1      15.802  13.652   7.178  1.00  0.00     0.031 C 
ATOM     58  C   UNL     1      19.395   9.182   9.183  1.00  0.00     0.029 A 
ATOM     59  C   UNL     1      18.447   9.894   8.466  1.00  0.00     0.049 A 
ATOM     60  H   UNL     1      17.168   9.224   6.928  1.00  0.00     0.167 HD
ATOM     61  C   UNL     1      17.141  11.914   7.851  1.00  0.00     0.074 A 
ATOM     62  C   UNL     1      16.786  13.311   7.999  1.00  0.00     0.031 C 
ATOM     63  C   UNL     1      18.085  11.284   8.593  1.00  0.00     0.037 A 
BRANCH  50  64
ATOM     64  C   UNL     1      18.798   5.287   7.250  1.00  0.00     0.058 A 
ATOM     65  C   UNL     1      19.718   4.709   6.359  1.00  0.00     0.135 A 
ATOM     66  C   UNL     1      18.555   4.621   8.461  1.00  0.00     0.135 A 
ATOM     67  F   UNL     1      19.975   5.293   5.178  1.00  0.00    -0.206 F 
ATOM     68  C   UNL     1      20.348   3.502   6.644  1.00  0.00     0.059 A 
ATOM     69  C   UNL     1      19.197   3.428   8.781  1.00  0.00     0.059 A 
ATOM     70  F   UNL     1      17.684   5.127   9.349  1.00  0.00    -0.206 F 
ATOM     71  C   UNL     1      20.080   2.869   7.859  1.00  0.00     0.060 A 
BRANCH  71  72
ATOM     72  S   UNL     1      20.911   1.307   8.216  1.00  0.00     0.124 S 
ATOM     73  O   UNL     1      20.206   0.392   7.322  1.00  0.00    -0.237 OA
ATOM     74  O   UNL     1      22.295   1.600   7.858  1.00  0.00    -0.237 OA
ATOM     75  O   UNL     1      20.664   1.107   9.640  1.00  0.00    -0.744 OA
ENDBRANCH  71  72
ENDBRANCH  50  64
BRANCH  51  76
ATOM     76  C   UNL     1      13.788  13.668   5.043  1.00  0.00     0.058 A 
ATOM     77  C   UNL     1      14.418  14.778   4.462  1.00  0.00     0.135 A 
ATOM     78  C   UNL     1      12.414  13.763   5.313  1.00  0.00     0.135 A 
ATOM     79  F   UNL     1      15.731  14.738   4.188  1.00  0.00    -0.206 F 
ATOM     80  C   UNL     1      13.719  15.947   4.176  1.00  0.00     0.059 A 
ATOM     81  C   UNL     1      11.688  14.912   5.013  1.00  0.00     0.059 A 
ATOM     82  F   UNL     1      11.761  12.722   5.851  1.00  0.00    -0.206 F 
ATOM     83  C   UNL     1      12.352  16.003   4.453  1.00  0.00     0.060 A 
BRANCH  83  84
ATOM     84  S   UNL     1      11.444  17.506   4.033  1.00  0.00     0.124 S 
ATOM     85  O   UNL     1      11.909  18.427   5.063  1.00  0.00    -0.237 OA
ATOM     86  O   UNL     1      11.909  17.776   2.676  1.00  0.00    -0.237 OA
ATOM     87  O   UNL     1      10.047  17.094   4.138  1.00  0.00    -0.744 OA
ENDBRANCH  83  84
ENDBRANCH  51  76
BRANCH  63  88
ATOM     88  C   UNL     1      18.828  12.106   9.610  1.00  0.00     0.058 A 
ATOM     89  C   UNL     1      18.221  12.533  10.800  1.00  0.00     0.135 A 
ATOM     90  C   UNL     1      20.182  12.423   9.412  1.00  0.00     0.135 A 
ATOM     91  F   UNL     1      16.927  12.261  11.034  1.00  0.00    -0.206 F 
ATOM     92  C   UNL     1      18.923  13.268  11.750  1.00  0.00     0.059 A 
ATOM     93  C   UNL     1      20.911  13.131  10.361  1.00  0.00     0.059 A 
ATOM     94  F   UNL     1      20.813  12.028   8.295  1.00  0.00    -0.206 F 
ATOM     95  C   UNL     1      20.270  13.560  11.521  1.00  0.00     0.060 A 
BRANCH  95  96
ATOM     96  S   UNL     1      21.179  14.484  12.777  1.00  0.00     0.124 S 
ATOM     97  O   UNL     1      20.649  15.831  12.591  1.00  0.00    -0.237 OA
ATOM     98  O   UNL     1      20.782  13.811  14.010  1.00  0.00    -0.237 OA
ATOM     99  O   UNL     1      22.575  14.299  12.391  1.00  0.00    -0.744 OA
ENDBRANCH  95  96
ENDBRANCH  63  88
ENDBRANCH  37  38
ENDBRANCH  29  32
ENDBRANCH  27  28
ENDBRANCH  26  27
ENDBRANCH   1  26
TORSDOF 19
