REMARK SMILES CCC[C@]1(C(=O)NC[C@@H]2CC[C@H](C(=O)NCCCNC(=O)c3ccc(-c4c5nc(c(-c6c(F)cc(S(=O)(=O)[O-])cc6F)c6ccc([nH]6)c(-c6c(F)cc(S(=O)(=O)[O-])cc6F)c6nc(c(-c7c(F)cc(S(=O)(=O)[O-])cc7F)c7ccc4[nH]7)C=C6)C=C5)cc3)O2)CCC[NH2+]C1
REMARK SMILES IDX 16 1 15 2 13 3 14 4 12 6 9 7 10 8 88 9 11 10 8 11 7 12 5 13
REMARK SMILES IDX 6 14 4 16 89 17 93 18 90 19 92 20 91 21 3 24 2 25 1 26 17 27
REMARK SMILES IDX 18 28 19 29 20 30 21 32 22 33 23 34 87 35 24 36 86 37 25 38
REMARK SMILES IDX 26 39 27 40 80 41 28 42 85 43 79 44 81 45 29 46 84 47 78 48
REMARK SMILES IDX 77 49 30 51 64 52 43 53 63 54 44 55 47 56 62 57 82 58 45 59
REMARK SMILES IDX 46 60 61 62 83 63 48 64 31 65 32 66 41 67 33 68 34 69 40 70
REMARK SMILES IDX 42 71 35 72 36 73 37 74 38 75 39 76 65 77 66 78 75 79 67 80
REMARK SMILES IDX 68 81 74 82 76 83 69 84 70 85 71 86 72 87 73 88 49 89 50 90
REMARK SMILES IDX 59 91 51 92 52 93 58 94 60 95 53 96 54 97 55 98 56 99 57 100
REMARK H PARENT 15 5 7 15 92 22 92 23 19 31 81 50 47 61
REMARK Flexibility Score: inf
ROOT
ATOM      1  C   UNL     1      -1.580   0.746   1.438  1.00  0.00     0.117 C 
ENDROOT
BRANCH   1   2
ATOM      2  N   UNL     1      -1.442   2.132   1.834  1.00  0.00    -0.354 N 
ATOM      3  C   UNL     1      -1.167   2.668   3.055  1.00  0.00     0.249 C 
ATOM      4  O   UNL     1      -0.929   3.880   3.109  1.00  0.00    -0.272 OA
ATOM      5  H   UNL     1      -1.564   2.787   1.109  1.00  0.00     0.163 HD
BRANCH   3   6
ATOM      6  C   UNL     1      -1.233   1.830   4.349  1.00  0.00     0.207 C 
ATOM      7  C   UNL     1      -1.245  -0.314   5.216  1.00  0.00     0.138 C 
ATOM      8  C   UNL     1      -2.703   0.029   4.969  1.00  0.00     0.037 C 
ATOM      9  O   UNL     1      -0.511   0.598   4.384  1.00  0.00    -0.363 OA
ATOM     10  C   UNL     1      -2.670   1.529   4.767  1.00  0.00     0.045 C 
BRANCH   7  11
ATOM     11  C   UNL     1      -0.858  -1.783   4.955  1.00  0.00     0.147 C 
BRANCH  11  12
ATOM     12  N   UNL     1      -1.146  -2.234   3.601  1.00  0.00    -0.353 N 
ATOM     13  C   UNL     1      -0.415  -2.415   2.475  1.00  0.00     0.232 C 
ATOM     14  O   UNL     1      -1.110  -2.689   1.490  1.00  0.00    -0.274 OA
ATOM     15  H   UNL     1      -2.095  -2.461   3.475  1.00  0.00     0.163 HD
BRANCH  13  16
ATOM     16  C   UNL     1       1.125  -2.355   2.367  1.00  0.00     0.098 C 
ATOM     17  C   UNL     1       1.737  -1.074   2.955  1.00  0.00     0.028 C 
ATOM     18  C   UNL     1       1.665  -3.574   3.164  1.00  0.00     0.277 C 
ATOM     19  C   UNL     1       3.259  -1.152   3.047  1.00  0.00     0.063 C 
ATOM     20  N   UNL     1       3.133  -3.622   3.226  1.00  0.00    -0.345 N 
ATOM     21  C   UNL     1       3.690  -2.405   3.810  1.00  0.00     0.260 C 
ATOM     22  H   UNL     1       3.414  -4.420   3.795  1.00  0.00     0.346 HD
ATOM     23  H   UNL     1       3.487  -3.707   2.273  1.00  0.00     0.346 HD
BRANCH  16  24
ATOM     24  C   UNL     1       1.560  -2.561   0.860  1.00  0.00     0.022 C 
BRANCH  24  25
ATOM     25  C   UNL     1       1.198  -1.507  -0.201  1.00  0.00    -0.002 C 
ATOM     26  C   UNL     1       2.069  -0.264  -0.266  1.00  0.00     0.004 C 
ENDBRANCH  24  25
ENDBRANCH  16  24
ENDBRANCH  13  16
ENDBRANCH  11  12
ENDBRANCH   7  11
ENDBRANCH   3   6
ENDBRANCH   1   2
BRANCH   1  27
ATOM     27  C   UNL     1      -3.024   0.333   1.157  1.00  0.00     0.042 C 
BRANCH  27  28
ATOM     28  C   UNL     1      -3.210  -0.249  -0.242  1.00  0.00     0.118 C 
BRANCH  28  29
ATOM     29  N   UNL     1      -2.408  -1.433  -0.501  1.00  0.00    -0.352 N 
ATOM     30  C   UNL     1      -2.414  -2.297  -1.573  1.00  0.00     0.251 C 
ATOM     31  H   UNL     1      -1.755  -1.653   0.202  1.00  0.00     0.163 HD
ATOM     32  O   UNL     1      -1.597  -3.197  -1.671  1.00  0.00    -0.269 OA
BRANCH  30  33
ATOM     33  C   UNL     1      -3.524  -2.217  -2.539  1.00  0.00     0.039 A 
ATOM     34  C   UNL     1      -4.229  -3.400  -2.787  1.00  0.00     0.014 A 
ATOM     35  C   UNL     1      -3.940  -1.007  -3.089  1.00  0.00     0.014 A 
ATOM     36  C   UNL     1      -5.422  -3.350  -3.497  1.00  0.00     0.010 A 
ATOM     37  C   UNL     1      -5.167  -0.945  -3.732  1.00  0.00     0.010 A 
ATOM     38  C   UNL     1      -5.926  -2.112  -3.916  1.00  0.00    -0.014 A 
BRANCH  38  39
ATOM     39  C   UNL     1      -7.268  -2.003  -4.521  1.00  0.00     0.031 A 
ATOM     40  C   UNL     1      -7.398  -1.556  -5.944  1.00  0.00     0.074 A 
ATOM     41  C   UNL     1      -8.351  -2.211  -3.748  1.00  0.00     0.049 A 
ATOM     42  N   UNL     1      -8.475  -1.249  -6.614  1.00  0.00    -0.248 NA
ATOM     43  C   UNL     1      -6.146  -1.393  -6.702  1.00  0.00     0.031 C 
ATOM     44  C   UNL     1      -8.324  -2.588  -2.330  1.00  0.00     0.029 A 
ATOM     45  N   UNL     1      -9.686  -2.118  -4.037  1.00  0.00    -0.354 N 
ATOM     46  C   UNL     1      -8.031  -0.816  -7.856  1.00  0.00     0.074 A 
ATOM     47  C   UNL     1      -6.586  -0.878  -7.840  1.00  0.00     0.031 C 
ATOM     48  C   UNL     1      -9.584  -2.708  -1.881  1.00  0.00     0.029 A 
ATOM     49  C   UNL     1     -10.503  -2.389  -2.966  1.00  0.00     0.049 A 
ATOM     50  H   UNL     1     -10.029  -1.879  -4.929  1.00  0.00     0.167 HD
ATOM     51  C   UNL     1      -8.769  -0.413  -8.916  1.00  0.00     0.037 A 
ATOM     52  C   UNL     1     -11.846  -2.374  -2.875  1.00  0.00     0.037 A 
ATOM     53  C   UNL     1     -10.206  -0.410  -8.929  1.00  0.00     0.049 A 
ATOM     54  C   UNL     1     -12.643  -2.022  -4.098  1.00  0.00     0.074 A 
ATOM     55  C   UNL     1     -11.061  -0.069  -9.961  1.00  0.00     0.029 A 
ATOM     56  N   UNL     1     -11.001  -0.788  -7.855  1.00  0.00    -0.354 N 
ATOM     57  N   UNL     1     -12.210  -1.643  -5.277  1.00  0.00    -0.248 NA
ATOM     58  C   UNL     1     -14.105  -2.103  -3.987  1.00  0.00     0.031 C 
ATOM     59  C   UNL     1     -12.376  -0.239  -9.509  1.00  0.00     0.029 A 
ATOM     60  C   UNL     1     -12.337  -0.701  -8.202  1.00  0.00     0.049 A 
ATOM     61  H   UNL     1     -10.663  -1.075  -6.976  1.00  0.00     0.167 HD
ATOM     62  C   UNL     1     -13.345  -1.452  -6.054  1.00  0.00     0.074 A 
ATOM     63  C   UNL     1     -14.483  -1.770  -5.214  1.00  0.00     0.031 C 
ATOM     64  C   UNL     1     -13.440  -1.044  -7.343  1.00  0.00     0.037 A 
BRANCH  51  65
ATOM     65  C   UNL     1      -8.025   0.048 -10.134  1.00  0.00     0.058 A 
ATOM     66  C   UNL     1      -7.375  -0.862 -10.982  1.00  0.00     0.135 A 
ATOM     67  C   UNL     1      -7.948   1.413 -10.450  1.00  0.00     0.135 A 
ATOM     68  F   UNL     1      -7.399  -2.176 -10.709  1.00  0.00    -0.206 F 
ATOM     69  C   UNL     1      -6.648  -0.432 -12.087  1.00  0.00     0.059 A 
ATOM     70  C   UNL     1      -7.243   1.864 -11.562  1.00  0.00     0.059 A 
ATOM     71  F   UNL     1      -8.545   2.324  -9.665  1.00  0.00    -0.206 F 
ATOM     72  C   UNL     1      -6.582   0.934 -12.364  1.00  0.00     0.060 A 
BRANCH  72  73
ATOM     73  S   UNL     1      -5.626   1.487 -13.793  1.00  0.00     0.124 S 
ATOM     74  O   UNL     1      -4.267   1.459 -13.261  1.00  0.00    -0.237 OA
ATOM     75  O   UNL     1      -5.934   0.471 -14.795  1.00  0.00    -0.237 OA
ATOM     76  O   UNL     1      -6.168   2.814 -14.067  1.00  0.00    -0.744 OA
ENDBRANCH  72  73
ENDBRANCH  51  65
BRANCH  52  77
ATOM     77  C   UNL     1     -12.511  -2.732  -1.597  1.00  0.00     0.058 A 
ATOM     78  C   UNL     1     -13.125  -3.982  -1.435  1.00  0.00     0.135 A 
ATOM     79  C   UNL     1     -12.525  -1.847  -0.509  1.00  0.00     0.135 A 
ATOM     80  F   UNL     1     -13.135  -4.861  -2.449  1.00  0.00    -0.206 F 
ATOM     81  C   UNL     1     -13.747  -4.339  -0.242  1.00  0.00     0.059 A 
ATOM     82  C   UNL     1     -13.127  -2.188   0.699  1.00  0.00     0.059 A 
ATOM     83  F   UNL     1     -11.931  -0.648  -0.609  1.00  0.00    -0.206 F 
ATOM     84  C   UNL     1     -13.745  -3.433   0.819  1.00  0.00     0.060 A 
BRANCH  84  85
ATOM     85  S   UNL     1     -14.508  -3.916   2.384  1.00  0.00     0.124 S 
ATOM     86  O   UNL     1     -15.916  -3.652   2.116  1.00  0.00    -0.237 OA
ATOM     87  O   UNL     1     -14.132  -5.322   2.496  1.00  0.00    -0.237 OA
ATOM     88  O   UNL     1     -13.868  -3.028   3.351  1.00  0.00    -0.744 OA
ENDBRANCH  84  85
ENDBRANCH  52  77
BRANCH  64  89
ATOM     89  C   UNL     1     -14.818  -0.948  -7.921  1.00  0.00     0.058 A 
ATOM     90  C   UNL     1     -15.639   0.159  -7.662  1.00  0.00     0.135 A 
ATOM     91  C   UNL     1     -15.296  -1.944  -8.785  1.00  0.00     0.135 A 
ATOM     92  F   UNL     1     -15.223   1.131  -6.835  1.00  0.00    -0.206 F 
ATOM     93  C   UNL     1     -16.900   0.271  -8.235  1.00  0.00     0.059 A 
ATOM     94  C   UNL     1     -16.548  -1.845  -9.380  1.00  0.00     0.059 A 
ATOM     95  F   UNL     1     -14.539  -3.017  -9.064  1.00  0.00    -0.206 F 
ATOM     96  C   UNL     1     -17.346  -0.738  -9.092  1.00  0.00     0.060 A 
BRANCH  96  97
ATOM     97  S   UNL     1     -18.966  -0.568  -9.870  1.00  0.00     0.124 S 
ATOM     98  O   UNL     1     -19.850  -1.031  -8.807  1.00  0.00    -0.237 OA
ATOM     99  O   UNL     1     -19.028   0.860 -10.168  1.00  0.00    -0.237 OA
ATOM    100  O   UNL     1     -18.870  -1.440 -11.037  1.00  0.00    -0.744 OA
ENDBRANCH  96  97
ENDBRANCH  64  89
ENDBRANCH  38  39
ENDBRANCH  30  33
ENDBRANCH  28  29
ENDBRANCH  27  28
ENDBRANCH   1  27
TORSDOF 18
