REMARK SMILES O=C(NCCCNC(=O)C1(Cc2cccc(Cl)c2)CCCC1)c1ccc(-c2c3nc(c(-c4c(F)cc(S(=O)(=O)[O-])cc4F)c4ccc([nH]4)c(-c4c(F)cc(S(=O)(=O)[O-])cc4F)c4nc(c(-c5c(F)cc(S(=O)(=O)[O-])cc5F)c5ccc2[nH]5)C=C4)C=C3)cc1
REMARK SMILES IDX 4 1 3 2 1 3 2 4 23 6 24 7 88 8 25 9 87 10 26 11 27 12 28 13
REMARK SMILES IDX 81 14 29 15 86 16 80 17 82 18 30 19 85 20 79 21 78 22 31 24
REMARK SMILES IDX 65 25 44 26 64 27 45 28 48 29 63 30 83 31 46 32 47 33 62 35
REMARK SMILES IDX 84 36 49 37 32 38 33 39 42 40 34 41 35 42 41 43 43 44 36 45
REMARK SMILES IDX 37 46 38 47 39 48 40 49 66 50 67 51 76 52 68 53 69 54 75 55
REMARK SMILES IDX 77 56 70 57 71 58 72 59 73 60 74 61 50 62 51 63 60 64 52 65
REMARK SMILES IDX 53 66 59 67 61 68 54 69 55 70 56 71 57 72 58 73 5 74 6 75
REMARK SMILES IDX 7 76 8 77 9 79 10 80 19 81 22 82 20 83 21 84 11 85 12 86
REMARK SMILES IDX 13 87 18 88 14 89 16 90 15 91 17 92
REMARK H PARENT 3 5 82 23 48 34 7 78
REMARK Flexibility Score: inf
ROOT
ATOM      1  C   UNL     1       4.173   0.668  -1.327  1.00  0.00     0.118 C 
ENDROOT
BRANCH   1   2
ATOM      2  N   UNL     1       2.799   0.701  -0.854  1.00  0.00    -0.352 N 
ATOM      3  O   UNL     1       0.976  -0.052   0.232  1.00  0.00    -0.269 OA
ATOM      4  C   UNL     1       2.198  -0.070   0.113  1.00  0.00     0.251 C 
ATOM      5  H   UNL     1       2.218   1.368  -1.285  1.00  0.00     0.163 HD
BRANCH   4   6
ATOM      6  C   UNL     1       3.024  -0.928   0.991  1.00  0.00     0.039 A 
ATOM      7  C   UNL     1       4.220  -0.446   1.526  1.00  0.00     0.014 A 
ATOM      8  C   UNL     1       2.592  -2.222   1.299  1.00  0.00     0.014 A 
ATOM      9  C   UNL     1       5.053  -1.300   2.234  1.00  0.00     0.010 A 
ATOM     10  C   UNL     1       3.384  -3.047   2.106  1.00  0.00     0.010 A 
ATOM     11  C   UNL     1       4.633  -2.601   2.561  1.00  0.00    -0.014 A 
BRANCH  11  12
ATOM     12  C   UNL     1       5.492  -3.413   3.462  1.00  0.00     0.031 A 
ATOM     13  C   UNL     1       6.130  -4.694   3.003  1.00  0.00     0.074 A 
ATOM     14  C   UNL     1       5.742  -2.931   4.696  1.00  0.00     0.049 A 
ATOM     15  N   UNL     1       6.966  -5.469   3.648  1.00  0.00    -0.248 NA
ATOM     16  C   UNL     1       5.786  -5.177   1.657  1.00  0.00     0.031 C 
ATOM     17  C   UNL     1       5.147  -1.713   5.257  1.00  0.00     0.029 A 
ATOM     18  N   UNL     1       6.579  -3.373   5.687  1.00  0.00    -0.354 N 
ATOM     19  C   UNL     1       7.245  -6.530   2.795  1.00  0.00     0.074 A 
ATOM     20  C   UNL     1       6.462  -6.318   1.595  1.00  0.00     0.031 C 
ATOM     21  C   UNL     1       5.685  -1.471   6.460  1.00  0.00     0.029 A 
ATOM     22  C   UNL     1       6.611  -2.548   6.786  1.00  0.00     0.049 A 
ATOM     23  H   UNL     1       7.106  -4.202   5.618  1.00  0.00     0.167 HD
ATOM     24  C   UNL     1       8.086  -7.574   2.992  1.00  0.00     0.037 A 
ATOM     25  C   UNL     1       7.298  -2.648   7.938  1.00  0.00     0.037 A 
ATOM     26  C   UNL     1       8.863  -7.771   4.191  1.00  0.00     0.049 A 
ATOM     27  C   UNL     1       8.227  -3.812   8.124  1.00  0.00     0.074 A 
ATOM     28  C   UNL     1       9.745  -8.797   4.488  1.00  0.00     0.029 A 
ATOM     29  N   UNL     1       8.856  -6.925   5.291  1.00  0.00    -0.354 N 
ATOM     30  N   UNL     1       8.486  -4.796   7.296  1.00  0.00    -0.248 NA
ATOM     31  C   UNL     1       8.954  -3.882   9.397  1.00  0.00     0.031 C 
ATOM     32  C   UNL     1      10.244  -8.588   5.779  1.00  0.00     0.029 A 
ATOM     33  C   UNL     1       9.709  -7.409   6.271  1.00  0.00     0.049 A 
ATOM     34  H   UNL     1       8.322  -6.100   5.365  1.00  0.00     0.167 HD
ATOM     35  C   UNL     1       9.408  -5.604   7.949  1.00  0.00     0.074 A 
ATOM     36  C   UNL     1       9.688  -4.972   9.223  1.00  0.00     0.031 C 
ATOM     37  C   UNL     1       9.963  -6.771   7.538  1.00  0.00     0.037 A 
BRANCH  24  38
ATOM     38  C   UNL     1       8.215  -8.591   1.889  1.00  0.00     0.058 A 
ATOM     39  C   UNL     1       8.901  -8.300   0.699  1.00  0.00     0.135 A 
ATOM     40  C   UNL     1       7.703  -9.890   2.046  1.00  0.00     0.135 A 
ATOM     41  F   UNL     1       9.397  -7.071   0.487  1.00  0.00    -0.206 F 
ATOM     42  C   UNL     1       9.062  -9.255  -0.301  1.00  0.00     0.059 A 
ATOM     43  C   UNL     1       7.873 -10.868   1.069  1.00  0.00     0.059 A 
ATOM     44  F   UNL     1       7.038 -10.223   3.164  1.00  0.00    -0.206 F 
ATOM     45  C   UNL     1       8.546 -10.537  -0.106  1.00  0.00     0.060 A 
BRANCH  45  46
ATOM     46  S   UNL     1       8.781 -11.768  -1.407  1.00  0.00     0.124 S 
ATOM     47  O   UNL     1       7.858 -11.290  -2.431  1.00  0.00    -0.237 OA
ATOM     48  O   UNL     1      10.200 -11.626  -1.718  1.00  0.00    -0.237 OA
ATOM     49  O   UNL     1       8.407 -13.022  -0.761  1.00  0.00    -0.744 OA
ENDBRANCH  45  46
ENDBRANCH  24  38
BRANCH  25  50
ATOM     50  C   UNL     1       7.110  -1.628   9.003  1.00  0.00     0.058 A 
ATOM     51  C   UNL     1       8.133  -0.734   9.349  1.00  0.00     0.135 A 
ATOM     52  C   UNL     1       5.886  -1.517   9.682  1.00  0.00     0.135 A 
ATOM     53  F   UNL     1       9.321  -0.800   8.728  1.00  0.00    -0.206 F 
ATOM     54  C   UNL     1       7.958   0.221  10.346  1.00  0.00     0.059 A 
ATOM     55  C   UNL     1       5.677  -0.551  10.659  1.00  0.00     0.059 A 
ATOM     56  F   UNL     1       4.868  -2.334   9.372  1.00  0.00    -0.206 F 
ATOM     57  C   UNL     1       6.725   0.304  10.995  1.00  0.00     0.060 A 
BRANCH  57  58
ATOM     58  S   UNL     1       6.489   1.568  12.262  1.00  0.00     0.124 S 
ATOM     59  O   UNL     1       7.203   0.985  13.392  1.00  0.00    -0.237 OA
ATOM     60  O   UNL     1       7.108   2.740  11.650  1.00  0.00    -0.237 OA
ATOM     61  O   UNL     1       5.037   1.637  12.398  1.00  0.00    -0.744 OA
ENDBRANCH  57  58
ENDBRANCH  25  50
BRANCH  37  62
ATOM     62  C   UNL     1      10.933  -7.425   8.481  1.00  0.00     0.058 A 
ATOM     63  C   UNL     1      10.499  -8.047   9.663  1.00  0.00     0.135 A 
ATOM     64  C   UNL     1      12.308  -7.429   8.202  1.00  0.00     0.135 A 
ATOM     65  F   UNL     1       9.194  -8.063   9.979  1.00  0.00    -0.206 F 
ATOM     66  C   UNL     1      11.400  -8.614  10.557  1.00  0.00     0.059 A 
ATOM     67  C   UNL     1      13.225  -8.015   9.069  1.00  0.00     0.059 A 
ATOM     68  F   UNL     1      12.773  -6.857   7.080  1.00  0.00    -0.206 F 
ATOM     69  C   UNL     1      12.763  -8.588  10.254  1.00  0.00     0.060 A 
BRANCH  69  70
ATOM     70  S   UNL     1      13.925  -9.323  11.422  1.00  0.00     0.124 S 
ATOM     71  O   UNL     1      13.973  -8.305  12.467  1.00  0.00    -0.237 OA
ATOM     72  O   UNL     1      13.260 -10.571  11.784  1.00  0.00    -0.237 OA
ATOM     73  O   UNL     1      15.145  -9.475  10.636  1.00  0.00    -0.744 OA
ENDBRANCH  69  70
ENDBRANCH  37  62
ENDBRANCH  11  12
ENDBRANCH   4   6
ENDBRANCH   1   2
BRANCH   1  74
ATOM     74  C   UNL     1       4.277   0.236  -2.784  1.00  0.00     0.042 C 
BRANCH  74  75
ATOM     75  C   UNL     1       3.748   1.272  -3.775  1.00  0.00     0.117 C 
BRANCH  75  76
ATOM     76  N   UNL     1       4.458   2.530  -3.630  1.00  0.00    -0.356 N 
ATOM     77  C   UNL     1       5.626   2.984  -4.156  1.00  0.00     0.226 C 
ATOM     78  H   UNL     1       4.009   3.176  -3.038  1.00  0.00     0.163 HD
ATOM     79  O   UNL     1       6.193   3.830  -3.460  1.00  0.00    -0.274 OA
BRANCH  77  80
ATOM     80  C   UNL     1       6.177   2.535  -5.529  1.00  0.00     0.053 C 
ATOM     81  C   UNL     1       6.468   1.020  -5.599  1.00  0.00     0.017 C 
ATOM     82  C   UNL     1       5.108   2.747  -6.617  1.00  0.00     0.017 C 
ATOM     83  C   UNL     1       6.116   0.558  -7.009  1.00  0.00     0.001 C 
ATOM     84  C   UNL     1       5.353   1.689  -7.680  1.00  0.00     0.001 C 
BRANCH  80  85
ATOM     85  C   UNL     1       7.537   3.249  -5.848  1.00  0.00     0.052 C 
BRANCH  85  86
ATOM     86  C   UNL     1       7.556   4.725  -6.194  1.00  0.00    -0.045 A 
ATOM     87  C   UNL     1       7.651   5.703  -5.192  1.00  0.00     0.004 A 
ATOM     88  C   UNL     1       7.564   5.142  -7.532  1.00  0.00     0.024 A 
ATOM     89  C   UNL     1       7.705   7.061  -5.510  1.00  0.00     0.002 A 
ATOM     90  C   UNL     1       7.640   6.501  -7.847  1.00  0.00     0.041 A 
ATOM     91  C   UNL     1       7.700   7.463  -6.841  1.00  0.00     0.020 A 
ATOM     92  Cl  UNL     1       7.678   6.993  -9.497  1.00  0.00    -0.084 Cl
ENDBRANCH  85  86
ENDBRANCH  80  85
ENDBRANCH  77  80
ENDBRANCH  75  76
ENDBRANCH  74  75
ENDBRANCH   1  74
TORSDOF 15
