REMARK SMILES C[NH+](C)CCSCC(C)(C)C(=O)NCCCNC(=O)c1ccc(-c2c3nc(c(-c4c(F)cc(S(=O)(=O)[O-])cc4F)c4ccc([nH]4)c(-c4c(F)cc(S(=O)(=O)[O-])cc4F)c4nc(c(-c5c(F)cc(S(=O)(=O)[O-])cc5F)c5ccc2[nH]5)C=C4)C=C3)cc1
REMARK SMILES IDX 14 1 13 2 11 3 12 4 8 6 9 7 10 8 7 9 6 10 5 11 4 12 2 13
REMARK SMILES IDX 1 14 3 15 15 17 16 18 17 19 18 20 19 22 20 23 21 24 85 25
REMARK SMILES IDX 22 26 84 27 23 28 24 29 25 30 78 31 26 32 83 33 77 34 79 35
REMARK SMILES IDX 27 36 82 37 76 38 75 39 28 41 62 42 41 43 61 44 42 45 45 46
REMARK SMILES IDX 60 47 80 48 43 49 44 50 59 52 81 53 46 54 29 55 30 56 39 57
REMARK SMILES IDX 31 58 32 59 38 60 40 61 33 62 34 63 35 64 36 65 37 66 63 67
REMARK SMILES IDX 64 68 73 69 65 70 66 71 72 72 74 73 67 74 68 75 69 76 70 77
REMARK SMILES IDX 71 78 47 79 48 80 57 81 49 82 50 83 56 84 58 85 51 86 52 87
REMARK SMILES IDX 53 88 54 89 55 90
REMARK H PARENT 13 5 2 16 17 21 79 40 45 51
REMARK Flexibility Score: inf
ROOT
ATOM      1  C   UNL     1      -4.202  -1.115  -2.173  1.00  0.00     0.117 C 
ENDROOT
BRANCH   1   2
ATOM      2  N   UNL     1      -3.140  -1.852  -2.841  1.00  0.00    -0.356 N 
ATOM      3  C   UNL     1      -1.782  -1.798  -2.763  1.00  0.00     0.226 C 
ATOM      4  O   UNL     1      -1.169  -2.551  -3.524  1.00  0.00    -0.274 OA
ATOM      5  H   UNL     1      -3.471  -2.526  -3.478  1.00  0.00     0.163 HD
BRANCH   3   6
ATOM      6  C   UNL     1      -1.059  -0.834  -1.810  1.00  0.00     0.053 C 
ATOM      7  C   UNL     1      -1.614  -0.961  -0.397  1.00  0.00     0.022 C 
ATOM      8  C   UNL     1      -1.262   0.608  -2.325  1.00  0.00     0.022 C 
BRANCH   6   9
ATOM      9  C   UNL     1       0.485  -1.091  -1.834  1.00  0.00     0.086 C 
BRANCH   9  10
ATOM     10  S   UNL     1       1.302  -2.582  -1.122  1.00  0.00    -0.155 SA
BRANCH  10  11
ATOM     11  C   UNL     1       0.877  -2.651   0.659  1.00  0.00     0.131 C 
BRANCH  11  12
ATOM     12  C   UNL     1       1.649  -1.793   1.690  1.00  0.00     0.272 C 
BRANCH  12  13
ATOM     13  N   UNL     1       1.177  -0.476   2.127  1.00  0.00    -0.339 N 
ATOM     14  C   UNL     1       1.462   0.629   1.236  1.00  0.00     0.332 C 
ATOM     15  C   UNL     1      -0.138  -0.439   2.748  1.00  0.00     0.332 C 
ATOM     16  H   UNL     1       1.801  -0.299   2.914  1.00  0.00     0.347 HD
ENDBRANCH  12  13
ENDBRANCH  11  12
ENDBRANCH  10  11
ENDBRANCH   9  10
ENDBRANCH   6   9
ENDBRANCH   3   6
ENDBRANCH   1   2
BRANCH   1  17
ATOM     17  C   UNL     1      -5.093  -0.364  -3.146  1.00  0.00     0.042 C 
BRANCH  17  18
ATOM     18  C   UNL     1      -5.790  -1.266  -4.149  1.00  0.00     0.118 C 
BRANCH  18  19
ATOM     19  N   UNL     1      -6.686  -2.225  -3.513  1.00  0.00    -0.352 N 
ATOM     20  C   UNL     1      -8.063  -2.283  -3.515  1.00  0.00     0.251 C 
ATOM     21  H   UNL     1      -6.240  -2.940  -3.004  1.00  0.00     0.163 HD
ATOM     22  O   UNL     1      -8.648  -3.045  -2.764  1.00  0.00    -0.269 OA
BRANCH  20  23
ATOM     23  C   UNL     1      -8.818  -1.381  -4.412  1.00  0.00     0.039 A 
ATOM     24  C   UNL     1      -9.894  -0.654  -3.899  1.00  0.00     0.014 A 
ATOM     25  C   UNL     1      -8.419  -1.211  -5.739  1.00  0.00     0.014 A 
ATOM     26  C   UNL     1     -10.495   0.328  -4.688  1.00  0.00     0.010 A 
ATOM     27  C   UNL     1      -8.949  -0.167  -6.484  1.00  0.00     0.010 A 
ATOM     28  C   UNL     1      -9.983   0.624  -5.962  1.00  0.00    -0.014 A 
BRANCH  28  29
ATOM     29  C   UNL     1     -10.479   1.776  -6.758  1.00  0.00     0.031 A 
ATOM     30  C   UNL     1     -11.070   1.546  -8.122  1.00  0.00     0.074 A 
ATOM     31  C   UNL     1     -10.286   3.030  -6.299  1.00  0.00     0.049 A 
ATOM     32  N   UNL     1     -11.426   2.425  -9.022  1.00  0.00    -0.248 NA
ATOM     33  C   UNL     1     -11.252   0.147  -8.546  1.00  0.00     0.031 C 
ATOM     34  C   UNL     1      -9.659   3.381  -5.020  1.00  0.00     0.029 A 
ATOM     35  N   UNL     1     -10.574   4.248  -6.865  1.00  0.00    -0.354 N 
ATOM     36  C   UNL     1     -11.844   1.689 -10.125  1.00  0.00     0.074 A 
ATOM     37  C   UNL     1     -11.663   0.292  -9.798  1.00  0.00     0.031 C 
ATOM     38  C   UNL     1      -9.618   4.718  -4.898  1.00  0.00     0.029 A 
ATOM     39  C   UNL     1     -10.172   5.322  -6.104  1.00  0.00     0.049 A 
ATOM     40  H   UNL     1     -11.025   4.344  -7.734  1.00  0.00     0.167 HD
ATOM     41  C   UNL     1     -12.350   2.140 -11.295  1.00  0.00     0.037 A 
ATOM     42  C   UNL     1     -10.220   6.645  -6.359  1.00  0.00     0.037 A 
ATOM     43  C   UNL     1     -12.583   3.529 -11.587  1.00  0.00     0.049 A 
ATOM     44  C   UNL     1     -10.802   7.115  -7.665  1.00  0.00     0.074 A 
ATOM     45  C   UNL     1     -13.209   4.079 -12.691  1.00  0.00     0.029 A 
ATOM     46  N   UNL     1     -12.196   4.585 -10.777  1.00  0.00    -0.354 N 
ATOM     47  N   UNL     1     -11.294   6.402  -8.650  1.00  0.00    -0.248 NA
ATOM     48  C   UNL     1     -10.832   8.566  -7.900  1.00  0.00     0.031 C 
ATOM     49  C   UNL     1     -13.155   5.470 -12.574  1.00  0.00     0.029 A 
ATOM     50  C   UNL     1     -12.534   5.786 -11.376  1.00  0.00     0.049 A 
ATOM     51  H   UNL     1     -11.747   4.494  -9.905  1.00  0.00     0.167 HD
ATOM     52  C   UNL     1     -11.702   7.317  -9.613  1.00  0.00     0.074 A 
ATOM     53  C   UNL     1     -11.422   8.636  -9.085  1.00  0.00     0.031 C 
ATOM     54  C   UNL     1     -12.252   7.088 -10.831  1.00  0.00     0.037 A 
BRANCH  41  55
ATOM     55  C   UNL     1     -12.712   1.135 -12.350  1.00  0.00     0.058 A 
ATOM     56  C   UNL     1     -13.850   0.322 -12.232  1.00  0.00     0.135 A 
ATOM     57  C   UNL     1     -11.968   1.055 -13.538  1.00  0.00     0.135 A 
ATOM     58  F   UNL     1     -14.586   0.347 -11.110  1.00  0.00    -0.206 F 
ATOM     59  C   UNL     1     -14.239  -0.534 -13.256  1.00  0.00     0.059 A 
ATOM     60  C   UNL     1     -12.351   0.222 -14.585  1.00  0.00     0.059 A 
ATOM     61  F   UNL     1     -10.867   1.806 -13.697  1.00  0.00    -0.206 F 
ATOM     62  C   UNL     1     -13.488  -0.570 -14.433  1.00  0.00     0.060 A 
BRANCH  62  63
ATOM     63  S   UNL     1     -14.045  -1.640 -15.776  1.00  0.00     0.124 S 
ATOM     64  O   UNL     1     -13.723  -2.962 -15.248  1.00  0.00    -0.237 OA
ATOM     65  O   UNL     1     -15.467  -1.320 -15.859  1.00  0.00    -0.237 OA
ATOM     66  O   UNL     1     -13.241  -1.206 -16.914  1.00  0.00    -0.744 OA
ENDBRANCH  62  63
ENDBRANCH  41  55
BRANCH  42  67
ATOM     67  C   UNL     1      -9.686   7.625  -5.375  1.00  0.00     0.058 A 
ATOM     68  C   UNL     1     -10.541   8.499  -4.687  1.00  0.00     0.135 A 
ATOM     69  C   UNL     1      -8.308   7.730  -5.127  1.00  0.00     0.135 A 
ATOM     70  F   UNL     1     -11.865   8.441  -4.893  1.00  0.00    -0.206 F 
ATOM     71  C   UNL     1     -10.049   9.465  -3.814  1.00  0.00     0.059 A 
ATOM     72  C   UNL     1      -7.794   8.670  -4.239  1.00  0.00     0.059 A 
ATOM     73  F   UNL     1      -7.448   6.905  -5.744  1.00  0.00    -0.206 F 
ATOM     74  C   UNL     1      -8.671   9.546  -3.602  1.00  0.00     0.060 A 
BRANCH  74  75
ATOM     75  S   UNL     1      -8.039  10.797  -2.463  1.00  0.00     0.124 S 
ATOM     76  O   UNL     1      -8.151  12.008  -3.267  1.00  0.00    -0.237 OA
ATOM     77  O   UNL     1      -8.964  10.687  -1.339  1.00  0.00    -0.237 OA
ATOM     78  O   UNL     1      -6.679  10.341  -2.190  1.00  0.00    -0.744 OA
ENDBRANCH  74  75
ENDBRANCH  42  67
BRANCH  54  79
ATOM     79  C   UNL     1     -12.596   8.283 -11.673  1.00  0.00     0.058 A 
ATOM     80  C   UNL     1     -11.600   9.026 -12.323  1.00  0.00     0.135 A 
ATOM     81  C   UNL     1     -13.935   8.642 -11.891  1.00  0.00     0.135 A 
ATOM     82  F   UNL     1     -10.304   8.727 -12.138  1.00  0.00    -0.206 F 
ATOM     83  C   UNL     1     -11.919  10.092 -13.156  1.00  0.00     0.059 A 
ATOM     84  C   UNL     1     -14.279   9.688 -12.740  1.00  0.00     0.059 A 
ATOM     85  F   UNL     1     -14.925   7.955 -11.297  1.00  0.00    -0.206 F 
ATOM     86  C   UNL     1     -13.263  10.411 -13.363  1.00  0.00     0.060 A 
BRANCH  86  87
ATOM     87  S   UNL     1     -13.665  11.761 -14.492  1.00  0.00     0.124 S 
ATOM     88  O   UNL     1     -13.299  12.928 -13.696  1.00  0.00    -0.237 OA
ATOM     89  O   UNL     1     -12.804  11.479 -15.636  1.00  0.00    -0.237 OA
ATOM     90  O   UNL     1     -15.094  11.589 -14.732  1.00  0.00    -0.744 OA
ENDBRANCH  86  87
ENDBRANCH  54  79
ENDBRANCH  28  29
ENDBRANCH  20  23
ENDBRANCH  18  19
ENDBRANCH  17  18
ENDBRANCH   1  17
TORSDOF 18
