REMARK SMILES CCC(CC)(Nc1nc(Cl)nc(OC)n1)C(=O)NCCCNC(=O)c1ccc(-c2c3nc(c(-c4c(F)cc(S(=O)(=O)[O-])cc4F)c4ccc([nH]4)c(-c4c(F)cc(S(=O)(=O)[O-])cc4F)c4nc(c(-c5c(F)cc(S(=O)(=O)[O-])cc5F)c5ccc2[nH]5)C=C4)C=C3)cc1
REMARK SMILES IDX 20 1 19 2 18 3 16 4 17 5 3 7 2 8 1 9 4 10 5 11 6 12 7 14
REMARK SMILES IDX 8 15 15 16 9 17 12 18 10 19 11 20 13 21 14 22 21 23 22 24
REMARK SMILES IDX 23 25 24 27 25 28 26 29 90 30 27 31 89 32 28 33 29 34 30 35
REMARK SMILES IDX 83 36 31 37 88 38 82 39 84 40 32 41 87 42 81 43 80 44 33 46
REMARK SMILES IDX 67 47 46 48 66 49 47 50 50 51 65 52 85 53 48 54 49 55 64 57
REMARK SMILES IDX 86 58 51 59 34 60 35 61 44 62 36 63 37 64 43 65 45 66 38 67
REMARK SMILES IDX 39 68 40 69 41 70 42 71 68 72 69 73 78 74 70 75 71 76 77 77
REMARK SMILES IDX 79 78 72 79 73 80 74 81 75 82 76 83 52 84 53 85 62 86 54 87
REMARK SMILES IDX 55 88 61 89 63 90 56 91 57 92 58 93 59 94 60 95
REMARK H PARENT 18 6 6 13 22 26 84 45 50 56
REMARK Flexibility Score: inf
ROOT
ATOM      1  C   UNL     1       2.822   4.081  -4.679  1.00  0.00     0.042 C 
ENDROOT
BRANCH   1   2
ATOM      2  C   UNL     1       2.371   2.659  -4.380  1.00  0.00     0.117 C 
BRANCH   2   3
ATOM      3  N   UNL     1       3.008   2.033  -3.230  1.00  0.00    -0.354 N 
ATOM      4  C   UNL     1       2.529   1.680  -1.995  1.00  0.00     0.245 C 
ATOM      5  O   UNL     1       3.338   1.145  -1.228  1.00  0.00    -0.272 OA
ATOM      6  H   UNL     1       3.961   1.825  -3.364  1.00  0.00     0.163 HD
BRANCH   4   7
ATOM      7  C   UNL     1       1.027   1.908  -1.595  1.00  0.00     0.118 C 
BRANCH   7   8
ATOM      8  C   UNL     1       0.770   1.517  -0.102  1.00  0.00     0.035 C 
ATOM      9  C   UNL     1       0.908   0.038   0.261  1.00  0.00     0.007 C 
ENDBRANCH   7   8
BRANCH   7  10
ATOM     10  C   UNL     1       0.160   1.014  -2.538  1.00  0.00     0.035 C 
ATOM     11  C   UNL     1      -1.351   1.121  -2.386  1.00  0.00     0.007 C 
ENDBRANCH   7  10
BRANCH   7  12
ATOM     12  N   UNL     1       0.641   3.333  -1.723  1.00  0.00    -0.340 N 
ATOM     13  H   UNL     1      -0.247   3.531  -2.096  1.00  0.00     0.164 HD
BRANCH  12  14
ATOM     14  C   UNL     1       1.432   4.402  -1.359  1.00  0.00     0.231 A 
ATOM     15  N   UNL     1       2.743   4.276  -1.270  1.00  0.00    -0.182 NA
ATOM     16  N   UNL     1       0.803   5.555  -1.182  1.00  0.00    -0.159 NA
ATOM     17  C   UNL     1       3.409   5.406  -1.073  1.00  0.00     0.230 A 
ATOM     18  C   UNL     1       1.596   6.607  -0.956  1.00  0.00     0.322 A 
ATOM     19  Cl  UNL     1       5.114   5.289  -1.114  1.00  0.00    -0.041 Cl
ATOM     20  N   UNL     1       2.914   6.614  -0.918  1.00  0.00    -0.164 NA
BRANCH  18  21
ATOM     21  O   UNL     1       0.999   7.829  -0.768  1.00  0.00    -0.467 OA
ATOM     22  C   UNL     1       0.302   7.823   0.471  1.00  0.00     0.282 C 
ENDBRANCH  18  21
ENDBRANCH  12  14
ENDBRANCH   7  12
ENDBRANCH   4   7
ENDBRANCH   2   3
ENDBRANCH   1   2
BRANCH   1  23
ATOM     23  C   UNL     1       4.324   4.283  -4.727  1.00  0.00     0.118 C 
BRANCH  23  24
ATOM     24  N   UNL     1       4.932   3.682  -5.901  1.00  0.00    -0.352 N 
ATOM     25  C   UNL     1       5.561   4.282  -6.966  1.00  0.00     0.251 C 
ATOM     26  H   UNL     1       4.886   2.699  -5.941  1.00  0.00     0.163 HD
ATOM     27  O   UNL     1       5.856   3.612  -7.949  1.00  0.00    -0.269 OA
BRANCH  25  28
ATOM     28  C   UNL     1       5.847   5.737  -6.944  1.00  0.00     0.039 A 
ATOM     29  C   UNL     1       5.593   6.485  -8.095  1.00  0.00     0.014 A 
ATOM     30  C   UNL     1       6.367   6.364  -5.808  1.00  0.00     0.014 A 
ATOM     31  C   UNL     1       5.804   7.866  -8.087  1.00  0.00     0.010 A 
ATOM     32  C   UNL     1       6.492   7.752  -5.772  1.00  0.00     0.010 A 
ATOM     33  C   UNL     1       6.223   8.518  -6.915  1.00  0.00    -0.014 A 
BRANCH  33  34
ATOM     34  C   UNL     1       6.394   9.995  -6.887  1.00  0.00     0.031 A 
ATOM     35  C   UNL     1       7.753  10.600  -6.648  1.00  0.00     0.074 A 
ATOM     36  C   UNL     1       5.322  10.796  -7.053  1.00  0.00     0.049 A 
ATOM     37  N   UNL     1       8.096  11.862  -6.591  1.00  0.00    -0.248 NA
ATOM     38  C   UNL     1       8.869   9.667  -6.427  1.00  0.00     0.031 C 
ATOM     39  C   UNL     1       3.945  10.335  -7.246  1.00  0.00     0.029 A 
ATOM     40  N   UNL     1       5.218  12.165  -7.085  1.00  0.00    -0.354 N 
ATOM     41  C   UNL     1       9.460  11.873  -6.323  1.00  0.00     0.074 A 
ATOM     42  C   UNL     1       9.871  10.495  -6.171  1.00  0.00     0.031 C 
ATOM     43  C   UNL     1       3.142  11.399  -7.407  1.00  0.00     0.029 A 
ATOM     44  C   UNL     1       3.936  12.618  -7.288  1.00  0.00     0.049 A 
ATOM     45  H   UNL     1       5.990  12.766  -6.974  1.00  0.00     0.167 HD
ATOM     46  C   UNL     1      10.299  12.933  -6.237  1.00  0.00     0.037 A 
ATOM     47  C   UNL     1       3.450  13.874  -7.362  1.00  0.00     0.037 A 
ATOM     48  C   UNL     1       9.887  14.304  -6.402  1.00  0.00     0.049 A 
ATOM     49  C   UNL     1       4.399  15.036  -7.239  1.00  0.00     0.074 A 
ATOM     50  C   UNL     1      10.672  15.444  -6.389  1.00  0.00     0.029 A 
ATOM     51  N   UNL     1       8.579  14.722  -6.599  1.00  0.00    -0.354 N 
ATOM     52  N   UNL     1       5.699  15.025  -7.065  1.00  0.00    -0.248 NA
ATOM     53  C   UNL     1       3.816  16.383  -7.329  1.00  0.00     0.031 C 
ATOM     54  C   UNL     1       9.832  16.554  -6.519  1.00  0.00     0.029 A 
ATOM     55  C   UNL     1       8.531  16.105  -6.676  1.00  0.00     0.049 A 
ATOM     56  H   UNL     1       7.800  14.125  -6.673  1.00  0.00     0.167 HD
ATOM     57  C   UNL     1       6.092  16.359  -7.046  1.00  0.00     0.074 A 
ATOM     58  C   UNL     1       4.895  17.149  -7.247  1.00  0.00     0.031 C 
ATOM     59  C   UNL     1       7.332  16.882  -6.877  1.00  0.00     0.037 A 
BRANCH  46  60
ATOM     60  C   UNL     1      11.751  12.655  -5.951  1.00  0.00     0.058 A 
ATOM     61  C   UNL     1      12.585  12.035  -6.896  1.00  0.00     0.135 A 
ATOM     62  C   UNL     1      12.328  13.053  -4.733  1.00  0.00     0.135 A 
ATOM     63  F   UNL     1      12.086  11.622  -8.072  1.00  0.00    -0.206 F 
ATOM     64  C   UNL     1      13.930  11.793  -6.633  1.00  0.00     0.059 A 
ATOM     65  C   UNL     1      13.678  12.848  -4.461  1.00  0.00     0.059 A 
ATOM     66  F   UNL     1      11.579  13.650  -3.793  1.00  0.00    -0.206 F 
ATOM     67  C   UNL     1      14.468  12.205  -5.413  1.00  0.00     0.060 A 
BRANCH  67  68
ATOM     68  S   UNL     1      16.217  11.891  -5.094  1.00  0.00     0.124 S 
ATOM     69  O   UNL     1      16.226  10.443  -4.916  1.00  0.00    -0.237 OA
ATOM     70  O   UNL     1      16.848  12.383  -6.314  1.00  0.00    -0.237 OA
ATOM     71  O   UNL     1      16.490  12.672  -3.892  1.00  0.00    -0.744 OA
ENDBRANCH  67  68
ENDBRANCH  46  60
BRANCH  47  72
ATOM     72  C   UNL     1       1.993  14.097  -7.575  1.00  0.00     0.058 A 
ATOM     73  C   UNL     1       1.509  14.637  -8.776  1.00  0.00     0.135 A 
ATOM     74  C   UNL     1       1.055  13.769  -6.583  1.00  0.00     0.135 A 
ATOM     75  F   UNL     1       2.365  14.976  -9.752  1.00  0.00    -0.206 F 
ATOM     76  C   UNL     1       0.151  14.861  -8.981  1.00  0.00     0.059 A 
ATOM     77  C   UNL     1      -0.310  13.955  -6.776  1.00  0.00     0.059 A 
ATOM     78  F   UNL     1       1.463  13.236  -5.421  1.00  0.00    -0.206 F 
ATOM     79  C   UNL     1      -0.752  14.512  -7.975  1.00  0.00     0.060 A 
BRANCH  79  80
ATOM     80  S   UNL     1      -2.516  14.762  -8.270  1.00  0.00     0.124 S 
ATOM     81  O   UNL     1      -2.622  16.215  -8.206  1.00  0.00    -0.237 OA
ATOM     82  O   UNL     1      -2.693  14.165  -9.590  1.00  0.00    -0.237 OA
ATOM     83  O   UNL     1      -3.147  14.034  -7.172  1.00  0.00    -0.744 OA
ENDBRANCH  79  80
ENDBRANCH  47  72
BRANCH  59  84
ATOM     84  C   UNL     1       7.468  18.381  -6.924  1.00  0.00     0.058 A 
ATOM     85  C   UNL     1       6.985  19.200  -5.891  1.00  0.00     0.135 A 
ATOM     86  C   UNL     1       8.138  19.002  -7.991  1.00  0.00     0.135 A 
ATOM     87  F   UNL     1       6.331  18.660  -4.850  1.00  0.00    -0.206 F 
ATOM     88  C   UNL     1       7.141  20.582  -5.925  1.00  0.00     0.059 A 
ATOM     89  C   UNL     1       8.333  20.379  -8.031  1.00  0.00     0.059 A 
ATOM     90  F   UNL     1       8.629  18.266  -9.001  1.00  0.00    -0.206 F 
ATOM     91  C   UNL     1       7.820  21.162  -6.998  1.00  0.00     0.060 A 
BRANCH  91  92
ATOM     92  S   UNL     1       8.046  22.953  -7.011  1.00  0.00     0.124 S 
ATOM     93  O   UNL     1       6.694  23.419  -7.298  1.00  0.00    -0.237 OA
ATOM     94  O   UNL     1       8.534  23.215  -5.660  1.00  0.00    -0.237 OA
ATOM     95  O   UNL     1       9.022  23.166  -8.075  1.00  0.00    -0.744 OA
ENDBRANCH  91  92
ENDBRANCH  59  84
ENDBRANCH  33  34
ENDBRANCH  25  28
ENDBRANCH  23  24
ENDBRANCH   1  23
TORSDOF 18
