REMARK SMILES Cc1cc(C(=O)N[C@@H]2CC2(C)C)sc1/C=C/C(=O)NCCCNC(=O)c1ccc(-c2c3nc(c(-c4c(F)cc(S(=O)(=O)[O-])cc4F)c4ccc([nH]4)c(-c4c(F)cc(S(=O)(=O)[O-])cc4F)c4nc(c(-c5c(F)cc(S(=O)(=O)[O-])cc5F)c5ccc2[nH]5)C=C4)C=C3)cc1
REMARK SMILES IDX 21 1 20 2 19 3 17 4 18 5 16 7 15 8 14 9 1 10 2 11 3 12 4 13
REMARK SMILES IDX 13 14 5 15 6 16 7 17 8 19 9 20 10 21 11 22 12 23 22 24 23 25
REMARK SMILES IDX 24 26 25 28 26 29 27 30 91 31 28 32 90 33 29 34 30 35 31 36
REMARK SMILES IDX 84 37 32 38 89 39 83 40 85 41 33 42 88 43 82 44 81 45 34 47
REMARK SMILES IDX 68 48 47 49 67 50 48 51 51 52 66 53 86 54 49 55 50 56 65 58
REMARK SMILES IDX 87 59 52 60 35 61 36 62 45 63 37 64 38 65 44 66 46 67 39 68
REMARK SMILES IDX 40 69 41 70 42 71 43 72 69 73 70 74 79 75 71 76 72 77 78 78
REMARK SMILES IDX 80 79 73 80 74 81 75 82 76 83 77 84 53 85 54 86 63 87 55 88
REMARK SMILES IDX 56 89 62 90 64 91 57 92 58 93 59 94 60 95 61 96
REMARK H PARENT 19 6 7 18 23 27 85 46 51 57
REMARK Flexibility Score: inf
ROOT
ATOM      1  C   UNL     1     -11.020  -4.233   1.032  1.00  0.00     0.042 C 
ENDROOT
BRANCH   1   2
ATOM      2  C   UNL     1     -10.757  -3.336  -0.173  1.00  0.00     0.118 C 
BRANCH   2   3
ATOM      3  N   UNL     1     -10.899  -1.933   0.168  1.00  0.00    -0.352 N 
ATOM      4  C   UNL     1      -9.956  -1.002   0.466  1.00  0.00     0.244 C 
ATOM      5  O   UNL     1     -10.287   0.173   0.607  1.00  0.00    -0.270 OA
ATOM      6  H   UNL     1     -11.827  -1.603   0.187  1.00  0.00     0.163 HD
BRANCH   4   7
ATOM      7  C   UNL     1      -8.521  -1.355   0.493  1.00  0.00     0.072 C 
ATOM      8  C   UNL     1      -7.958  -2.417   1.094  1.00  0.00     0.025 C 
BRANCH   8   9
ATOM      9  C   UNL     1      -6.562  -2.631   0.940  1.00  0.00     0.031 A 
ATOM     10  C   UNL     1      -6.465  -4.963  -0.144  1.00  0.00     0.046 C 
ATOM     11  C   UNL     1      -5.880  -3.669   0.319  1.00  0.00    -0.032 A 
ATOM     12  C   UNL     1      -4.520  -3.274   0.071  1.00  0.00     0.029 A 
ATOM     13  C   UNL     1      -4.238  -1.995   0.526  1.00  0.00     0.093 A 
ATOM     14  S   UNL     1      -5.429  -1.548   1.651  1.00  0.00    -0.130 S 
BRANCH  13  15
ATOM     15  C   UNL     1      -3.029  -1.247   0.281  1.00  0.00     0.261 C 
ATOM     16  O   UNL     1      -1.943  -1.828   0.152  1.00  0.00    -0.268 OA
ATOM     17  N   UNL     1      -2.963   0.116   0.068  1.00  0.00    -0.348 N 
ATOM     18  H   UNL     1      -2.026   0.375  -0.088  1.00  0.00     0.164 HD
BRANCH  17  19
ATOM     19  C   UNL     1      -3.792   1.278  -0.004  1.00  0.00     0.088 C 
ATOM     20  C   UNL     1      -5.164   1.548   0.516  1.00  0.00     0.034 C 
ATOM     21  C   UNL     1      -4.937   1.510  -0.978  1.00  0.00    -0.013 C 
ATOM     22  C   UNL     1      -5.035   2.837  -1.691  1.00  0.00     0.013 C 
ATOM     23  C   UNL     1      -5.516   0.371  -1.773  1.00  0.00     0.013 C 
ENDBRANCH  17  19
ENDBRANCH  13  15
ENDBRANCH   8   9
ENDBRANCH   4   7
ENDBRANCH   2   3
ENDBRANCH   1   2
BRANCH   1  24
ATOM     24  C   UNL     1     -12.497  -4.361   1.383  1.00  0.00     0.118 C 
BRANCH  24  25
ATOM     25  N   UNL     1     -13.222  -5.152   0.401  1.00  0.00    -0.352 N 
ATOM     26  C   UNL     1     -13.851  -6.366   0.532  1.00  0.00     0.251 C 
ATOM     27  H   UNL     1     -13.270  -4.755  -0.499  1.00  0.00     0.163 HD
ATOM     28  O   UNL     1     -14.188  -6.973  -0.479  1.00  0.00    -0.269 OA
BRANCH  26  29
ATOM     29  C   UNL     1     -14.113  -6.948   1.869  1.00  0.00     0.039 A 
ATOM     30  C   UNL     1     -13.988  -8.331   2.037  1.00  0.00     0.014 A 
ATOM     31  C   UNL     1     -14.534  -6.155   2.941  1.00  0.00     0.014 A 
ATOM     32  C   UNL     1     -14.236  -8.907   3.285  1.00  0.00     0.010 A 
ATOM     33  C   UNL     1     -14.703  -6.720   4.204  1.00  0.00     0.010 A 
ATOM     34  C   UNL     1     -14.568  -8.103   4.387  1.00  0.00    -0.014 A 
BRANCH  34  35
ATOM     35  C   UNL     1     -14.789  -8.692   5.734  1.00  0.00     0.031 A 
ATOM     36  C   UNL     1     -16.141  -8.598   6.390  1.00  0.00     0.074 A 
ATOM     37  C   UNL     1     -13.757  -9.258   6.390  1.00  0.00     0.049 A 
ATOM     38  N   UNL     1     -16.509  -8.985   7.584  1.00  0.00    -0.248 NA
ATOM     39  C   UNL     1     -17.215  -7.961   5.610  1.00  0.00     0.031 C 
ATOM     40  C   UNL     1     -12.388  -9.367   5.880  1.00  0.00     0.029 A 
ATOM     41  N   UNL     1     -13.694  -9.838   7.632  1.00  0.00    -0.354 N 
ATOM     42  C   UNL     1     -17.846  -8.626   7.705  1.00  0.00     0.074 A 
ATOM     43  C   UNL     1     -18.212  -7.944   6.483  1.00  0.00     0.031 C 
ATOM     44  C   UNL     1     -11.627  -9.992   6.791  1.00  0.00     0.029 A 
ATOM     45  C   UNL     1     -12.440 -10.296   7.964  1.00  0.00     0.049 A 
ATOM     46  H   UNL     1     -14.472  -9.919   8.229  1.00  0.00     0.167 HD
ATOM     47  C   UNL     1     -18.699  -8.863   8.732  1.00  0.00     0.037 A 
ATOM     48  C   UNL     1     -11.994 -10.886   9.090  1.00  0.00     0.037 A 
ATOM     49  C   UNL     1     -18.335  -9.565   9.935  1.00  0.00     0.049 A 
ATOM     50  C   UNL     1     -12.960 -11.149  10.212  1.00  0.00     0.074 A 
ATOM     51  C   UNL     1     -19.137  -9.903  11.011  1.00  0.00     0.029 A 
ATOM     52  N   UNL     1     -17.062 -10.039  10.222  1.00  0.00    -0.354 N 
ATOM     53  N   UNL     1     -14.236 -10.851  10.287  1.00  0.00    -0.248 NA
ATOM     54  C   UNL     1     -12.431 -11.834  11.399  1.00  0.00     0.031 C 
ATOM     55  C   UNL     1     -18.341 -10.547  11.965  1.00  0.00     0.029 A 
ATOM     56  C   UNL     1     -17.053 -10.653  11.463  1.00  0.00     0.049 A 
ATOM     57  H   UNL     1     -16.281  -9.951   9.630  1.00  0.00     0.167 HD
ATOM     58  C   UNL     1     -14.667 -11.334  11.517  1.00  0.00     0.074 A 
ATOM     59  C   UNL     1     -13.520 -11.954  12.147  1.00  0.00     0.031 C 
ATOM     60  C   UNL     1     -15.902 -11.270  12.074  1.00  0.00     0.037 A 
BRANCH  47  61
ATOM     61  C   UNL     1     -20.112  -8.363   8.594  1.00  0.00     0.058 A 
ATOM     62  C   UNL     1     -21.013  -8.944   7.687  1.00  0.00     0.135 A 
ATOM     63  C   UNL     1     -20.582  -7.312   9.398  1.00  0.00     0.135 A 
ATOM     64  F   UNL     1     -20.614  -9.943   6.884  1.00  0.00    -0.206 F 
ATOM     65  C   UNL     1     -22.318  -8.481   7.559  1.00  0.00     0.059 A 
ATOM     66  C   UNL     1     -21.892  -6.850   9.306  1.00  0.00     0.059 A 
ATOM     67  F   UNL     1     -19.765  -6.719  10.283  1.00  0.00    -0.206 F 
ATOM     68  C   UNL     1     -22.748  -7.431   8.371  1.00  0.00     0.060 A 
BRANCH  68  69
ATOM     69  S   UNL     1     -24.445  -6.841   8.191  1.00  0.00     0.124 S 
ATOM     70  O   UNL     1     -24.368  -6.116   6.926  1.00  0.00    -0.237 OA
ATOM     71  O   UNL     1     -25.208  -8.084   8.163  1.00  0.00    -0.237 OA
ATOM     72  O   UNL     1     -24.645  -6.013   9.377  1.00  0.00    -0.744 OA
ENDBRANCH  68  69
ENDBRANCH  47  61
BRANCH  48  73
ATOM     73  C   UNL     1     -10.567 -11.292   9.196  1.00  0.00     0.058 A 
ATOM     74  C   UNL     1     -10.197 -12.644   9.160  1.00  0.00     0.135 A 
ATOM     75  C   UNL     1      -9.545 -10.337   9.309  1.00  0.00     0.135 A 
ATOM     76  F   UNL     1     -11.139 -13.594   9.059  1.00  0.00    -0.206 F 
ATOM     77  C   UNL     1      -8.866 -13.038   9.245  1.00  0.00     0.059 A 
ATOM     78  C   UNL     1      -8.204 -10.705   9.370  1.00  0.00     0.059 A 
ATOM     79  F   UNL     1      -9.845  -9.029   9.329  1.00  0.00    -0.206 F 
ATOM     80  C   UNL     1      -7.876 -12.060   9.345  1.00  0.00     0.060 A 
BRANCH  80  81
ATOM     81  S   UNL     1      -6.147 -12.580   9.395  1.00  0.00     0.124 S 
ATOM     82  O   UNL     1      -6.039 -13.113  10.747  1.00  0.00    -0.237 OA
ATOM     83  O   UNL     1      -6.091 -13.560   8.315  1.00  0.00    -0.237 OA
ATOM     84  O   UNL     1      -5.417 -11.340   9.143  1.00  0.00    -0.744 OA
ENDBRANCH  80  81
ENDBRANCH  48  73
BRANCH  60  85
ATOM     85  C   UNL     1     -16.086 -11.914  13.420  1.00  0.00     0.058 A 
ATOM     86  C   UNL     1     -15.567 -11.339  14.590  1.00  0.00     0.135 A 
ATOM     87  C   UNL     1     -16.832 -13.097  13.545  1.00  0.00     0.135 A 
ATOM     88  F   UNL     1     -14.841 -10.211  14.524  1.00  0.00    -0.206 F 
ATOM     89  C   UNL     1     -15.761 -11.927  15.835  1.00  0.00     0.059 A 
ATOM     90  C   UNL     1     -17.061 -13.689  14.783  1.00  0.00     0.059 A 
ATOM     91  F   UNL     1     -17.359 -13.683  12.457  1.00  0.00    -0.206 F 
ATOM     92  C   UNL     1     -16.510 -13.102  15.922  1.00  0.00     0.060 A 
BRANCH  92  93
ATOM     93  S   UNL     1     -16.781 -13.840  17.547  1.00  0.00     0.124 S 
ATOM     94  O   UNL     1     -15.477 -14.433  17.821  1.00  0.00    -0.237 OA
ATOM     95  O   UNL     1     -17.135 -12.681  18.362  1.00  0.00    -0.237 OA
ATOM     96  O   UNL     1     -17.866 -14.788  17.313  1.00  0.00    -0.744 OA
ENDBRANCH  92  93
ENDBRANCH  60  85
ENDBRANCH  34  35
ENDBRANCH  26  29
ENDBRANCH  24  25
ENDBRANCH   1  24
TORSDOF 16
