REMARK SMILES COc1cccc([C@@H]2[NH2+][C@@](C)(C(=O)NCCCNC(=O)c3ccc(-c4c5nc(c(-c6c(F)cc(S(=O)(=O)[O-])cc6F)c6ccc([nH]6)c(-c6c(F)cc(S(=O)(=O)[O-])cc6F)c6nc(c(-c7c(F)cc(S(=O)(=O)[O-])cc7F)c7ccc4[nH]7)C=C6)C=C5)cc3)[C@@H]3C(=O)N(C)C(=O)[C@@H]32)c1O
REMARK SMILES IDX 16 1 15 2 14 3 12 4 13 5 10 7 8 8 9 9 94 10 87 13 92 14
REMARK SMILES IDX 11 15 88 16 90 17 93 18 89 19 91 20 7 21 3 22 4 23 95 24
REMARK SMILES IDX 5 25 6 26 2 27 1 28 96 29 17 31 18 32 19 33 20 35 21 36
REMARK SMILES IDX 22 37 86 38 23 39 85 40 24 41 25 42 26 43 79 44 27 45 84 46
REMARK SMILES IDX 78 47 80 48 28 49 83 50 77 51 76 52 29 54 63 55 42 56 62 57
REMARK SMILES IDX 43 58 46 59 61 60 81 61 44 62 45 63 60 65 82 66 47 67 30 68
REMARK SMILES IDX 31 69 40 70 32 71 33 72 39 73 41 74 34 75 35 76 36 77 37 78
REMARK SMILES IDX 38 79 64 80 65 81 74 82 66 83 67 84 73 85 75 86 68 87 69 88
REMARK SMILES IDX 70 89 71 90 72 91 48 92 49 93 58 94 50 95 51 96 57 97 59 98
REMARK SMILES IDX 52 99 53 100 54 101 55 102 56 103
REMARK H PARENT 14 6 9 11 9 12 96 30 18 34 80 53 46 64
REMARK Flexibility Score: inf
ROOT
ATOM      1  C   UNL     1       5.121  -7.247   1.345  1.00  0.00     0.042 C 
ENDROOT
BRANCH   1   2
ATOM      2  C   UNL     1       4.949  -6.362   0.122  1.00  0.00     0.118 C 
BRANCH   2   3
ATOM      3  N   UNL     1       3.903  -6.844  -0.767  1.00  0.00    -0.351 N 
ATOM      4  C   UNL     1       2.738  -6.249  -1.161  1.00  0.00     0.281 C 
ATOM      5  O   UNL     1       1.986  -6.913  -1.881  1.00  0.00    -0.268 OA
ATOM      6  H   UNL     1       4.060  -7.739  -1.145  1.00  0.00     0.163 HD
BRANCH   4   7
ATOM      7  C   UNL     1       2.411  -4.776  -0.757  1.00  0.00     0.185 C 
ATOM      8  C   UNL     1       1.007  -4.617   1.214  1.00  0.00     0.232 C 
ATOM      9  N   UNL     1       2.404  -4.707   0.730  1.00  0.00    -0.326 N 
ATOM     10  C   UNL     1       0.106  -4.814  -0.014  1.00  0.00     0.161 C 
ATOM     11  H   UNL     1       2.842  -5.546   1.111  1.00  0.00     0.347 HD
ATOM     12  H   UNL     1       2.924  -3.884   1.035  1.00  0.00     0.347 HD
ATOM     13  C   UNL     1       0.983  -4.443  -1.201  1.00  0.00     0.169 C 
ATOM     14  C   UNL     1      -1.054  -3.864  -0.143  1.00  0.00     0.239 C 
ATOM     15  C   UNL     1       3.472  -3.889  -1.433  1.00  0.00     0.091 C 
ATOM     16  C   UNL     1       0.590  -3.007  -1.456  1.00  0.00     0.240 C 
ATOM     17  N   UNL     1      -0.664  -2.824  -0.944  1.00  0.00    -0.285 N 
ATOM     18  O   UNL     1      -2.131  -3.986   0.414  1.00  0.00    -0.274 OA
ATOM     19  O   UNL     1       1.249  -2.156  -2.036  1.00  0.00    -0.274 OA
ATOM     20  C   UNL     1      -1.454  -1.630  -1.121  1.00  0.00     0.156 C 
BRANCH   8  21
ATOM     21  C   UNL     1       0.732  -3.361   2.045  1.00  0.00     0.056 A 
ATOM     22  C   UNL     1       0.749  -0.926   2.354  1.00  0.00     0.161 A 
ATOM     23  C   UNL     1      -0.099  -1.075   3.453  1.00  0.00     0.050 A 
ATOM     24  C   UNL     1       1.209  -2.077   1.705  1.00  0.00     0.166 A 
ATOM     25  C   UNL     1      -0.517  -2.339   3.866  1.00  0.00     0.005 A 
ATOM     26  C   UNL     1      -0.125  -3.471   3.153  1.00  0.00     0.014 A 
BRANCH  22  27
ATOM     27  O   UNL     1       1.096   0.370   2.084  1.00  0.00    -0.493 OA
ATOM     28  C   UNL     1       1.235   0.738   0.718  1.00  0.00     0.278 C 
ENDBRANCH  22  27
BRANCH  24  29
ATOM     29  O   UNL     1       2.215  -2.026   0.783  1.00  0.00    -0.504 OA
ATOM     30  H   UNL     1       2.569  -1.198   0.521  1.00  0.00     0.293 HD
ENDBRANCH  24  29
ENDBRANCH   8  21
ENDBRANCH   4   7
ENDBRANCH   2   3
ENDBRANCH   1   2
BRANCH   1  31
ATOM     31  C   UNL     1       5.539  -8.673   1.018  1.00  0.00     0.118 C 
BRANCH  31  32
ATOM     32  N   UNL     1       6.811  -8.742   0.308  1.00  0.00    -0.352 N 
ATOM     33  C   UNL     1       7.996  -9.336   0.666  1.00  0.00     0.251 C 
ATOM     34  H   UNL     1       6.821  -8.291  -0.567  1.00  0.00     0.163 HD
ATOM     35  O   UNL     1       9.005  -9.118   0.002  1.00  0.00    -0.269 OA
BRANCH  33  36
ATOM     36  C   UNL     1       8.062 -10.213   1.855  1.00  0.00     0.039 A 
ATOM     37  C   UNL     1       9.173 -10.127   2.697  1.00  0.00     0.014 A 
ATOM     38  C   UNL     1       7.040 -11.121   2.139  1.00  0.00     0.014 A 
ATOM     39  C   UNL     1       9.221 -10.900   3.859  1.00  0.00     0.010 A 
ATOM     40  C   UNL     1       7.041 -11.813   3.346  1.00  0.00     0.010 A 
ATOM     41  C   UNL     1       8.136 -11.718   4.216  1.00  0.00    -0.014 A 
BRANCH  41  42
ATOM     42  C   UNL     1       8.131 -12.482   5.491  1.00  0.00     0.031 A 
ATOM     43  C   UNL     1       8.055 -13.986   5.471  1.00  0.00     0.074 A 
ATOM     44  C   UNL     1       8.136 -11.818   6.665  1.00  0.00     0.049 A 
ATOM     45  N   UNL     1       7.992 -14.822   6.475  1.00  0.00    -0.248 NA
ATOM     46  C   UNL     1       8.017 -14.636   4.151  1.00  0.00     0.031 C 
ATOM     47  C   UNL     1       8.158 -10.361   6.813  1.00  0.00     0.029 A 
ATOM     48  N   UNL     1       8.119 -12.280   7.957  1.00  0.00    -0.354 N 
ATOM     49  C   UNL     1       7.890 -16.088   5.910  1.00  0.00     0.074 A 
ATOM     50  C   UNL     1       7.843 -15.908   4.477  1.00  0.00     0.031 C 
ATOM     51  C   UNL     1       8.188 -10.051   8.119  1.00  0.00     0.029 A 
ATOM     52  C   UNL     1       8.142 -11.281   8.902  1.00  0.00     0.049 A 
ATOM     53  H   UNL     1       8.093 -13.237   8.186  1.00  0.00     0.167 HD
ATOM     54  C   UNL     1       7.863 -17.292   6.530  1.00  0.00     0.037 A 
ATOM     55  C   UNL     1       8.121 -11.348  10.248  1.00  0.00     0.037 A 
ATOM     56  C   UNL     1       7.938 -17.462   7.957  1.00  0.00     0.049 A 
ATOM     57  C   UNL     1       8.080 -12.699  10.911  1.00  0.00     0.074 A 
ATOM     58  C   UNL     1       7.988 -18.642   8.680  1.00  0.00     0.029 A 
ATOM     59  N   UNL     1       7.969 -16.427   8.880  1.00  0.00    -0.354 N 
ATOM     60  N   UNL     1       8.063 -13.889  10.359  1.00  0.00    -0.248 NA
ATOM     61  C   UNL     1       8.063 -12.717  12.380  1.00  0.00     0.031 C 
ATOM     62  C   UNL     1       7.988 -18.320  10.040  1.00  0.00     0.029 A 
ATOM     63  C   UNL     1       8.005 -16.941  10.166  1.00  0.00     0.049 A 
ATOM     64  H   UNL     1       7.965 -15.469   8.655  1.00  0.00     0.167 HD
ATOM     65  C   UNL     1       8.069 -14.797  11.413  1.00  0.00     0.074 A 
ATOM     66  C   UNL     1       8.101 -14.018  12.633  1.00  0.00     0.031 C 
ATOM     67  C   UNL     1       8.051 -16.152  11.373  1.00  0.00     0.037 A 
BRANCH  54  68
ATOM     68  C   UNL     1       7.746 -18.523   5.671  1.00  0.00     0.058 A 
ATOM     69  C   UNL     1       8.792 -18.947   4.835  1.00  0.00     0.135 A 
ATOM     70  C   UNL     1       6.589 -19.318   5.722  1.00  0.00     0.135 A 
ATOM     71  F   UNL     1       9.916 -18.218   4.735  1.00  0.00    -0.206 F 
ATOM     72  C   UNL     1       8.686 -20.099   4.062  1.00  0.00     0.059 A 
ATOM     73  C   UNL     1       6.474 -20.491   4.981  1.00  0.00     0.059 A 
ATOM     74  F   UNL     1       5.557 -18.961   6.502  1.00  0.00    -0.206 F 
ATOM     75  C   UNL     1       7.524 -20.866   4.145  1.00  0.00     0.060 A 
BRANCH  75  76
ATOM     76  S   UNL     1       7.410 -22.366   3.147  1.00  0.00     0.124 S 
ATOM     77  O   UNL     1       7.272 -21.813   1.804  1.00  0.00    -0.237 OA
ATOM     78  O   UNL     1       8.681 -23.026   3.433  1.00  0.00    -0.237 OA
ATOM     79  O   UNL     1       6.226 -23.038   3.673  1.00  0.00    -0.744 OA
ENDBRANCH  75  76
ENDBRANCH  54  68
BRANCH  55  80
ATOM     80  C   UNL     1       8.163 -10.101  11.061  1.00  0.00     0.058 A 
ATOM     81  C   UNL     1       9.285  -9.788  11.843  1.00  0.00     0.135 A 
ATOM     82  C   UNL     1       7.086  -9.201  11.078  1.00  0.00     0.135 A 
ATOM     83  F   UNL     1      10.339 -10.618  11.866  1.00  0.00    -0.206 F 
ATOM     84  C   UNL     1       9.329  -8.643  12.632  1.00  0.00     0.059 A 
ATOM     85  C   UNL     1       7.118  -8.034  11.835  1.00  0.00     0.059 A 
ATOM     86  F   UNL     1       5.994  -9.444  10.335  1.00  0.00    -0.206 F 
ATOM     87  C   UNL     1       8.239  -7.771  12.621  1.00  0.00     0.060 A 
BRANCH  87  88
ATOM     88  S   UNL     1       8.320  -6.273  13.625  1.00  0.00     0.124 S 
ATOM     89  O   UNL     1       8.195  -6.816  14.973  1.00  0.00    -0.237 OA
ATOM     90  O   UNL     1       9.631  -5.738  13.271  1.00  0.00    -0.237 OA
ATOM     91  O   UNL     1       7.183  -5.490  13.152  1.00  0.00    -0.744 OA
ENDBRANCH  87  88
ENDBRANCH  55  80
BRANCH  67  92
ATOM     92  C   UNL     1       8.116 -16.888  12.685  1.00  0.00     0.058 A 
ATOM     93  C   UNL     1       7.035 -16.909  13.579  1.00  0.00     0.135 A 
ATOM     94  C   UNL     1       9.261 -17.629  13.023  1.00  0.00     0.135 A 
ATOM     95  F   UNL     1       5.920 -16.213  13.308  1.00  0.00    -0.206 F 
ATOM     96  C   UNL     1       7.096 -17.617  14.775  1.00  0.00     0.059 A 
ATOM     97  C   UNL     1       9.331 -18.371  14.198  1.00  0.00     0.059 A 
ATOM     98  F   UNL     1      10.320 -17.653  12.198  1.00  0.00    -0.206 F 
ATOM     99  C   UNL     1       8.248 -18.348  15.074  1.00  0.00     0.060 A 
BRANCH  99 100
ATOM    100  S   UNL     1       8.298 -19.292  16.612  1.00  0.00     0.124 S 
ATOM    101  O   UNL     1       8.427 -18.230  17.604  1.00  0.00    -0.237 OA
ATOM    102  O   UNL     1       7.016 -19.989  16.592  1.00  0.00    -0.237 OA
ATOM    103  O   UNL     1       9.472 -20.145  16.450  1.00  0.00    -0.744 OA
ENDBRANCH  99 100
ENDBRANCH  67  92
ENDBRANCH  41  42
ENDBRANCH  33  36
ENDBRANCH  31  32
ENDBRANCH   1  31
TORSDOF 16
