REMARK SMILES C[C@H]([NH2+]CC(C)(C)C(=O)NCCCNC(=O)c1ccc(-c2c3nc(c(-c4c(F)cc(S(=O)(=O)[O-])cc4F)c4ccc([nH]4)c(-c4c(F)cc(S(=O)(=O)[O-])cc4F)c4nc(c(-c5c(F)cc(S(=O)(=O)[O-])cc5F)c5ccc2[nH]5)C=C4)C=C3)cc1)c1nccs1
REMARK SMILES IDX 11 1 10 2 8 3 9 4 5 6 6 7 7 8 4 9 3 10 2 13 1 14 83 15 84 16
REMARK SMILES IDX 87 17 85 18 86 19 12 20 13 21 14 22 15 23 16 25 17 26 18 27
REMARK SMILES IDX 82 28 19 29 81 30 20 31 21 32 22 33 75 34 23 35 80 36 74 37
REMARK SMILES IDX 76 38 24 39 79 40 73 41 72 42 25 44 59 45 38 46 58 47 39 48
REMARK SMILES IDX 42 49 57 50 77 51 40 52 41 53 56 55 78 56 43 57 26 58 27 59
REMARK SMILES IDX 36 60 28 61 29 62 35 63 37 64 30 65 31 66 32 67 33 68 34 69
REMARK SMILES IDX 60 70 61 71 70 72 62 73 63 74 69 75 71 76 64 77 65 78 66 79
REMARK SMILES IDX 67 80 68 81 44 82 45 83 54 84 46 85 47 86 53 87 55 88 48 89
REMARK SMILES IDX 49 90 50 91 51 92 52 93
REMARK H PARENT 10 5 3 11 3 12 14 24 76 43 42 54
REMARK Flexibility Score: inf
ROOT
ATOM      1  C   UNL     1       3.716  -4.077   1.876  1.00  0.00     0.117 C 
ENDROOT
BRANCH   1   2
ATOM      2  N   UNL     1       3.477  -2.667   2.120  1.00  0.00    -0.355 N 
ATOM      3  C   UNL     1       3.121  -1.637   1.305  1.00  0.00     0.231 C 
ATOM      4  O   UNL     1       3.212  -0.513   1.809  1.00  0.00    -0.274 OA
ATOM      5  H   UNL     1       3.594  -2.403   3.062  1.00  0.00     0.163 HD
BRANCH   3   6
ATOM      6  C   UNL     1       2.681  -1.856  -0.157  1.00  0.00     0.092 C 
ATOM      7  C   UNL     1       1.510  -2.851  -0.269  1.00  0.00     0.027 C 
ATOM      8  C   UNL     1       3.889  -2.332  -0.988  1.00  0.00     0.027 C 
BRANCH   6   9
ATOM      9  C   UNL     1       2.240  -0.487  -0.776  1.00  0.00     0.277 C 
BRANCH   9  10
ATOM     10  N   UNL     1       0.938  -0.004  -0.315  1.00  0.00    -0.337 N 
ATOM     11  H   UNL     1       0.239  -0.702  -0.569  1.00  0.00     0.346 HD
ATOM     12  H   UNL     1       1.039   0.140   0.690  1.00  0.00     0.346 HD
BRANCH  10  13
ATOM     13  C   UNL     1       0.499   1.295  -0.861  1.00  0.00     0.239 C 
ATOM     14  C   UNL     1       0.900   1.548  -2.321  1.00  0.00     0.083 C 
BRANCH  13  15
ATOM     15  C   UNL     1      -1.021   1.361  -0.757  1.00  0.00     0.150 A 
ATOM     16  N   UNL     1      -1.808   0.302  -0.860  1.00  0.00    -0.243 NA
ATOM     17  S   UNL     1      -1.833   2.861  -0.530  1.00  0.00    -0.121 S 
ATOM     18  C   UNL     1      -3.125   0.686  -0.729  1.00  0.00     0.123 A 
ATOM     19  C   UNL     1      -3.336   2.037  -0.567  1.00  0.00     0.087 A 
ENDBRANCH  13  15
ENDBRANCH  10  13
ENDBRANCH   9  10
ENDBRANCH   6   9
ENDBRANCH   3   6
ENDBRANCH   1   2
BRANCH   1  20
ATOM     20  C   UNL     1       5.200  -4.414   1.941  1.00  0.00     0.042 C 
BRANCH  20  21
ATOM     21  C   UNL     1       5.806  -4.228   3.325  1.00  0.00     0.118 C 
BRANCH  21  22
ATOM     22  N   UNL     1       5.192  -5.100   4.320  1.00  0.00    -0.352 N 
ATOM     23  C   UNL     1       5.729  -6.148   5.022  1.00  0.00     0.251 C 
ATOM     24  H   UNL     1       4.248  -4.906   4.518  1.00  0.00     0.163 HD
ATOM     25  O   UNL     1       4.984  -6.908   5.642  1.00  0.00    -0.269 OA
BRANCH  23  26
ATOM     26  C   UNL     1       7.188  -6.375   5.023  1.00  0.00     0.039 A 
ATOM     27  C   UNL     1       7.676  -7.680   4.930  1.00  0.00     0.014 A 
ATOM     28  C   UNL     1       8.076  -5.301   5.126  1.00  0.00     0.014 A 
ATOM     29  C   UNL     1       9.054  -7.900   4.873  1.00  0.00     0.010 A 
ATOM     30  C   UNL     1       9.441  -5.513   4.968  1.00  0.00     0.010 A 
ATOM     31  C   UNL     1       9.946  -6.815   4.851  1.00  0.00    -0.014 A 
BRANCH  31  32
ATOM     32  C   UNL     1      11.411  -7.017   4.715  1.00  0.00     0.031 A 
ATOM     33  C   UNL     1      12.341  -6.556   5.804  1.00  0.00     0.074 A 
ATOM     34  C   UNL     1      11.906  -7.546   3.579  1.00  0.00     0.049 A 
ATOM     35  N   UNL     1      13.648  -6.577   5.838  1.00  0.00    -0.248 NA
ATOM     36  C   UNL     1      11.721  -5.964   7.001  1.00  0.00     0.031 C 
ATOM     37  C   UNL     1      11.108  -7.978   2.428  1.00  0.00     0.029 A 
ATOM     38  N   UNL     1      13.199  -7.801   3.197  1.00  0.00    -0.354 N 
ATOM     39  C   UNL     1      14.006  -5.986   7.045  1.00  0.00     0.074 A 
ATOM     40  C   UNL     1      12.781  -5.563   7.686  1.00  0.00     0.031 C 
ATOM     41  C   UNL     1      11.926  -8.465   1.483  1.00  0.00     0.029 A 
ATOM     42  C   UNL     1      13.307  -8.342   1.938  1.00  0.00     0.049 A 
ATOM     43  H   UNL     1      13.977  -7.613   3.772  1.00  0.00     0.167 HD
ATOM     44  C   UNL     1      15.240  -5.833   7.580  1.00  0.00     0.037 A 
ATOM     45  C   UNL     1      14.396  -8.692   1.226  1.00  0.00     0.037 A 
ATOM     46  C   UNL     1      16.452  -6.279   6.942  1.00  0.00     0.049 A 
ATOM     47  C   UNL     1      15.758  -8.517   1.841  1.00  0.00     0.074 A 
ATOM     48  C   UNL     1      17.747  -6.232   7.426  1.00  0.00     0.029 A 
ATOM     49  N   UNL     1      16.518  -6.846   5.676  1.00  0.00    -0.354 N 
ATOM     50  N   UNL     1      16.074  -8.024   3.014  1.00  0.00    -0.248 NA
ATOM     51  C   UNL     1      16.909  -8.953   1.040  1.00  0.00     0.031 C 
ATOM     52  C   UNL     1      18.602  -6.720   6.433  1.00  0.00     0.029 A 
ATOM     53  C   UNL     1      17.835  -7.129   5.353  1.00  0.00     0.049 A 
ATOM     54  H   UNL     1      15.744  -7.021   5.095  1.00  0.00     0.167 HD
ATOM     55  C   UNL     1      17.459  -8.114   3.105  1.00  0.00     0.074 A 
ATOM     56  C   UNL     1      17.917  -8.720   1.871  1.00  0.00     0.031 C 
ATOM     57  C   UNL     1      18.276  -7.734   4.119  1.00  0.00     0.037 A 
BRANCH  44  58
ATOM     58  C   UNL     1      15.338  -5.153   8.920  1.00  0.00     0.058 A 
ATOM     59  C   UNL     1      14.844  -5.749  10.093  1.00  0.00     0.135 A 
ATOM     60  C   UNL     1      15.947  -3.893   9.038  1.00  0.00     0.135 A 
ATOM     61  F   UNL     1      14.240  -6.947  10.040  1.00  0.00    -0.206 F 
ATOM     62  C   UNL     1      14.910  -5.103  11.323  1.00  0.00     0.059 A 
ATOM     63  C   UNL     1      16.054  -3.242  10.264  1.00  0.00     0.059 A 
ATOM     64  F   UNL     1      16.439  -3.275   7.952  1.00  0.00    -0.206 F 
ATOM     65  C   UNL     1      15.514  -3.848  11.398  1.00  0.00     0.060 A 
BRANCH  65  66
ATOM     66  S   UNL     1      15.580  -3.017  12.999  1.00  0.00     0.124 S 
ATOM     67  O   UNL     1      14.185  -2.627  13.182  1.00  0.00    -0.237 OA
ATOM     68  O   UNL     1      16.062  -4.077  13.880  1.00  0.00    -0.237 OA
ATOM     69  O   UNL     1      16.514  -1.919  12.776  1.00  0.00    -0.744 OA
ENDBRANCH  65  66
ENDBRANCH  44  58
BRANCH  45  70
ATOM     70  C   UNL     1      14.231  -9.267  -0.136  1.00  0.00     0.058 A 
ATOM     71  C   UNL     1      14.486 -10.623  -0.383  1.00  0.00     0.135 A 
ATOM     72  C   UNL     1      13.774  -8.482  -1.207  1.00  0.00     0.135 A 
ATOM     73  F   UNL     1      14.931 -11.413   0.606  1.00  0.00    -0.206 F 
ATOM     74  C   UNL     1      14.300 -11.182  -1.643  1.00  0.00     0.059 A 
ATOM     75  C   UNL     1      13.555  -9.024  -2.470  1.00  0.00     0.059 A 
ATOM     76  F   UNL     1      13.498  -7.182  -1.019  1.00  0.00    -0.206 F 
ATOM     77  C   UNL     1      13.826 -10.375  -2.679  1.00  0.00     0.060 A 
BRANCH  77  78
ATOM     78  S   UNL     1      13.519 -11.129  -4.291  1.00  0.00     0.124 S 
ATOM     79  O   UNL     1      14.876 -11.369  -4.768  1.00  0.00    -0.237 OA
ATOM     80  O   UNL     1      12.749 -12.316  -3.931  1.00  0.00    -0.237 OA
ATOM     81  O   UNL     1      12.771 -10.099  -5.006  1.00  0.00    -0.744 OA
ENDBRANCH  77  78
ENDBRANCH  45  70
BRANCH  57  82
ATOM     82  C   UNL     1      19.749  -7.989   3.956  1.00  0.00     0.058 A 
ATOM     83  C   UNL     1      20.537  -7.244   3.065  1.00  0.00     0.135 A 
ATOM     84  C   UNL     1      20.392  -8.957   4.746  1.00  0.00     0.135 A 
ATOM     85  F   UNL     1      19.972  -6.312   2.280  1.00  0.00    -0.206 F 
ATOM     86  C   UNL     1      21.905  -7.464   2.946  1.00  0.00     0.059 A 
ATOM     87  C   UNL     1      21.764  -9.172   4.667  1.00  0.00     0.059 A 
ATOM     88  F   UNL     1      19.688  -9.691   5.623  1.00  0.00    -0.206 F 
ATOM     89  C   UNL     1      22.511  -8.428   3.755  1.00  0.00     0.060 A 
BRANCH  89  90
ATOM     90  S   UNL     1      24.293  -8.677   3.617  1.00  0.00     0.124 S 
ATOM     91  O   UNL     1      24.396  -9.359   2.331  1.00  0.00    -0.237 OA
ATOM     92  O   UNL     1      24.803  -7.310   3.652  1.00  0.00    -0.237 OA
ATOM     93  O   UNL     1      24.614  -9.490   4.786  1.00  0.00    -0.744 OA
ENDBRANCH  89  90
ENDBRANCH  57  82
ENDBRANCH  31  32
ENDBRANCH  23  26
ENDBRANCH  21  22
ENDBRANCH  20  21
ENDBRANCH   1  20
TORSDOF 17
