REMARK SMILES O=C(NCCCNC(=O)c1cccc(COc2ccccc2C=C2C(=O)c3ccccc3C2=O)c1)c1ccc(-c2c3nc(c(-c4c(F)cc(S(=O)(=O)[O-])cc4F)c4ccc([nH]4)c(-c4c(F)cc(S(=O)(=O)[O-])cc4F)c4nc(c(-c5c(F)cc(S(=O)(=O)[O-])cc5F)c5ccc2[nH]5)C=C4)C=C3)cc1
REMARK SMILES IDX 5 1 4 2 3 3 1 4 2 5 36 7 37 8 101 9 38 10 100 11 39 12 40 13
REMARK SMILES IDX 41 14 94 15 42 16 99 17 93 18 95 19 43 20 98 21 92 22 91 23
REMARK SMILES IDX 44 25 78 26 57 27 77 28 58 29 61 30 76 31 96 32 59 33 60 34
REMARK SMILES IDX 75 36 97 37 62 38 45 39 46 40 55 41 47 42 48 43 54 44 56 45
REMARK SMILES IDX 49 46 50 47 51 48 52 49 53 50 79 51 80 52 89 53 81 54 82 55
REMARK SMILES IDX 88 56 90 57 83 58 84 59 85 60 86 61 87 62 63 63 64 64 73 65
REMARK SMILES IDX 65 66 66 67 72 68 74 69 67 70 68 71 69 72 70 73 71 74 6 75
REMARK SMILES IDX 7 76 8 77 9 79 10 80 11 81 35 82 12 83 14 84 13 85 15 86
REMARK SMILES IDX 16 87 17 88 18 89 22 90 19 91 21 92 20 93 23 94 24 95 25 96
REMARK SMILES IDX 33 97 26 98 27 99 32 100 34 101 28 102 31 103 29 104 30 105
REMARK H PARENT 3 6 95 24 61 35 7 78
REMARK Flexibility Score: inf
ROOT
ATOM      1  C   UNL     1       4.855  -0.712   2.080  1.00  0.00     0.042 C 
ENDROOT
BRANCH   1   2
ATOM      2  C   UNL     1       4.596  -0.983   0.603  1.00  0.00     0.118 C 
BRANCH   2   3
ATOM      3  N   UNL     1       3.171  -0.998   0.296  1.00  0.00    -0.352 N 
ATOM      4  O   UNL     1       1.157  -0.096  -0.142  1.00  0.00    -0.269 OA
ATOM      5  C   UNL     1       2.378  -0.003  -0.219  1.00  0.00     0.251 C 
ATOM      6  H   UNL     1       2.710  -1.847   0.486  1.00  0.00     0.163 HD
BRANCH   5   7
ATOM      7  C   UNL     1       3.001   1.178  -0.850  1.00  0.00     0.039 A 
ATOM      8  C   UNL     1       4.087   1.028  -1.716  1.00  0.00     0.014 A 
ATOM      9  C   UNL     1       2.474   2.447  -0.597  1.00  0.00     0.014 A 
ATOM     10  C   UNL     1       4.742   2.150  -2.207  1.00  0.00     0.010 A 
ATOM     11  C   UNL     1       3.074   3.568  -1.171  1.00  0.00     0.010 A 
ATOM     12  C   UNL     1       4.230   3.430  -1.958  1.00  0.00    -0.014 A 
BRANCH  12  13
ATOM     13  C   UNL     1       4.873   4.615  -2.576  1.00  0.00     0.031 A 
ATOM     14  C   UNL     1       5.486   5.687  -1.723  1.00  0.00     0.074 A 
ATOM     15  C   UNL     1       4.882   4.721  -3.919  1.00  0.00     0.049 A 
ATOM     16  N   UNL     1       6.010   6.829  -2.086  1.00  0.00    -0.248 NA
ATOM     17  C   UNL     1       5.503   5.452  -0.271  1.00  0.00     0.031 C 
ATOM     18  C   UNL     1       4.318   3.736  -4.846  1.00  0.00     0.029 A 
ATOM     19  N   UNL     1       5.372   5.704  -4.739  1.00  0.00    -0.354 N 
ATOM     20  C   UNL     1       6.392   7.463  -0.910  1.00  0.00     0.074 A 
ATOM     21  C   UNL     1       6.021   6.586   0.180  1.00  0.00     0.031 C 
ATOM     22  C   UNL     1       4.509   4.155  -6.104  1.00  0.00     0.029 A 
ATOM     23  C   UNL     1       5.142   5.468  -6.072  1.00  0.00     0.049 A 
ATOM     24  H   UNL     1       5.843   6.502  -4.404  1.00  0.00     0.167 HD
ATOM     25  C   UNL     1       6.997   8.667  -0.759  1.00  0.00     0.037 A 
ATOM     26  C   UNL     1       5.377   6.237  -7.152  1.00  0.00     0.037 A 
ATOM     27  C   UNL     1       7.365   9.523  -1.858  1.00  0.00     0.049 A 
ATOM     28  C   UNL     1       6.021   7.579  -6.961  1.00  0.00     0.074 A 
ATOM     29  C   UNL     1       8.006  10.748  -1.818  1.00  0.00     0.029 A 
ATOM     30  N   UNL     1       7.116   9.247  -3.197  1.00  0.00    -0.354 N 
ATOM     31  N   UNL     1       6.393   8.158  -5.845  1.00  0.00    -0.248 NA
ATOM     32  C   UNL     1       6.276   8.372  -8.169  1.00  0.00     0.031 C 
ATOM     33  C   UNL     1       8.102  11.235  -3.126  1.00  0.00     0.029 A 
ATOM     34  C   UNL     1       7.572  10.288  -3.989  1.00  0.00     0.049 A 
ATOM     35  H   UNL     1       6.679   8.431  -3.533  1.00  0.00     0.167 HD
ATOM     36  C   UNL     1       6.953   9.374  -6.216  1.00  0.00     0.074 A 
ATOM     37  C   UNL     1       6.870   9.446  -7.661  1.00  0.00     0.031 C 
ATOM     38  C   UNL     1       7.492  10.337  -5.430  1.00  0.00     0.037 A 
BRANCH  25  39
ATOM     39  C   UNL     1       7.261   9.141   0.645  1.00  0.00     0.058 A 
ATOM     40  C   UNL     1       8.226   8.536   1.467  1.00  0.00     0.135 A 
ATOM     41  C   UNL     1       6.537  10.221   1.177  1.00  0.00     0.135 A 
ATOM     42  F   UNL     1       8.939   7.491   1.016  1.00  0.00    -0.206 F 
ATOM     43  C   UNL     1       8.430   8.953   2.779  1.00  0.00     0.059 A 
ATOM     44  C   UNL     1       6.745  10.674   2.477  1.00  0.00     0.059 A 
ATOM     45  F   UNL     1       5.606  10.842   0.435  1.00  0.00    -0.206 F 
ATOM     46  C   UNL     1       7.677  10.017   3.278  1.00  0.00     0.060 A 
BRANCH  46  47
ATOM     47  S   UNL     1       7.921  10.519   4.995  1.00  0.00     0.124 S 
ATOM     48  O   UNL     1       7.255   9.435   5.710  1.00  0.00    -0.237 OA
ATOM     49  O   UNL     1       9.376  10.553   5.109  1.00  0.00    -0.237 OA
ATOM     50  O   UNL     1       7.260  11.818   5.067  1.00  0.00    -0.744 OA
ENDBRANCH  46  47
ENDBRANCH  25  39
BRANCH  26  51
ATOM     51  C   UNL     1       4.986   5.737  -8.495  1.00  0.00     0.058 A 
ATOM     52  C   UNL     1       5.950   5.306  -9.415  1.00  0.00     0.135 A 
ATOM     53  C   UNL     1       3.633   5.601  -8.849  1.00  0.00     0.135 A 
ATOM     54  F   UNL     1       7.255   5.419  -9.121  1.00  0.00    -0.206 F 
ATOM     55  C   UNL     1       5.590   4.751 -10.638  1.00  0.00     0.059 A 
ATOM     56  C   UNL     1       3.248   5.025 -10.055  1.00  0.00     0.059 A 
ATOM     57  F   UNL     1       2.672   5.981  -7.992  1.00  0.00    -0.206 F 
ATOM     58  C   UNL     1       4.235   4.604 -10.944  1.00  0.00     0.060 A 
BRANCH  58  59
ATOM     59  S   UNL     1       3.781   3.797 -12.494  1.00  0.00     0.124 S 
ATOM     60  O   UNL     1       4.116   4.827 -13.470  1.00  0.00    -0.237 OA
ATOM     61  O   UNL     1       4.641   2.618 -12.488  1.00  0.00    -0.237 OA
ATOM     62  O   UNL     1       2.357   3.525 -12.326  1.00  0.00    -0.744 OA
ENDBRANCH  58  59
ENDBRANCH  26  51
BRANCH  38  63
ATOM     63  C   UNL     1       8.084  11.538  -6.112  1.00  0.00     0.058 A 
ATOM     64  C   UNL     1       7.282  12.546  -6.667  1.00  0.00     0.135 A 
ATOM     65  C   UNL     1       9.477  11.718  -6.133  1.00  0.00     0.135 A 
ATOM     66  F   UNL     1       5.946  12.415  -6.681  1.00  0.00    -0.206 F 
ATOM     67  C   UNL     1       7.841  13.691  -7.225  1.00  0.00     0.059 A 
ATOM     68  C   UNL     1      10.056  12.866  -6.663  1.00  0.00     0.059 A 
ATOM     69  F   UNL     1      10.288  10.785  -5.610  1.00  0.00    -0.206 F 
ATOM     70  C   UNL     1       9.229  13.846  -7.210  1.00  0.00     0.060 A 
BRANCH  70  71
ATOM     71  S   UNL     1       9.938  15.368  -7.874  1.00  0.00     0.124 S 
ATOM     72  O   UNL     1       9.772  15.168  -9.310  1.00  0.00    -0.237 OA
ATOM     73  O   UNL     1       9.091  16.394  -7.275  1.00  0.00    -0.237 OA
ATOM     74  O   UNL     1      11.315  15.340  -7.391  1.00  0.00    -0.744 OA
ENDBRANCH  70  71
ENDBRANCH  38  63
ENDBRANCH  12  13
ENDBRANCH   5   7
ENDBRANCH   2   3
ENDBRANCH   1   2
BRANCH   1  75
ATOM     75  C   UNL     1       4.310  -1.812   2.980  1.00  0.00     0.118 C 
BRANCH  75  76
ATOM     76  N   UNL     1       4.930  -3.090   2.659  1.00  0.00    -0.352 N 
ATOM     77  C   UNL     1       5.996  -3.683   3.279  1.00  0.00     0.251 C 
ATOM     78  H   UNL     1       4.535  -3.586   1.906  1.00  0.00     0.163 HD
ATOM     79  O   UNL     1       6.644  -4.557   2.715  1.00  0.00    -0.269 OA
BRANCH  77  80
ATOM     80  C   UNL     1       6.297  -3.325   4.674  1.00  0.00     0.040 A 
ATOM     81  C   UNL     1       7.609  -3.084   5.079  1.00  0.00     0.014 A 
ATOM     82  C   UNL     1       5.265  -3.410   5.612  1.00  0.00     0.021 A 
ATOM     83  C   UNL     1       7.880  -2.876   6.431  1.00  0.00     0.001 A 
ATOM     84  C   UNL     1       5.538  -3.241   6.968  1.00  0.00    -0.010 A 
ATOM     85  C   UNL     1       6.849  -2.948   7.371  1.00  0.00     0.007 A 
BRANCH  84  86
ATOM     86  C   UNL     1       4.479  -3.580   7.979  1.00  0.00     0.265 C 
BRANCH  86  87
ATOM     87  O   UNL     1       4.868  -4.820   8.582  1.00  0.00    -0.488 OA
BRANCH  87  88
ATOM     88  C   UNL     1       4.151  -5.896   8.123  1.00  0.00     0.127 A 
ATOM     89  C   UNL     1       2.909  -6.136   8.726  1.00  0.00     0.047 A 
ATOM     90  C   UNL     1       4.710  -6.820   7.219  1.00  0.00     0.017 A 
ATOM     91  C   UNL     1       2.218  -7.316   8.459  1.00  0.00     0.004 A 
ATOM     92  C   UNL     1       4.025  -8.031   7.030  1.00  0.00     0.012 A 
ATOM     93  C   UNL     1       2.787  -8.273   7.628  1.00  0.00     0.001 A 
BRANCH  90  94
ATOM     94  C   UNL     1       6.011  -6.611   6.548  1.00  0.00     0.028 C 
ATOM     95  C   UNL     1       6.325  -6.916   5.275  1.00  0.00     0.071 C 
ATOM     96  C   UNL     1       5.477  -7.486   4.186  1.00  0.00     0.197 C 
ATOM     97  C   UNL     1       7.720  -6.798   4.748  1.00  0.00     0.197 C 
ATOM     98  O   UNL     1       4.276  -7.663   4.149  1.00  0.00    -0.288 OA
ATOM     99  C   UNL     1       6.401  -7.837   3.106  1.00  0.00     0.034 A 
ATOM    100  C   UNL     1       7.690  -7.415   3.412  1.00  0.00     0.034 A 
ATOM    101  O   UNL     1       8.707  -6.378   5.320  1.00  0.00    -0.288 OA
ATOM    102  C   UNL     1       6.112  -8.530   1.942  1.00  0.00     0.013 A 
ATOM    103  C   UNL     1       8.743  -7.647   2.544  1.00  0.00     0.013 A 
ATOM    104  C   UNL     1       7.168  -8.791   1.066  1.00  0.00     0.001 A 
ATOM    105  C   UNL     1       8.471  -8.344   1.360  1.00  0.00     0.001 A 
ENDBRANCH  90  94
ENDBRANCH  87  88
ENDBRANCH  86  87
ENDBRANCH  84  86
ENDBRANCH  77  80
ENDBRANCH  75  76
ENDBRANCH   1  75
TORSDOF 17
