REMARK SMILES O=C(NCCCNC(=O)[C@H]1C[C@H]2CCCC[C@@H]2[N@@H+]1Cc1ccno1)c1ccc(-c2c3nc(c(-c4c(F)cc(S(=O)(=O)[O-])cc4F)c4ccc([nH]4)c(-c4c(F)cc(S(=O)(=O)[O-])cc4F)c4nc(c(-c5c(F)cc(S(=O)(=O)[O-])cc5F)c5ccc2[nH]5)C=C4)C=C3)cc1
REMARK SMILES IDX 4 1 3 2 1 3 2 4 25 6 26 7 90 8 27 9 89 10 28 11 29 12 30 13
REMARK SMILES IDX 83 14 31 15 88 16 82 17 84 18 32 19 87 20 81 21 80 22 33 24
REMARK SMILES IDX 67 25 46 26 66 27 47 28 50 29 65 30 85 31 48 32 49 33 64 35
REMARK SMILES IDX 86 36 51 37 34 38 35 39 44 40 36 41 37 42 43 43 45 44 38 45
REMARK SMILES IDX 39 46 40 47 41 48 42 49 68 50 69 51 78 52 70 53 71 54 77 55
REMARK SMILES IDX 79 56 72 57 73 58 74 59 75 60 76 61 52 62 53 63 62 64 54 65
REMARK SMILES IDX 55 66 61 67 63 68 56 69 57 70 58 71 59 72 60 73 5 74 6 75
REMARK SMILES IDX 7 76 8 77 9 79 10 80 11 81 18 82 12 83 17 84 13 86 16 87
REMARK SMILES IDX 14 88 15 89 19 90 20 91 21 92 24 93 22 94 23 95
REMARK H PARENT 3 5 84 23 50 34 7 78 18 85
REMARK Flexibility Score: inf
ROOT
ATOM      1  C   UNL     1      10.772   0.370   6.514  1.00  0.00     0.118 C 
ENDROOT
BRANCH   1   2
ATOM      2  N   UNL     1      10.960  -1.041   6.824  1.00  0.00    -0.352 N 
ATOM      3  O   UNL     1      12.030  -3.014   6.970  1.00  0.00    -0.269 OA
ATOM      4  C   UNL     1      12.108  -1.795   6.834  1.00  0.00     0.251 C 
ATOM      5  H   UNL     1      10.139  -1.528   7.064  1.00  0.00     0.163 HD
BRANCH   4   6
ATOM      6  C   UNL     1      13.428  -1.151   6.661  1.00  0.00     0.039 A 
ATOM      7  C   UNL     1      13.750   0.024   7.344  1.00  0.00     0.014 A 
ATOM      8  C   UNL     1      14.372  -1.754   5.823  1.00  0.00     0.014 A 
ATOM      9  C   UNL     1      14.961   0.663   7.090  1.00  0.00     0.010 A 
ATOM     10  C   UNL     1      15.617  -1.150   5.627  1.00  0.00     0.010 A 
ATOM     11  C   UNL     1      15.912   0.079   6.237  1.00  0.00    -0.014 A 
BRANCH  11  12
ATOM     12  C   UNL     1      17.227   0.741   6.045  1.00  0.00     0.031 A 
ATOM     13  C   UNL     1      17.626   1.303   4.708  1.00  0.00     0.074 A 
ATOM     14  C   UNL     1      18.055   0.856   7.101  1.00  0.00     0.049 A 
ATOM     15  N   UNL     1      18.728   1.923   4.372  1.00  0.00    -0.248 NA
ATOM     16  C   UNL     1      16.668   1.144   3.602  1.00  0.00     0.031 C 
ATOM     17  C   UNL     1      17.779   0.341   8.445  1.00  0.00     0.029 A 
ATOM     18  N   UNL     1      19.284   1.452   7.221  1.00  0.00    -0.354 N 
ATOM     19  C   UNL     1      18.605   2.220   3.020  1.00  0.00     0.074 A 
ATOM     20  C   UNL     1      17.331   1.686   2.588  1.00  0.00     0.031 C 
ATOM     21  C   UNL     1      18.787   0.680   9.262  1.00  0.00     0.029 A 
ATOM     22  C   UNL     1      19.804   1.387   8.492  1.00  0.00     0.049 A 
ATOM     23  H   UNL     1      19.748   1.886   6.469  1.00  0.00     0.167 HD
ATOM     24  C   UNL     1      19.471   2.886   2.217  1.00  0.00     0.037 A 
ATOM     25  C   UNL     1      20.975   1.834   8.982  1.00  0.00     0.037 A 
ATOM     26  C   UNL     1      20.735   3.422   2.657  1.00  0.00     0.049 A 
ATOM     27  C   UNL     1      21.928   2.545   8.066  1.00  0.00     0.074 A 
ATOM     28  C   UNL     1      21.672   4.131   1.924  1.00  0.00     0.029 A 
ATOM     29  N   UNL     1      21.240   3.310   3.945  1.00  0.00    -0.354 N 
ATOM     30  N   UNL     1      21.785   2.833   6.794  1.00  0.00    -0.248 NA
ATOM     31  C   UNL     1      23.202   2.988   8.646  1.00  0.00     0.031 C 
ATOM     32  C   UNL     1      22.759   4.414   2.758  1.00  0.00     0.029 A 
ATOM     33  C   UNL     1      22.482   3.920   4.023  1.00  0.00     0.049 A 
ATOM     34  H   UNL     1      20.783   2.862   4.693  1.00  0.00     0.167 HD
ATOM     35  C   UNL     1      22.945   3.503   6.425  1.00  0.00     0.074 A 
ATOM     36  C   UNL     1      23.771   3.592   7.612  1.00  0.00     0.031 C 
ATOM     37  C   UNL     1      23.293   3.998   5.212  1.00  0.00     0.037 A 
BRANCH  24  38
ATOM     38  C   UNL     1      19.090   3.065   0.773  1.00  0.00     0.058 A 
ATOM     39  C   UNL     1      18.090   3.969   0.382  1.00  0.00     0.135 A 
ATOM     40  C   UNL     1      19.762   2.358  -0.237  1.00  0.00     0.135 A 
ATOM     41  F   UNL     1      17.405   4.661   1.307  1.00  0.00    -0.206 F 
ATOM     42  C   UNL     1      17.754   4.149  -0.956  1.00  0.00     0.059 A 
ATOM     43  C   UNL     1      19.459   2.539  -1.584  1.00  0.00     0.059 A 
ATOM     44  F   UNL     1      20.728   1.481   0.080  1.00  0.00    -0.206 F 
ATOM     45  C   UNL     1      18.442   3.428  -1.933  1.00  0.00     0.060 A 
BRANCH  45  46
ATOM     46  S   UNL     1      17.994   3.673  -3.665  1.00  0.00     0.124 S 
ATOM     47  O   UNL     1      16.723   2.959  -3.739  1.00  0.00    -0.237 OA
ATOM     48  O   UNL     1      17.910   5.126  -3.765  1.00  0.00    -0.237 OA
ATOM     49  O   UNL     1      19.101   3.060  -4.393  1.00  0.00    -0.744 OA
ENDBRANCH  45  46
ENDBRANCH  24  38
BRANCH  25  50
ATOM     50  C   UNL     1      21.301   1.620  10.416  1.00  0.00     0.058 A 
ATOM     51  C   UNL     1      21.311   2.690  11.322  1.00  0.00     0.135 A 
ATOM     52  C   UNL     1      21.573   0.336  10.914  1.00  0.00     0.135 A 
ATOM     53  F   UNL     1      21.061   3.936  10.891  1.00  0.00    -0.206 F 
ATOM     54  C   UNL     1      21.585   2.497  12.671  1.00  0.00     0.059 A 
ATOM     55  C   UNL     1      21.826   0.114  12.263  1.00  0.00     0.059 A 
ATOM     56  F   UNL     1      21.559  -0.722  10.088  1.00  0.00    -0.206 F 
ATOM     57  C   UNL     1      21.838   1.204  13.133  1.00  0.00     0.060 A 
BRANCH  57  58
ATOM     58  S   UNL     1      22.133   0.953  14.897  1.00  0.00     0.124 S 
ATOM     59  O   UNL     1      23.501   1.438  15.036  1.00  0.00    -0.237 OA
ATOM     60  O   UNL     1      21.097   1.782  15.504  1.00  0.00    -0.237 OA
ATOM     61  O   UNL     1      21.951  -0.485  15.065  1.00  0.00    -0.744 OA
ENDBRANCH  57  58
ENDBRANCH  25  50
BRANCH  37  62
ATOM     62  C   UNL     1      24.619   4.698   5.114  1.00  0.00     0.058 A 
ATOM     63  C   UNL     1      25.828   3.986   5.114  1.00  0.00     0.135 A 
ATOM     64  C   UNL     1      24.678   6.095   4.981  1.00  0.00     0.135 A 
ATOM     65  F   UNL     1      25.825   2.650   5.247  1.00  0.00    -0.206 F 
ATOM     66  C   UNL     1      27.053   4.636   5.007  1.00  0.00     0.059 A 
ATOM     67  C   UNL     1      25.890   6.763   4.850  1.00  0.00     0.059 A 
ATOM     68  F   UNL     1      23.549   6.821   4.969  1.00  0.00    -0.206 F 
ATOM     69  C   UNL     1      27.074   6.026   4.876  1.00  0.00     0.060 A 
BRANCH  69  70
ATOM     70  S   UNL     1      28.668   6.857   4.708  1.00  0.00     0.124 S 
ATOM     71  O   UNL     1      29.163   6.822   6.080  1.00  0.00    -0.237 OA
ATOM     72  O   UNL     1      29.370   6.000   3.758  1.00  0.00    -0.237 OA
ATOM     73  O   UNL     1      28.308   8.179   4.202  1.00  0.00    -0.744 OA
ENDBRANCH  69  70
ENDBRANCH  37  62
ENDBRANCH  11  12
ENDBRANCH   4   6
ENDBRANCH   1   2
BRANCH   1  74
ATOM     74  C   UNL     1       9.751   0.607   5.401  1.00  0.00     0.042 C 
BRANCH  74  75
ATOM     75  C   UNL     1       8.341   0.132   5.737  1.00  0.00     0.118 C 
BRANCH  75  76
ATOM     76  N   UNL     1       7.822   0.798   6.911  1.00  0.00    -0.351 N 
ATOM     77  C   UNL     1       6.887   1.769   7.075  1.00  0.00     0.278 C 
ATOM     78  H   UNL     1       8.224   0.488   7.754  1.00  0.00     0.163 HD
ATOM     79  O   UNL     1       6.780   2.189   8.235  1.00  0.00    -0.268 OA
BRANCH  77  80
ATOM     80  C   UNL     1       5.894   2.199   5.966  1.00  0.00     0.275 C 
ATOM     81  C   UNL     1       5.130   3.470   6.426  1.00  0.00     0.085 C 
ATOM     82  N   UNL     1       6.541   2.556   4.662  1.00  0.00    -0.316 N 
ATOM     83  C   UNL     1       5.223   4.425   5.254  1.00  0.00     0.054 C 
ATOM     84  C   UNL     1       6.543   4.027   4.609  1.00  0.00     0.188 C 
ATOM     85  H   UNL     1       7.502   2.220   4.610  1.00  0.00     0.349 HD
ATOM     86  C   UNL     1       5.194   5.915   5.559  1.00  0.00     0.010 C 
ATOM     87  C   UNL     1       6.747   4.767   3.283  1.00  0.00     0.065 C 
ATOM     88  C   UNL     1       5.359   6.692   4.248  1.00  0.00     0.001 C 
ATOM     89  C   UNL     1       6.627   6.285   3.485  1.00  0.00     0.006 C 
BRANCH  82  90
ATOM     90  C   UNL     1       5.959   1.856   3.495  1.00  0.00     0.342 C 
BRANCH  90  91
ATOM     91  C   UNL     1       4.489   1.956   3.266  1.00  0.00     0.190 A 
ATOM     92  C   UNL     1       3.676   2.763   2.503  1.00  0.00     0.075 A 
ATOM     93  O   UNL     1       3.715   1.025   3.896  1.00  0.00    -0.355 OA
ATOM     94  C   UNL     1       2.378   2.295   2.769  1.00  0.00     0.158 A 
ATOM     95  N   UNL     1       2.382   1.249   3.596  1.00  0.00    -0.088 NA
ENDBRANCH  90  91
ENDBRANCH  82  90
ENDBRANCH  77  80
ENDBRANCH  75  76
ENDBRANCH  74  75
ENDBRANCH   1  74
TORSDOF 15
