REMARK SMILES C[C@]1(C(=O)NCc2ccc(C(=O)NCCCNC(=O)c3ccc(-c4c5nc(c(-c6c(F)cc(S(=O)(=O)[O-])cc6F)c6ccc([nH]6)c(-c6c(F)cc(S(=O)(=O)[O-])cc6F)c6nc(c(-c7c(F)cc(S(=O)(=O)[O-])cc7F)c7ccc4[nH]7)C=C6)C=C5)cc3)o2)CCC[NH2+]C1
REMARK SMILES IDX 15 1 14 2 13 3 11 4 12 5 10 7 7 8 8 9 86 10 9 11 6 12 5 13
REMARK SMILES IDX 3 14 4 15 2 17 1 18 87 19 91 20 88 21 90 22 89 23 16 26
REMARK SMILES IDX 17 27 18 28 19 30 20 31 21 32 85 33 22 34 84 35 23 36 24 37
REMARK SMILES IDX 25 38 78 39 26 40 83 41 77 42 79 43 27 44 82 45 76 46 75 47
REMARK SMILES IDX 28 49 62 50 41 51 61 52 42 53 45 54 60 55 80 56 43 57 44 58
REMARK SMILES IDX 59 60 81 61 46 62 29 63 30 64 39 65 31 66 32 67 38 68 40 69
REMARK SMILES IDX 33 70 34 71 35 72 36 73 37 74 63 75 64 76 73 77 65 78 66 79
REMARK SMILES IDX 72 80 74 81 67 82 68 83 69 84 70 85 71 86 47 87 48 88 57 89
REMARK SMILES IDX 49 90 50 91 56 92 58 93 51 94 52 95 53 96 54 97 55 98
REMARK H PARENT 13 6 5 16 90 24 90 25 17 29 79 48 45 59
REMARK Flexibility Score: inf
ROOT
ATOM      1  C   UNL     1       7.721   5.485   2.182  1.00  0.00     0.042 C 
ENDROOT
BRANCH   1   2
ATOM      2  C   UNL     1       7.789   3.989   2.475  1.00  0.00     0.118 C 
BRANCH   2   3
ATOM      3  N   UNL     1       6.638   3.521   3.224  1.00  0.00    -0.349 N 
ATOM      4  C   UNL     1       5.586   2.715   2.844  1.00  0.00     0.286 C 
ATOM      5  O   UNL     1       4.871   2.304   3.761  1.00  0.00    -0.266 OA
ATOM      6  H   UNL     1       6.603   3.830   4.158  1.00  0.00     0.163 HD
BRANCH   4   7
ATOM      7  C   UNL     1       5.369   2.372   1.450  1.00  0.00     0.191 A 
ATOM      8  C   UNL     1       4.512   1.108  -0.162  1.00  0.00     0.124 A 
ATOM      9  C   UNL     1       5.175   2.142  -0.786  1.00  0.00     0.048 A 
ATOM     10  O   UNL     1       4.654   1.225   1.191  1.00  0.00    -0.454 OA
ATOM     11  C   UNL     1       5.688   2.968   0.243  1.00  0.00     0.056 A 
BRANCH   8  12
ATOM     12  C   UNL     1       3.734  -0.051  -0.672  1.00  0.00     0.191 C 
BRANCH  12  13
ATOM     13  N   UNL     1       2.544  -0.262   0.117  1.00  0.00    -0.348 N 
ATOM     14  C   UNL     1       1.258   0.139   0.024  1.00  0.00     0.232 C 
ATOM     15  O   UNL     1       0.519  -0.318   0.910  1.00  0.00    -0.274 OA
ATOM     16  H   UNL     1       2.707  -0.829   0.905  1.00  0.00     0.163 HD
BRANCH  14  17
ATOM     17  C   UNL     1       0.640   0.962  -1.135  1.00  0.00     0.095 C 
ATOM     18  C   UNL     1       0.148  -0.051  -2.184  1.00  0.00     0.028 C 
ATOM     19  C   UNL     1      -0.587   1.728  -0.557  1.00  0.00     0.028 C 
ATOM     20  C   UNL     1       1.509   2.025  -1.829  1.00  0.00     0.277 C 
ATOM     21  C   UNL     1      -0.128   2.848   0.385  1.00  0.00     0.063 C 
ATOM     22  N   UNL     1       1.966   3.080  -0.929  1.00  0.00    -0.345 N 
ATOM     23  C   UNL     1       0.854   3.792  -0.304  1.00  0.00     0.260 C 
ATOM     24  H   UNL     1       2.541   2.661  -0.198  1.00  0.00     0.346 HD
ATOM     25  H   UNL     1       2.498   3.753  -1.481  1.00  0.00     0.346 HD
ENDBRANCH  14  17
ENDBRANCH  12  13
ENDBRANCH   8  12
ENDBRANCH   4   7
ENDBRANCH   2   3
ENDBRANCH   1   2
BRANCH   1  26
ATOM     26  C   UNL     1       8.040   6.366   3.391  1.00  0.00     0.118 C 
BRANCH  26  27
ATOM     27  N   UNL     1       9.431   6.244   3.809  1.00  0.00    -0.352 N 
ATOM     28  C   UNL     1      10.421   7.191   3.907  1.00  0.00     0.251 C 
ATOM     29  H   UNL     1       9.706   5.334   4.064  1.00  0.00     0.163 HD
ATOM     30  O   UNL     1      11.582   6.822   4.074  1.00  0.00    -0.269 OA
BRANCH  28  31
ATOM     31  C   UNL     1      10.115   8.636   3.807  1.00  0.00     0.039 A 
ATOM     32  C   UNL     1      11.010   9.467   3.124  1.00  0.00     0.014 A 
ATOM     33  C   UNL     1       8.992   9.188   4.429  1.00  0.00     0.014 A 
ATOM     34  C   UNL     1      10.749  10.836   3.017  1.00  0.00     0.010 A 
ATOM     35  C   UNL     1       8.699  10.542   4.266  1.00  0.00     0.010 A 
ATOM     36  C   UNL     1       9.575  11.381   3.560  1.00  0.00    -0.014 A 
BRANCH  36  37
ATOM     37  C   UNL     1       9.249  12.824   3.406  1.00  0.00     0.031 A 
ATOM     38  C   UNL     1       9.172  13.716   4.617  1.00  0.00     0.074 A 
ATOM     39  C   UNL     1       8.969  13.318   2.183  1.00  0.00     0.049 A 
ATOM     40  N   UNL     1       8.806  14.970   4.698  1.00  0.00    -0.248 NA
ATOM     41  C   UNL     1       9.534  13.113   5.911  1.00  0.00     0.031 C 
ATOM     42  C   UNL     1       8.979  12.549   0.936  1.00  0.00     0.029 A 
ATOM     43  N   UNL     1       8.609  14.582   1.787  1.00  0.00    -0.354 N 
ATOM     44  C   UNL     1       8.889  15.304   6.045  1.00  0.00     0.074 A 
ATOM     45  C   UNL     1       9.288  14.107   6.753  1.00  0.00     0.031 C 
ATOM     46  C   UNL     1       8.657  13.360  -0.085  1.00  0.00     0.029 A 
ATOM     47  C   UNL     1       8.379  14.695   0.435  1.00  0.00     0.049 A 
ATOM     48  H   UNL     1       8.524  15.338   2.412  1.00  0.00     0.167 HD
ATOM     49  C   UNL     1       8.677  16.505   6.636  1.00  0.00     0.037 A 
ATOM     50  C   UNL     1       7.977  15.750  -0.299  1.00  0.00     0.037 A 
ATOM     51  C   UNL     1       8.302  17.700   5.925  1.00  0.00     0.049 A 
ATOM     52  C   UNL     1       7.729  17.068   0.386  1.00  0.00     0.074 A 
ATOM     53  C   UNL     1       8.083  18.970   6.430  1.00  0.00     0.029 A 
ATOM     54  N   UNL     1       8.102  17.777   4.554  1.00  0.00    -0.354 N 
ATOM     55  N   UNL     1       7.841  17.371   1.658  1.00  0.00    -0.248 NA
ATOM     56  C   UNL     1       7.303  18.190  -0.463  1.00  0.00     0.031 C 
ATOM     57  C   UNL     1       7.724  19.808   5.370  1.00  0.00     0.029 A 
ATOM     58  C   UNL     1       7.759  19.070   4.198  1.00  0.00     0.049 A 
ATOM     59  H   UNL     1       8.191  17.023   3.927  1.00  0.00     0.167 HD
ATOM     60  C   UNL     1       7.535  18.724   1.754  1.00  0.00     0.074 A 
ATOM     61  C   UNL     1       7.243  19.184   0.412  1.00  0.00     0.031 C 
ATOM     62  C   UNL     1       7.498  19.516   2.853  1.00  0.00     0.037 A 
BRANCH  49  63
ATOM     63  C   UNL     1       8.869  16.599   8.124  1.00  0.00     0.058 A 
ATOM     64  C   UNL     1      10.151  16.558   8.697  1.00  0.00     0.135 A 
ATOM     65  C   UNL     1       7.775  16.799   8.982  1.00  0.00     0.135 A 
ATOM     66  F   UNL     1      11.230  16.352   7.925  1.00  0.00    -0.206 F 
ATOM     67  C   UNL     1      10.340  16.697  10.067  1.00  0.00     0.059 A 
ATOM     68  C   UNL     1       7.944  16.966  10.354  1.00  0.00     0.059 A 
ATOM     69  F   UNL     1       6.528  16.846   8.487  1.00  0.00    -0.206 F 
ATOM     70  C   UNL     1       9.230  16.905  10.888  1.00  0.00     0.060 A 
BRANCH  70  71
ATOM     71  S   UNL     1       9.499  17.116  12.661  1.00  0.00     0.124 S 
ATOM     72  O   UNL     1       9.842  15.756  13.066  1.00  0.00    -0.237 OA
ATOM     73  O   UNL     1      10.592  18.082  12.697  1.00  0.00    -0.237 OA
ATOM     74  O   UNL     1       8.214  17.609  13.144  1.00  0.00    -0.744 OA
ENDBRANCH  70  71
ENDBRANCH  49  63
BRANCH  50  75
ATOM     75  C   UNL     1       7.787  15.620  -1.769  1.00  0.00     0.058 A 
ATOM     76  C   UNL     1       8.640  16.278  -2.668  1.00  0.00     0.135 A 
ATOM     77  C   UNL     1       6.730  14.867  -2.304  1.00  0.00     0.135 A 
ATOM     78  F   UNL     1       9.663  17.012  -2.204  1.00  0.00    -0.206 F 
ATOM     79  C   UNL     1       8.431  16.229  -4.042  1.00  0.00     0.059 A 
ATOM     80  C   UNL     1       6.517  14.780  -3.676  1.00  0.00     0.059 A 
ATOM     81  F   UNL     1       5.897  14.200  -1.490  1.00  0.00    -0.206 F 
ATOM     82  C   UNL     1       7.361  15.482  -4.536  1.00  0.00     0.060 A 
BRANCH  82  83
ATOM     83  S   UNL     1       7.094  15.420  -6.322  1.00  0.00     0.124 S 
ATOM     84  O   UNL     1       6.506  16.730  -6.574  1.00  0.00    -0.237 OA
ATOM     85  O   UNL     1       8.447  15.217  -6.830  1.00  0.00    -0.237 OA
ATOM     86  O   UNL     1       6.196  14.281  -6.485  1.00  0.00    -0.744 OA
ENDBRANCH  82  83
ENDBRANCH  50  75
BRANCH  62  87
ATOM     87  C   UNL     1       7.183  20.971   2.648  1.00  0.00     0.058 A 
ATOM     88  C   UNL     1       5.886  21.410   2.344  1.00  0.00     0.135 A 
ATOM     89  C   UNL     1       8.186  21.941   2.805  1.00  0.00     0.135 A 
ATOM     90  F   UNL     1       4.894  20.522   2.176  1.00  0.00    -0.206 F 
ATOM     91  C   UNL     1       5.598  22.761   2.179  1.00  0.00     0.059 A 
ATOM     92  C   UNL     1       7.915  23.299   2.671  1.00  0.00     0.059 A 
ATOM     93  F   UNL     1       9.442  21.573   3.107  1.00  0.00    -0.206 F 
ATOM     94  C   UNL     1       6.620  23.698   2.346  1.00  0.00     0.060 A 
BRANCH  94  95
ATOM     95  S   UNL     1       6.226  25.450   2.163  1.00  0.00     0.124 S 
ATOM     96  O   UNL     1       6.106  25.575   0.714  1.00  0.00    -0.237 OA
ATOM     97  O   UNL     1       4.980  25.572   2.915  1.00  0.00    -0.237 OA
ATOM     98  O   UNL     1       7.377  26.121   2.759  1.00  0.00    -0.744 OA
ENDBRANCH  94  95
ENDBRANCH  62  87
ENDBRANCH  36  37
ENDBRANCH  28  31
ENDBRANCH  26  27
ENDBRANCH   1  26
TORSDOF 16
