REMARK SMILES C[C@@](O)(CNC(=O)CC1([NH3+])CCC1)C(=O)NCCCNC(=O)c1ccc(-c2c3nc(c(-c4c(F)cc(S(=O)(=O)[O-])cc4F)c4ccc([nH]4)c(-c4c(F)cc(S(=O)(=O)[O-])cc4F)c4nc(c(-c5c(F)cc(S(=O)(=O)[O-])cc5F)c5ccc2[nH]5)C=C4)C=C3)cc1
REMARK SMILES IDX 17 1 16 2 14 3 15 4 2 6 1 7 3 8 4 10 5 11 6 12 7 14 8 15
REMARK SMILES IDX 9 16 11 17 13 18 12 19 10 20 18 24 19 25 20 26 21 27 22 29
REMARK SMILES IDX 23 30 24 31 88 32 25 33 87 34 26 35 27 36 28 37 81 38 29 39
REMARK SMILES IDX 86 40 80 41 82 42 30 43 85 44 79 45 78 46 31 48 65 49 44 50
REMARK SMILES IDX 64 51 45 52 48 53 63 54 83 55 46 56 47 57 62 59 84 60 49 61
REMARK SMILES IDX 32 62 33 63 42 64 34 65 35 66 41 67 43 68 36 69 37 70 38 71
REMARK SMILES IDX 39 72 40 73 66 74 67 75 76 76 68 77 69 78 75 79 77 80 70 81
REMARK SMILES IDX 71 82 72 83 73 84 74 85 50 86 51 87 60 88 52 89 53 90 59 91
REMARK SMILES IDX 61 92 54 93 55 94 56 95 57 96 58 97
REMARK H PARENT 16 5 3 9 5 13 10 21 10 22 10 23 20 28 82 47 48 58
REMARK Flexibility Score: inf
ROOT
ATOM      1  C   UNL     1       0.031  -0.577   3.830  1.00  0.00     0.117 C 
ENDROOT
BRANCH   1   2
ATOM      2  N   UNL     1       1.256  -1.049   3.098  1.00  0.00    -0.353 N 
ATOM      3  C   UNL     1       1.495  -0.781   1.764  1.00  0.00     0.253 C 
ATOM      4  O   UNL     1       2.508  -1.310   1.291  1.00  0.00    -0.272 OA
ATOM      5  H   UNL     1       1.922  -1.577   3.595  1.00  0.00     0.163 HD
BRANCH   3   6
ATOM      6  C   UNL     1       0.616   0.269   0.907  1.00  0.00     0.157 C 
ATOM      7  C   UNL     1       1.179   0.239  -0.519  1.00  0.00     0.055 C 
BRANCH   6   8
ATOM      8  O   UNL     1       0.997   1.556   1.478  1.00  0.00    -0.378 OA
ATOM      9  H   UNL     1       0.516   2.266   1.025  1.00  0.00     0.212 HD
ENDBRANCH   6   8
BRANCH   6  10
ATOM     10  C   UNL     1      -0.977   0.349   0.799  1.00  0.00     0.160 C 
BRANCH  10  11
ATOM     11  N   UNL     1      -1.787  -0.786   0.346  1.00  0.00    -0.352 N 
ATOM     12  C   UNL     1      -2.812  -1.462   0.995  1.00  0.00     0.226 C 
ATOM     13  H   UNL     1      -1.571  -1.119  -0.555  1.00  0.00     0.163 HD
ATOM     14  O   UNL     1      -3.608  -2.081   0.283  1.00  0.00    -0.275 OA
BRANCH  12  15
ATOM     15  C   UNL     1      -2.893  -1.544   2.549  1.00  0.00     0.168 C 
BRANCH  15  16
ATOM     16  C   UNL     1      -1.529  -1.608   3.291  1.00  0.00     0.103 C 
ATOM     17  C   UNL     1      -1.534   0.254   4.280  1.00  0.00     0.069 C 
ATOM     18  C   UNL     1      -0.079  -2.287   4.647  1.00  0.00     0.069 C 
ATOM     19  C   UNL     1      -0.046  -0.413   5.649  1.00  0.00     0.013 C 
BRANCH  16  20
ATOM     20  N   UNL     1      -0.723  -2.362   2.260  1.00  0.00    -0.352 N 
ATOM     21  H   UNL     1      -1.163  -2.262   1.345  1.00  0.00     0.344 HD
ATOM     22  H   UNL     1      -0.685  -3.349   2.513  1.00  0.00     0.344 HD
ATOM     23  H   UNL     1       0.224  -1.983   2.225  1.00  0.00     0.344 HD
ENDBRANCH  16  20
ENDBRANCH  15  16
ENDBRANCH  12  15
ENDBRANCH  10  11
ENDBRANCH   6  10
ENDBRANCH   3   6
ENDBRANCH   1   2
BRANCH   1  24
ATOM     24  C   UNL     1      -1.538  -1.368   5.232  1.00  0.00     0.042 C 
BRANCH  24  25
ATOM     25  C   UNL     1      -1.341  -2.377   6.676  1.00  0.00     0.118 C 
BRANCH  25  26
ATOM     26  N   UNL     1      -0.471  -1.968   7.788  1.00  0.00    -0.352 N 
ATOM     27  C   UNL     1      -0.839  -1.880   9.114  1.00  0.00     0.251 C 
ATOM     28  H   UNL     1       0.460  -1.736   7.566  1.00  0.00     0.163 HD
ATOM     29  O   UNL     1      -0.176  -1.272   9.941  1.00  0.00    -0.269 OA
BRANCH  27  30
ATOM     30  C   UNL     1      -2.087  -2.573   9.467  1.00  0.00     0.039 A 
ATOM     31  C   UNL     1      -3.131  -1.887  10.077  1.00  0.00     0.014 A 
ATOM     32  C   UNL     1      -2.264  -3.847   8.921  1.00  0.00     0.014 A 
ATOM     33  C   UNL     1      -4.381  -2.495  10.110  1.00  0.00     0.010 A 
ATOM     34  C   UNL     1      -3.545  -4.314   8.737  1.00  0.00     0.010 A 
ATOM     35  C   UNL     1      -4.600  -3.698   9.412  1.00  0.00    -0.014 A 
BRANCH  35  36
ATOM     36  C   UNL     1      -5.893  -4.409   9.469  1.00  0.00     0.031 A 
ATOM     37  C   UNL     1      -5.913  -5.829   9.976  1.00  0.00     0.074 A 
ATOM     38  C   UNL     1      -7.018  -3.790   9.067  1.00  0.00     0.049 A 
ATOM     39  N   UNL     1      -6.929  -6.637  10.120  1.00  0.00    -0.248 NA
ATOM     40  C   UNL     1      -4.618  -6.446  10.328  1.00  0.00     0.031 C 
ATOM     41  C   UNL     1      -7.092  -2.438   8.505  1.00  0.00     0.029 A 
ATOM     42  N   UNL     1      -8.320  -4.208   9.093  1.00  0.00    -0.354 N 
ATOM     43  C   UNL     1      -6.388  -7.838  10.566  1.00  0.00     0.074 A 
ATOM     44  C   UNL     1      -4.955  -7.703  10.546  1.00  0.00     0.031 C 
ATOM     45  C   UNL     1      -8.379  -2.110   8.318  1.00  0.00     0.029 A 
ATOM     46  C   UNL     1      -9.214  -3.248   8.684  1.00  0.00     0.049 A 
ATOM     47  H   UNL     1      -8.591  -5.111   9.379  1.00  0.00     0.167 HD
ATOM     48  C   UNL     1      -7.028  -8.938  11.015  1.00  0.00     0.037 A 
ATOM     49  C   UNL     1     -10.557  -3.291   8.621  1.00  0.00     0.037 A 
ATOM     50  C   UNL     1      -8.458  -9.046  11.045  1.00  0.00     0.049 A 
ATOM     51  C   UNL     1     -11.251  -4.548   9.070  1.00  0.00     0.074 A 
ATOM     52  C   UNL     1      -9.231 -10.096  11.497  1.00  0.00     0.029 A 
ATOM     53  N   UNL     1      -9.329  -8.065  10.591  1.00  0.00    -0.354 N 
ATOM     54  N   UNL     1     -10.730  -5.651   9.556  1.00  0.00    -0.248 NA
ATOM     55  C   UNL     1     -12.714  -4.566   8.968  1.00  0.00     0.031 C 
ATOM     56  C   UNL     1     -10.568  -9.784  11.241  1.00  0.00     0.029 A 
ATOM     57  C   UNL     1     -10.634  -8.501  10.717  1.00  0.00     0.049 A 
ATOM     58  H   UNL     1      -9.057  -7.189  10.233  1.00  0.00     0.167 HD
ATOM     59  C   UNL     1     -11.805  -6.481   9.852  1.00  0.00     0.074 A 
ATOM     60  C   UNL     1     -13.003  -5.743   9.505  1.00  0.00     0.031 C 
ATOM     61  C   UNL     1     -11.806  -7.737  10.367  1.00  0.00     0.037 A 
BRANCH  48  62
ATOM     62  C   UNL     1      -6.182 -10.089  11.492  1.00  0.00     0.058 A 
ATOM     63  C   UNL     1      -5.339  -9.982  12.614  1.00  0.00     0.135 A 
ATOM     64  C   UNL     1      -6.202 -11.314  10.809  1.00  0.00     0.135 A 
ATOM     65  F   UNL     1      -5.256  -8.826  13.294  1.00  0.00    -0.206 F 
ATOM     66  C   UNL     1      -4.518 -11.030  13.011  1.00  0.00     0.059 A 
ATOM     67  C   UNL     1      -5.423 -12.392  11.217  1.00  0.00     0.059 A 
ATOM     68  F   UNL     1      -6.977 -11.473   9.725  1.00  0.00    -0.206 F 
ATOM     69  C   UNL     1      -4.571 -12.234  12.309  1.00  0.00     0.060 A 
BRANCH  69  70
ATOM     70  S   UNL     1      -3.506 -13.587  12.846  1.00  0.00     0.124 S 
ATOM     71  O   UNL     1      -2.183 -13.069  12.513  1.00  0.00    -0.237 OA
ATOM     72  O   UNL     1      -3.813 -13.672  14.270  1.00  0.00    -0.237 OA
ATOM     73  O   UNL     1      -3.957 -14.717  12.040  1.00  0.00    -0.744 OA
ENDBRANCH  69  70
ENDBRANCH  48  62
BRANCH  49  74
ATOM     74  C   UNL     1     -11.323  -2.106   8.150  1.00  0.00     0.058 A 
ATOM     75  C   UNL     1     -12.172  -1.401   9.018  1.00  0.00     0.135 A 
ATOM     76  C   UNL     1     -11.212  -1.643   6.829  1.00  0.00     0.135 A 
ATOM     77  F   UNL     1     -12.313  -1.801  10.291  1.00  0.00    -0.206 F 
ATOM     78  C   UNL     1     -12.901  -0.298   8.588  1.00  0.00     0.059 A 
ATOM     79  C   UNL     1     -11.903  -0.520   6.386  1.00  0.00     0.059 A 
ATOM     80  F   UNL     1     -10.399  -2.267   5.963  1.00  0.00    -0.206 F 
ATOM     81  C   UNL     1     -12.754   0.139   7.270  1.00  0.00     0.060 A 
BRANCH  81  82
ATOM     82  S   UNL     1     -13.668   1.602   6.741  1.00  0.00     0.124 S 
ATOM     83  O   UNL     1     -15.044   1.123   6.784  1.00  0.00    -0.237 OA
ATOM     84  O   UNL     1     -13.297   2.575   7.764  1.00  0.00    -0.237 OA
ATOM     85  O   UNL     1     -13.134   1.869   5.409  1.00  0.00    -0.744 OA
ENDBRANCH  81  82
ENDBRANCH  49  74
BRANCH  61  86
ATOM     86  C   UNL     1     -13.142  -8.373  10.632  1.00  0.00     0.058 A 
ATOM     87  C   UNL     1     -14.004  -8.756   9.594  1.00  0.00     0.135 A 
ATOM     88  C   UNL     1     -13.534  -8.657  11.951  1.00  0.00     0.135 A 
ATOM     89  F   UNL     1     -13.679  -8.505   8.316  1.00  0.00    -0.206 F 
ATOM     90  C   UNL     1     -15.224  -9.368   9.855  1.00  0.00     0.059 A 
ATOM     91  C   UNL     1     -14.727  -9.310  12.233  1.00  0.00     0.059 A 
ATOM     92  F   UNL     1     -12.740  -8.325  12.982  1.00  0.00    -0.206 F 
ATOM     93  C   UNL     1     -15.572  -9.649  11.178  1.00  0.00     0.060 A 
BRANCH  93  94
ATOM     94  S   UNL     1     -17.138 -10.483  11.496  1.00  0.00     0.124 S 
ATOM     95  O   UNL     1     -18.102  -9.452  11.126  1.00  0.00    -0.237 OA
ATOM     96  O   UNL     1     -17.062 -11.632  10.600  1.00  0.00    -0.237 OA
ATOM     97  O   UNL     1     -17.074 -10.799  12.920  1.00  0.00    -0.744 OA
ENDBRANCH  93  94
ENDBRANCH  61  86
ENDBRANCH  35  36
ENDBRANCH  27  30
ENDBRANCH  25  26
ENDBRANCH  24  25
ENDBRANCH   1  24
TORSDOF 19
