REMARK SMILES COc1cc(Cl)c(C)cc1N1C(=O)C[C@H](Nc2cc(C(=O)NCCCNC(=O)c3ccc(-c4c5nc(c(-c6c(F)cc(S(=O)(=O)[O-])cc6F)c6ccc([nH]6)c(-c6c(F)cc(S(=O)(=O)[O-])cc6F)c6nc(c(-c7c(F)cc(S(=O)(=O)[O-])cc7F)c7ccc4[nH]7)C=C6)C=C5)cc3)ccc2C)C1=O
REMARK SMILES IDX 23 1 22 2 20 3 21 4 19 6 17 7 18 8 97 9 96 10 98 11 95 12
REMARK SMILES IDX 16 13 15 15 11 16 12 17 99 18 13 19 14 20 100 21 10 22 3 23
REMARK SMILES IDX 4 24 5 25 9 26 6 27 7 28 8 29 2 30 1 31 24 32 25 33 26 34
REMARK SMILES IDX 27 35 28 37 29 38 30 39 94 40 31 41 93 42 32 43 33 44 34 45
REMARK SMILES IDX 87 46 35 47 92 48 86 49 88 50 36 51 91 52 85 53 84 54 37 56
REMARK SMILES IDX 71 57 50 58 70 59 51 60 54 61 69 62 89 63 52 64 53 65 68 67
REMARK SMILES IDX 90 68 55 69 38 70 39 71 48 72 40 73 41 74 47 75 49 76 42 77
REMARK SMILES IDX 43 78 44 79 45 80 46 81 72 82 73 83 82 84 74 85 75 86 81 87
REMARK SMILES IDX 83 88 76 89 77 90 78 91 79 92 80 93 56 94 57 95 66 96 58 97
REMARK SMILES IDX 59 98 65 99 67 100 60 101 61 102 62 103 63 104 64 105
REMARK H PARENT 22 5 16 14 26 36 88 55 54 66
REMARK Flexibility Score: inf
ROOT
ATOM      1  C   UNL     1       2.493   3.620  -3.052  1.00  0.00     0.118 C 
ENDROOT
BRANCH   1   2
ATOM      2  N   UNL     1       3.364   4.107  -4.116  1.00  0.00    -0.352 N 
ATOM      3  C   UNL     1       4.647   3.806  -4.500  1.00  0.00     0.251 C 
ATOM      4  O   UNL     1       5.058   4.321  -5.543  1.00  0.00    -0.269 OA
ATOM      5  H   UNL     1       2.942   4.798  -4.677  1.00  0.00     0.163 HD
BRANCH   3   6
ATOM      6  C   UNL     1       5.574   2.897  -3.755  1.00  0.00     0.041 A 
ATOM      7  C   UNL     1       6.312   1.636  -1.784  1.00  0.00     0.038 A 
ATOM      8  C   UNL     1       5.400   2.484  -2.436  1.00  0.00     0.039 A 
ATOM      9  C   UNL     1       7.492   1.265  -2.439  1.00  0.00    -0.028 A 
ATOM     10  C   UNL     1       7.689   1.682  -3.763  1.00  0.00     0.006 A 
ATOM     11  C   UNL     1       8.546   0.418  -1.784  1.00  0.00     0.046 C 
ATOM     12  C   UNL     1       6.740   2.479  -4.412  1.00  0.00     0.014 A 
BRANCH   7  13
ATOM     13  N   UNL     1       6.082   1.279  -0.449  1.00  0.00    -0.373 N 
ATOM     14  H   UNL     1       6.721   1.502   0.266  1.00  0.00     0.161 HD
BRANCH  13  15
ATOM     15  C   UNL     1       4.833   0.553  -0.177  1.00  0.00     0.179 C 
ATOM     16  N   UNL     1       3.406   0.425   1.663  1.00  0.00    -0.245 N 
ATOM     17  C   UNL     1       4.114  -0.744   1.688  1.00  0.00     0.236 C 
ATOM     18  C   UNL     1       3.923   1.320   0.761  1.00  0.00     0.256 C 
ATOM     19  O   UNL     1       3.994  -1.681   2.466  1.00  0.00    -0.274 OA
ATOM     20  C   UNL     1       5.124  -0.730   0.580  1.00  0.00     0.136 C 
ATOM     21  O   UNL     1       3.808   2.539   0.763  1.00  0.00    -0.272 OA
BRANCH  16  22
ATOM     22  C   UNL     1       2.369   0.759   2.555  1.00  0.00     0.094 A 
ATOM     23  C   UNL     1       1.154   1.266   2.073  1.00  0.00     0.144 A 
ATOM     24  C   UNL     1       0.135   1.635   2.951  1.00  0.00     0.069 A 
ATOM     25  C   UNL     1       0.326   1.499   4.327  1.00  0.00     0.047 A 
ATOM     26  C   UNL     1       2.541   0.599   3.935  1.00  0.00     0.035 A 
ATOM     27  Cl  UNL     1      -0.970   1.946   5.378  1.00  0.00    -0.084 Cl
ATOM     28  C   UNL     1       1.539   1.003   4.836  1.00  0.00    -0.030 A 
ATOM     29  C   UNL     1       1.802   0.915   6.314  1.00  0.00     0.046 C 
BRANCH  23  30
ATOM     30  O   UNL     1       0.923   1.411   0.729  1.00  0.00    -0.495 OA
ATOM     31  C   UNL     1       0.484   0.186   0.137  1.00  0.00     0.278 C 
ENDBRANCH  23  30
ENDBRANCH  16  22
ENDBRANCH  13  15
ENDBRANCH   7  13
ENDBRANCH   3   6
ENDBRANCH   1   2
BRANCH   1  32
ATOM     32  C   UNL     1       2.648   4.414  -1.753  1.00  0.00     0.042 C 
BRANCH  32  33
ATOM     33  C   UNL     1       1.761   5.646  -1.687  1.00  0.00     0.118 C 
BRANCH  33  34
ATOM     34  N   UNL     1       0.877   5.663  -0.525  1.00  0.00    -0.352 N 
ATOM     35  C   UNL     1      -0.134   6.572  -0.259  1.00  0.00     0.251 C 
ATOM     36  H   UNL     1       1.013   4.950   0.140  1.00  0.00     0.163 HD
ATOM     37  O   UNL     1      -0.802   6.526   0.754  1.00  0.00    -0.269 OA
BRANCH  35  38
ATOM     38  C   UNL     1      -0.368   7.612  -1.285  1.00  0.00     0.039 A 
ATOM     39  C   UNL     1      -1.546   7.568  -2.036  1.00  0.00     0.014 A 
ATOM     40  C   UNL     1       0.689   8.445  -1.647  1.00  0.00     0.014 A 
ATOM     41  C   UNL     1      -1.604   8.257  -3.249  1.00  0.00     0.010 A 
ATOM     42  C   UNL     1       0.657   9.060  -2.886  1.00  0.00     0.010 A 
ATOM     43  C   UNL     1      -0.474   8.942  -3.708  1.00  0.00    -0.014 A 
BRANCH  43  44
ATOM     44  C   UNL     1      -0.339   9.463  -5.069  1.00  0.00     0.031 A 
ATOM     45  C   UNL     1      -0.318  10.924  -5.338  1.00  0.00     0.074 A 
ATOM     46  C   UNL     1      -0.198   8.628  -6.123  1.00  0.00     0.049 A 
ATOM     47  N   UNL     1      -0.641  11.450  -6.476  1.00  0.00    -0.248 NA
ATOM     48  C   UNL     1       0.039  11.917  -4.331  1.00  0.00     0.031 C 
ATOM     49  C   UNL     1       0.257   8.987  -7.464  1.00  0.00     0.029 A 
ATOM     50  N   UNL     1      -0.622   7.311  -6.251  1.00  0.00    -0.354 N 
ATOM     51  C   UNL     1      -0.311  12.783  -6.438  1.00  0.00     0.074 A 
ATOM     52  C   UNL     1       0.068  13.036  -5.065  1.00  0.00     0.031 C 
ATOM     53  C   UNL     1      -0.118   8.031  -8.325  1.00  0.00     0.029 A 
ATOM     54  C   UNL     1      -0.939   7.080  -7.601  1.00  0.00     0.049 A 
ATOM     55  H   UNL     1      -0.689   6.653  -5.522  1.00  0.00     0.167 HD
ATOM     56  C   UNL     1      -0.286  13.521  -7.585  1.00  0.00     0.037 A 
ATOM     57  C   UNL     1      -2.186   6.670  -7.981  1.00  0.00     0.037 A 
ATOM     58  C   UNL     1      -0.635  12.735  -8.764  1.00  0.00     0.049 A 
ATOM     59  C   UNL     1      -2.936   7.643  -8.867  1.00  0.00     0.074 A 
ATOM     60  C   UNL     1       0.102  12.102  -9.752  1.00  0.00     0.029 A 
ATOM     61  N   UNL     1      -1.935  12.298  -8.921  1.00  0.00    -0.354 N 
ATOM     62  N   UNL     1      -2.459   8.780  -9.290  1.00  0.00    -0.248 NA
ATOM     63  C   UNL     1      -4.334   7.447  -9.264  1.00  0.00     0.031 C 
ATOM     64  C   UNL     1      -0.778  11.288 -10.515  1.00  0.00     0.029 A 
ATOM     65  C   UNL     1      -2.045  11.417  -9.980  1.00  0.00     0.049 A 
ATOM     66  H   UNL     1      -2.688  12.580  -8.352  1.00  0.00     0.167 HD
ATOM     67  C   UNL     1      -3.470   9.499  -9.875  1.00  0.00     0.074 A 
ATOM     68  C   UNL     1      -4.612   8.609  -9.878  1.00  0.00     0.031 C 
ATOM     69  C   UNL     1      -3.329  10.800 -10.250  1.00  0.00     0.037 A 
BRANCH  56  70
ATOM     70  C   UNL     1       0.283  14.917  -7.658  1.00  0.00     0.058 A 
ATOM     71  C   UNL     1       0.984  15.357  -8.800  1.00  0.00     0.135 A 
ATOM     72  C   UNL     1       0.192  15.859  -6.615  1.00  0.00     0.135 A 
ATOM     73  F   UNL     1       1.069  14.606  -9.906  1.00  0.00    -0.206 F 
ATOM     74  C   UNL     1       1.651  16.579  -8.854  1.00  0.00     0.059 A 
ATOM     75  C   UNL     1       0.898  17.066  -6.621  1.00  0.00     0.059 A 
ATOM     76  F   UNL     1      -0.608  15.646  -5.559  1.00  0.00    -0.206 F 
ATOM     77  C   UNL     1       1.642  17.410  -7.742  1.00  0.00     0.060 A 
BRANCH  77  78
ATOM     78  S   UNL     1       2.641  18.909  -7.778  1.00  0.00     0.124 S 
ATOM     79  O   UNL     1       3.931  18.410  -8.245  1.00  0.00    -0.237 OA
ATOM     80  O   UNL     1       1.904  19.743  -8.721  1.00  0.00    -0.237 OA
ATOM     81  O   UNL     1       2.622  19.361  -6.389  1.00  0.00    -0.744 OA
ENDBRANCH  77  78
ENDBRANCH  56  70
BRANCH  57  82
ATOM     82  C   UNL     1      -2.819   5.762  -6.992  1.00  0.00     0.058 A 
ATOM     83  C   UNL     1      -2.251   4.486  -6.823  1.00  0.00     0.135 A 
ATOM     84  C   UNL     1      -3.637   6.259  -5.970  1.00  0.00     0.135 A 
ATOM     85  F   UNL     1      -1.469   3.963  -7.781  1.00  0.00    -0.206 F 
ATOM     86  C   UNL     1      -2.352   3.803  -5.619  1.00  0.00     0.059 A 
ATOM     87  C   UNL     1      -3.758   5.587  -4.755  1.00  0.00     0.059 A 
ATOM     88  F   UNL     1      -4.204   7.469  -6.084  1.00  0.00    -0.206 F 
ATOM     89  C   UNL     1      -3.052   4.396  -4.570  1.00  0.00     0.060 A 
BRANCH  89  90
ATOM     90  S   UNL     1      -2.835   3.692  -2.920  1.00  0.00     0.124 S 
ATOM     91  O   UNL     1      -3.398   2.356  -3.082  1.00  0.00    -0.237 OA
ATOM     92  O   UNL     1      -1.381   3.749  -2.770  1.00  0.00    -0.237 OA
ATOM     93  O   UNL     1      -3.592   4.600  -2.067  1.00  0.00    -0.744 OA
ENDBRANCH  89  90
ENDBRANCH  57  82
BRANCH  69  94
ATOM     94  C   UNL     1      -4.425  11.594 -10.893  1.00  0.00     0.058 A 
ATOM     95  C   UNL     1      -5.098  11.135 -12.036  1.00  0.00     0.135 A 
ATOM     96  C   UNL     1      -4.737  12.898 -10.457  1.00  0.00     0.135 A 
ATOM     97  F   UNL     1      -4.840   9.917 -12.537  1.00  0.00    -0.206 F 
ATOM     98  C   UNL     1      -6.043  11.918 -12.700  1.00  0.00     0.059 A 
ATOM     99  C   UNL     1      -5.645  13.712 -11.127  1.00  0.00     0.059 A 
ATOM    100  F   UNL     1      -4.180  13.408  -9.348  1.00  0.00    -0.206 F 
ATOM    101  C   UNL     1      -6.306  13.208 -12.241  1.00  0.00     0.060 A 
BRANCH 101 102
ATOM    102  S   UNL     1      -7.491  14.244 -13.122  1.00  0.00     0.124 S 
ATOM    103  O   UNL     1      -7.327  13.815 -14.509  1.00  0.00    -0.237 OA
ATOM    104  O   UNL     1      -8.746  13.854 -12.488  1.00  0.00    -0.237 OA
ATOM    105  O   UNL     1      -7.031  15.598 -12.835  1.00  0.00    -0.744 OA
ENDBRANCH 101 102
ENDBRANCH  69  94
ENDBRANCH  43  44
ENDBRANCH  35  38
ENDBRANCH  33  34
ENDBRANCH  32  33
ENDBRANCH   1  32
TORSDOF 17
