REMARK SMILES O=C(NCCCNC(=O)c1[nH]ncc1C[NH+]1CCC([N@H+]2CCC[C@@H](C(=O)N3CCCC3)C2)CC1)c1ccc(-c2c3nc(c(-c4c(F)cc(S(=O)(=O)[O-])cc4F)c4ccc([nH]4)c(-c4c(F)cc(S(=O)(=O)[O-])cc4F)c4nc(c(-c5c(F)cc(S(=O)(=O)[O-])cc5F)c5ccc2[nH]5)C=C4)C=C3)cc1
REMARK SMILES IDX 5 1 4 2 3 3 1 4 2 5 35 7 36 8 100 9 37 10 99 11 38 12 39 13
REMARK SMILES IDX 40 14 93 15 41 16 98 17 92 18 94 19 42 20 97 21 91 22 90 23
REMARK SMILES IDX 43 25 77 26 56 27 76 28 57 29 60 30 75 31 95 32 58 33 59 34
REMARK SMILES IDX 74 36 96 37 61 38 44 39 45 40 54 41 46 42 47 43 53 44 55 45
REMARK SMILES IDX 48 46 49 47 50 48 51 49 52 50 78 51 79 52 88 53 80 54 81 55
REMARK SMILES IDX 87 56 89 57 82 58 83 59 84 60 85 61 86 62 62 63 63 64 72 65
REMARK SMILES IDX 64 66 65 67 71 68 73 69 66 70 67 71 68 72 69 73 70 74 6 75
REMARK SMILES IDX 7 76 8 77 9 79 10 80 11 81 14 82 12 83 13 85 15 86 16 87
REMARK SMILES IDX 17 88 34 89 18 91 33 92 19 93 20 94 21 95 32 96 22 98 24 99
REMARK SMILES IDX 23 100 25 101 26 102 27 103 28 104 31 105 29 106 30 107
REMARK H PARENT 3 6 94 24 60 35 7 78 11 84 16 90 20 97
REMARK Flexibility Score: inf
ROOT
ATOM      1  C   UNL     1       5.278   2.195   0.049  1.00  0.00     0.042 C 
ENDROOT
BRANCH   1   2
ATOM      2  C   UNL     1       4.712   1.146   1.000  1.00  0.00     0.118 C 
BRANCH   2   3
ATOM      3  N   UNL     1       3.281   0.935   0.826  1.00  0.00    -0.352 N 
ATOM      4  O   UNL     1       1.371   0.138  -0.029  1.00  0.00    -0.269 OA
ATOM      5  C   UNL     1       2.582  -0.024   0.138  1.00  0.00     0.251 C 
ATOM      6  H   UNL     1       2.716   1.599   1.283  1.00  0.00     0.163 HD
BRANCH   5   7
ATOM      7  C   UNL     1       3.243  -1.228  -0.416  1.00  0.00     0.039 A 
ATOM      8  C   UNL     1       4.241  -1.903   0.286  1.00  0.00     0.014 A 
ATOM      9  C   UNL     1       2.794  -1.747  -1.638  1.00  0.00     0.014 A 
ATOM     10  C   UNL     1       4.886  -2.994  -0.289  1.00  0.00     0.010 A 
ATOM     11  C   UNL     1       3.379  -2.901  -2.174  1.00  0.00     0.010 A 
ATOM     12  C   UNL     1       4.450  -3.520  -1.517  1.00  0.00    -0.014 A 
BRANCH  12  13
ATOM     13  C   UNL     1       5.089  -4.758  -2.034  1.00  0.00     0.031 A 
ATOM     14  C   UNL     1       5.890  -4.756  -3.307  1.00  0.00     0.074 A 
ATOM     15  C   UNL     1       4.983  -5.889  -1.306  1.00  0.00     0.049 A 
ATOM     16  N   UNL     1       6.570  -5.735  -3.848  1.00  0.00    -0.248 NA
ATOM     17  C   UNL     1       5.927  -3.505  -4.079  1.00  0.00     0.031 C 
ATOM     18  C   UNL     1       4.200  -6.028  -0.074  1.00  0.00     0.029 A 
ATOM     19  N   UNL     1       5.562  -7.121  -1.470  1.00  0.00    -0.354 N 
ATOM     20  C   UNL     1       7.086  -5.233  -5.035  1.00  0.00     0.074 A 
ATOM     21  C   UNL     1       6.640  -3.860  -5.140  1.00  0.00     0.031 C 
ATOM     22  C   UNL     1       4.405  -7.249   0.443  1.00  0.00     0.029 A 
ATOM     23  C   UNL     1       5.297  -7.992  -0.440  1.00  0.00     0.049 A 
ATOM     24  H   UNL     1       6.114  -7.359  -2.249  1.00  0.00     0.167 HD
ATOM     25  C   UNL     1       7.862  -5.860  -5.952  1.00  0.00     0.037 A 
ATOM     26  C   UNL     1       5.727  -9.249  -0.222  1.00  0.00     0.037 A 
ATOM     27  C   UNL     1       8.346  -7.210  -5.825  1.00  0.00     0.049 A 
ATOM     28  C   UNL     1       6.638  -9.896  -1.220  1.00  0.00     0.074 A 
ATOM     29  C   UNL     1       9.185  -7.908  -6.677  1.00  0.00     0.029 A 
ATOM     30  N   UNL     1       8.040  -8.064  -4.777  1.00  0.00    -0.354 N 
ATOM     31  N   UNL     1       7.132  -9.393  -2.325  1.00  0.00    -0.248 NA
ATOM     32  C   UNL     1       7.036 -11.284  -0.952  1.00  0.00     0.031 C 
ATOM     33  C   UNL     1       9.375  -9.192  -6.151  1.00  0.00     0.029 A 
ATOM     34  C   UNL     1       8.664  -9.287  -4.966  1.00  0.00     0.049 A 
ATOM     35  H   UNL     1       7.465  -7.836  -4.012  1.00  0.00     0.167 HD
ATOM     36  C   UNL     1       7.880 -10.411  -2.899  1.00  0.00     0.074 A 
ATOM     37  C   UNL     1       7.804 -11.546  -2.001  1.00  0.00     0.031 C 
ATOM     38  C   UNL     1       8.556 -10.409  -4.073  1.00  0.00     0.037 A 
BRANCH  25  39
ATOM     39  C   UNL     1       8.235  -5.094  -7.187  1.00  0.00     0.058 A 
ATOM     40  C   UNL     1       9.294  -4.175  -7.186  1.00  0.00     0.135 A 
ATOM     41  C   UNL     1       7.561  -5.326  -8.397  1.00  0.00     0.135 A 
ATOM     42  F   UNL     1       9.958  -3.908  -6.050  1.00  0.00    -0.206 F 
ATOM     43  C   UNL     1       9.670  -3.503  -8.346  1.00  0.00     0.059 A 
ATOM     44  C   UNL     1       7.927  -4.674  -9.571  1.00  0.00     0.059 A 
ATOM     45  F   UNL     1       6.538  -6.193  -8.445  1.00  0.00    -0.206 F 
ATOM     46  C   UNL     1       8.978  -3.757  -9.533  1.00  0.00     0.060 A 
BRANCH  46  47
ATOM     47  S   UNL     1       9.481  -2.896 -11.040  1.00  0.00     0.124 S 
ATOM     48  O   UNL     1       8.835  -1.599 -10.861  1.00  0.00    -0.237 OA
ATOM     49  O   UNL     1      10.937  -2.897 -10.935  1.00  0.00    -0.237 OA
ATOM     50  O   UNL     1       8.934  -3.731 -12.104  1.00  0.00    -0.744 OA
ENDBRANCH  46  47
ENDBRANCH  25  39
BRANCH  26  51
ATOM     51  C   UNL     1       5.295  -9.968   1.001  1.00  0.00     0.058 A 
ATOM     52  C   UNL     1       6.163 -10.113   2.093  1.00  0.00     0.135 A 
ATOM     53  C   UNL     1       3.991 -10.473   1.118  1.00  0.00     0.135 A 
ATOM     54  F   UNL     1       7.419  -9.644   2.021  1.00  0.00    -0.206 F 
ATOM     55  C   UNL     1       5.752 -10.732   3.269  1.00  0.00     0.059 A 
ATOM     56  C   UNL     1       3.553 -11.083   2.288  1.00  0.00     0.059 A 
ATOM     57  F   UNL     1       3.123 -10.341   0.102  1.00  0.00    -0.206 F 
ATOM     58  C   UNL     1       4.443 -11.211   3.357  1.00  0.00     0.060 A 
BRANCH  58  59
ATOM     59  S   UNL     1       3.866 -11.934   4.910  1.00  0.00     0.124 S 
ATOM     60  O   UNL     1       4.188 -13.342   4.714  1.00  0.00    -0.237 OA
ATOM     61  O   UNL     1       4.665 -11.230   5.909  1.00  0.00    -0.237 OA
ATOM     62  O   UNL     1       2.445 -11.600   4.913  1.00  0.00    -0.744 OA
ENDBRANCH  58  59
ENDBRANCH  26  51
BRANCH  38  63
ATOM     63  C   UNL     1       9.231 -11.689  -4.461  1.00  0.00     0.058 A 
ATOM     64  C   UNL     1       8.502 -12.734  -5.049  1.00  0.00     0.135 A 
ATOM     65  C   UNL     1      10.607 -11.870  -4.257  1.00  0.00     0.135 A 
ATOM     66  F   UNL     1       7.181 -12.605  -5.255  1.00  0.00    -0.206 F 
ATOM     67  C   UNL     1       9.113 -13.930  -5.408  1.00  0.00     0.059 A 
ATOM     68  C   UNL     1      11.241 -13.054  -4.618  1.00  0.00     0.059 A 
ATOM     69  F   UNL     1      11.343 -10.896  -3.700  1.00  0.00    -0.206 F 
ATOM     70  C   UNL     1      10.482 -14.083  -5.180  1.00  0.00     0.060 A 
BRANCH  70  71
ATOM     71  S   UNL     1      11.281 -15.631  -5.655  1.00  0.00     0.124 S 
ATOM     72  O   UNL     1      11.030 -16.461  -4.482  1.00  0.00    -0.237 OA
ATOM     73  O   UNL     1      10.557 -16.010  -6.865  1.00  0.00    -0.237 OA
ATOM     74  O   UNL     1      12.671 -15.237  -5.864  1.00  0.00    -0.744 OA
ENDBRANCH  70  71
ENDBRANCH  38  63
ENDBRANCH  12  13
ENDBRANCH   5   7
ENDBRANCH   2   3
ENDBRANCH   1   2
BRANCH   1  75
ATOM     75  C   UNL     1       4.699   3.591   0.234  1.00  0.00     0.118 C 
BRANCH  75  76
ATOM     76  N   UNL     1       4.922   4.127   1.579  1.00  0.00    -0.351 N 
ATOM     77  C   UNL     1       5.654   5.185   1.975  1.00  0.00     0.269 C 
ATOM     78  H   UNL     1       4.468   3.640   2.304  1.00  0.00     0.163 HD
ATOM     79  O   UNL     1       5.907   5.285   3.209  1.00  0.00    -0.268 OA
BRANCH  77  80
ATOM     80  C   UNL     1       6.170   6.138   1.053  1.00  0.00     0.131 A 
ATOM     81  N   UNL     1       7.447   6.618   1.145  1.00  0.00    -0.272 N 
ATOM     82  C   UNL     1       5.590   6.857  -0.004  1.00  0.00     0.057 A 
ATOM     83  N   UNL     1       7.790   7.484   0.184  1.00  0.00    -0.183 NA
ATOM     84  H   UNL     1       8.066   6.347   1.862  1.00  0.00     0.190 HD
ATOM     85  C   UNL     1       6.663   7.627  -0.513  1.00  0.00     0.145 A 
BRANCH  82  86
ATOM     86  C   UNL     1       4.188   6.839  -0.505  1.00  0.00     0.303 C 
BRANCH  86  87
ATOM     87  N   UNL     1       3.356   7.939  -0.013  1.00  0.00    -0.331 N 
ATOM     88  C   UNL     1       3.241   7.997   1.442  1.00  0.00     0.268 C 
ATOM     89  C   UNL     1       3.667   9.242  -0.596  1.00  0.00     0.268 C 
ATOM     90  H   UNL     1       2.426   7.700  -0.358  1.00  0.00     0.348 HD
ATOM     91  C   UNL     1       2.110   8.944   1.847  1.00  0.00     0.126 C 
ATOM     92  C   UNL     1       2.534  10.222  -0.288  1.00  0.00     0.126 C 
ATOM     93  C   UNL     1       2.301  10.347   1.231  1.00  0.00     0.195 C 
BRANCH  93  94
ATOM     94  N   UNL     1       1.251  11.347   1.572  1.00  0.00    -0.331 N 
ATOM     95  C   UNL     1      -0.053  11.099   0.933  1.00  0.00     0.262 C 
ATOM     96  C   UNL     1       1.079  11.471   3.036  1.00  0.00     0.275 C 
ATOM     97  H   UNL     1       1.597  12.227   1.190  1.00  0.00     0.348 HD
ATOM     98  C   UNL     1      -1.048  12.220   1.249  1.00  0.00     0.062 C 
ATOM     99  C   UNL     1       0.170  12.633   3.413  1.00  0.00     0.134 C 
ATOM    100  C   UNL     1      -1.201  12.445   2.748  1.00  0.00     0.025 C 
BRANCH  99 101
ATOM    101  C   UNL     1      -0.067  12.917   4.901  1.00  0.00     0.231 C 
ATOM    102  O   UNL     1      -0.234  14.091   5.255  1.00  0.00    -0.274 OA
ATOM    103  N   UNL     1      -0.382  11.891   5.763  1.00  0.00    -0.342 N 
ATOM    104  C   UNL     1       0.356  10.677   6.059  1.00  0.00     0.119 C 
ATOM    105  C   UNL     1      -1.369  12.114   6.806  1.00  0.00     0.119 C 
ATOM    106  C   UNL     1      -0.705   9.789   6.681  1.00  0.00     0.023 C 
ATOM    107  C   UNL     1      -1.522  10.770   7.520  1.00  0.00     0.023 C 
ENDBRANCH  99 101
ENDBRANCH  93  94
ENDBRANCH  86  87
ENDBRANCH  82  86
ENDBRANCH  77  80
ENDBRANCH  75  76
ENDBRANCH   1  75
TORSDOF 17
