REMARK SMILES COc1cc(/C=C2/N=C(c3ccccc3)OC2=O)ccc1OCC(=O)NCCCNC(=O)c1ccc(-c2c3nc(c(-c4c(F)cc(S(=O)(=O)[O-])cc4F)c4ccc([nH]4)c(-c4c(F)cc(S(=O)(=O)[O-])cc4F)c4nc(c(-c5c(F)cc(S(=O)(=O)[O-])cc5F)c5ccc2[nH]5)C=C4)C=C3)cc1
REMARK SMILES IDX 27 1 26 2 24 3 25 4 23 6 22 7 21 8 3 9 4 10 5 11 20 12 19 13
REMARK SMILES IDX 2 14 1 15 6 16 7 17 8 18 17 19 9 20 16 21 18 22 10 23 11 24
REMARK SMILES IDX 15 25 12 26 14 27 13 28 28 29 29 30 30 31 31 32 32 34 33 35
REMARK SMILES IDX 34 36 98 37 35 38 97 39 36 40 37 41 38 42 91 43 39 44 96 45
REMARK SMILES IDX 90 46 92 47 40 48 95 49 89 50 88 51 41 53 75 54 54 55 74 56
REMARK SMILES IDX 55 57 58 58 73 59 93 60 56 61 57 62 72 64 94 65 59 66 42 67
REMARK SMILES IDX 43 68 52 69 44 70 45 71 51 72 53 73 46 74 47 75 48 76 49 77
REMARK SMILES IDX 50 78 76 79 77 80 86 81 78 82 79 83 85 84 87 85 80 86 81 87
REMARK SMILES IDX 82 88 83 89 84 90 60 91 61 92 70 93 62 94 63 95 69 96 71 97
REMARK SMILES IDX 64 98 65 99 66 100 67 101 68 102
REMARK H PARENT 26 5 30 33 92 52 58 63
REMARK Flexibility Score: inf
ROOT
ATOM      1  C   UNL     1       3.760   2.462   0.891  1.00  0.00     0.117 C 
ENDROOT
BRANCH   1   2
ATOM      2  N   UNL     1       2.667   1.620   1.346  1.00  0.00    -0.353 N 
ATOM      3  C   UNL     1       2.346   0.348   0.965  1.00  0.00     0.257 C 
ATOM      4  O   UNL     1       1.523  -0.265   1.652  1.00  0.00    -0.271 OA
ATOM      5  H   UNL     1       2.077   2.022   2.024  1.00  0.00     0.163 HD
BRANCH   3   6
ATOM      6  C   UNL     1       3.048  -0.307  -0.228  1.00  0.00     0.329 C 
BRANCH   6   7
ATOM      7  O   UNL     1       3.272   0.515  -1.353  1.00  0.00    -0.480 OA
BRANCH   7   8
ATOM      8  C   UNL     1       2.302   0.745  -2.284  1.00  0.00     0.161 A 
ATOM      9  C   UNL     1       1.004   0.232  -2.371  1.00  0.00     0.161 A 
ATOM     10  C   UNL     1       0.192   0.553  -3.475  1.00  0.00     0.058 A 
ATOM     11  C   UNL     1       0.654   1.417  -4.475  1.00  0.00    -0.019 A 
ATOM     12  C   UNL     1       2.739   1.631  -3.279  1.00  0.00     0.051 A 
ATOM     13  C   UNL     1       1.925   1.976  -4.358  1.00  0.00     0.012 A 
BRANCH   9  14
ATOM     14  O   UNL     1       0.534  -0.688  -1.472  1.00  0.00    -0.493 OA
ATOM     15  C   UNL     1      -0.506  -0.147  -0.655  1.00  0.00     0.278 C 
ENDBRANCH   9  14
BRANCH  11  16
ATOM     16  C   UNL     1      -0.148   1.690  -5.669  1.00  0.00     0.044 C 
ATOM     17  C   UNL     1       0.055   1.122  -6.866  1.00  0.00     0.153 C 
ATOM     18  N   UNL     1      -0.706   1.393  -7.979  1.00  0.00    -0.205 NA
ATOM     19  C   UNL     1       1.079   0.077  -7.189  1.00  0.00     0.363 C 
ATOM     20  C   UNL     1      -0.233   0.563  -8.850  1.00  0.00     0.231 C 
ATOM     21  O   UNL     1       0.793  -0.236  -8.484  1.00  0.00    -0.402 OA
ATOM     22  O   UNL     1       1.944  -0.427  -6.507  1.00  0.00    -0.244 OA
BRANCH  20  23
ATOM     23  C   UNL     1      -0.665   0.371 -10.233  1.00  0.00     0.037 A 
ATOM     24  C   UNL     1      -0.923   1.481 -11.039  1.00  0.00     0.014 A 
ATOM     25  C   UNL     1      -0.840  -0.926 -10.731  1.00  0.00     0.014 A 
ATOM     26  C   UNL     1      -1.348   1.290 -12.355  1.00  0.00     0.001 A 
ATOM     27  C   UNL     1      -1.282  -1.110 -12.040  1.00  0.00     0.001 A 
ATOM     28  C   UNL     1      -1.532  -0.003 -12.852  1.00  0.00     0.000 A 
ENDBRANCH  20  23
ENDBRANCH  11  16
ENDBRANCH   7   8
ENDBRANCH   6   7
ENDBRANCH   3   6
ENDBRANCH   1   2
BRANCH   1  29
ATOM     29  C   UNL     1       3.307   3.676   0.086  1.00  0.00     0.042 C 
BRANCH  29  30
ATOM     30  C   UNL     1       2.281   4.569   0.779  1.00  0.00     0.118 C 
BRANCH  30  31
ATOM     31  N   UNL     1       2.715   5.042   2.087  1.00  0.00    -0.352 N 
ATOM     32  C   UNL     1       3.092   6.290   2.521  1.00  0.00     0.251 C 
ATOM     33  H   UNL     1       2.743   4.345   2.782  1.00  0.00     0.163 HD
ATOM     34  O   UNL     1       3.583   6.410   3.641  1.00  0.00    -0.269 OA
BRANCH  32  35
ATOM     35  C   UNL     1       2.943   7.477   1.651  1.00  0.00     0.039 A 
ATOM     36  C   UNL     1       3.987   8.405   1.597  1.00  0.00     0.014 A 
ATOM     37  C   UNL     1       1.779   7.697   0.912  1.00  0.00     0.014 A 
ATOM     38  C   UNL     1       3.901   9.501   0.734  1.00  0.00     0.010 A 
ATOM     39  C   UNL     1       1.727   8.744  -0.006  1.00  0.00     0.010 A 
ATOM     40  C   UNL     1       2.792   9.652  -0.113  1.00  0.00    -0.014 A 
BRANCH  40  41
ATOM     41  C   UNL     1       2.744  10.726  -1.140  1.00  0.00     0.031 A 
ATOM     42  C   UNL     1       1.677  11.785  -1.090  1.00  0.00     0.074 A 
ATOM     43  C   UNL     1       3.623  10.703  -2.163  1.00  0.00     0.049 A 
ATOM     44  N   UNL     1       1.429  12.749  -1.940  1.00  0.00    -0.248 NA
ATOM     45  C   UNL     1       0.752  11.742   0.053  1.00  0.00     0.031 C 
ATOM     46  C   UNL     1       4.680   9.706  -2.346  1.00  0.00     0.029 A 
ATOM     47  N   UNL     1       3.761  11.533  -3.248  1.00  0.00    -0.354 N 
ATOM     48  C   UNL     1       0.318  13.420  -1.441  1.00  0.00     0.074 A 
ATOM     49  C   UNL     1      -0.093  12.718  -0.244  1.00  0.00     0.031 C 
ATOM     50  C   UNL     1       5.372   9.995  -3.459  1.00  0.00     0.029 A 
ATOM     51  C   UNL     1       4.780  11.166  -4.098  1.00  0.00     0.049 A 
ATOM     52  H   UNL     1       3.186  12.316  -3.405  1.00  0.00     0.167 HD
ATOM     53  C   UNL     1      -0.289  14.532  -1.923  1.00  0.00     0.037 A 
ATOM     54  C   UNL     1       5.184  11.702  -5.266  1.00  0.00     0.037 A 
ATOM     55  C   UNL     1       0.132  15.229  -3.112  1.00  0.00     0.049 A 
ATOM     56  C   UNL     1       4.469  12.912  -5.804  1.00  0.00     0.074 A 
ATOM     57  C   UNL     1      -0.385  16.391  -3.656  1.00  0.00     0.029 A 
ATOM     58  N   UNL     1       1.164  14.823  -3.948  1.00  0.00    -0.354 N 
ATOM     59  N   UNL     1       3.461  13.572  -5.284  1.00  0.00    -0.248 NA
ATOM     60  C   UNL     1       4.943  13.450  -7.086  1.00  0.00     0.031 C 
ATOM     61  C   UNL     1       0.294  16.657  -4.850  1.00  0.00     0.029 A 
ATOM     62  C   UNL     1       1.276  15.694  -5.021  1.00  0.00     0.049 A 
ATOM     63  H   UNL     1       1.732  14.033  -3.800  1.00  0.00     0.167 HD
ATOM     64  C   UNL     1       3.197  14.617  -6.163  1.00  0.00     0.074 A 
ATOM     65  C   UNL     1       4.162  14.510  -7.238  1.00  0.00     0.031 C 
ATOM     66  C   UNL     1       2.240  15.575  -6.088  1.00  0.00     0.037 A 
BRANCH  53  67
ATOM     67  C   UNL     1      -1.478  15.061  -1.165  1.00  0.00     0.058 A 
ATOM     68  C   UNL     1      -1.347  15.630   0.112  1.00  0.00     0.135 A 
ATOM     69  C   UNL     1      -2.763  15.024  -1.733  1.00  0.00     0.135 A 
ATOM     70  F   UNL     1      -0.145  15.682   0.710  1.00  0.00    -0.206 F 
ATOM     71  C   UNL     1      -2.448  16.107   0.815  1.00  0.00     0.059 A 
ATOM     72  C   UNL     1      -3.875  15.525  -1.061  1.00  0.00     0.059 A 
ATOM     73  F   UNL     1      -2.949  14.495  -2.952  1.00  0.00    -0.206 F 
ATOM     74  C   UNL     1      -3.710  16.048   0.221  1.00  0.00     0.060 A 
BRANCH  74  75
ATOM     75  S   UNL     1      -5.129  16.663   1.151  1.00  0.00     0.124 S 
ATOM     76  O   UNL     1      -5.269  15.636   2.179  1.00  0.00    -0.237 OA
ATOM     77  O   UNL     1      -4.657  17.963   1.616  1.00  0.00    -0.237 OA
ATOM     78  O   UNL     1      -6.197  16.704   0.158  1.00  0.00    -0.744 OA
ENDBRANCH  74  75
ENDBRANCH  53  67
BRANCH  54  79
ATOM     79  C   UNL     1       6.332  11.104  -6.001  1.00  0.00     0.058 A 
ATOM     80  C   UNL     1       7.552  11.787  -6.109  1.00  0.00     0.135 A 
ATOM     81  C   UNL     1       6.240   9.834  -6.594  1.00  0.00     0.135 A 
ATOM     82  F   UNL     1       7.687  13.007  -5.568  1.00  0.00    -0.206 F 
ATOM     83  C   UNL     1       8.636  11.241  -6.789  1.00  0.00     0.059 A 
ATOM     84  C   UNL     1       7.319   9.255  -7.254  1.00  0.00     0.059 A 
ATOM     85  F   UNL     1       5.100   9.132  -6.507  1.00  0.00    -0.206 F 
ATOM     86  C   UNL     1       8.511   9.971  -7.353  1.00  0.00     0.060 A 
BRANCH  86  87
ATOM     87  S   UNL     1       9.943   9.251  -8.186  1.00  0.00     0.124 S 
ATOM     88  O   UNL     1      10.024  10.068  -9.391  1.00  0.00    -0.237 OA
ATOM     89  O   UNL     1      11.002   9.456  -7.203  1.00  0.00    -0.237 OA
ATOM     90  O   UNL     1       9.548   7.860  -8.391  1.00  0.00    -0.744 OA
ENDBRANCH  86  87
ENDBRANCH  54  79
BRANCH  66  91
ATOM     91  C   UNL     1       2.198  16.602  -7.188  1.00  0.00     0.058 A 
ATOM     92  C   UNL     1       1.764  16.277  -8.483  1.00  0.00     0.135 A 
ATOM     93  C   UNL     1       2.543  17.939  -6.930  1.00  0.00     0.135 A 
ATOM     94  F   UNL     1       1.431  15.013  -8.788  1.00  0.00    -0.206 F 
ATOM     95  C   UNL     1       1.693  17.237  -9.488  1.00  0.00     0.059 A 
ATOM     96  C   UNL     1       2.449  18.921  -7.911  1.00  0.00     0.059 A 
ATOM     97  F   UNL     1       2.957  18.307  -5.707  1.00  0.00    -0.206 F 
ATOM     98  C   UNL     1       2.032  18.558  -9.191  1.00  0.00     0.060 A 
BRANCH  98  99
ATOM     99  S   UNL     1       1.892  19.799 -10.494  1.00  0.00     0.124 S 
ATOM    100  O   UNL     1       3.007  19.441 -11.363  1.00  0.00    -0.237 OA
ATOM    101  O   UNL     1       0.560  19.537 -11.031  1.00  0.00    -0.237 OA
ATOM    102  O   UNL     1       2.035  21.063  -9.777  1.00  0.00    -0.744 OA
ENDBRANCH  98  99
ENDBRANCH  66  91
ENDBRANCH  40  41
ENDBRANCH  32  35
ENDBRANCH  30  31
ENDBRANCH  29  30
ENDBRANCH   1  29
TORSDOF 18
