REMARK SMILES O=C(C/C(=C/c1ccc(N2CCOCC2)c(F)c1)c1nc2ccccc2s1)NCCCNC(=O)c1ccc(-c2c3nc(c(-c4c(F)cc(S(=O)(=O)[O-])cc4F)c4ccc([nH]4)c(-c4c(F)cc(S(=O)(=O)[O-])cc4F)c4nc(c(-c5c(F)cc(S(=O)(=O)[O-])cc5F)c5ccc2[nH]5)C=C4)C=C3)cc1
REMARK SMILES IDX 30 1 29 2 28 3 1 4 2 5 3 7 4 8 5 9 19 10 20 11 27 12 21 13
REMARK SMILES IDX 26 14 22 15 25 16 23 17 24 18 6 19 7 20 18 21 8 22 16 23
REMARK SMILES IDX 9 24 17 25 10 26 11 27 15 28 12 29 14 30 13 31 31 32 32 33
REMARK SMILES IDX 33 34 34 36 35 37 36 38 100 39 37 40 99 41 38 42 39 43 40 44
REMARK SMILES IDX 93 45 41 46 98 47 92 48 94 49 42 50 97 51 91 52 90 53 43 55
REMARK SMILES IDX 77 56 56 57 76 58 57 59 60 60 75 61 95 62 58 63 59 64 74 66
REMARK SMILES IDX 96 67 61 68 44 69 45 70 54 71 46 72 47 73 53 74 55 75 48 76
REMARK SMILES IDX 49 77 50 78 51 79 52 80 78 81 79 82 88 83 80 84 81 85 87 86
REMARK SMILES IDX 89 87 82 88 83 89 84 90 85 91 86 92 62 93 63 94 72 95 64 96
REMARK SMILES IDX 65 97 71 98 73 99 66 100 67 101 68 102 69 103 70 104
REMARK H PARENT 28 6 32 35 94 54 60 65
REMARK Flexibility Score: inf
ROOT
ATOM      1  C   UNL     1       2.352   0.636  -3.302  1.00  0.00     0.042 C 
ENDROOT
BRANCH   1   2
ATOM      2  C   UNL     1       2.092  -0.467  -2.288  1.00  0.00     0.117 C 
BRANCH   2   3
ATOM      3  N   UNL     1       2.789  -0.253  -1.035  1.00  0.00    -0.356 N 
ATOM      4  O   UNL     1       0.949   0.462   0.137  1.00  0.00    -0.275 OA
ATOM      5  C   UNL     1       2.131   0.130   0.114  1.00  0.00     0.224 C 
ATOM      6  H   UNL     1       3.765  -0.385  -1.004  1.00  0.00     0.163 HD
BRANCH   5   7
ATOM      7  C   UNL     1       2.987   0.134   1.373  1.00  0.00     0.138 C 
BRANCH   7   8
ATOM      8  C   UNL     1       3.748  -1.169   1.593  1.00  0.00    -0.002 C 
ATOM      9  C   UNL     1       5.103  -1.110   1.595  1.00  0.00     0.015 C 
BRANCH   8  10
ATOM     10  C   UNL     1       3.103  -2.434   1.864  1.00  0.00     0.121 A 
ATOM     11  N   UNL     1       3.379  -3.251   2.864  1.00  0.00    -0.236 NA
ATOM     12  S   UNL     1       1.888  -3.041   0.790  1.00  0.00    -0.114 S 
ATOM     13  C   UNL     1       2.688  -4.444   2.739  1.00  0.00     0.082 A 
ATOM     14  C   UNL     1       1.814  -4.515   1.658  1.00  0.00     0.055 A 
ATOM     15  C   UNL     1       2.806  -5.564   3.586  1.00  0.00     0.030 A 
ATOM     16  C   UNL     1       1.040  -5.657   1.395  1.00  0.00     0.021 A 
ATOM     17  C   UNL     1       2.050  -6.713   3.329  1.00  0.00     0.002 A 
ATOM     18  C   UNL     1       1.176  -6.756   2.247  1.00  0.00     0.002 A 
ENDBRANCH   8  10
BRANCH   9  19
ATOM     19  C   UNL     1       6.040  -2.214   1.853  1.00  0.00    -0.022 A 
ATOM     20  C   UNL     1       6.114  -3.339   1.026  1.00  0.00     0.010 A 
ATOM     21  C   UNL     1       6.862  -2.146   2.976  1.00  0.00     0.049 A 
ATOM     22  C   UNL     1       6.956  -4.410   1.359  1.00  0.00     0.029 A 
ATOM     23  C   UNL     1       7.685  -3.222   3.301  1.00  0.00     0.147 A 
ATOM     24  C   UNL     1       7.740  -4.392   2.521  1.00  0.00     0.073 A 
ATOM     25  F   UNL     1       8.460  -3.106   4.393  1.00  0.00    -0.205 F 
BRANCH  24  26
ATOM     26  N   UNL     1       8.503  -5.483   2.878  1.00  0.00    -0.365 N 
ATOM     27  C   UNL     1       8.571  -5.955   4.265  1.00  0.00     0.145 C 
ATOM     28  C   UNL     1       9.335  -6.219   1.925  1.00  0.00     0.145 C 
ATOM     29  C   UNL     1      10.036  -6.048   4.708  1.00  0.00     0.181 C 
ATOM     30  C   UNL     1      10.770  -6.317   2.479  1.00  0.00     0.181 C 
ATOM     31  O   UNL     1      10.800  -6.873   3.807  1.00  0.00    -0.378 OA
ENDBRANCH  24  26
ENDBRANCH   9  19
ENDBRANCH   7   8
ENDBRANCH   5   7
ENDBRANCH   2   3
ENDBRANCH   1   2
BRANCH   1  32
ATOM     32  C   UNL     1       3.815   0.786  -3.705  1.00  0.00     0.118 C 
BRANCH  32  33
ATOM     33  N   UNL     1       4.352  -0.384  -4.389  1.00  0.00    -0.352 N 
ATOM     34  C   UNL     1       5.061  -0.456  -5.565  1.00  0.00     0.251 C 
ATOM     35  H   UNL     1       4.183  -1.246  -3.945  1.00  0.00     0.163 HD
ATOM     36  O   UNL     1       5.334  -1.553  -6.047  1.00  0.00    -0.269 OA
BRANCH  34  37
ATOM     37  C   UNL     1       5.464   0.784  -6.263  1.00  0.00     0.039 A 
ATOM     38  C   UNL     1       5.222   0.898  -7.635  1.00  0.00     0.014 A 
ATOM     39  C   UNL     1       6.056   1.839  -5.564  1.00  0.00     0.014 A 
ATOM     40  C   UNL     1       5.494   2.103  -8.289  1.00  0.00     0.010 A 
ATOM     41  C   UNL     1       6.265   3.058  -6.202  1.00  0.00     0.010 A 
ATOM     42  C   UNL     1       5.975   3.207  -7.568  1.00  0.00    -0.014 A 
BRANCH  42  43
ATOM     43  C   UNL     1       6.170   4.536  -8.202  1.00  0.00     0.031 A 
ATOM     44  C   UNL     1       7.546   5.137  -8.271  1.00  0.00     0.074 A 
ATOM     45  C   UNL     1       5.103   5.241  -8.626  1.00  0.00     0.049 A 
ATOM     46  N   UNL     1       7.902   6.347  -8.617  1.00  0.00    -0.248 NA
ATOM     47  C   UNL     1       8.667   4.270  -7.873  1.00  0.00     0.031 C 
ATOM     48  C   UNL     1       3.714   4.777  -8.597  1.00  0.00     0.029 A 
ATOM     49  N   UNL     1       5.016   6.509  -9.148  1.00  0.00    -0.354 N 
ATOM     50  C   UNL     1       9.281   6.395  -8.457  1.00  0.00     0.074 A 
ATOM     51  C   UNL     1       9.694   5.105  -7.950  1.00  0.00     0.031 C 
ATOM     52  C   UNL     1       2.917   5.738  -9.091  1.00  0.00     0.029 A 
ATOM     53  C   UNL     1       3.728   6.905  -9.426  1.00  0.00     0.049 A 
ATOM     54  H   UNL     1       5.801   7.080  -9.307  1.00  0.00     0.167 HD
ATOM     55  C   UNL     1      10.126   7.418  -8.726  1.00  0.00     0.037 A 
ATOM     56  C   UNL     1       3.250   8.082  -9.879  1.00  0.00     0.037 A 
ATOM     57  C   UNL     1       9.713   8.687  -9.265  1.00  0.00     0.049 A 
ATOM     58  C   UNL     1       4.206   9.210 -10.153  1.00  0.00     0.074 A 
ATOM     59  C   UNL     1      10.503   9.770  -9.609  1.00  0.00     0.029 A 
ATOM     60  N   UNL     1       8.402   9.041  -9.545  1.00  0.00    -0.354 N 
ATOM     61  N   UNL     1       5.509   9.234 -10.011  1.00  0.00    -0.248 NA
ATOM     62  C   UNL     1       3.631  10.472 -10.640  1.00  0.00     0.031 C 
ATOM     63  C   UNL     1       9.666  10.791 -10.069  1.00  0.00     0.029 A 
ATOM     64  C   UNL     1       8.360  10.330 -10.048  1.00  0.00     0.049 A 
ATOM     65  H   UNL     1       7.619   8.461  -9.408  1.00  0.00     0.167 HD
ATOM     66  C   UNL     1       5.912  10.502 -10.413  1.00  0.00     0.074 A 
ATOM     67  C   UNL     1       4.716  11.217 -10.806  1.00  0.00     0.031 C 
ATOM     68  C   UNL     1       7.162  11.024 -10.453  1.00  0.00     0.037 A 
BRANCH  55  69
ATOM     69  C   UNL     1      11.588   7.208  -8.453  1.00  0.00     0.058 A 
ATOM     70  C   UNL     1      12.223   7.881  -7.397  1.00  0.00     0.135 A 
ATOM     71  C   UNL     1      12.375   6.382  -9.272  1.00  0.00     0.135 A 
ATOM     72  F   UNL     1      11.515   8.678  -6.580  1.00  0.00    -0.206 F 
ATOM     73  C   UNL     1      13.588   7.751  -7.169  1.00  0.00     0.059 A 
ATOM     74  C   UNL     1      13.738   6.218  -9.047  1.00  0.00     0.059 A 
ATOM     75  F   UNL     1      11.812   5.699 -10.281  1.00  0.00    -0.206 F 
ATOM     76  C   UNL     1      14.338   6.918  -8.000  1.00  0.00     0.060 A 
BRANCH  76  77
ATOM     77  S   UNL     1      16.102   6.723  -7.666  1.00  0.00     0.124 S 
ATOM     78  O   UNL     1      16.634   8.007  -8.108  1.00  0.00    -0.237 OA
ATOM     79  O   UNL     1      16.117   6.489  -6.225  1.00  0.00    -0.237 OA
ATOM     80  O   UNL     1      16.474   5.571  -8.481  1.00  0.00    -0.744 OA
ENDBRANCH  76  77
ENDBRANCH  55  69
BRANCH  56  81
ATOM     81  C   UNL     1       1.792   8.239 -10.117  1.00  0.00     0.058 A 
ATOM     82  C   UNL     1       0.878   8.311  -9.055  1.00  0.00     0.135 A 
ATOM     83  C   UNL     1       1.281   8.278 -11.423  1.00  0.00     0.135 A 
ATOM     84  F   UNL     1       1.316   8.270  -7.787  1.00  0.00    -0.206 F 
ATOM     85  C   UNL     1      -0.492   8.387  -9.277  1.00  0.00     0.059 A 
ATOM     86  C   UNL     1      -0.085   8.375 -11.672  1.00  0.00     0.059 A 
ATOM     87  F   UNL     1       2.118   8.226 -12.471  1.00  0.00    -0.206 F 
ATOM     88  C   UNL     1      -0.965   8.411 -10.591  1.00  0.00     0.060 A 
BRANCH  88  89
ATOM     89  S   UNL     1      -2.749   8.486 -10.861  1.00  0.00     0.124 S 
ATOM     90  O   UNL     1      -3.162   7.149 -10.445  1.00  0.00    -0.237 OA
ATOM     91  O   UNL     1      -3.147   9.578  -9.980  1.00  0.00    -0.237 OA
ATOM     92  O   UNL     1      -2.862   8.762 -12.290  1.00  0.00    -0.744 OA
ENDBRANCH  88  89
ENDBRANCH  56  81
BRANCH  68  93
ATOM     93  C   UNL     1       7.327  12.426 -10.964  1.00  0.00     0.058 A 
ATOM     94  C   UNL     1       7.907  12.657 -12.221  1.00  0.00     0.135 A 
ATOM     95  C   UNL     1       7.030  13.537 -10.161  1.00  0.00     0.135 A 
ATOM     96  F   UNL     1       8.211  11.626 -13.026  1.00  0.00    -0.206 F 
ATOM     97  C   UNL     1       8.222  13.941 -12.650  1.00  0.00     0.059 A 
ATOM     98  C   UNL     1       7.318  14.833 -10.579  1.00  0.00     0.059 A 
ATOM     99  F   UNL     1       6.463  13.367  -8.956  1.00  0.00    -0.206 F 
ATOM    100  C   UNL     1       7.936  15.022 -11.815  1.00  0.00     0.060 A 
BRANCH 100 101
ATOM    101  S   UNL     1       8.390  16.679 -12.370  1.00  0.00     0.124 S 
ATOM    102  O   UNL     1       9.845  16.640 -12.271  1.00  0.00    -0.237 OA
ATOM    103  O   UNL     1       7.846  16.712 -13.724  1.00  0.00    -0.237 OA
ATOM    104  O   UNL     1       7.718  17.553 -11.412  1.00  0.00    -0.744 OA
ENDBRANCH 100 101
ENDBRANCH  68  93
ENDBRANCH  42  43
ENDBRANCH  34  37
ENDBRANCH  32  33
ENDBRANCH   1  32
TORSDOF 17
