REMARK SMILES CC[C@@H](C)[C@H](NC(=O)[C@H](C)N1C(=O)N2CCC3=c4cc(OC)ccc4=N[C@H]3[C@@]2(C)C1=O)C(=O)NCCCNC(=O)c1ccc(-c2c3nc(c(-c4c(F)cc(S(=O)(=O)[O-])cc4F)c4ccc([nH]4)c(-c4c(F)cc(S(=O)(=O)[O-])cc4F)c4nc(c(-c5c(F)cc(S(=O)(=O)[O-])cc5F)c5ccc2[nH]5)C=C4)C=C3)cc1
REMARK SMILES IDX 35 1 34 2 32 3 33 4 5 6 3 7 4 8 2 9 1 10 6 11 7 12 8 14 9 15
REMARK SMILES IDX 10 16 11 17 12 18 30 19 14 20 13 21 28 22 31 23 15 24 27 25
REMARK SMILES IDX 29 26 16 27 17 28 26 29 18 30 25 31 19 32 24 33 20 34 23 35
REMARK SMILES IDX 21 36 22 37 36 38 37 39 38 40 39 41 40 43 41 44 42 45 106 46
REMARK SMILES IDX 43 47 105 48 44 49 45 50 46 51 99 52 47 53 104 54 98 55
REMARK SMILES IDX 100 56 48 57 103 58 97 59 96 60 49 62 83 63 62 64 82 65
REMARK SMILES IDX 63 66 66 67 81 68 101 69 64 70 65 71 80 73 102 74 67 75
REMARK SMILES IDX 50 76 51 77 60 78 52 79 53 80 59 81 61 82 54 83 55 84 56 85
REMARK SMILES IDX 57 86 58 87 84 88 85 89 94 90 86 91 87 92 93 93 95 94 88 95
REMARK SMILES IDX 89 96 90 97 91 98 92 99 68 100 69 101 78 102 70 103 71 104
REMARK SMILES IDX 77 105 79 106 72 107 73 108 74 109 75 110 76 111
REMARK H PARENT 34 5 6 13 38 42 100 61 66 72
REMARK Flexibility Score: inf
ROOT
ATOM      1  C   UNL     1      -2.349  -1.831   3.256  1.00  0.00     0.117 C 
ENDROOT
BRANCH   1   2
ATOM      2  N   UNL     1      -1.698  -2.836   2.436  1.00  0.00    -0.354 N 
ATOM      3  C   UNL     1      -0.525  -2.729   1.749  1.00  0.00     0.242 C 
ATOM      4  O   UNL     1      -0.019  -3.760   1.298  1.00  0.00    -0.273 OA
ATOM      5  H   UNL     1      -2.161  -3.702   2.367  1.00  0.00     0.163 HD
BRANCH   3   6
ATOM      6  C   UNL     1       0.104  -1.350   1.468  1.00  0.00     0.174 C 
BRANCH   6   7
ATOM      7  C   UNL     1       0.972  -0.800   2.680  1.00  0.00     0.018 C 
ATOM      8  C   UNL     1       0.324  -0.638   4.061  1.00  0.00     0.010 C 
BRANCH   7   9
ATOM      9  C   UNL     1       1.843   0.425   2.350  1.00  0.00     0.002 C 
ATOM     10  C   UNL     1       2.833   0.829   3.449  1.00  0.00     0.004 C 
ENDBRANCH   7   9
ENDBRANCH   6   7
BRANCH   6  11
ATOM     11  N   UNL     1      -0.816  -0.631   0.533  1.00  0.00    -0.342 N 
ATOM     12  C   UNL     1      -1.236   0.687   0.535  1.00  0.00     0.243 C 
ATOM     13  H   UNL     1      -1.179  -1.182  -0.199  1.00  0.00     0.164 HD
ATOM     14  O   UNL     1      -1.360   1.094   1.677  1.00  0.00    -0.273 OA
BRANCH  12  15
ATOM     15  C   UNL     1      -1.710   1.421  -0.996  1.00  0.00     0.181 C 
ATOM     16  C   UNL     1      -0.759   0.453  -1.854  1.00  0.00     0.042 C 
BRANCH  15  17
ATOM     17  N   UNL     1      -1.689   2.909  -1.794  1.00  0.00    -0.250 N 
ATOM     18  C   UNL     1      -2.216   4.308  -1.876  1.00  0.00     0.328 C 
ATOM     19  C   UNL     1      -1.326   2.801  -3.086  1.00  0.00     0.259 C 
ATOM     20  N   UNL     1      -1.460   5.026  -3.158  1.00  0.00    -0.307 N 
ATOM     21  O   UNL     1      -3.084   4.854  -1.219  1.00  0.00    -0.248 OA
ATOM     22  C   UNL     1      -0.529   4.022  -3.328  1.00  0.00     0.147 C 
ATOM     23  O   UNL     1      -1.676   1.992  -3.891  1.00  0.00    -0.271 OA
ATOM     24  C   UNL     1      -0.484   6.439  -3.429  1.00  0.00     0.127 C 
ATOM     25  C   UNL     1       0.338   4.403  -2.019  1.00  0.00     0.168 C 
ATOM     26  C   UNL     1      -0.142   3.984  -4.819  1.00  0.00     0.048 C 
ATOM     27  C   UNL     1       1.373   6.032  -3.245  1.00  0.00     0.055 C 
ATOM     28  C   UNL     1       1.728   4.665  -2.208  1.00  0.00    -0.032 C 
ATOM     29  N   UNL     1      -0.012   5.270  -0.657  1.00  0.00    -0.274 NA
ATOM     30  C   UNL     1       2.061   4.384  -0.882  1.00  0.00     0.005 A 
ATOM     31  C   UNL     1       1.237   5.430  -0.225  1.00  0.00     0.066 A 
ATOM     32  C   UNL     1       1.327   3.142  -0.013  1.00  0.00     0.056 A 
ATOM     33  C   UNL     1       1.633   5.729   1.161  1.00  0.00     0.032 A 
ATOM     34  C   UNL     1       0.709   3.534   1.180  1.00  0.00     0.119 A 
ATOM     35  C   UNL     1       1.306   4.650   1.884  1.00  0.00     0.048 A 
BRANCH  34  36
ATOM     36  O   UNL     1      -0.441   3.137   1.812  1.00  0.00    -0.497 OA
ATOM     37  C   UNL     1      -1.793   3.600   1.502  1.00  0.00     0.278 C 
ENDBRANCH  34  36
ENDBRANCH  15  17
ENDBRANCH  12  15
ENDBRANCH   6  11
ENDBRANCH   3   6
ENDBRANCH   1   2
BRANCH   1  38
ATOM     38  C   UNL     1      -3.837  -1.697   3.057  1.00  0.00     0.042 C 
BRANCH  38  39
ATOM     39  C   UNL     1      -4.588  -3.007   3.165  1.00  0.00     0.118 C 
BRANCH  39  40
ATOM     40  N   UNL     1      -4.404  -3.689   4.445  1.00  0.00    -0.352 N 
ATOM     41  C   UNL     1      -5.269  -3.860   5.502  1.00  0.00     0.251 C 
ATOM     42  H   UNL     1      -3.515  -4.093   4.572  1.00  0.00     0.163 HD
ATOM     43  O   UNL     1      -4.869  -4.361   6.548  1.00  0.00    -0.269 OA
BRANCH  41  44
ATOM     44  C   UNL     1      -6.665  -3.394   5.381  1.00  0.00     0.039 A 
ATOM     45  C   UNL     1      -7.376  -3.619   4.206  1.00  0.00     0.014 A 
ATOM     46  C   UNL     1      -7.245  -2.668   6.425  1.00  0.00     0.014 A 
ATOM     47  C   UNL     1      -8.541  -2.909   3.968  1.00  0.00     0.010 A 
ATOM     48  C   UNL     1      -8.494  -2.071   6.235  1.00  0.00     0.010 A 
ATOM     49  C   UNL     1      -9.125  -2.137   4.983  1.00  0.00    -0.014 A 
BRANCH  49  50
ATOM     50  C   UNL     1     -10.400  -1.424   4.714  1.00  0.00     0.031 A 
ATOM     51  C   UNL     1     -10.481   0.077   4.829  1.00  0.00     0.074 A 
ATOM     52  C   UNL     1     -11.471  -2.135   4.308  1.00  0.00     0.049 A 
ATOM     53  N   UNL     1     -11.530   0.853   4.724  1.00  0.00    -0.248 NA
ATOM     54  C   UNL     1      -9.228   0.804   5.094  1.00  0.00     0.031 C 
ATOM     55  C   UNL     1     -11.496  -3.589   4.111  1.00  0.00     0.029 A 
ATOM     56  N   UNL     1     -12.736  -1.738   3.964  1.00  0.00    -0.354 N 
ATOM     57  C   UNL     1     -11.071   2.150   4.928  1.00  0.00     0.074 A 
ATOM     58  C   UNL     1      -9.650   2.059   5.185  1.00  0.00     0.031 C 
ATOM     59  C   UNL     1     -12.691  -3.950   3.625  1.00  0.00     0.029 A 
ATOM     60  C   UNL     1     -13.550  -2.776   3.575  1.00  0.00     0.049 A 
ATOM     61  H   UNL     1     -13.034  -0.800   3.992  1.00  0.00     0.167 HD
ATOM     62  C   UNL     1     -11.774   3.307   4.894  1.00  0.00     0.037 A 
ATOM     63  C   UNL     1     -14.856  -2.791   3.254  1.00  0.00     0.037 A 
ATOM     64  C   UNL     1     -13.186   3.383   4.615  1.00  0.00     0.049 A 
ATOM     65  C   UNL     1     -15.624  -1.502   3.306  1.00  0.00     0.074 A 
ATOM     66  C   UNL     1     -14.002   4.501   4.596  1.00  0.00     0.029 A 
ATOM     67  N   UNL     1     -13.989   2.300   4.284  1.00  0.00    -0.354 N 
ATOM     68  N   UNL     1     -15.190  -0.295   3.581  1.00  0.00    -0.248 NA
ATOM     69  C   UNL     1     -17.061  -1.579   3.020  1.00  0.00     0.031 C 
ATOM     70  C   UNL     1     -15.303   4.092   4.285  1.00  0.00     0.029 A 
ATOM     71  C   UNL     1     -15.288   2.725   4.059  1.00  0.00     0.049 A 
ATOM     72  H   UNL     1     -13.680   1.368   4.219  1.00  0.00     0.167 HD
ATOM     73  C   UNL     1     -16.296   0.537   3.468  1.00  0.00     0.074 A 
ATOM     74  C   UNL     1     -17.414  -0.303   3.088  1.00  0.00     0.031 C 
ATOM     75  C   UNL     1     -16.381   1.876   3.662  1.00  0.00     0.037 A 
BRANCH  62  76
ATOM     76  C   UNL     1     -11.046   4.597   5.163  1.00  0.00     0.058 A 
ATOM     77  C   UNL     1     -10.197   5.176   4.206  1.00  0.00     0.135 A 
ATOM     78  C   UNL     1     -11.288   5.319   6.343  1.00  0.00     0.135 A 
ATOM     79  F   UNL     1      -9.913   4.519   3.071  1.00  0.00    -0.206 F 
ATOM     80  C   UNL     1      -9.624   6.429   4.405  1.00  0.00     0.059 A 
ATOM     81  C   UNL     1     -10.745   6.584   6.553  1.00  0.00     0.059 A 
ATOM     82  F   UNL     1     -12.087   4.810   7.295  1.00  0.00    -0.206 F 
ATOM     83  C   UNL     1      -9.915   7.132   5.576  1.00  0.00     0.060 A 
BRANCH  83  84
ATOM     84  S   UNL     1      -9.221   8.786   5.786  1.00  0.00     0.124 S 
ATOM     85  O   UNL     1      -7.801   8.491   5.951  1.00  0.00    -0.237 OA
ATOM     86  O   UNL     1      -9.593   9.439   4.535  1.00  0.00    -0.237 OA
ATOM     87  O   UNL     1      -9.896   9.292   6.977  1.00  0.00    -0.744 OA
ENDBRANCH  83  84
ENDBRANCH  62  76
BRANCH  63  88
ATOM     88  C   UNL     1     -15.525  -4.067   2.886  1.00  0.00     0.058 A 
ATOM     89  C   UNL     1     -16.019  -4.274   1.590  1.00  0.00     0.135 A 
ATOM     90  C   UNL     1     -15.696  -5.098   3.824  1.00  0.00     0.135 A 
ATOM     91  F   UNL     1     -15.882  -3.317   0.660  1.00  0.00    -0.206 F 
ATOM     92  C   UNL     1     -16.684  -5.444   1.244  1.00  0.00     0.059 A 
ATOM     93  C   UNL     1     -16.327  -6.291   3.492  1.00  0.00     0.059 A 
ATOM     94  F   UNL     1     -15.225  -4.959   5.073  1.00  0.00    -0.206 F 
ATOM     95  C   UNL     1     -16.836  -6.446   2.203  1.00  0.00     0.060 A 
BRANCH  95  96
ATOM     96  S   UNL     1     -17.694  -7.965   1.741  1.00  0.00     0.124 S 
ATOM     97  O   UNL     1     -19.076  -7.506   1.659  1.00  0.00    -0.237 OA
ATOM     98  O   UNL     1     -17.056  -8.303   0.472  1.00  0.00    -0.237 OA
ATOM     99  O   UNL     1     -17.393  -8.870   2.846  1.00  0.00    -0.744 OA
ENDBRANCH  95  96
ENDBRANCH  63  88
BRANCH  75 100
ATOM    100  C   UNL     1     -17.714   2.519   3.402  1.00  0.00     0.058 A 
ATOM    101  C   UNL     1     -18.805   2.336   4.264  1.00  0.00     0.135 A 
ATOM    102  C   UNL     1     -17.892   3.340   2.277  1.00  0.00     0.135 A 
ATOM    103  F   UNL     1     -18.688   1.554   5.349  1.00  0.00    -0.206 F 
ATOM    104  C   UNL     1     -20.042   2.913   3.998  1.00  0.00     0.059 A 
ATOM    105  C   UNL     1     -19.111   3.953   2.008  1.00  0.00     0.059 A 
ATOM    106  F   UNL     1     -16.875   3.556   1.428  1.00  0.00    -0.206 F 
ATOM    107  C   UNL     1     -20.186   3.717   2.865  1.00  0.00     0.060 A 
BRANCH 107 108
ATOM    108  S   UNL     1     -21.797   4.458   2.531  1.00  0.00     0.124 S 
ATOM    109  O   UNL     1     -22.568   3.299   2.095  1.00  0.00    -0.237 OA
ATOM    110  O   UNL     1     -22.162   5.010   3.832  1.00  0.00    -0.237 OA
ATOM    111  O   UNL     1     -21.509   5.446   1.495  1.00  0.00    -0.744 OA
ENDBRANCH 107 108
ENDBRANCH  75 100
ENDBRANCH  49  50
ENDBRANCH  41  44
ENDBRANCH  39  40
ENDBRANCH  38  39
ENDBRANCH   1  38
TORSDOF 19
