REMARK SMILES CC(C)C(=O)Nc1ccc2c([C@H](C(=O)NCCCNC(=O)c3ccc(-c4c5nc(c(-c6c(F)cc(S(=O)(=O)[O-])cc6F)c6ccc([nH]6)c(-c6c(F)cc(S(=O)(=O)[O-])cc6F)c6nc(c(-c7c(F)cc(S(=O)(=O)[O-])cc7F)c7ccc4[nH]7)C=C6)C=C5)cc3)[NH+]3CC[NH+](CC(=O)N(C)C)CC3)c[nH]c2c1
REMARK SMILES IDX 17 1 16 2 15 3 13 4 14 5 12 7 11 8 7 9 8 10 103 11 9 12
REMARK SMILES IDX 102 13 10 14 101 15 100 16 6 18 4 19 5 20 2 22 1 23 3 24
REMARK SMILES IDX 88 25 89 26 99 27 90 29 98 30 91 31 92 33 93 34 94 35 95 36
REMARK SMILES IDX 96 37 97 38 18 39 19 40 20 41 21 43 22 44 23 45 87 46 24 47
REMARK SMILES IDX 86 48 25 49 26 50 27 51 80 52 28 53 85 54 79 55 81 56 29 57
REMARK SMILES IDX 84 58 78 59 77 60 30 62 64 63 43 64 63 65 44 66 47 67 62 68
REMARK SMILES IDX 82 69 45 70 46 71 61 73 83 74 48 75 31 76 32 77 41 78 33 79
REMARK SMILES IDX 34 80 40 81 42 82 35 83 36 84 37 85 38 86 39 87 65 88 66 89
REMARK SMILES IDX 75 90 67 91 68 92 74 93 76 94 69 95 70 96 71 97 72 98 73 99
REMARK SMILES IDX 49 100 50 101 59 102 51 103 52 104 58 105 60 106 53 107
REMARK SMILES IDX 54 108 55 109 56 110 57 111
REMARK H PARENT 15 6 101 17 6 21 88 28 91 32 19 42 81 61 47 72
REMARK Flexibility Score: inf
ROOT
ATOM      1  C   UNL     1       4.260   4.587  -4.358  1.00  0.00     0.042 C 
ENDROOT
BRANCH   1   2
ATOM      2  C   UNL     1       4.051   2.772  -4.072  1.00  0.00     0.118 C 
BRANCH   2   3
ATOM      3  N   UNL     1       2.783   1.718  -4.282  1.00  0.00    -0.351 N 
ATOM      4  C   UNL     1       1.782   1.190  -5.157  1.00  0.00     0.283 C 
ATOM      5  O   UNL     1       0.825   0.657  -4.564  1.00  0.00    -0.268 OA
ATOM      6  H   UNL     1       2.671   1.250  -3.423  1.00  0.00     0.163 HD
BRANCH   4   7
ATOM      7  C   UNL     1       1.842   1.107  -6.723  1.00  0.00     0.308 C 
BRANCH   7   8
ATOM      8  C   UNL     1       1.151   0.029  -7.579  1.00  0.00     0.044 A 
ATOM      9  C   UNL     1       3.162  -2.079 -10.596  1.00  0.00     0.043 A 
ATOM     10  C   UNL     1       3.932  -1.542  -9.581  1.00  0.00     0.027 A 
ATOM     11  C   UNL     1       1.786  -1.812 -10.669  1.00  0.00     0.052 A 
ATOM     12  C   UNL     1       3.349  -0.968  -8.476  1.00  0.00     0.013 A 
ATOM     13  C   UNL     1       1.206  -1.162  -9.559  1.00  0.00     0.048 A 
ATOM     14  C   UNL     1       1.961  -0.774  -8.453  1.00  0.00     0.009 A 
ATOM     15  N   UNL     1      -0.078  -0.727  -9.311  1.00  0.00    -0.361 N 
ATOM     16  C   UNL     1      -0.134  -0.036  -8.110  1.00  0.00     0.094 A 
ATOM     17  H   UNL     1      -0.848  -0.884  -9.903  1.00  0.00     0.166 HD
BRANCH   9  18
ATOM     18  N   UNL     1       3.798  -2.883 -11.544  1.00  0.00    -0.326 N 
ATOM     19  C   UNL     1       4.831  -3.764 -11.337  1.00  0.00     0.226 C 
ATOM     20  O   UNL     1       5.486  -4.129 -12.320  1.00  0.00    -0.274 OA
ATOM     21  H   UNL     1       3.467  -2.809 -12.469  1.00  0.00     0.169 HD
BRANCH  19  22
ATOM     22  C   UNL     1       5.137  -4.390  -9.948  1.00  0.00     0.072 C 
ATOM     23  C   UNL     1       6.184  -3.672  -9.096  1.00  0.00     0.018 C 
ATOM     24  C   UNL     1       3.910  -4.803  -9.133  1.00  0.00     0.018 C 
ENDBRANCH  19  22
ENDBRANCH   9  18
ENDBRANCH   7   8
BRANCH   7  25
ATOM     25  N   UNL     1       1.700   2.271  -7.634  1.00  0.00    -0.312 N 
ATOM     26  C   UNL     1       0.622   3.233  -7.458  1.00  0.00     0.325 C 
ATOM     27  C   UNL     1       2.917   3.001  -7.683  1.00  0.00     0.325 C 
ATOM     28  H   UNL     1       1.439   1.790  -8.494  1.00  0.00     0.349 HD
ATOM     29  C   UNL     1       0.531   3.864  -6.058  1.00  0.00     0.325 C 
ATOM     30  C   UNL     1       2.996   3.681  -6.317  1.00  0.00     0.325 C 
ATOM     31  N   UNL     1       1.815   4.042  -5.348  1.00  0.00    -0.318 N 
ATOM     32  H   UNL     1       2.316   4.904  -5.131  1.00  0.00     0.348 HD
BRANCH  31  33
ATOM     33  C   UNL     1       1.566   3.874  -3.651  1.00  0.00     0.364 C 
BRANCH  33  34
ATOM     34  C   UNL     1       2.406   4.562  -2.281  1.00  0.00     0.277 C 
ATOM     35  O   UNL     1       1.825   5.374  -1.546  1.00  0.00    -0.268 OA
ATOM     36  N   UNL     1       3.582   4.055  -1.671  1.00  0.00    -0.344 N 
ATOM     37  C   UNL     1       3.418   3.119  -0.569  1.00  0.00     0.146 C 
ATOM     38  C   UNL     1       4.773   4.918  -1.453  1.00  0.00     0.146 C 
ENDBRANCH  33  34
ENDBRANCH  31  33
ENDBRANCH   7  25
ENDBRANCH   4   7
ENDBRANCH   2   3
ENDBRANCH   1   2
BRANCH   1  39
ATOM     39  C   UNL     1       3.358   6.099  -4.646  1.00  0.00     0.118 C 
BRANCH  39  40
ATOM     40  N   UNL     1       1.982   6.426  -4.174  1.00  0.00    -0.352 N 
ATOM     41  C   UNL     1       1.350   7.450  -3.491  1.00  0.00     0.251 C 
ATOM     42  H   UNL     1       1.346   5.714  -4.415  1.00  0.00     0.163 HD
ATOM     43  O   UNL     1       0.467   7.245  -2.655  1.00  0.00    -0.269 OA
BRANCH  41  44
ATOM     44  C   UNL     1       1.240   8.774  -4.101  1.00  0.00     0.039 A 
ATOM     45  C   UNL     1       1.822   9.900  -3.519  1.00  0.00     0.014 A 
ATOM     46  C   UNL     1       0.276   8.913  -5.109  1.00  0.00     0.014 A 
ATOM     47  C   UNL     1       1.556  11.162  -4.064  1.00  0.00     0.010 A 
ATOM     48  C   UNL     1       0.024  10.162  -5.660  1.00  0.00     0.010 A 
ATOM     49  C   UNL     1       0.698  11.288  -5.171  1.00  0.00    -0.014 A 
BRANCH  49  50
ATOM     50  C   UNL     1       0.587  12.546  -5.947  1.00  0.00     0.031 A 
ATOM     51  C   UNL     1      -0.709  13.298  -6.017  1.00  0.00     0.074 A 
ATOM     52  C   UNL     1       1.628  12.874  -6.738  1.00  0.00     0.049 A 
ATOM     53  N   UNL     1      -1.048  14.282  -6.808  1.00  0.00    -0.248 NA
ATOM     54  C   UNL     1      -1.776  12.863  -5.104  1.00  0.00     0.031 C 
ATOM     55  C   UNL     1       2.902  12.147  -6.796  1.00  0.00     0.029 A 
ATOM     56  N   UNL     1       1.772  13.864  -7.672  1.00  0.00    -0.354 N 
ATOM     57  C   UNL     1      -2.377  14.568  -6.513  1.00  0.00     0.074 A 
ATOM     58  C   UNL     1      -2.787  13.635  -5.484  1.00  0.00     0.031 C 
ATOM     59  C   UNL     1       3.694  12.715  -7.717  1.00  0.00     0.029 A 
ATOM     60  C   UNL     1       2.974  13.819  -8.339  1.00  0.00     0.049 A 
ATOM     61  H   UNL     1       1.082  14.543  -7.850  1.00  0.00     0.167 HD
ATOM     62  C   UNL     1      -3.169  15.526  -7.051  1.00  0.00     0.037 A 
ATOM     63  C   UNL     1       3.437  14.573  -9.352  1.00  0.00     0.037 A 
ATOM     64  C   UNL     1      -2.721  16.459  -8.056  1.00  0.00     0.049 A 
ATOM     65  C   UNL     1       2.557  15.665  -9.889  1.00  0.00     0.074 A 
ATOM     66  C   UNL     1      -3.408  17.521  -8.618  1.00  0.00     0.029 A 
ATOM     67  N   UNL     1      -1.464  16.440  -8.645  1.00  0.00    -0.354 N 
ATOM     68  N   UNL     1       1.326  15.968  -9.551  1.00  0.00    -0.248 NA
ATOM     69  C   UNL     1       3.128  16.524 -10.933  1.00  0.00     0.031 C 
ATOM     70  C   UNL     1      -2.575  18.127  -9.565  1.00  0.00     0.029 A 
ATOM     71  C   UNL     1      -1.356  17.468  -9.567  1.00  0.00     0.049 A 
ATOM     72  H   UNL     1      -0.753  15.791  -8.438  1.00  0.00     0.167 HD
ATOM     73  C   UNL     1       0.982  17.070 -10.322  1.00  0.00     0.074 A 
ATOM     74  C   UNL     1       2.140  17.385 -11.136  1.00  0.00     0.031 C 
ATOM     75  C   UNL     1      -0.183  17.762 -10.354  1.00  0.00     0.037 A 
BRANCH  62  76
ATOM     76  C   UNL     1      -4.591  15.623  -6.564  1.00  0.00     0.058 A 
ATOM     77  C   UNL     1      -4.897  16.080  -5.272  1.00  0.00     0.135 A 
ATOM     78  C   UNL     1      -5.665  15.299  -7.411  1.00  0.00     0.135 A 
ATOM     79  F   UNL     1      -3.912  16.397  -4.417  1.00  0.00    -0.206 F 
ATOM     80  C   UNL     1      -6.212  16.184  -4.826  1.00  0.00     0.059 A 
ATOM     81  C   UNL     1      -6.989  15.419  -6.994  1.00  0.00     0.059 A 
ATOM     82  F   UNL     1      -5.434  14.861  -8.658  1.00  0.00    -0.206 F 
ATOM     83  C   UNL     1      -7.252  15.849  -5.695  1.00  0.00     0.060 A 
BRANCH  83  84
ATOM     84  S   UNL     1      -8.953  16.001  -5.105  1.00  0.00     0.124 S 
ATOM     85  O   UNL     1      -9.060  14.841  -4.225  1.00  0.00    -0.237 OA
ATOM     86  O   UNL     1      -8.940  17.300  -4.440  1.00  0.00    -0.237 OA
ATOM     87  O   UNL     1      -9.744  15.935  -6.329  1.00  0.00    -0.744 OA
ENDBRANCH  83  84
ENDBRANCH  62  76
BRANCH  63  88
ATOM     88  C   UNL     1       4.806  14.347  -9.882  1.00  0.00     0.058 A 
ATOM     89  C   UNL     1       5.838  15.253  -9.596  1.00  0.00     0.135 A 
ATOM     90  C   UNL     1       5.122  13.215 -10.648  1.00  0.00     0.135 A 
ATOM     91  F   UNL     1       5.583  16.348  -8.863  1.00  0.00    -0.206 F 
ATOM     92  C   UNL     1       7.131  15.057 -10.066  1.00  0.00     0.059 A 
ATOM     93  C   UNL     1       6.415  12.985 -11.112  1.00  0.00     0.059 A 
ATOM     94  F   UNL     1       4.178  12.303 -10.925  1.00  0.00    -0.206 F 
ATOM     95  C   UNL     1       7.411  13.921 -10.824  1.00  0.00     0.060 A 
BRANCH  95  96
ATOM     96  S   UNL     1       9.101  13.632 -11.395  1.00  0.00     0.124 S 
ATOM     97  O   UNL     1       9.207  14.620 -12.481  1.00  0.00    -0.237 OA
ATOM     98  O   UNL     1       9.884  13.955 -10.188  1.00  0.00    -0.237 OA
ATOM     99  O   UNL     1       9.105  12.258 -11.785  1.00  0.00    -0.744 OA
ENDBRANCH  95  96
ENDBRANCH  63  88
BRANCH  75 100
ATOM    100  C   UNL     1      -0.244  18.947 -11.272  1.00  0.00     0.058 A 
ATOM    101  C   UNL     1      -0.366  18.796 -12.661  1.00  0.00     0.135 A 
ATOM    102  C   UNL     1      -0.223  20.249 -10.747  1.00  0.00     0.135 A 
ATOM    103  F   UNL     1      -0.380  17.571 -13.209  1.00  0.00    -0.206 F 
ATOM    104  C   UNL     1      -0.447  19.899 -13.503  1.00  0.00     0.059 A 
ATOM    105  C   UNL     1      -0.327  21.366 -11.569  1.00  0.00     0.059 A 
ATOM    106  F   UNL     1      -0.113  20.443  -9.423  1.00  0.00    -0.206 F 
ATOM    107  C   UNL     1      -0.428  21.180 -12.947  1.00  0.00     0.060 A 
BRANCH 107 108
ATOM    108  S   UNL     1      -0.570  22.604 -14.047  1.00  0.00     0.124 S 
ATOM    109  O   UNL     1       0.771  22.668 -14.618  1.00  0.00    -0.237 OA
ATOM    110  O   UNL     1      -1.630  22.190 -14.961  1.00  0.00    -0.237 OA
ATOM    111  O   UNL     1      -0.922  23.695 -13.143  1.00  0.00    -0.744 OA
ENDBRANCH 107 108
ENDBRANCH  75 100
ENDBRANCH  49  50
ENDBRANCH  41  44
ENDBRANCH  39  40
ENDBRANCH   1  39
TORSDOF 19
