REMARK SMILES COC(=O)Cc1nc(NC(=O)[C@H]2CC[C@@H]2C(=O)NCCCNC(=O)c2ccc(-c3c4nc(c(-c5c(F)cc(S(=O)(=O)[O-])cc5F)c5ccc([nH]5)c(-c5c(F)cc(S(=O)(=O)[O-])cc5F)c5nc(c(-c6c(F)cc(S(=O)(=O)[O-])cc6F)c6ccc3[nH]6)C=C5)C=C4)cc2)sc1C
REMARK SMILES IDX 19 1 18 2 16 3 17 4 15 6 12 7 13 8 14 9 10 10 9 11 11 13
REMARK SMILES IDX 8 14 6 15 7 16 92 17 91 18 93 19 5 20 3 21 4 22 2 23 1 24
REMARK SMILES IDX 20 25 21 26 22 27 23 28 24 30 25 31 26 32 90 33 27 34 89 35
REMARK SMILES IDX 28 36 29 37 30 38 83 39 31 40 88 41 82 42 84 43 32 44 87 45
REMARK SMILES IDX 81 46 80 47 33 49 67 50 46 51 66 52 47 53 50 54 65 55 85 56
REMARK SMILES IDX 48 57 49 58 64 60 86 61 51 62 34 63 35 64 44 65 36 66 37 67
REMARK SMILES IDX 43 68 45 69 38 70 39 71 40 72 41 73 42 74 68 75 69 76 78 77
REMARK SMILES IDX 70 78 71 79 77 80 79 81 72 82 73 83 74 84 75 85 76 86 52 87
REMARK SMILES IDX 53 88 62 89 54 90 55 91 61 92 63 93 56 94 57 95 58 96 59 97
REMARK SMILES IDX 60 98
REMARK H PARENT 18 5 9 12 22 29 84 48 50 59
REMARK Flexibility Score: inf
ROOT
ATOM      1  C   UNL     1       4.908  -0.170  -8.471  1.00  0.00     0.117 C 
ENDROOT
BRANCH   1   2
ATOM      2  N   UNL     1       4.284  -0.476  -9.745  1.00  0.00    -0.356 N 
ATOM      3  C   UNL     1       2.987  -0.663 -10.173  1.00  0.00     0.223 C 
ATOM      4  O   UNL     1       2.882  -0.788 -11.406  1.00  0.00    -0.275 OA
ATOM      5  H   UNL     1       4.939  -0.574 -10.472  1.00  0.00     0.163 HD
BRANCH   3   6
ATOM      6  C   UNL     1       1.729  -0.761  -9.262  1.00  0.00     0.091 C 
ATOM      7  C   UNL     1       1.661  -0.227  -7.812  1.00  0.00     0.091 C 
ATOM      8  C   UNL     1       1.927  -1.697  -7.348  1.00  0.00     0.015 C 
ATOM      9  C   UNL     1       1.449  -2.180  -8.713  1.00  0.00     0.015 C 
BRANCH   7  10
ATOM     10  C   UNL     1       0.428   0.456  -7.182  1.00  0.00     0.230 C 
ATOM     11  N   UNL     1       0.384   0.669  -5.808  1.00  0.00    -0.302 N 
ATOM     12  H   UNL     1      -0.439   1.090  -5.470  1.00  0.00     0.172 HD
ATOM     13  O   UNL     1      -0.561   0.795  -7.845  1.00  0.00    -0.274 OA
BRANCH  11  14
ATOM     14  C   UNL     1       1.331   0.374  -4.855  1.00  0.00     0.189 A 
ATOM     15  C   UNL     1       2.188  -0.541  -3.034  1.00  0.00     0.068 A 
ATOM     16  N   UNL     1       1.070   0.097  -3.597  1.00  0.00    -0.224 NA
ATOM     17  C   UNL     1       3.212  -0.751  -3.947  1.00  0.00     0.027 A 
ATOM     18  S   UNL     1       3.003   0.406  -5.184  1.00  0.00    -0.102 S 
ATOM     19  C   UNL     1       4.376  -1.672  -3.966  1.00  0.00     0.058 C 
BRANCH  15  20
ATOM     20  C   UNL     1       2.145  -1.009  -1.615  1.00  0.00     0.180 C 
BRANCH  20  21
ATOM     21  C   UNL     1       3.383  -0.539  -0.874  1.00  0.00     0.311 C 
ATOM     22  O   UNL     1       3.499   0.552  -0.333  1.00  0.00    -0.252 OA
BRANCH  21  23
ATOM     23  O   UNL     1       4.381  -1.460  -0.995  1.00  0.00    -0.469 OA
ATOM     24  C   UNL     1       5.692  -1.013  -0.637  1.00  0.00     0.282 C 
ENDBRANCH  21  23
ENDBRANCH  20  21
ENDBRANCH  15  20
ENDBRANCH  11  14
ENDBRANCH   7  10
ENDBRANCH   3   6
ENDBRANCH   1   2
BRANCH   1  25
ATOM     25  C   UNL     1       5.620  -1.349  -7.823  1.00  0.00     0.042 C 
BRANCH  25  26
ATOM     26  C   UNL     1       7.091  -1.451  -8.199  1.00  0.00     0.118 C 
BRANCH  26  27
ATOM     27  N   UNL     1       7.858  -0.296  -7.739  1.00  0.00    -0.352 N 
ATOM     28  C   UNL     1       8.925  -0.203  -6.881  1.00  0.00     0.251 C 
ATOM     29  H   UNL     1       7.557   0.565  -8.108  1.00  0.00     0.163 HD
ATOM     30  O   UNL     1       9.265   0.906  -6.475  1.00  0.00    -0.269 OA
BRANCH  28  31
ATOM     31  C   UNL     1       9.653  -1.410  -6.434  1.00  0.00     0.039 A 
ATOM     32  C   UNL     1      10.171  -1.444  -5.135  1.00  0.00     0.014 A 
ATOM     33  C   UNL     1       9.866  -2.489  -7.294  1.00  0.00     0.014 A 
ATOM     34  C   UNL     1      10.840  -2.583  -4.684  1.00  0.00     0.010 A 
ATOM     35  C   UNL     1      10.444  -3.658  -6.814  1.00  0.00     0.010 A 
ATOM     36  C   UNL     1      10.947  -3.715  -5.507  1.00  0.00    -0.014 A 
BRANCH  36  37
ATOM     37  C   UNL     1      11.583  -4.965  -5.025  1.00  0.00     0.031 A 
ATOM     38  C   UNL     1      12.815  -5.498  -5.707  1.00  0.00     0.074 A 
ATOM     39  C   UNL     1      11.008  -5.655  -4.020  1.00  0.00     0.049 A 
ATOM     40  N   UNL     1      13.468  -6.609  -5.480  1.00  0.00    -0.248 NA
ATOM     41  C   UNL     1      13.367  -4.694  -6.809  1.00  0.00     0.031 C 
ATOM     42  C   UNL     1       9.780  -5.265  -3.321  1.00  0.00     0.029 A 
ATOM     43  N   UNL     1      11.370  -6.832  -3.418  1.00  0.00    -0.354 N 
ATOM     44  C   UNL     1      14.494  -6.643  -6.417  1.00  0.00     0.074 A 
ATOM     45  C   UNL     1      14.343  -5.473  -7.253  1.00  0.00     0.031 C 
ATOM     46  C   UNL     1       9.507  -6.172  -2.370  1.00  0.00     0.029 A 
ATOM     47  C   UNL     1      10.512  -7.228  -2.418  1.00  0.00     0.049 A 
ATOM     48  H   UNL     1      12.169  -7.346  -3.677  1.00  0.00     0.167 HD
ATOM     49  C   UNL     1      15.488  -7.554  -6.551  1.00  0.00     0.037 A 
ATOM     50  C   UNL     1      10.530  -8.324  -1.635  1.00  0.00     0.037 A 
ATOM     51  C   UNL     1      15.643  -8.701  -5.695  1.00  0.00     0.049 A 
ATOM     52  C   UNL     1      11.645  -9.319  -1.800  1.00  0.00     0.074 A 
ATOM     53  C   UNL     1      16.649  -9.652  -5.705  1.00  0.00     0.029 A 
ATOM     54  N   UNL     1      14.768  -9.056  -4.678  1.00  0.00    -0.354 N 
ATOM     55  N   UNL     1      12.647  -9.300  -2.647  1.00  0.00    -0.248 NA
ATOM     56  C   UNL     1      11.638 -10.480  -0.900  1.00  0.00     0.031 C 
ATOM     57  C   UNL     1      16.356 -10.607  -4.726  1.00  0.00     0.029 A 
ATOM     58  C   UNL     1      15.198 -10.223  -4.069  1.00  0.00     0.049 A 
ATOM     59  H   UNL     1      13.961  -8.552  -4.427  1.00  0.00     0.167 HD
ATOM     60  C   UNL     1      13.404 -10.432  -2.365  1.00  0.00     0.074 A 
ATOM     61  C   UNL     1      12.751 -11.104  -1.260  1.00  0.00     0.031 C 
ATOM     62  C   UNL     1      14.536 -10.876  -2.967  1.00  0.00     0.037 A 
BRANCH  49  63
ATOM     63  C   UNL     1      16.486  -7.343  -7.657  1.00  0.00     0.058 A 
ATOM     64  C   UNL     1      17.414  -6.289  -7.623  1.00  0.00     0.135 A 
ATOM     65  C   UNL     1      16.541  -8.226  -8.748  1.00  0.00     0.135 A 
ATOM     66  F   UNL     1      17.397  -5.405  -6.613  1.00  0.00    -0.206 F 
ATOM     67  C   UNL     1      18.340  -6.100  -8.645  1.00  0.00     0.059 A 
ATOM     68  C   UNL     1      17.479  -8.073  -9.766  1.00  0.00     0.059 A 
ATOM     69  F   UNL     1      15.678  -9.250  -8.834  1.00  0.00    -0.206 F 
ATOM     70  C   UNL     1      18.365  -6.998  -9.712  1.00  0.00     0.060 A 
BRANCH  70  71
ATOM     71  S   UNL     1      19.577  -6.742 -11.024  1.00  0.00     0.124 S 
ATOM     72  O   UNL     1      19.030  -5.569 -11.700  1.00  0.00    -0.237 OA
ATOM     73  O   UNL     1      20.808  -6.521 -10.272  1.00  0.00    -0.237 OA
ATOM     74  O   UNL     1      19.525  -7.986 -11.785  1.00  0.00    -0.744 OA
ENDBRANCH  70  71
ENDBRANCH  49  63
BRANCH  50  75
ATOM     75  C   UNL     1       9.469  -8.521  -0.611  1.00  0.00     0.058 A 
ATOM     76  C   UNL     1       9.758  -8.414   0.757  1.00  0.00     0.135 A 
ATOM     77  C   UNL     1       8.143  -8.799  -0.979  1.00  0.00     0.135 A 
ATOM     78  F   UNL     1      11.011  -8.153   1.159  1.00  0.00    -0.206 F 
ATOM     79  C   UNL     1       8.775  -8.591   1.726  1.00  0.00     0.059 A 
ATOM     80  C   UNL     1       7.138  -8.954  -0.030  1.00  0.00     0.059 A 
ATOM     81  F   UNL     1       7.809  -8.890  -2.276  1.00  0.00    -0.206 F 
ATOM     82  C   UNL     1       7.466  -8.857   1.321  1.00  0.00     0.060 A 
BRANCH  82  83
ATOM     83  S   UNL     1       6.187  -9.029   2.584  1.00  0.00     0.124 S 
ATOM     84  O   UNL     1       6.512 -10.331   3.155  1.00  0.00    -0.237 OA
ATOM     85  O   UNL     1       6.444  -7.873   3.437  1.00  0.00    -0.237 OA
ATOM     86  O   UNL     1       4.948  -8.966   1.815  1.00  0.00    -0.744 OA
ENDBRANCH  82  83
ENDBRANCH  50  75
BRANCH  62  87
ATOM     87  C   UNL     1      15.158 -12.131  -2.422  1.00  0.00     0.058 A 
ATOM     88  C   UNL     1      14.574 -13.392  -2.622  1.00  0.00     0.135 A 
ATOM     89  C   UNL     1      16.380 -12.076  -1.732  1.00  0.00     0.135 A 
ATOM     90  F   UNL     1      13.402 -13.499  -3.269  1.00  0.00    -0.206 F 
ATOM     91  C   UNL     1      15.165 -14.551  -2.132  1.00  0.00     0.059 A 
ATOM     92  C   UNL     1      17.004 -13.226  -1.260  1.00  0.00     0.059 A 
ATOM     93  F   UNL     1      16.987 -10.896  -1.524  1.00  0.00    -0.206 F 
ATOM     94  C   UNL     1      16.382 -14.458  -1.453  1.00  0.00     0.060 A 
BRANCH  94  95
ATOM     95  S   UNL     1      17.152 -15.973  -0.847  1.00  0.00     0.124 S 
ATOM     96  O   UNL     1      16.297 -16.302   0.289  1.00  0.00    -0.237 OA
ATOM     97  O   UNL     1      17.044 -16.861  -2.000  1.00  0.00    -0.237 OA
ATOM     98  O   UNL     1      18.509 -15.554  -0.511  1.00  0.00    -0.744 OA
ENDBRANCH  94  95
ENDBRANCH  62  87
ENDBRANCH  36  37
ENDBRANCH  28  31
ENDBRANCH  26  27
ENDBRANCH  25  26
ENDBRANCH   1  25
TORSDOF 18
