REMARK SMILES CC[C@@H]1C=CCN1S(=O)(=O)c1sc2c(c1C(=O)NCCCNC(=O)c1ccc(-c3c4nc(c(-c5c(F)cc(S(=O)(=O)[O-])cc5F)c5ccc([nH]5)c(-c5c(F)cc(S(=O)(=O)[O-])cc5F)c5nc(c(-c6c(F)cc(S(=O)(=O)[O-])cc6F)c6ccc3[nH]6)C=C5)C=C4)cc1)CC[NH2+]C2
REMARK SMILES IDX 20 1 19 2 18 3 16 4 17 5 15 7 11 8 12 9 13 10 14 11 94 12
REMARK SMILES IDX 91 13 93 14 92 15 8 18 9 19 10 20 7 21 3 22 4 23 5 24 6 25
REMARK SMILES IDX 2 26 1 27 21 28 22 29 23 30 24 32 25 33 26 34 90 35 27 36
REMARK SMILES IDX 89 37 28 38 29 39 30 40 83 41 31 42 88 43 82 44 84 45 32 46
REMARK SMILES IDX 87 47 81 48 80 49 33 51 67 52 46 53 66 54 47 55 50 56 65 57
REMARK SMILES IDX 85 58 48 59 49 60 64 62 86 63 51 64 34 65 35 66 44 67 36 68
REMARK SMILES IDX 37 69 43 70 45 71 38 72 39 73 40 74 41 75 42 76 68 77 69 78
REMARK SMILES IDX 78 79 70 80 71 81 77 82 79 83 72 84 73 85 74 86 75 87 76 88
REMARK SMILES IDX 52 89 53 90 62 91 54 92 55 93 61 94 63 95 56 96 57 97 58 98
REMARK SMILES IDX 59 99 60 100
REMARK H PARENT 18 6 93 16 93 17 22 31 84 50 50 61
REMARK Flexibility Score: inf
ROOT
ATOM      1  C   UNL     1      -0.143   3.783  -3.269  1.00  0.00     0.042 C 
ENDROOT
BRANCH   1   2
ATOM      2  C   UNL     1      -1.557   4.278  -2.967  1.00  0.00     0.118 C 
BRANCH   2   3
ATOM      3  N   UNL     1      -2.289   4.454  -4.176  1.00  0.00    -0.352 N 
ATOM      4  C   UNL     1      -3.049   3.650  -4.955  1.00  0.00     0.253 C 
ATOM      5  O   UNL     1      -3.536   4.311  -5.883  1.00  0.00    -0.269 OA
ATOM      6  H   UNL     1      -2.228   5.372  -4.525  1.00  0.00     0.163 HD
BRANCH   4   7
ATOM      7  C   UNL     1      -3.349   2.190  -4.847  1.00  0.00     0.074 A 
ATOM      8  C   UNL     1      -2.900   1.095  -4.056  1.00  0.00     0.148 A 
ATOM      9  S   UNL     1      -3.662  -0.391  -4.589  1.00  0.00    -0.120 S 
ATOM     10  C   UNL     1      -4.519   0.321  -5.820  1.00  0.00     0.064 A 
ATOM     11  C   UNL     1      -4.367   1.683  -5.830  1.00  0.00    -0.009 A 
ATOM     12  C   UNL     1      -5.393  -0.484  -6.733  1.00  0.00     0.308 C 
ATOM     13  C   UNL     1      -5.175   2.477  -6.848  1.00  0.00     0.099 C 
ATOM     14  N   UNL     1      -5.796   0.290  -7.918  1.00  0.00    -0.342 N 
ATOM     15  C   UNL     1      -6.280   1.620  -7.505  1.00  0.00     0.265 C 
ATOM     16  H   UNL     1      -4.994   0.399  -8.539  1.00  0.00     0.346 HD
ATOM     17  H   UNL     1      -6.543  -0.205  -8.405  1.00  0.00     0.346 HD
BRANCH   8  18
ATOM     18  S   UNL     1      -1.786   0.602  -2.656  1.00  0.00     0.254 S 
ATOM     19  O   UNL     1      -2.384  -0.559  -2.036  1.00  0.00    -0.206 OA
ATOM     20  O   UNL     1      -1.587   1.762  -1.815  1.00  0.00    -0.206 OA
BRANCH  18  21
ATOM     21  N   UNL     1      -0.256   0.116  -3.282  1.00  0.00    -0.186 NA
ATOM     22  C   UNL     1       0.851   0.011  -2.251  1.00  0.00     0.096 C 
ATOM     23  C   UNL     1       1.137  -1.456  -2.198  1.00  0.00    -0.010 C 
ATOM     24  C   UNL     1       0.535  -2.108  -3.190  1.00  0.00    -0.013 C 
ATOM     25  C   UNL     1      -0.301  -1.194  -4.011  1.00  0.00     0.130 C 
BRANCH  22  26
ATOM     26  C   UNL     1       2.090   0.789  -2.743  1.00  0.00     0.021 C 
ATOM     27  C   UNL     1       3.361   0.525  -1.940  1.00  0.00     0.006 C 
ENDBRANCH  22  26
ENDBRANCH  18  21
ENDBRANCH   8  18
ENDBRANCH   4   7
ENDBRANCH   2   3
ENDBRANCH   1   2
BRANCH   1  28
ATOM     28  C   UNL     1       0.884   4.879  -3.067  1.00  0.00     0.118 C 
BRANCH  28  29
ATOM     29  N   UNL     1       1.009   5.220  -1.645  1.00  0.00    -0.352 N 
ATOM     30  C   UNL     1       1.663   6.285  -1.062  1.00  0.00     0.251 C 
ATOM     31  H   UNL     1       0.564   4.603  -1.020  1.00  0.00     0.163 HD
ATOM     32  O   UNL     1       1.962   6.263   0.126  1.00  0.00    -0.269 OA
BRANCH  30  33
ATOM     33  C   UNL     1       2.018   7.430  -1.914  1.00  0.00     0.039 A 
ATOM     34  C   UNL     1       3.290   7.994  -1.857  1.00  0.00     0.014 A 
ATOM     35  C   UNL     1       1.093   7.846  -2.867  1.00  0.00     0.014 A 
ATOM     36  C   UNL     1       3.662   8.885  -2.858  1.00  0.00     0.010 A 
ATOM     37  C   UNL     1       1.526   8.568  -3.952  1.00  0.00     0.010 A 
ATOM     38  C   UNL     1       2.799   9.123  -3.947  1.00  0.00    -0.014 A 
BRANCH  38  39
ATOM     39  C   UNL     1       3.287   9.834  -5.130  1.00  0.00     0.031 A 
ATOM     40  C   UNL     1       4.662   9.452  -5.545  1.00  0.00     0.074 A 
ATOM     41  C   UNL     1       2.564  10.680  -5.898  1.00  0.00     0.049 A 
ATOM     42  N   UNL     1       5.746  10.104  -5.283  1.00  0.00    -0.248 NA
ATOM     43  C   UNL     1       4.897   8.128  -6.141  1.00  0.00     0.031 C 
ATOM     44  C   UNL     1       1.132  10.992  -5.828  1.00  0.00     0.029 A 
ATOM     45  N   UNL     1       2.969  11.406  -6.980  1.00  0.00    -0.354 N 
ATOM     46  C   UNL     1       6.766   9.419  -5.929  1.00  0.00     0.074 A 
ATOM     47  C   UNL     1       6.231   8.118  -6.238  1.00  0.00     0.031 C 
ATOM     48  C   UNL     1       0.750  11.653  -6.943  1.00  0.00     0.029 A 
ATOM     49  C   UNL     1       1.935  11.983  -7.710  1.00  0.00     0.049 A 
ATOM     50  H   UNL     1       3.917  11.512  -7.224  1.00  0.00     0.167 HD
ATOM     51  C   UNL     1       7.851  10.093  -6.402  1.00  0.00     0.037 A 
ATOM     52  C   UNL     1       2.037  12.714  -8.848  1.00  0.00     0.037 A 
ATOM     53  C   UNL     1       7.926  11.419  -5.830  1.00  0.00     0.049 A 
ATOM     54  C   UNL     1       3.405  13.285  -8.863  1.00  0.00     0.074 A 
ATOM     55  C   UNL     1       7.958  11.932  -4.546  1.00  0.00     0.029 A 
ATOM     56  N   UNL     1       7.574  12.473  -6.639  1.00  0.00    -0.354 N 
ATOM     57  N   UNL     1       3.825  14.184  -8.016  1.00  0.00    -0.248 NA
ATOM     58  C   UNL     1       4.449  12.550  -9.557  1.00  0.00     0.031 C 
ATOM     59  C   UNL     1       7.159  13.115  -4.598  1.00  0.00     0.029 A 
ATOM     60  C   UNL     1       6.754  13.303  -5.920  1.00  0.00     0.049 A 
ATOM     61  H   UNL     1       7.860  12.608  -7.571  1.00  0.00     0.167 HD
ATOM     62  C   UNL     1       5.127  13.810  -7.728  1.00  0.00     0.074 A 
ATOM     63  C   UNL     1       5.492  12.876  -8.791  1.00  0.00     0.031 C 
ATOM     64  C   UNL     1       5.682  14.077  -6.509  1.00  0.00     0.037 A 
BRANCH  51  65
ATOM     65  C   UNL     1       8.577   9.740  -7.683  1.00  0.00     0.058 A 
ATOM     66  C   UNL     1       9.754  10.445  -8.015  1.00  0.00     0.135 A 
ATOM     67  C   UNL     1       8.014   8.975  -8.729  1.00  0.00     0.135 A 
ATOM     68  F   UNL     1      10.375  11.208  -7.100  1.00  0.00    -0.206 F 
ATOM     69  C   UNL     1      10.274  10.466  -9.309  1.00  0.00     0.059 A 
ATOM     70  C   UNL     1       8.547   8.937 -10.011  1.00  0.00     0.059 A 
ATOM     71  F   UNL     1       6.864   8.306  -8.594  1.00  0.00    -0.206 F 
ATOM     72  C   UNL     1       9.650   9.720 -10.304  1.00  0.00     0.060 A 
BRANCH  72  73
ATOM     73  S   UNL     1      10.257   9.819 -11.995  1.00  0.00     0.124 S 
ATOM     74  O   UNL     1       9.874  11.178 -12.359  1.00  0.00    -0.237 OA
ATOM     75  O   UNL     1      11.686   9.581 -11.816  1.00  0.00    -0.237 OA
ATOM     76  O   UNL     1       9.530   8.750 -12.674  1.00  0.00    -0.744 OA
ENDBRANCH  72  73
ENDBRANCH  51  65
BRANCH  52  77
ATOM     77  C   UNL     1       1.175  12.674 -10.059  1.00  0.00     0.058 A 
ATOM     78  C   UNL     1       1.399  13.569 -11.123  1.00  0.00     0.135 A 
ATOM     79  C   UNL     1       0.346  11.570 -10.341  1.00  0.00     0.135 A 
ATOM     80  F   UNL     1       2.170  14.652 -10.943  1.00  0.00    -0.206 F 
ATOM     81  C   UNL     1       0.919  13.330 -12.414  1.00  0.00     0.059 A 
ATOM     82  C   UNL     1      -0.154  11.318 -11.618  1.00  0.00     0.059 A 
ATOM     83  F   UNL     1       0.077  10.647  -9.406  1.00  0.00    -0.206 F 
ATOM     84  C   UNL     1       0.170  12.181 -12.659  1.00  0.00     0.060 A 
BRANCH  84  85
ATOM     85  S   UNL     1      -0.250  11.744 -14.363  1.00  0.00     0.124 S 
ATOM     86  O   UNL     1      -1.277  12.729 -14.683  1.00  0.00    -0.237 OA
ATOM     87  O   UNL     1       1.027  11.909 -15.049  1.00  0.00    -0.237 OA
ATOM     88  O   UNL     1      -0.718  10.365 -14.252  1.00  0.00    -0.744 OA
ENDBRANCH  84  85
ENDBRANCH  52  77
BRANCH  64  89
ATOM     89  C   UNL     1       5.028  15.125  -5.644  1.00  0.00     0.058 A 
ATOM     90  C   UNL     1       3.712  15.077  -5.150  1.00  0.00     0.135 A 
ATOM     91  C   UNL     1       5.825  16.204  -5.227  1.00  0.00     0.135 A 
ATOM     92  F   UNL     1       2.912  14.032  -5.406  1.00  0.00    -0.206 F 
ATOM     93  C   UNL     1       3.196  16.090  -4.335  1.00  0.00     0.059 A 
ATOM     94  C   UNL     1       5.344  17.203  -4.388  1.00  0.00     0.059 A 
ATOM     95  F   UNL     1       7.109  16.281  -5.614  1.00  0.00    -0.206 F 
ATOM     96  C   UNL     1       4.020  17.153  -3.964  1.00  0.00     0.060 A 
BRANCH  96  97
ATOM     97  S   UNL     1       3.365  18.451  -2.893  1.00  0.00     0.124 S 
ATOM     98  O   UNL     1       2.433  19.140  -3.780  1.00  0.00    -0.237 OA
ATOM     99  O   UNL     1       2.760  17.690  -1.804  1.00  0.00    -0.237 OA
ATOM    100  O   UNL     1       4.551  19.218  -2.520  1.00  0.00    -0.744 OA
ENDBRANCH  96  97
ENDBRANCH  64  89
ENDBRANCH  38  39
ENDBRANCH  30  33
ENDBRANCH  28  29
ENDBRANCH   1  28
TORSDOF 16
