REMARK SMILES Cc1c(CC(=O)NCCCNC(=O)c2ccc(-c3c4nc(c(-c5c(F)cc(S(=O)(=O)[O-])cc5F)c5ccc([nH]5)c(-c5c(F)cc(S(=O)(=O)[O-])cc5F)c5nc(c(-c6c(F)cc(S(=O)(=O)[O-])cc6F)c6ccc3[nH]6)C=C5)C=C4)cc2)cc(-c2ccccc2)cc1-c1ccccc1
REMARK SMILES IDX 9 1 8 2 7 3 5 4 6 5 4 7 3 8 1 9 2 10 89 11 80 12 88 13 81 14
REMARK SMILES IDX 90 15 91 16 95 17 92 18 94 19 93 20 82 21 83 22 87 23 84 24
REMARK SMILES IDX 86 25 85 26 10 27 11 28 12 29 13 31 14 32 15 33 79 34 16 35
REMARK SMILES IDX 78 36 17 37 18 38 19 39 72 40 20 41 77 42 71 43 73 44 21 45
REMARK SMILES IDX 76 46 70 47 69 48 22 50 56 51 35 52 55 53 36 54 39 55 54 56
REMARK SMILES IDX 74 57 37 58 38 59 53 61 75 62 40 63 23 64 24 65 33 66 25 67
REMARK SMILES IDX 26 68 32 69 34 70 27 71 28 72 29 73 30 74 31 75 57 76 58 77
REMARK SMILES IDX 67 78 59 79 60 80 66 81 68 82 61 83 62 84 63 85 64 86 65 87
REMARK SMILES IDX 41 88 42 89 51 90 43 91 44 92 50 93 52 94 45 95 46 96 47 97
REMARK SMILES IDX 48 98 49 99
REMARK H PARENT 7 6 11 30 73 49 39 60
REMARK Flexibility Score: inf
ROOT
ATOM      1  C   UNL     1       1.402  -0.507   3.046  1.00  0.00     0.042 C 
ENDROOT
BRANCH   1   2
ATOM      2  C   UNL     1       2.082  -1.853   2.815  1.00  0.00     0.117 C 
BRANCH   2   3
ATOM      3  N   UNL     1       1.146  -2.909   2.453  1.00  0.00    -0.356 N 
ATOM      4  C   UNL     1       0.678  -3.273   1.222  1.00  0.00     0.224 C 
ATOM      5  O   UNL     1      -0.094  -4.232   1.142  1.00  0.00    -0.275 OA
ATOM      6  H   UNL     1       0.799  -3.439   3.207  1.00  0.00     0.163 HD
BRANCH   4   7
ATOM      7  C   UNL     1       1.105  -2.514  -0.032  1.00  0.00     0.135 C 
BRANCH   7   8
ATOM      8  C   UNL     1       0.403  -1.177  -0.200  1.00  0.00    -0.035 A 
ATOM      9  C   UNL     1       2.595   0.109  -0.422  1.00  0.00     0.045 C 
ATOM     10  C   UNL     1       1.088   0.060  -0.308  1.00  0.00    -0.040 A 
ATOM     11  C   UNL     1       0.336   1.266  -0.328  1.00  0.00    -0.015 A 
ATOM     12  C   UNL     1      -1.010  -1.188  -0.195  1.00  0.00     0.013 A 
ATOM     13  C   UNL     1      -1.073   1.202  -0.293  1.00  0.00     0.017 A 
ATOM     14  C   UNL     1      -1.766  -0.013  -0.242  1.00  0.00    -0.017 A 
BRANCH  11  15
ATOM     15  C   UNL     1       0.964   2.600  -0.310  1.00  0.00    -0.018 A 
ATOM     16  C   UNL     1       0.864   3.411   0.835  1.00  0.00     0.009 A 
ATOM     17  C   UNL     1       1.688   3.087  -1.409  1.00  0.00     0.009 A 
ATOM     18  C   UNL     1       1.478   4.664   0.884  1.00  0.00     0.001 A 
ATOM     19  C   UNL     1       2.313   4.336  -1.356  1.00  0.00     0.001 A 
ATOM     20  C   UNL     1       2.207   5.123  -0.210  1.00  0.00     0.000 A 
ENDBRANCH  11  15
BRANCH  14  21
ATOM     21  C   UNL     1      -3.238  -0.048  -0.218  1.00  0.00    -0.018 A 
ATOM     22  C   UNL     1      -3.934  -0.727   0.796  1.00  0.00     0.009 A 
ATOM     23  C   UNL     1      -3.990   0.597  -1.214  1.00  0.00     0.009 A 
ATOM     24  C   UNL     1      -5.332  -0.762   0.812  1.00  0.00     0.001 A 
ATOM     25  C   UNL     1      -5.387   0.560  -1.202  1.00  0.00     0.001 A 
ATOM     26  C   UNL     1      -6.057  -0.120  -0.188  1.00  0.00     0.000 A 
ENDBRANCH  14  21
ENDBRANCH   7   8
ENDBRANCH   4   7
ENDBRANCH   2   3
ENDBRANCH   1   2
BRANCH   1  27
ATOM     27  C   UNL     1       0.816  -0.366   4.442  1.00  0.00     0.118 C 
BRANCH  27  28
ATOM     28  N   UNL     1       1.406   0.731   5.197  1.00  0.00    -0.352 N 
ATOM     29  C   UNL     1       0.961   1.261   6.396  1.00  0.00     0.251 C 
ATOM     30  H   UNL     1       2.213   1.142   4.811  1.00  0.00     0.163 HD
ATOM     31  O   UNL     1       1.345   2.331   6.826  1.00  0.00    -0.269 OA
BRANCH  29  32
ATOM     32  C   UNL     1       0.096   0.383   7.210  1.00  0.00     0.039 A 
ATOM     33  C   UNL     1       0.683  -0.215   8.331  1.00  0.00     0.014 A 
ATOM     34  C   UNL     1      -1.123  -0.061   6.706  1.00  0.00     0.014 A 
ATOM     35  C   UNL     1       0.122  -1.376   8.858  1.00  0.00     0.010 A 
ATOM     36  C   UNL     1      -1.626  -1.259   7.176  1.00  0.00     0.010 A 
ATOM     37  C   UNL     1      -0.985  -1.938   8.225  1.00  0.00    -0.014 A 
BRANCH  37  38
ATOM     38  C   UNL     1      -1.490  -3.276   8.522  1.00  0.00     0.031 A 
ATOM     39  C   UNL     1      -2.801  -3.452   9.195  1.00  0.00     0.074 A 
ATOM     40  C   UNL     1      -0.813  -4.367   8.101  1.00  0.00     0.049 A 
ATOM     41  N   UNL     1      -3.170  -4.530   9.804  1.00  0.00    -0.248 NA
ATOM     42  C   UNL     1      -3.797  -2.389   9.266  1.00  0.00     0.031 C 
ATOM     43  C   UNL     1      -1.335  -5.725   7.976  1.00  0.00     0.029 A 
ATOM     44  N   UNL     1       0.554  -4.503   7.868  1.00  0.00    -0.354 N 
ATOM     45  C   UNL     1      -4.512  -4.415  10.093  1.00  0.00     0.074 A 
ATOM     46  C   UNL     1      -4.843  -3.043   9.781  1.00  0.00     0.031 C 
ATOM     47  C   UNL     1      -0.308  -6.585   7.916  1.00  0.00     0.029 A 
ATOM     48  C   UNL     1       0.909  -5.832   8.156  1.00  0.00     0.049 A 
ATOM     49  H   UNL     1       1.162  -3.794   7.557  1.00  0.00     0.167 HD
ATOM     50  C   UNL     1      -5.231  -5.522  10.440  1.00  0.00     0.037 A 
ATOM     51  C   UNL     1       1.821  -6.132   9.129  1.00  0.00     0.037 A 
ATOM     52  C   UNL     1      -4.382  -6.708  10.515  1.00  0.00     0.049 A 
ATOM     53  C   UNL     1       1.264  -6.949  10.273  1.00  0.00     0.074 A 
ATOM     54  C   UNL     1      -4.109  -7.720   9.608  1.00  0.00     0.029 A 
ATOM     55  N   UNL     1      -3.434  -6.819  11.525  1.00  0.00    -0.354 N 
ATOM     56  N   UNL     1      -0.009  -7.128  10.489  1.00  0.00    -0.248 NA
ATOM     57  C   UNL     1       2.092  -7.613  11.278  1.00  0.00     0.031 C 
ATOM     58  C   UNL     1      -2.955  -8.410  10.050  1.00  0.00     0.029 A 
ATOM     59  C   UNL     1      -2.535  -7.829  11.233  1.00  0.00     0.049 A 
ATOM     60  H   UNL     1      -3.407  -6.259  12.334  1.00  0.00     0.167 HD
ATOM     61  C   UNL     1      -0.188  -7.856  11.636  1.00  0.00     0.074 A 
ATOM     62  C   UNL     1       1.159  -8.166  12.075  1.00  0.00     0.031 C 
ATOM     63  C   UNL     1      -1.431  -8.129  12.133  1.00  0.00     0.037 A 
BRANCH  50  64
ATOM     64  C   UNL     1      -6.746  -5.569  10.401  1.00  0.00     0.058 A 
ATOM     65  C   UNL     1      -7.427  -6.736   9.991  1.00  0.00     0.135 A 
ATOM     66  C   UNL     1      -7.581  -4.474  10.695  1.00  0.00     0.135 A 
ATOM     67  F   UNL     1      -6.782  -7.891   9.782  1.00  0.00    -0.206 F 
ATOM     68  C   UNL     1      -8.803  -6.772   9.759  1.00  0.00     0.059 A 
ATOM     69  C   UNL     1      -8.953  -4.466  10.417  1.00  0.00     0.059 A 
ATOM     70  F   UNL     1      -7.098  -3.378  11.299  1.00  0.00    -0.206 F 
ATOM     71  C   UNL     1      -9.554  -5.619   9.931  1.00  0.00     0.060 A 
BRANCH  71  72
ATOM     72  S   UNL     1     -11.305  -5.652   9.501  1.00  0.00     0.124 S 
ATOM     73  O   UNL     1     -11.282  -6.205   8.150  1.00  0.00    -0.237 OA
ATOM     74  O   UNL     1     -11.855  -6.522  10.534  1.00  0.00    -0.237 OA
ATOM     75  O   UNL     1     -11.701  -4.249   9.586  1.00  0.00    -0.744 OA
ENDBRANCH  71  72
ENDBRANCH  50  64
BRANCH  51  76
ATOM     76  C   UNL     1       2.919  -5.132   9.225  1.00  0.00     0.058 A 
ATOM     77  C   UNL     1       3.831  -5.077   8.154  1.00  0.00     0.135 A 
ATOM     78  C   UNL     1       2.794  -3.994  10.033  1.00  0.00     0.135 A 
ATOM     79  F   UNL     1       4.005  -6.151   7.365  1.00  0.00    -0.206 F 
ATOM     80  C   UNL     1       4.446  -3.888   7.781  1.00  0.00     0.059 A 
ATOM     81  C   UNL     1       3.410  -2.790   9.681  1.00  0.00     0.059 A 
ATOM     82  F   UNL     1       1.949  -3.993  11.075  1.00  0.00    -0.206 F 
ATOM     83  C   UNL     1       4.164  -2.734   8.508  1.00  0.00     0.060 A 
BRANCH  83  84
ATOM     84  S   UNL     1       4.637  -1.147   7.779  1.00  0.00     0.124 S 
ATOM     85  O   UNL     1       6.072  -1.318   7.577  1.00  0.00    -0.237 OA
ATOM     86  O   UNL     1       3.829  -1.129   6.559  1.00  0.00    -0.237 OA
ATOM     87  O   UNL     1       4.254  -0.181   8.801  1.00  0.00    -0.744 OA
ENDBRANCH  83  84
ENDBRANCH  51  76
BRANCH  63  88
ATOM     88  C   UNL     1      -1.736  -8.773  13.463  1.00  0.00     0.058 A 
ATOM     89  C   UNL     1      -0.949  -8.608  14.615  1.00  0.00     0.135 A 
ATOM     90  C   UNL     1      -2.948  -9.483  13.649  1.00  0.00     0.135 A 
ATOM     91  F   UNL     1       0.170  -7.869  14.592  1.00  0.00    -0.206 F 
ATOM     92  C   UNL     1      -1.305  -9.155  15.850  1.00  0.00     0.059 A 
ATOM     93  C   UNL     1      -3.348  -9.992  14.882  1.00  0.00     0.059 A 
ATOM     94  F   UNL     1      -3.795  -9.697  12.630  1.00  0.00    -0.206 F 
ATOM     95  C   UNL     1      -2.507  -9.844  15.975  1.00  0.00     0.060 A 
BRANCH  95  96
ATOM     96  S   UNL     1      -3.017 -10.497  17.577  1.00  0.00     0.124 S 
ATOM     97  O   UNL     1      -2.558 -11.879  17.488  1.00  0.00    -0.237 OA
ATOM     98  O   UNL     1      -2.292  -9.653  18.522  1.00  0.00    -0.237 OA
ATOM     99  O   UNL     1      -4.464 -10.306  17.563  1.00  0.00    -0.744 OA
ENDBRANCH  95  96
ENDBRANCH  63  88
ENDBRANCH  37  38
ENDBRANCH  29  32
ENDBRANCH  27  28
ENDBRANCH   1  27
TORSDOF 16
