REMARK SMILES CCC[C@@]1(C(=O)NCCCNC(=O)c2ccc(-c3c4nc(c(-c5c(F)cc(S(=O)(=O)[O-])cc5F)c5ccc([nH]5)c(-c5c(F)cc(S(=O)(=O)[O-])cc5F)c5nc(c(-c6c(F)cc(S(=O)(=O)[O-])cc6F)c6ccc3[nH]6)C=C5)C=C4)cc2)CCCN(C(=O)C[C@H]2CCCCO2)C1
REMARK SMILES IDX 9 1 8 2 7 3 5 4 6 5 4 7 80 8 93 9 81 10 83 11 82 12 3 13
REMARK SMILES IDX 2 14 1 15 84 16 85 17 86 18 87 19 88 20 92 21 89 22 91 23
REMARK SMILES IDX 90 24 10 25 11 26 12 27 13 29 14 30 15 31 79 32 16 33 78 34
REMARK SMILES IDX 17 35 18 36 19 37 72 38 20 39 77 40 71 41 73 42 21 43 76 44
REMARK SMILES IDX 70 45 69 46 22 48 56 49 35 50 55 51 36 52 39 53 54 54 74 55
REMARK SMILES IDX 37 56 38 57 53 59 75 60 40 61 23 62 24 63 33 64 25 65 26 66
REMARK SMILES IDX 32 67 34 68 27 69 28 70 29 71 30 72 31 73 57 74 58 75 67 76
REMARK SMILES IDX 59 77 60 78 66 79 68 80 61 81 62 82 63 83 64 84 65 85 41 86
REMARK SMILES IDX 42 87 51 88 43 89 44 90 50 91 52 92 45 93 46 94 47 95 48 96
REMARK SMILES IDX 49 97
REMARK H PARENT 7 6 11 28 73 47 39 58
REMARK Flexibility Score: inf
ROOT
ATOM      1  C   UNL     1       0.021   0.856  -1.827  1.00  0.00     0.042 C 
ENDROOT
BRANCH   1   2
ATOM      2  C   UNL     1       0.043   0.078  -3.123  1.00  0.00     0.117 C 
BRANCH   2   3
ATOM      3  N   UNL     1      -1.208  -0.544  -3.607  1.00  0.00    -0.355 N 
ATOM      4  C   UNL     1      -1.400  -1.048  -4.906  1.00  0.00     0.228 C 
ATOM      5  O   UNL     1      -1.729  -2.236  -5.017  1.00  0.00    -0.274 OA
ATOM      6  H   UNL     1      -1.960  -0.610  -2.975  1.00  0.00     0.163 HD
BRANCH   4   7
ATOM      7  C   UNL     1      -1.581  -0.062  -6.120  1.00  0.00     0.067 C 
ATOM      8  C   UNL     1      -1.372  -0.604  -7.609  1.00  0.00     0.020 C 
ATOM      9  C   UNL     1      -0.575   1.075  -5.987  1.00  0.00     0.136 C 
ATOM     10  C   UNL     1      -0.087  -0.291  -8.445  1.00  0.00     0.023 C 
ATOM     11  N   UNL     1       0.801   0.621  -6.455  1.00  0.00    -0.342 N 
ATOM     12  C   UNL     1       0.878   0.745  -7.880  1.00  0.00     0.119 C 
BRANCH   7  13
ATOM     13  C   UNL     1      -3.163   0.124  -6.022  1.00  0.00     0.018 C 
BRANCH  13  14
ATOM     14  C   UNL     1      -3.894   1.449  -5.897  1.00  0.00    -0.002 C 
ATOM     15  C   UNL     1      -3.533   2.523  -6.893  1.00  0.00     0.004 C 
ENDBRANCH  13  14
ENDBRANCH   7  13
BRANCH  11  16
ATOM     16  C   UNL     1       1.546  -0.426  -5.878  1.00  0.00     0.225 C 
ATOM     17  O   UNL     1       1.098  -1.176  -5.015  1.00  0.00    -0.275 OA
BRANCH  16  18
ATOM     18  C   UNL     1       2.888  -0.878  -6.414  1.00  0.00     0.132 C 
BRANCH  18  19
ATOM     19  C   UNL     1       2.596  -2.230  -7.086  1.00  0.00     0.127 C 
ATOM     20  C   UNL     1       3.302  -2.412  -8.419  1.00  0.00     0.033 C 
ATOM     21  O   UNL     1       2.957  -3.345  -6.254  1.00  0.00    -0.378 OA
ATOM     22  C   UNL     1       2.720  -3.658  -9.085  1.00  0.00     0.005 C 
ATOM     23  C   UNL     1       2.321  -4.540  -6.726  1.00  0.00     0.160 C 
ATOM     24  C   UNL     1       2.767  -4.870  -8.151  1.00  0.00     0.029 C 
ENDBRANCH  18  19
ENDBRANCH  16  18
ENDBRANCH  11  16
ENDBRANCH   4   7
ENDBRANCH   2   3
ENDBRANCH   1   2
BRANCH   1  25
ATOM     25  C   UNL     1       0.567   0.011  -0.681  1.00  0.00     0.118 C 
BRANCH  25  26
ATOM     26  N   UNL     1       1.933  -0.505  -0.909  1.00  0.00    -0.352 N 
ATOM     27  C   UNL     1       3.174  -0.118  -0.468  1.00  0.00     0.251 C 
ATOM     28  H   UNL     1       1.958  -1.292  -1.502  1.00  0.00     0.163 HD
ATOM     29  O   UNL     1       4.184  -0.620  -0.966  1.00  0.00    -0.269 OA
BRANCH  27  30
ATOM     30  C   UNL     1       3.314   0.911   0.574  1.00  0.00     0.039 A 
ATOM     31  C   UNL     1       4.377   1.819   0.531  1.00  0.00     0.014 A 
ATOM     32  C   UNL     1       2.374   0.994   1.594  1.00  0.00     0.014 A 
ATOM     33  C   UNL     1       4.410   2.880   1.438  1.00  0.00     0.010 A 
ATOM     34  C   UNL     1       2.310   2.133   2.372  1.00  0.00     0.010 A 
ATOM     35  C   UNL     1       3.332   3.088   2.314  1.00  0.00    -0.014 A 
BRANCH  35  36
ATOM     36  C   UNL     1       3.225   4.286   3.181  1.00  0.00     0.031 A 
ATOM     37  C   UNL     1       3.037   4.120   4.666  1.00  0.00     0.074 A 
ATOM     38  C   UNL     1       3.167   5.508   2.615  1.00  0.00     0.049 A 
ATOM     39  N   UNL     1       2.776   5.026   5.572  1.00  0.00    -0.248 NA
ATOM     40  C   UNL     1       3.095   2.746   5.195  1.00  0.00     0.031 C 
ATOM     41  C   UNL     1       3.262   5.786   1.179  1.00  0.00     0.029 A 
ATOM     42  N   UNL     1       3.000   6.747   3.178  1.00  0.00    -0.354 N 
ATOM     43  C   UNL     1       2.607   4.328   6.763  1.00  0.00     0.074 A 
ATOM     44  C   UNL     1       2.712   2.922   6.449  1.00  0.00     0.031 C 
ATOM     45  C   UNL     1       3.201   7.111   0.980  1.00  0.00     0.029 A 
ATOM     46  C   UNL     1       3.005   7.774   2.264  1.00  0.00     0.049 A 
ATOM     47  H   UNL     1       2.887   6.888   4.146  1.00  0.00     0.167 HD
ATOM     48  C   UNL     1       2.419   4.816   8.011  1.00  0.00     0.037 A 
ATOM     49  C   UNL     1       2.860   9.101   2.441  1.00  0.00     0.037 A 
ATOM     50  C   UNL     1       2.354   6.222   8.310  1.00  0.00     0.049 A 
ATOM     51  C   UNL     1       2.653   9.626   3.833  1.00  0.00     0.074 A 
ATOM     52  C   UNL     1       2.250   6.836   9.544  1.00  0.00     0.029 A 
ATOM     53  N   UNL     1       2.382   7.233   7.359  1.00  0.00    -0.354 N 
ATOM     54  N   UNL     1       2.581   8.959   4.962  1.00  0.00    -0.248 NA
ATOM     55  C   UNL     1       2.506  11.079   3.979  1.00  0.00     0.031 C 
ATOM     56  C   UNL     1       2.158   8.216   9.335  1.00  0.00     0.029 A 
ATOM     57  C   UNL     1       2.261   8.467   7.975  1.00  0.00     0.049 A 
ATOM     58  H   UNL     1       2.474   7.093   6.388  1.00  0.00     0.167 HD
ATOM     59  C   UNL     1       2.395   9.913   5.955  1.00  0.00     0.074 A 
ATOM     60  C   UNL     1       2.386  11.204   5.294  1.00  0.00     0.031 C 
ATOM     61  C   UNL     1       2.245   9.739   7.292  1.00  0.00     0.037 A 
BRANCH  48  62
ATOM     62  C   UNL     1       2.276   3.819   9.131  1.00  0.00     0.058 A 
ATOM     63  C   UNL     1       3.336   2.981   9.519  1.00  0.00     0.135 A 
ATOM     64  C   UNL     1       1.058   3.685   9.817  1.00  0.00     0.135 A 
ATOM     65  F   UNL     1       4.521   3.054   8.891  1.00  0.00    -0.206 F 
ATOM     66  C   UNL     1       3.177   2.010  10.502  1.00  0.00     0.059 A 
ATOM     67  C   UNL     1       0.887   2.746  10.831  1.00  0.00     0.059 A 
ATOM     68  F   UNL     1       0.010   4.459   9.493  1.00  0.00    -0.206 F 
ATOM     69  C   UNL     1       1.946   1.896  11.149  1.00  0.00     0.060 A 
BRANCH  69  70
ATOM     70  S   UNL     1       1.747   0.612  12.401  1.00  0.00     0.124 S 
ATOM     71  O   UNL     1       1.700  -0.592  11.577  1.00  0.00    -0.237 OA
ATOM     72  O   UNL     1       2.950   0.777  13.211  1.00  0.00    -0.237 OA
ATOM     73  O   UNL     1       0.496   0.970  13.061  1.00  0.00    -0.744 OA
ENDBRANCH  69  70
ENDBRANCH  48  62
BRANCH  49  74
ATOM     74  C   UNL     1       2.954  10.014   1.271  1.00  0.00     0.058 A 
ATOM     75  C   UNL     1       4.075  10.840   1.099  1.00  0.00     0.135 A 
ATOM     76  C   UNL     1       1.966  10.040   0.274  1.00  0.00     0.135 A 
ATOM     77  F   UNL     1       5.044  10.856   2.027  1.00  0.00    -0.206 F 
ATOM     78  C   UNL     1       4.215  11.658  -0.018  1.00  0.00     0.059 A 
ATOM     79  C   UNL     1       2.095  10.830  -0.864  1.00  0.00     0.059 A 
ATOM     80  F   UNL     1       0.882   9.255   0.381  1.00  0.00    -0.206 F 
ATOM     81  C   UNL     1       3.223  11.638  -1.000  1.00  0.00     0.060 A 
BRANCH  81  82
ATOM     82  S   UNL     1       3.459  12.641  -2.484  1.00  0.00     0.124 S 
ATOM     83  O   UNL     1       3.288  13.990  -1.958  1.00  0.00    -0.237 OA
ATOM     84  O   UNL     1       4.815  12.278  -2.884  1.00  0.00    -0.237 OA
ATOM     85  O   UNL     1       2.403  12.172  -3.377  1.00  0.00    -0.744 OA
ENDBRANCH  81  82
ENDBRANCH  49  74
BRANCH  61  86
ATOM     86  C   UNL     1       2.062  10.973   8.131  1.00  0.00     0.058 A 
ATOM     87  C   UNL     1       0.867  11.708   8.105  1.00  0.00     0.135 A 
ATOM     88  C   UNL     1       3.070  11.387   9.017  1.00  0.00     0.135 A 
ATOM     89  F   UNL     1      -0.123  11.359   7.269  1.00  0.00    -0.206 F 
ATOM     90  C   UNL     1       0.684  12.822   8.916  1.00  0.00     0.059 A 
ATOM     91  C   UNL     1       2.896  12.480   9.860  1.00  0.00     0.059 A 
ATOM     92  F   UNL     1       4.229  10.713   9.087  1.00  0.00    -0.206 F 
ATOM     93  C   UNL     1       1.702  13.197   9.795  1.00  0.00     0.060 A 
BRANCH  93  94
ATOM     94  S   UNL     1       1.430  14.617  10.874  1.00  0.00     0.124 S 
ATOM     95  O   UNL     1       1.499  15.724   9.926  1.00  0.00    -0.237 OA
ATOM     96  O   UNL     1       0.108  14.338  11.427  1.00  0.00    -0.237 OA
ATOM     97  O   UNL     1       2.532  14.537  11.827  1.00  0.00    -0.744 OA
ENDBRANCH  93  94
ENDBRANCH  61  86
ENDBRANCH  35  36
ENDBRANCH  27  30
ENDBRANCH  25  26
ENDBRANCH   1  25
TORSDOF 18
