REMARK SMILES O=C(C[C@@H](C(=O)NCCCNC(=O)c1ccc(-c2c3nc(c(-c4c(F)cc(S(=O)(=O)[O-])cc4F)c4ccc([nH]4)c(-c4c(F)cc(S(=O)(=O)[O-])cc4F)c4nc(c(-c5c(F)cc(S(=O)(=O)[O-])cc5F)c5ccc2[nH]5)C=C4)C=C3)cc1)c1ccccc1)Nc1cc(C(F)(F)F)ccc1-n1cncn1
REMARK SMILES IDX 8 1 7 2 5 3 6 4 4 6 3 7 2 8 1 9 86 10 87 12 88 13 96 14
REMARK SMILES IDX 89 15 95 16 94 17 97 18 98 19 101 20 99 21 100 22 90 23
REMARK SMILES IDX 91 24 92 25 93 26 80 27 81 28 85 29 82 30 84 31 83 32 9 33
REMARK SMILES IDX 10 34 11 35 12 36 13 38 14 39 15 40 79 41 16 42 78 43 17 44
REMARK SMILES IDX 18 45 19 46 72 47 20 48 77 49 71 50 73 51 21 52 76 53 70 54
REMARK SMILES IDX 69 55 22 57 56 58 35 59 55 60 36 61 39 62 54 63 74 64 37 65
REMARK SMILES IDX 38 66 53 68 75 69 40 70 23 71 24 72 33 73 25 74 26 75 32 76
REMARK SMILES IDX 34 77 27 78 28 79 29 80 30 81 31 82 57 83 58 84 67 85 59 86
REMARK SMILES IDX 60 87 66 88 68 89 61 90 62 91 63 92 64 93 65 94 41 95 42 96
REMARK SMILES IDX 51 97 43 98 44 99 50 100 52 101 45 102 46 103 47 104 48 105
REMARK SMILES IDX 49 106
REMARK H PARENT 7 5 86 11 11 37 73 56 39 67
REMARK Flexibility Score: inf
ROOT
ATOM      1  C   UNL     1       3.868  -2.323  -2.242  1.00  0.00     0.117 C 
ENDROOT
BRANCH   1   2
ATOM      2  N   UNL     1       4.814  -2.298  -1.076  1.00  0.00    -0.355 N 
ATOM      3  C   UNL     1       4.777  -1.509   0.056  1.00  0.00     0.228 C 
ATOM      4  O   UNL     1       5.660  -0.656   0.188  1.00  0.00    -0.274 OA
ATOM      5  H   UNL     1       5.565  -2.933  -1.126  1.00  0.00     0.163 HD
BRANCH   3   6
ATOM      6  C   UNL     1       3.766  -1.787   1.195  1.00  0.00     0.118 C 
BRANCH   6   7
ATOM      7  C   UNL     1       2.936  -0.544   1.538  1.00  0.00     0.118 C 
BRANCH   7   8
ATOM      8  C   UNL     1       2.103  -0.089   0.392  1.00  0.00     0.225 C 
ATOM      9  O   UNL     1       1.240  -0.798  -0.140  1.00  0.00    -0.275 OA
ATOM     10  N   UNL     1       2.473   1.171  -0.015  1.00  0.00    -0.324 N 
ATOM     11  H   UNL     1       3.101   1.694   0.532  1.00  0.00     0.170 HD
BRANCH  10  12
ATOM     12  C   UNL     1       1.970   1.712  -1.189  1.00  0.00     0.067 A 
ATOM     13  C   UNL     1       2.716   1.396  -2.277  1.00  0.00     0.041 A 
ATOM     14  C   UNL     1       0.815   2.437  -1.374  1.00  0.00     0.090 A 
ATOM     15  C   UNL     1       2.745   2.237  -3.353  1.00  0.00     0.058 A 
ATOM     16  C   UNL     1       0.502   2.886  -2.655  1.00  0.00     0.031 A 
ATOM     17  C   UNL     1       1.536   2.886  -3.612  1.00  0.00     0.015 A 
BRANCH  14  18
ATOM     18  N   UNL     1       0.078   2.837  -0.262  1.00  0.00    -0.219 N 
ATOM     19  C   UNL     1       0.599   3.289   0.924  1.00  0.00     0.226 A 
ATOM     20  N   UNL     1      -1.264   2.822  -0.203  1.00  0.00    -0.155 NA
ATOM     21  N   UNL     1      -0.350   3.417   1.815  1.00  0.00    -0.223 NA
ATOM     22  C   UNL     1      -1.466   3.111   1.087  1.00  0.00     0.246 A 
ENDBRANCH  14  18
BRANCH  15  23
ATOM     23  C   UNL     1       4.117   2.345  -3.980  1.00  0.00     0.416 C 
ATOM     24  F   UNL     1       5.108   2.059  -3.075  1.00  0.00    -0.166 F 
ATOM     25  F   UNL     1       4.380   1.467  -4.981  1.00  0.00    -0.166 F 
ATOM     26  F   UNL     1       4.419   3.580  -4.452  1.00  0.00    -0.166 F 
ENDBRANCH  15  23
ENDBRANCH  10  12
ENDBRANCH   7   8
ENDBRANCH   6   7
BRANCH   6  27
ATOM     27  C   UNL     1       4.496  -2.193   2.500  1.00  0.00    -0.035 A 
ATOM     28  C   UNL     1       4.528  -3.532   2.907  1.00  0.00     0.004 A 
ATOM     29  C   UNL     1       5.114  -1.240   3.343  1.00  0.00     0.004 A 
ATOM     30  C   UNL     1       5.139  -3.898   4.115  1.00  0.00     0.000 A 
ATOM     31  C   UNL     1       5.700  -1.602   4.558  1.00  0.00     0.000 A 
ATOM     32  C   UNL     1       5.716  -2.935   4.942  1.00  0.00     0.000 A 
ENDBRANCH   6  27
ENDBRANCH   3   6
ENDBRANCH   1   2
BRANCH   1  33
ATOM     33  C   UNL     1       4.277  -1.255  -3.322  1.00  0.00     0.042 C 
BRANCH  33  34
ATOM     34  C   UNL     1       3.619  -1.136  -4.789  1.00  0.00     0.118 C 
BRANCH  34  35
ATOM     35  N   UNL     1       2.401  -0.253  -5.075  1.00  0.00    -0.352 N 
ATOM     36  C   UNL     1       1.945   0.175  -6.377  1.00  0.00     0.251 C 
ATOM     37  H   UNL     1       1.879   0.052  -4.298  1.00  0.00     0.163 HD
ATOM     38  O   UNL     1       1.449  -0.675  -7.118  1.00  0.00    -0.269 OA
BRANCH  36  39
ATOM     39  C   UNL     1       1.723   1.684  -6.755  1.00  0.00     0.039 A 
ATOM     40  C   UNL     1       0.513   2.162  -7.306  1.00  0.00     0.014 A 
ATOM     41  C   UNL     1       2.695   2.674  -6.662  1.00  0.00     0.014 A 
ATOM     42  C   UNL     1       0.245   3.573  -7.518  1.00  0.00     0.010 A 
ATOM     43  C   UNL     1       2.393   4.067  -6.710  1.00  0.00     0.010 A 
ATOM     44  C   UNL     1       1.158   4.571  -7.126  1.00  0.00    -0.014 A 
BRANCH  44  45
ATOM     45  C   UNL     1       0.918   6.085  -7.085  1.00  0.00     0.031 A 
ATOM     46  C   UNL     1       1.910   7.074  -7.723  1.00  0.00     0.074 A 
ATOM     47  C   UNL     1      -0.018   6.634  -6.268  1.00  0.00     0.049 A 
ATOM     48  N   UNL     1       1.910   8.391  -7.727  1.00  0.00    -0.248 NA
ATOM     49  C   UNL     1       3.098   6.500  -8.373  1.00  0.00     0.031 C 
ATOM     50  C   UNL     1      -0.919   5.884  -5.392  1.00  0.00     0.029 A 
ATOM     51  N   UNL     1      -0.327   7.955  -5.979  1.00  0.00    -0.354 N 
ATOM     52  C   UNL     1       3.093   8.785  -8.361  1.00  0.00     0.074 A 
ATOM     53  C   UNL     1       3.833   7.574  -8.624  1.00  0.00     0.031 C 
ATOM     54  C   UNL     1      -1.660   6.740  -4.665  1.00  0.00     0.029 A 
ATOM     55  C   UNL     1      -1.323   8.114  -5.033  1.00  0.00     0.049 A 
ATOM     56  H   UNL     1       0.124   8.715  -6.411  1.00  0.00     0.167 HD
ATOM     57  C   UNL     1       3.522  10.020  -8.741  1.00  0.00     0.037 A 
ATOM     58  C   UNL     1      -1.925   9.221  -4.536  1.00  0.00     0.037 A 
ATOM     59  C   UNL     1       2.799  11.239  -8.482  1.00  0.00     0.049 A 
ATOM     60  C   UNL     1      -1.531  10.587  -5.054  1.00  0.00     0.074 A 
ATOM     61  C   UNL     1       3.054  12.518  -8.952  1.00  0.00     0.029 A 
ATOM     62  N   UNL     1       1.689  11.333  -7.660  1.00  0.00    -0.354 N 
ATOM     63  N   UNL     1      -0.551  10.909  -5.866  1.00  0.00    -0.248 NA
ATOM     64  C   UNL     1      -2.347  11.736  -4.624  1.00  0.00     0.031 C 
ATOM     65  C   UNL     1       2.122  13.391  -8.377  1.00  0.00     0.029 A 
ATOM     66  C   UNL     1       1.254  12.646  -7.596  1.00  0.00     0.049 A 
ATOM     67  H   UNL     1       1.269  10.576  -7.190  1.00  0.00     0.167 HD
ATOM     68  C   UNL     1      -0.665  12.282  -6.079  1.00  0.00     0.074 A 
ATOM     69  C   UNL     1      -1.809  12.731  -5.316  1.00  0.00     0.031 C 
ATOM     70  C   UNL     1       0.107  13.092  -6.846  1.00  0.00     0.037 A 
BRANCH  57  71
ATOM     71  C   UNL     1       4.800  10.116  -9.555  1.00  0.00     0.058 A 
ATOM     72  C   UNL     1       4.881   9.548 -10.840  1.00  0.00     0.135 A 
ATOM     73  C   UNL     1       5.921  10.835  -9.102  1.00  0.00     0.135 A 
ATOM     74  F   UNL     1       3.844   8.856 -11.339  1.00  0.00    -0.206 F 
ATOM     75  C   UNL     1       6.029   9.648 -11.620  1.00  0.00     0.059 A 
ATOM     76  C   UNL     1       7.071  10.977  -9.882  1.00  0.00     0.059 A 
ATOM     77  F   UNL     1       5.908  11.418  -7.893  1.00  0.00    -0.206 F 
ATOM     78  C   UNL     1       7.120  10.366 -11.134  1.00  0.00     0.060 A 
BRANCH  78  79
ATOM     79  S   UNL     1       8.590  10.496 -12.177  1.00  0.00     0.124 S 
ATOM     80  O   UNL     1       9.111   9.133 -12.117  1.00  0.00    -0.237 OA
ATOM     81  O   UNL     1       8.025  10.899 -13.462  1.00  0.00    -0.237 OA
ATOM     82  O   UNL     1       9.399  11.507 -11.505  1.00  0.00    -0.744 OA
ENDBRANCH  78  79
ENDBRANCH  57  71
BRANCH  58  83
ATOM     83  C   UNL     1      -3.073   9.093  -3.584  1.00  0.00     0.058 A 
ATOM     84  C   UNL     1      -4.387   9.330  -4.025  1.00  0.00     0.135 A 
ATOM     85  C   UNL     1      -2.903   8.730  -2.239  1.00  0.00     0.135 A 
ATOM     86  F   UNL     1      -4.608   9.695  -5.297  1.00  0.00    -0.206 F 
ATOM     87  C   UNL     1      -5.483   9.228  -3.173  1.00  0.00     0.059 A 
ATOM     88  C   UNL     1      -3.988   8.597  -1.370  1.00  0.00     0.059 A 
ATOM     89  F   UNL     1      -1.674   8.482  -1.761  1.00  0.00    -0.206 F 
ATOM     90  C   UNL     1      -5.275   8.855  -1.845  1.00  0.00     0.060 A 
BRANCH  90  91
ATOM     91  S   UNL     1      -6.715   8.670  -0.767  1.00  0.00     0.124 S 
ATOM     92  O   UNL     1      -7.136  10.058  -0.596  1.00  0.00    -0.237 OA
ATOM     93  O   UNL     1      -7.598   7.835  -1.579  1.00  0.00    -0.237 OA
ATOM     94  O   UNL     1      -6.170   8.025   0.419  1.00  0.00    -0.744 OA
ENDBRANCH  90  91
ENDBRANCH  58  83
BRANCH  70  95
ATOM     95  C   UNL     1      -0.274  14.545  -6.950  1.00  0.00     0.058 A 
ATOM     96  C   UNL     1      -0.104  15.437  -5.880  1.00  0.00     0.135 A 
ATOM     97  C   UNL     1      -0.752  15.066  -8.164  1.00  0.00     0.135 A 
ATOM     98  F   UNL     1       0.348  14.995  -4.696  1.00  0.00    -0.206 F 
ATOM     99  C   UNL     1      -0.417  16.788  -6.002  1.00  0.00     0.059 A 
ATOM    100  C   UNL     1      -1.043  16.418  -8.318  1.00  0.00     0.059 A 
ATOM    101  F   UNL     1      -0.922  14.260  -9.225  1.00  0.00    -0.206 F 
ATOM    102  C   UNL     1      -0.883  17.270  -7.227  1.00  0.00     0.060 A 
BRANCH 102 103
ATOM    103  S   UNL     1      -1.248  19.031  -7.383  1.00  0.00     0.124 S 
ATOM    104  O   UNL     1      -2.477  19.147  -6.606  1.00  0.00    -0.237 OA
ATOM    105  O   UNL     1      -0.064  19.648  -6.792  1.00  0.00    -0.237 OA
ATOM    106  O   UNL     1      -1.394  19.223  -8.823  1.00  0.00    -0.744 OA
ENDBRANCH 102 103
ENDBRANCH  70  95
ENDBRANCH  44  45
ENDBRANCH  36  39
ENDBRANCH  34  35
ENDBRANCH  33  34
ENDBRANCH   1  33
TORSDOF 19
