REMARK SMILES CS(=O)(=O)c1ccc(/C=C(/C(=O)NCCCNC(=O)c2ccc(-c3c4nc(c(-c5c(F)cc(S(=O)(=O)[O-])cc5F)c5ccc([nH]5)c(-c5c(F)cc(S(=O)(=O)[O-])cc5F)c5nc(c(-c6c(F)cc(S(=O)(=O)[O-])cc6F)c6ccc3[nH]6)C=C5)C=C4)cc2)c2cccc(-c3ccc(S(C)(=O)=O)cc3)c2)cc1
REMARK SMILES IDX 15 1 14 2 13 3 11 4 12 5 10 7 9 8 8 9 5 10 6 11 103 12 7 13
REMARK SMILES IDX 102 14 2 15 1 16 3 17 4 18 86 19 87 20 101 21 88 22 90 23
REMARK SMILES IDX 89 24 91 25 92 26 100 27 93 28 99 29 94 30 95 31 96 32 97 33
REMARK SMILES IDX 98 34 16 35 17 36 18 37 19 39 20 40 21 41 85 42 22 43 84 44
REMARK SMILES IDX 23 45 24 46 25 47 78 48 26 49 83 50 77 51 79 52 27 53 82 54
REMARK SMILES IDX 76 55 75 56 28 58 62 59 41 60 61 61 42 62 45 63 60 64 80 65
REMARK SMILES IDX 43 66 44 67 59 69 81 70 46 71 29 72 30 73 39 74 31 75 32 76
REMARK SMILES IDX 38 77 40 78 33 79 34 80 35 81 36 82 37 83 63 84 64 85 73 86
REMARK SMILES IDX 65 87 66 88 72 89 74 90 67 91 68 92 69 93 70 94 71 95 47 96
REMARK SMILES IDX 48 97 57 98 49 99 50 100 56 101 58 102 51 103 52 104 53 105
REMARK SMILES IDX 54 106 55 107
REMARK H PARENT 13 6 17 38 79 57 45 68
REMARK Flexibility Score: inf
ROOT
ATOM      1  C   UNL     1       4.414  -7.892   4.832  1.00  0.00     0.042 C 
ENDROOT
BRANCH   1   2
ATOM      2  C   UNL     1       4.401  -7.873   3.303  1.00  0.00     0.118 C 
BRANCH   2   3
ATOM      3  N   UNL     1       3.373  -8.760   2.793  1.00  0.00    -0.352 N 
ATOM      4  C   UNL     1       2.123  -8.578   2.298  1.00  0.00     0.251 C 
ATOM      5  O   UNL     1       1.522  -9.610   1.986  1.00  0.00    -0.269 OA
ATOM      6  H   UNL     1       3.642  -9.706   2.811  1.00  0.00     0.163 HD
BRANCH   4   7
ATOM      7  C   UNL     1       1.505  -7.222   2.028  1.00  0.00     0.047 C 
ATOM      8  C   UNL     1       1.779  -6.126   2.777  1.00  0.00     0.022 C 
BRANCH   8   9
ATOM      9  C   UNL     1       1.370  -4.708   2.590  1.00  0.00    -0.025 A 
ATOM     10  C   UNL     1       0.805  -1.996   2.078  1.00  0.00     0.067 A 
ATOM     11  C   UNL     1      -0.180  -2.962   1.882  1.00  0.00     0.021 A 
ATOM     12  C   UNL     1       2.047  -2.356   2.599  1.00  0.00     0.021 A 
ATOM     13  C   UNL     1       0.096  -4.302   2.174  1.00  0.00     0.009 A 
ATOM     14  C   UNL     1       2.327  -3.708   2.841  1.00  0.00     0.009 A 
BRANCH  10  15
ATOM     15  S   UNL     1       0.441  -0.288   1.741  1.00  0.00     0.175 S 
ATOM     16  C   UNL     1       1.106  -0.017   0.119  1.00  0.00     0.163 C 
ATOM     17  O   UNL     1       1.199   0.514   2.679  1.00  0.00    -0.224 OA
ATOM     18  O   UNL     1      -1.004  -0.160   1.649  1.00  0.00    -0.224 OA
ENDBRANCH  10  15
ENDBRANCH   8   9
BRANCH   7  19
ATOM     19  C   UNL     1       0.441  -7.183   0.990  1.00  0.00    -0.012 A 
ATOM     20  C   UNL     1      -0.752  -7.889   1.217  1.00  0.00     0.009 A 
ATOM     21  C   UNL     1       0.534  -6.354  -0.135  1.00  0.00     0.017 A 
ATOM     22  C   UNL     1      -1.841  -7.740   0.363  1.00  0.00     0.001 A 
ATOM     23  C   UNL     1      -0.583  -6.131  -0.961  1.00  0.00    -0.018 A 
ATOM     24  C   UNL     1      -1.763  -6.851  -0.705  1.00  0.00     0.009 A 
BRANCH  23  25
ATOM     25  C   UNL     1      -0.545  -5.079  -1.987  1.00  0.00    -0.018 A 
ATOM     26  C   UNL     1      -1.498  -4.042  -1.974  1.00  0.00     0.010 A 
ATOM     27  C   UNL     1       0.471  -5.041  -2.954  1.00  0.00     0.010 A 
ATOM     28  C   UNL     1      -1.438  -2.997  -2.897  1.00  0.00     0.021 A 
ATOM     29  C   UNL     1       0.537  -4.003  -3.886  1.00  0.00     0.021 A 
ATOM     30  C   UNL     1      -0.423  -2.991  -3.854  1.00  0.00     0.067 A 
BRANCH  30  31
ATOM     31  S   UNL     1      -0.346  -1.657  -5.021  1.00  0.00     0.175 S 
ATOM     32  C   UNL     1      -1.808  -1.873  -6.002  1.00  0.00     0.163 C 
ATOM     33  O   UNL     1      -0.475  -0.426  -4.263  1.00  0.00    -0.224 OA
ATOM     34  O   UNL     1       0.798  -1.884  -5.882  1.00  0.00    -0.224 OA
ENDBRANCH  30  31
ENDBRANCH  23  25
ENDBRANCH   7  19
ENDBRANCH   4   7
ENDBRANCH   2   3
ENDBRANCH   1   2
BRANCH   1  35
ATOM     35  C   UNL     1       4.913  -9.214   5.417  1.00  0.00     0.118 C 
BRANCH  35  36
ATOM     36  N   UNL     1       6.311  -9.461   5.092  1.00  0.00    -0.352 N 
ATOM     37  C   UNL     1       7.401  -9.594   5.915  1.00  0.00     0.251 C 
ATOM     38  H   UNL     1       6.505  -9.545   4.131  1.00  0.00     0.163 HD
ATOM     39  O   UNL     1       8.527  -9.534   5.430  1.00  0.00    -0.269 OA
BRANCH  37  40
ATOM     40  C   UNL     1       7.228  -9.805   7.369  1.00  0.00     0.039 A 
ATOM     41  C   UNL     1       8.115  -9.183   8.251  1.00  0.00     0.014 A 
ATOM     42  C   UNL     1       6.234 -10.655   7.863  1.00  0.00     0.014 A 
ATOM     43  C   UNL     1       7.976  -9.375   9.627  1.00  0.00     0.010 A 
ATOM     44  C   UNL     1       6.046 -10.782   9.237  1.00  0.00     0.010 A 
ATOM     45  C   UNL     1       6.922 -10.153  10.134  1.00  0.00    -0.014 A 
BRANCH  45  46
ATOM     46  C   UNL     1       6.728 -10.320  11.598  1.00  0.00     0.031 A 
ATOM     47  C   UNL     1       6.834 -11.683  12.230  1.00  0.00     0.074 A 
ATOM     48  C   UNL     1       6.408  -9.248  12.350  1.00  0.00     0.049 A 
ATOM     49  N   UNL     1       6.659 -12.029  13.480  1.00  0.00    -0.248 NA
ATOM     50  C   UNL     1       7.152 -12.809  11.337  1.00  0.00     0.031 C 
ATOM     51  C   UNL     1       6.227  -7.885  11.843  1.00  0.00     0.029 A 
ATOM     52  N   UNL     1       6.173  -9.133  13.697  1.00  0.00    -0.354 N 
ATOM     53  C   UNL     1       6.833 -13.408  13.521  1.00  0.00     0.074 A 
ATOM     54  C   UNL     1       7.069 -13.843  12.162  1.00  0.00     0.031 C 
ATOM     55  C   UNL     1       5.938  -7.068  12.868  1.00  0.00     0.029 A 
ATOM     56  C   UNL     1       5.871  -7.852  14.098  1.00  0.00     0.049 A 
ATOM     57  H   UNL     1       6.216  -9.895  14.318  1.00  0.00     0.167 HD
ATOM     58  C   UNL     1       6.821 -14.232  14.596  1.00  0.00     0.037 A 
ATOM     59  C   UNL     1       5.567  -7.365  15.316  1.00  0.00     0.037 A 
ATOM     60  C   UNL     1       6.603 -13.786  15.948  1.00  0.00     0.049 A 
ATOM     61  C   UNL     1       5.558  -8.300  16.494  1.00  0.00     0.074 A 
ATOM     62  C   UNL     1       6.628 -14.530  17.115  1.00  0.00     0.029 A 
ATOM     63  N   UNL     1       6.316 -12.479  16.316  1.00  0.00    -0.354 N 
ATOM     64  N   UNL     1       5.793  -9.591  16.524  1.00  0.00    -0.248 NA
ATOM     65  C   UNL     1       5.253  -7.713  17.806  1.00  0.00     0.031 C 
ATOM     66  C   UNL     1       6.301 -13.686  18.180  1.00  0.00     0.029 A 
ATOM     67  C   UNL     1       6.136 -12.401  17.688  1.00  0.00     0.049 A 
ATOM     68  H   UNL     1       6.249 -11.719  15.694  1.00  0.00     0.167 HD
ATOM     69  C   UNL     1       5.693  -9.965  17.860  1.00  0.00     0.074 A 
ATOM     70  C   UNL     1       5.393  -8.760  18.607  1.00  0.00     0.031 C 
ATOM     71  C   UNL     1       5.839 -11.193  18.419  1.00  0.00     0.037 A 
BRANCH  58  72
ATOM     72  C   UNL     1       7.050 -15.702  14.356  1.00  0.00     0.058 A 
ATOM     73  C   UNL     1       8.297 -16.199  13.940  1.00  0.00     0.135 A 
ATOM     74  C   UNL     1       6.022 -16.631  14.583  1.00  0.00     0.135 A 
ATOM     75  F   UNL     1       9.313 -15.357  13.693  1.00  0.00    -0.206 F 
ATOM     76  C   UNL     1       8.506 -17.558  13.727  1.00  0.00     0.059 A 
ATOM     77  C   UNL     1       6.218 -17.999  14.409  1.00  0.00     0.059 A 
ATOM     78  F   UNL     1       4.810 -16.215  14.982  1.00  0.00    -0.206 F 
ATOM     79  C   UNL     1       7.460 -18.451  13.966  1.00  0.00     0.060 A 
BRANCH  79  80
ATOM     80  S   UNL     1       7.753 -20.211  13.694  1.00  0.00     0.124 S 
ATOM     81  O   UNL     1       7.830 -20.272  12.237  1.00  0.00    -0.237 OA
ATOM     82  O   UNL     1       9.009 -20.431  14.403  1.00  0.00    -0.237 OA
ATOM     83  O   UNL     1       6.581 -20.848  14.286  1.00  0.00    -0.744 OA
ENDBRANCH  79  80
ENDBRANCH  58  72
BRANCH  59  84
ATOM     84  C   UNL     1       5.271  -5.916  15.485  1.00  0.00     0.058 A 
ATOM     85  C   UNL     1       6.154  -5.072  16.175  1.00  0.00     0.135 A 
ATOM     86  C   UNL     1       4.108  -5.343  14.947  1.00  0.00     0.135 A 
ATOM     87  F   UNL     1       7.278  -5.572  16.711  1.00  0.00    -0.206 F 
ATOM     88  C   UNL     1       5.887  -3.718  16.344  1.00  0.00     0.059 A 
ATOM     89  C   UNL     1       3.833  -3.985  15.077  1.00  0.00     0.059 A 
ATOM     90  F   UNL     1       3.239  -6.102  14.262  1.00  0.00    -0.206 F 
ATOM     91  C   UNL     1       4.724  -3.183  15.787  1.00  0.00     0.060 A 
BRANCH  91  92
ATOM     92  S   UNL     1       4.412  -1.414  15.972  1.00  0.00     0.124 S 
ATOM     93  O   UNL     1       4.081  -1.320  17.389  1.00  0.00    -0.237 OA
ATOM     94  O   UNL     1       5.692  -0.835  15.576  1.00  0.00    -0.237 OA
ATOM     95  O   UNL     1       3.309  -1.169  15.048  1.00  0.00    -0.744 OA
ENDBRANCH  91  92
ENDBRANCH  59  84
BRANCH  71  96
ATOM     96  C   UNL     1       5.714 -11.290  19.916  1.00  0.00     0.058 A 
ATOM     97  C   UNL     1       4.483 -11.128  20.570  1.00  0.00     0.135 A 
ATOM     98  C   UNL     1       6.839 -11.588  20.702  1.00  0.00     0.135 A 
ATOM     99  F   UNL     1       3.376 -10.837  19.868  1.00  0.00    -0.206 F 
ATOM    100  C   UNL     1       4.378 -11.222  21.954  1.00  0.00     0.059 A 
ATOM    101  C   UNL     1       6.751 -11.721  22.084  1.00  0.00     0.059 A 
ATOM    102  F   UNL     1       8.039 -11.767  20.127  1.00  0.00    -0.206 F 
ATOM    103  C   UNL     1       5.519 -11.520  22.703  1.00  0.00     0.060 A 
BRANCH 103 104
ATOM    104  S   UNL     1       5.365 -11.657  24.496  1.00  0.00     0.124 S 
ATOM    105  O   UNL     1       5.190 -10.262  24.884  1.00  0.00    -0.237 OA
ATOM    106  O   UNL     1       4.189 -12.509  24.644  1.00  0.00    -0.237 OA
ATOM    107  O   UNL     1       6.628 -12.267  24.900  1.00  0.00    -0.744 OA
ENDBRANCH 103 104
ENDBRANCH  71  96
ENDBRANCH  45  46
ENDBRANCH  37  40
ENDBRANCH  35  36
ENDBRANCH   1  35
TORSDOF 18
