REMARK SMILES Cc1cccc(S(=O)(=O)Nc2cc(C(=O)NCCCNC(=O)c3ccc(-c4c5nc(c(-c6c(F)cc(S(=O)(=O)[O-])cc6F)c6ccc([nH]6)c(-c6c(F)cc(S(=O)(=O)[O-])cc6F)c6nc(c(-c7c(F)cc(S(=O)(=O)[O-])cc7F)c7ccc4[nH]7)C=C6)C=C5)cc3)ccc2N2CCC[C@H](C[NH+]3CCCC3)C2)c1
REMARK SMILES IDX 18 1 17 2 16 3 14 4 15 5 13 7 11 8 12 9 91 10 90 11 89 12
REMARK SMILES IDX 10 13 7 15 8 16 9 17 6 18 1 19 2 20 3 21 104 22 4 23 5 24
REMARK SMILES IDX 92 25 93 26 103 27 94 28 96 29 95 30 97 31 98 32 99 33
REMARK SMILES IDX 102 34 100 36 101 37 19 38 20 39 21 40 22 42 23 43 24 44
REMARK SMILES IDX 88 45 25 46 87 47 26 48 27 49 28 50 81 51 29 52 86 53 80 54
REMARK SMILES IDX 82 55 30 56 85 57 79 58 78 59 31 61 65 62 44 63 64 64 45 65
REMARK SMILES IDX 48 66 63 67 83 68 46 69 47 70 62 72 84 73 49 74 32 75 33 76
REMARK SMILES IDX 42 77 34 78 35 79 41 80 43 81 36 82 37 83 38 84 39 85 40 86
REMARK SMILES IDX 66 87 67 88 76 89 68 90 69 91 75 92 77 93 70 94 71 95 72 96
REMARK SMILES IDX 73 97 74 98 50 99 51 100 60 101 52 102 53 103 59 104 61 105
REMARK SMILES IDX 54 106 55 107 56 108 57 109 58 110
REMARK H PARENT 16 6 10 14 98 35 20 41 82 60 48 71
REMARK Flexibility Score: inf
ROOT
ATOM      1  C   UNL     1      -0.917   1.050  -3.225  1.00  0.00     0.042 C 
ENDROOT
BRANCH   1   2
ATOM      2  C   UNL     1       0.382   0.883  -2.284  1.00  0.00     0.118 C 
BRANCH   2   3
ATOM      3  N   UNL     1       1.749   1.345  -2.666  1.00  0.00    -0.352 N 
ATOM      4  C   UNL     1       2.730   2.156  -2.150  1.00  0.00     0.251 C 
ATOM      5  O   UNL     1       3.913   2.085  -2.473  1.00  0.00    -0.269 OA
ATOM      6  H   UNL     1       2.025   0.959  -3.529  1.00  0.00     0.163 HD
BRANCH   4   7
ATOM      7  C   UNL     1       2.348   3.163  -1.162  1.00  0.00     0.042 A 
ATOM      8  C   UNL     1       0.511   4.237  -0.114  1.00  0.00     0.073 A 
ATOM      9  C   UNL     1       1.043   3.620  -1.213  1.00  0.00     0.042 A 
ATOM     10  C   UNL     1       1.358   4.747   0.882  1.00  0.00     0.061 A 
ATOM     11  C   UNL     1       2.730   4.444   0.825  1.00  0.00     0.029 A 
ATOM     12  C   UNL     1       3.225   3.603  -0.169  1.00  0.00     0.016 A 
BRANCH   8  13
ATOM     13  N   UNL     1      -0.910   4.316  -0.042  1.00  0.00    -0.277 N 
ATOM     14  H   UNL     1      -1.357   5.139  -0.345  1.00  0.00     0.180 HD
BRANCH  13  15
ATOM     15  S   UNL     1      -1.863   3.030   0.553  1.00  0.00     0.261 S 
ATOM     16  O   UNL     1      -2.922   2.885  -0.430  1.00  0.00    -0.201 OA
ATOM     17  O   UNL     1      -2.227   3.397   1.908  1.00  0.00    -0.201 OA
BRANCH  15  18
ATOM     18  C   UNL     1      -1.079   1.420   0.689  1.00  0.00     0.088 A 
ATOM     19  C   UNL     1       2.321  -0.271   1.014  1.00  0.00     0.044 C 
ATOM     20  C   UNL     1       0.830  -0.070   0.943  1.00  0.00    -0.050 A 
ATOM     21  C   UNL     1       0.034  -1.164   0.569  1.00  0.00     0.003 A 
ATOM     22  C   UNL     1       0.248   1.211   1.085  1.00  0.00     0.025 A 
ATOM     23  C   UNL     1      -1.310  -0.978   0.265  1.00  0.00     0.002 A 
ATOM     24  C   UNL     1      -1.855   0.308   0.300  1.00  0.00     0.022 A 
ENDBRANCH  15  18
ENDBRANCH  13  15
ENDBRANCH   8  13
BRANCH  10  25
ATOM     25  N   UNL     1       0.904   5.601   1.863  1.00  0.00    -0.369 N 
ATOM     26  C   UNL     1       1.184   7.021   1.706  1.00  0.00     0.116 C 
ATOM     27  C   UNL     1      -0.041   5.170   2.874  1.00  0.00     0.126 C 
ATOM     28  C   UNL     1       1.649   7.569   3.049  1.00  0.00     0.022 C 
ATOM     29  C   UNL     1       0.425   5.667   4.247  1.00  0.00     0.064 C 
ATOM     30  C   UNL     1       0.662   7.188   4.154  1.00  0.00     0.013 C 
BRANCH  29  31
ATOM     31  C   UNL     1       1.637   4.806   4.695  1.00  0.00     0.267 C 
BRANCH  31  32
ATOM     32  N   UNL     1       2.102   4.860   6.083  1.00  0.00    -0.335 N 
ATOM     33  C   UNL     1       1.081   4.571   7.086  1.00  0.00     0.262 C 
ATOM     34  C   UNL     1       2.781   6.090   6.476  1.00  0.00     0.262 C 
ATOM     35  H   UNL     1       2.788   4.105   6.072  1.00  0.00     0.348 HD
ATOM     36  C   UNL     1       0.639   5.925   7.600  1.00  0.00     0.067 C 
ATOM     37  C   UNL     1       1.895   6.775   7.511  1.00  0.00     0.067 C 
ENDBRANCH  31  32
ENDBRANCH  29  31
ENDBRANCH  10  25
ENDBRANCH   4   7
ENDBRANCH   2   3
ENDBRANCH   1   2
BRANCH   1  38
ATOM     38  C   UNL     1      -1.532  -0.328  -3.787  1.00  0.00     0.118 C 
BRANCH  38  39
ATOM     39  N   UNL     1      -2.609  -0.526  -4.914  1.00  0.00    -0.352 N 
ATOM     40  C   UNL     1      -2.807  -1.280  -6.146  1.00  0.00     0.251 C 
ATOM     41  H   UNL     1      -3.397   0.034  -4.731  1.00  0.00     0.163 HD
ATOM     42  O   UNL     1      -3.866  -1.935  -6.154  1.00  0.00    -0.269 OA
BRANCH  40  43
ATOM     43  C   UNL     1      -1.970  -1.450  -7.472  1.00  0.00     0.039 A 
ATOM     44  C   UNL     1      -1.723  -2.725  -8.059  1.00  0.00     0.014 A 
ATOM     45  C   UNL     1      -1.369  -0.429  -8.175  1.00  0.00     0.014 A 
ATOM     46  C   UNL     1      -0.465  -2.992  -8.709  1.00  0.00     0.010 A 
ATOM     47  C   UNL     1      -0.156  -0.682  -8.875  1.00  0.00     0.010 A 
ATOM     48  C   UNL     1       0.442  -1.955  -8.910  1.00  0.00    -0.014 A 
BRANCH  48  49
ATOM     49  C   UNL     1       1.955  -2.119  -9.018  1.00  0.00     0.031 A 
ATOM     50  C   UNL     1       2.632  -1.899 -10.294  1.00  0.00     0.074 A 
ATOM     51  C   UNL     1       2.876  -2.273  -8.013  1.00  0.00     0.049 A 
ATOM     52  N   UNL     1       3.563  -2.655 -10.776  1.00  0.00    -0.248 NA
ATOM     53  C   UNL     1       2.348  -0.720 -11.088  1.00  0.00     0.031 C 
ATOM     54  C   UNL     1       4.356  -2.266  -7.967  1.00  0.00     0.029 A 
ATOM     55  N   UNL     1       2.642  -2.411  -6.660  1.00  0.00    -0.354 N 
ATOM     56  C   UNL     1       4.218  -1.894 -11.720  1.00  0.00     0.074 A 
ATOM     57  C   UNL     1       3.326  -0.787 -11.991  1.00  0.00     0.031 C 
ATOM     58  C   UNL     1       4.781  -2.806  -6.797  1.00  0.00     0.029 A 
ATOM     59  C   UNL     1       3.606  -3.202  -6.051  1.00  0.00     0.049 A 
ATOM     60  H   UNL     1       1.884  -1.999  -6.186  1.00  0.00     0.167 HD
ATOM     61  C   UNL     1       5.535  -2.119 -12.015  1.00  0.00     0.037 A 
ATOM     62  C   UNL     1       3.214  -4.422  -5.573  1.00  0.00     0.037 A 
ATOM     63  C   UNL     1       6.129  -3.105 -11.093  1.00  0.00     0.049 A 
ATOM     64  C   UNL     1       3.761  -5.495  -6.460  1.00  0.00     0.074 A 
ATOM     65  C   UNL     1       7.013  -2.974 -10.030  1.00  0.00     0.029 A 
ATOM     66  N   UNL     1       5.574  -4.379 -10.966  1.00  0.00    -0.354 N 
ATOM     67  N   UNL     1       4.359  -5.218  -7.581  1.00  0.00    -0.248 NA
ATOM     68  C   UNL     1       3.724  -6.926  -6.197  1.00  0.00     0.031 C 
ATOM     69  C   UNL     1       6.892  -4.124  -9.204  1.00  0.00     0.029 A 
ATOM     70  C   UNL     1       5.960  -4.975  -9.776  1.00  0.00     0.049 A 
ATOM     71  H   UNL     1       4.987  -4.800 -11.635  1.00  0.00     0.167 HD
ATOM     72  C   UNL     1       4.789  -6.347  -8.187  1.00  0.00     0.074 A 
ATOM     73  C   UNL     1       4.378  -7.402  -7.275  1.00  0.00     0.031 C 
ATOM     74  C   UNL     1       5.444  -6.286  -9.381  1.00  0.00     0.037 A 
BRANCH  61  75
ATOM     75  C   UNL     1       6.345  -1.189 -12.914  1.00  0.00     0.058 A 
ATOM     76  C   UNL     1       7.750  -1.089 -12.822  1.00  0.00     0.135 A 
ATOM     77  C   UNL     1       5.778  -0.376 -13.921  1.00  0.00     0.135 A 
ATOM     78  F   UNL     1       8.459  -1.891 -12.018  1.00  0.00    -0.206 F 
ATOM     79  C   UNL     1       8.504  -0.187 -13.583  1.00  0.00     0.059 A 
ATOM     80  C   UNL     1       6.493   0.592 -14.632  1.00  0.00     0.059 A 
ATOM     81  F   UNL     1       4.512  -0.550 -14.327  1.00  0.00    -0.206 F 
ATOM     82  C   UNL     1       7.865   0.673 -14.466  1.00  0.00     0.060 A 
BRANCH  82  83
ATOM     83  S   UNL     1       8.847   1.805 -15.467  1.00  0.00     0.124 S 
ATOM     84  O   UNL     1       9.591   2.552 -14.459  1.00  0.00    -0.237 OA
ATOM     85  O   UNL     1       9.632   0.882 -16.282  1.00  0.00    -0.237 OA
ATOM     86  O   UNL     1       7.844   2.577 -16.196  1.00  0.00    -0.744 OA
ENDBRANCH  82  83
ENDBRANCH  61  75
BRANCH  62  87
ATOM     87  C   UNL     1       1.860  -4.422  -4.853  1.00  0.00     0.058 A 
ATOM     88  C   UNL     1       1.853  -3.525  -3.772  1.00  0.00     0.135 A 
ATOM     89  C   UNL     1       0.738  -4.268  -5.651  1.00  0.00     0.135 A 
ATOM     90  F   UNL     1       2.493  -3.834  -2.639  1.00  0.00    -0.206 F 
ATOM     91  C   UNL     1       1.399  -2.216  -3.946  1.00  0.00     0.059 A 
ATOM     92  C   UNL     1       0.118  -3.013  -5.712  1.00  0.00     0.059 A 
ATOM     93  F   UNL     1       0.306  -5.263  -6.442  1.00  0.00    -0.206 F 
ATOM     94  C   UNL     1       0.694  -1.911  -5.101  1.00  0.00     0.060 A 
BRANCH  94  95
ATOM     95  S   UNL     1       0.896  -0.074  -5.816  1.00  0.00     0.124 S 
ATOM     96  O   UNL     1       1.732   0.461  -4.762  1.00  0.00    -0.237 OA
ATOM     97  O   UNL     1       1.689  -0.106  -7.031  1.00  0.00    -0.237 OA
ATOM     98  O   UNL     1      -0.395   0.537  -5.936  1.00  0.00    -0.744 OA
ENDBRANCH  94  95
ENDBRANCH  62  87
BRANCH  74  99
ATOM     99  C   UNL     1       5.758  -7.482 -10.222  1.00  0.00     0.058 A 
ATOM    100  C   UNL     1       4.970  -8.643 -10.245  1.00  0.00     0.135 A 
ATOM    101  C   UNL     1       6.834  -7.439 -11.136  1.00  0.00     0.135 A 
ATOM    102  F   UNL     1       3.845  -8.744  -9.522  1.00  0.00    -0.206 F 
ATOM    103  C   UNL     1       5.293  -9.736 -11.042  1.00  0.00     0.059 A 
ATOM    104  C   UNL     1       7.132  -8.490 -11.989  1.00  0.00     0.059 A 
ATOM    105  F   UNL     1       7.634  -6.366 -11.233  1.00  0.00    -0.206 F 
ATOM    106  C   UNL     1       6.383  -9.653 -11.903  1.00  0.00     0.060 A 
BRANCH 106 107
ATOM    107  S   UNL     1       6.806 -11.067 -12.926  1.00  0.00     0.124 S 
ATOM    108  O   UNL     1       7.608 -11.860 -12.000  1.00  0.00    -0.237 OA
ATOM    109  O   UNL     1       5.498 -11.622 -13.262  1.00  0.00    -0.237 OA
ATOM    110  O   UNL     1       7.532 -10.471 -14.042  1.00  0.00    -0.744 OA
ENDBRANCH 106 107
ENDBRANCH  74  99
ENDBRANCH  48  49
ENDBRANCH  40  43
ENDBRANCH  38  39
ENDBRANCH   1  38
TORSDOF 19
