REMARK SMILES O=C(NCCCNC(=O)[C@H]1C[C@H]1c1ccc(C2CC2)cc1)c1ccc(-c2c3nc(c(-c4c(F)cc(S(=O)(=O)[O-])cc4F)c4ccc([nH]4)c(-c4c(F)cc(S(=O)(=O)[O-])cc4F)c4nc(c(-c5c(F)cc(S(=O)(=O)[O-])cc5F)c5ccc2[nH]5)C=C4)C=C3)cc1
REMARK SMILES IDX 4 1 3 2 1 3 2 4 22 6 23 7 87 8 24 9 86 10 25 11 26 12 27 13
REMARK SMILES IDX 80 14 28 15 85 16 79 17 81 18 29 19 84 20 78 21 77 22 30 24
REMARK SMILES IDX 64 25 43 26 63 27 44 28 47 29 62 30 82 31 45 32 46 33 61 35
REMARK SMILES IDX 83 36 48 37 31 38 32 39 41 40 33 41 34 42 40 43 42 44 35 45
REMARK SMILES IDX 36 46 37 47 38 48 39 49 65 50 66 51 75 52 67 53 68 54 74 55
REMARK SMILES IDX 76 56 69 57 70 58 71 59 72 60 73 61 49 62 50 63 59 64 51 65
REMARK SMILES IDX 52 66 58 67 60 68 53 69 54 70 55 71 56 72 57 73 5 74 6 75
REMARK SMILES IDX 7 76 8 77 9 79 10 80 11 81 12 82 13 83 14 84 21 85 15 86
REMARK SMILES IDX 20 87 16 88 17 89 18 90 19 91
REMARK H PARENT 3 5 81 23 47 34 7 78
REMARK Flexibility Score: inf
ROOT
ATOM      1  C   UNL     1       7.908  -0.208  -2.406  1.00  0.00     0.118 C 
ENDROOT
BRANCH   1   2
ATOM      2  N   UNL     1       9.218  -0.149  -1.772  1.00  0.00    -0.352 N 
ATOM      3  O   UNL     1      11.177   0.703  -1.082  1.00  0.00    -0.269 OA
ATOM      4  C   UNL     1      10.040   0.918  -1.497  1.00  0.00     0.251 C 
ATOM      5  H   UNL     1       9.576  -1.022  -1.492  1.00  0.00     0.163 HD
BRANCH   4   6
ATOM      6  C   UNL     1       9.590   2.312  -1.721  1.00  0.00     0.039 A 
ATOM      7  C   UNL     1       8.300   2.724  -1.387  1.00  0.00     0.014 A 
ATOM      8  C   UNL     1      10.496   3.240  -2.247  1.00  0.00     0.014 A 
ATOM      9  C   UNL     1       7.867   4.002  -1.732  1.00  0.00     0.010 A 
ATOM     10  C   UNL     1      10.086   4.552  -2.509  1.00  0.00     0.010 A 
ATOM     11  C   UNL     1       8.753   4.933  -2.296  1.00  0.00    -0.014 A 
BRANCH  11  12
ATOM     12  C   UNL     1       8.264   6.300  -2.625  1.00  0.00     0.031 A 
ATOM     13  C   UNL     1       8.222   6.789  -4.049  1.00  0.00     0.074 A 
ATOM     14  C   UNL     1       7.811   7.088  -1.631  1.00  0.00     0.049 A 
ATOM     15  N   UNL     1       7.760   7.922  -4.517  1.00  0.00    -0.248 NA
ATOM     16  C   UNL     1       8.777   5.901  -5.082  1.00  0.00     0.031 C 
ATOM     17  C   UNL     1       7.818   6.737  -0.208  1.00  0.00     0.029 A 
ATOM     18  N   UNL     1       7.232   8.332  -1.661  1.00  0.00    -0.354 N 
ATOM     19  C   UNL     1       7.987   7.893  -5.889  1.00  0.00     0.074 A 
ATOM     20  C   UNL     1       8.652   6.640  -6.175  1.00  0.00     0.031 C 
ATOM     21  C   UNL     1       7.217   7.713   0.489  1.00  0.00     0.029 A 
ATOM     22  C   UNL     1       6.829   8.781  -0.425  1.00  0.00     0.049 A 
ATOM     23  H   UNL     1       7.117   8.853  -2.488  1.00  0.00     0.167 HD
ATOM     24  C   UNL     1       7.662   8.820  -6.824  1.00  0.00     0.037 A 
ATOM     25  C   UNL     1       6.215   9.923  -0.065  1.00  0.00     0.037 A 
ATOM     26  C   UNL     1       6.976  10.054  -6.538  1.00  0.00     0.049 A 
ATOM     27  C   UNL     1       5.863  10.932  -1.121  1.00  0.00     0.074 A 
ATOM     28  C   UNL     1       6.557  11.032  -7.425  1.00  0.00     0.029 A 
ATOM     29  N   UNL     1       6.611  10.485  -5.271  1.00  0.00    -0.354 N 
ATOM     30  N   UNL     1       6.046  10.865  -2.417  1.00  0.00    -0.248 NA
ATOM     31  C   UNL     1       5.224  12.173  -0.664  1.00  0.00     0.031 C 
ATOM     32  C   UNL     1       5.975  12.072  -6.690  1.00  0.00     0.029 A 
ATOM     33  C   UNL     1       5.992  11.723  -5.349  1.00  0.00     0.049 A 
ATOM     34  H   UNL     1       6.769   9.985  -4.438  1.00  0.00     0.167 HD
ATOM     35  C   UNL     1       5.527  12.046  -2.935  1.00  0.00     0.074 A 
ATOM     36  C   UNL     1       5.010  12.802  -1.812  1.00  0.00     0.031 C 
ATOM     37  C   UNL     1       5.483  12.465  -4.223  1.00  0.00     0.037 A 
BRANCH  24  38
ATOM     38  C   UNL     1       8.061   8.543  -8.248  1.00  0.00     0.058 A 
ATOM     39  C   UNL     1       7.410   7.572  -9.025  1.00  0.00     0.135 A 
ATOM     40  C   UNL     1       9.090   9.283  -8.854  1.00  0.00     0.135 A 
ATOM     41  F   UNL     1       6.429   6.827  -8.493  1.00  0.00    -0.206 F 
ATOM     42  C   UNL     1       7.786   7.322 -10.342  1.00  0.00     0.059 A 
ATOM     43  C   UNL     1       9.467   9.066 -10.177  1.00  0.00     0.059 A 
ATOM     44  F   UNL     1       9.744  10.226  -8.158  1.00  0.00    -0.206 F 
ATOM     45  C   UNL     1       8.820   8.070 -10.907  1.00  0.00     0.060 A 
BRANCH  45  46
ATOM     46  S   UNL     1       9.307   7.726 -12.612  1.00  0.00     0.124 S 
ATOM     47  O   UNL     1      10.047   6.477 -12.454  1.00  0.00    -0.237 OA
ATOM     48  O   UNL     1       8.020   7.616 -13.291  1.00  0.00    -0.237 OA
ATOM     49  O   UNL     1      10.109   8.889 -12.978  1.00  0.00    -0.744 OA
ENDBRANCH  45  46
ENDBRANCH  24  38
BRANCH  25  50
ATOM     50  C   UNL     1       5.875  10.159   1.362  1.00  0.00     0.058 A 
ATOM     51  C   UNL     1       4.544  10.121   1.802  1.00  0.00     0.135 A 
ATOM     52  C   UNL     1       6.875  10.395   2.318  1.00  0.00     0.135 A 
ATOM     53  F   UNL     1       3.554   9.903   0.923  1.00  0.00    -0.206 F 
ATOM     54  C   UNL     1       4.213  10.319   3.138  1.00  0.00     0.059 A 
ATOM     55  C   UNL     1       6.572  10.571   3.664  1.00  0.00     0.059 A 
ATOM     56  F   UNL     1       8.165  10.424   1.949  1.00  0.00    -0.206 F 
ATOM     57  C   UNL     1       5.236  10.540   4.062  1.00  0.00     0.060 A 
BRANCH  57  58
ATOM     58  S   UNL     1       4.804  10.736   5.805  1.00  0.00     0.124 S 
ATOM     59  O   UNL     1       4.281  12.096   5.825  1.00  0.00    -0.237 OA
ATOM     60  O   UNL     1       3.824   9.671   6.001  1.00  0.00    -0.237 OA
ATOM     61  O   UNL     1       6.078  10.537   6.489  1.00  0.00    -0.744 OA
ENDBRANCH  57  58
ENDBRANCH  25  50
BRANCH  37  62
ATOM     62  C   UNL     1       4.828  13.791  -4.488  1.00  0.00     0.058 A 
ATOM     63  C   UNL     1       5.454  15.002  -4.155  1.00  0.00     0.135 A 
ATOM     64  C   UNL     1       3.568  13.851  -5.104  1.00  0.00     0.135 A 
ATOM     65  F   UNL     1       6.656  14.999  -3.558  1.00  0.00    -0.206 F 
ATOM     66  C   UNL     1       4.841  16.227  -4.396  1.00  0.00     0.059 A 
ATOM     67  C   UNL     1       2.946  15.065  -5.377  1.00  0.00     0.059 A 
ATOM     68  F   UNL     1       2.930  12.722  -5.451  1.00  0.00    -0.206 F 
ATOM     69  C   UNL     1       3.584  16.248  -5.005  1.00  0.00     0.060 A 
BRANCH  69  70
ATOM     70  S   UNL     1       2.801  17.843  -5.328  1.00  0.00     0.124 S 
ATOM     71  O   UNL     1       2.316  18.205  -4.000  1.00  0.00    -0.237 OA
ATOM     72  O   UNL     1       3.912  18.642  -5.837  1.00  0.00    -0.237 OA
ATOM     73  O   UNL     1       1.769  17.520  -6.308  1.00  0.00    -0.744 OA
ENDBRANCH  69  70
ENDBRANCH  37  62
ENDBRANCH  11  12
ENDBRANCH   4   6
ENDBRANCH   1   2
BRANCH   1  74
ATOM     74  C   UNL     1       7.908  -0.987  -3.719  1.00  0.00     0.042 C 
BRANCH  74  75
ATOM     75  C   UNL     1       8.278  -2.459  -3.581  1.00  0.00     0.117 C 
BRANCH  75  76
ATOM     76  N   UNL     1       7.376  -3.175  -2.699  1.00  0.00    -0.356 N 
ATOM     77  C   UNL     1       6.264  -3.912  -3.001  1.00  0.00     0.223 C 
ATOM     78  H   UNL     1       7.596  -3.123  -1.741  1.00  0.00     0.163 HD
ATOM     79  O   UNL     1       5.506  -4.255  -2.099  1.00  0.00    -0.275 OA
BRANCH  77  80
ATOM     80  C   UNL     1       5.935  -4.191  -4.417  1.00  0.00     0.086 C 
ATOM     81  C   UNL     1       6.896  -4.878  -5.349  1.00  0.00     0.023 C 
ATOM     82  C   UNL     1       5.631  -5.589  -4.939  1.00  0.00     0.032 C 
BRANCH  82  83
ATOM     83  C   UNL     1       5.763  -6.876  -4.154  1.00  0.00    -0.044 A 
ATOM     84  C   UNL     1       6.582  -7.921  -4.606  1.00  0.00     0.004 A 
ATOM     85  C   UNL     1       5.019  -7.127  -2.997  1.00  0.00     0.004 A 
ATOM     86  C   UNL     1       6.664  -9.143  -3.925  1.00  0.00     0.004 A 
ATOM     87  C   UNL     1       5.110  -8.346  -2.306  1.00  0.00     0.004 A 
ATOM     88  C   UNL     1       5.932  -9.390  -2.753  1.00  0.00    -0.045 A 
BRANCH  88  89
ATOM     89  C   UNL     1       6.044 -10.738  -2.065  1.00  0.00     0.019 C 
ATOM     90  C   UNL     1       5.504 -11.016  -0.684  1.00  0.00     0.009 C 
ATOM     91  C   UNL     1       4.798 -11.574  -1.886  1.00  0.00     0.009 C 
ENDBRANCH  88  89
ENDBRANCH  82  83
ENDBRANCH  77  80
ENDBRANCH  75  76
ENDBRANCH  74  75
ENDBRANCH   1  74
TORSDOF 15
