REMARK SMILES CS(=O)(=O)c1ccc(/C=C(/C(=O)NCCCNC(=O)c2ccc(-c3c4nc(c(-c5c(F)cc(S(=O)(=O)[O-])cc5F)c5ccc([nH]5)c(-c5c(F)cc(S(=O)(=O)[O-])cc5F)c5nc(c(-c6c(F)cc(S(=O)(=O)[O-])cc6F)c6ccc3[nH]6)C=C5)C=C4)cc2)c2ccc(O)cc2)cc1
REMARK SMILES IDX 15 1 14 2 13 3 11 4 12 5 10 7 9 8 8 9 5 10 6 11 94 12 7 13
REMARK SMILES IDX 93 14 2 15 1 16 3 17 4 18 86 19 87 20 92 21 88 22 91 23
REMARK SMILES IDX 89 24 90 25 16 27 17 28 18 29 19 31 20 32 21 33 85 34 22 35
REMARK SMILES IDX 84 36 23 37 24 38 25 39 78 40 26 41 83 42 77 43 79 44 27 45
REMARK SMILES IDX 82 46 76 47 75 48 28 50 62 51 41 52 61 53 42 54 45 55 60 56
REMARK SMILES IDX 80 57 43 58 44 59 59 61 81 62 46 63 29 64 30 65 39 66 31 67
REMARK SMILES IDX 32 68 38 69 40 70 33 71 34 72 35 73 36 74 37 75 63 76 64 77
REMARK SMILES IDX 73 78 65 79 66 80 72 81 74 82 67 83 68 84 69 85 70 86 71 87
REMARK SMILES IDX 47 88 48 89 57 90 49 91 50 92 56 93 58 94 51 95 52 96 53 97
REMARK SMILES IDX 54 98 55 99
REMARK H PARENT 13 6 90 26 17 30 79 49 45 60
REMARK Flexibility Score: inf
ROOT
ATOM      1  C   UNL     1       5.186  -8.185   3.081  1.00  0.00     0.042 C 
ENDROOT
BRANCH   1   2
ATOM      2  C   UNL     1       4.641  -8.220   1.652  1.00  0.00     0.118 C 
BRANCH   2   3
ATOM      3  N   UNL     1       3.492  -9.101   1.554  1.00  0.00    -0.352 N 
ATOM      4  C   UNL     1       2.150  -8.910   1.471  1.00  0.00     0.251 C 
ATOM      5  O   UNL     1       1.468  -9.936   1.396  1.00  0.00    -0.269 OA
ATOM      6  H   UNL     1       3.742 -10.053   1.546  1.00  0.00     0.163 HD
BRANCH   4   7
ATOM      7  C   UNL     1       1.493  -7.550   1.380  1.00  0.00     0.047 C 
ATOM      8  C   UNL     1       1.992  -6.466   2.019  1.00  0.00     0.022 C 
BRANCH   8   9
ATOM      9  C   UNL     1       1.553  -5.050   1.981  1.00  0.00    -0.025 A 
ATOM     10  C   UNL     1       0.883  -2.328   1.765  1.00  0.00     0.067 A 
ATOM     11  C   UNL     1      -0.124  -3.284   1.877  1.00  0.00     0.021 A 
ATOM     12  C   UNL     1       2.224  -2.705   1.825  1.00  0.00     0.021 A 
ATOM     13  C   UNL     1       0.216  -4.635   2.013  1.00  0.00     0.009 A 
ATOM     14  C   UNL     1       2.552  -4.062   1.924  1.00  0.00     0.009 A 
BRANCH  10  15
ATOM     15  S   UNL     1       0.464  -0.613   1.563  1.00  0.00     0.175 S 
ATOM     16  C   UNL     1       1.135  -0.189  -0.024  1.00  0.00     0.163 C 
ATOM     17  O   UNL     1       1.189   0.129   2.574  1.00  0.00    -0.224 OA
ATOM     18  O   UNL     1      -0.981  -0.518   1.452  1.00  0.00    -0.224 OA
ENDBRANCH  10  15
ENDBRANCH   8   9
BRANCH   7  19
ATOM     19  C   UNL     1       0.167  -7.493   0.711  1.00  0.00    -0.013 A 
ATOM     20  C   UNL     1      -0.921  -8.141   1.324  1.00  0.00     0.013 A 
ATOM     21  C   UNL     1      -0.059  -6.738  -0.448  1.00  0.00     0.013 A 
ATOM     22  C   UNL     1      -2.213  -7.997   0.822  1.00  0.00     0.047 A 
ATOM     23  C   UNL     1      -1.360  -6.578  -0.941  1.00  0.00     0.047 A 
ATOM     24  C   UNL     1      -2.426  -7.195  -0.289  1.00  0.00     0.115 A 
BRANCH  24  25
ATOM     25  O   UNL     1      -3.713  -7.019  -0.703  1.00  0.00    -0.508 OA
ATOM     26  H   UNL     1      -4.413  -7.445  -0.249  1.00  0.00     0.293 HD
ENDBRANCH  24  25
ENDBRANCH   7  19
ENDBRANCH   4   7
ENDBRANCH   2   3
ENDBRANCH   1   2
BRANCH   1  27
ATOM     27  C   UNL     1       5.826  -9.500   3.533  1.00  0.00     0.118 C 
BRANCH  27  28
ATOM     28  N   UNL     1       7.046  -9.799   2.797  1.00  0.00    -0.352 N 
ATOM     29  C   UNL     1       8.325 -10.007   3.248  1.00  0.00     0.251 C 
ATOM     30  H   UNL     1       6.936  -9.862   1.821  1.00  0.00     0.163 HD
ATOM     31  O   UNL     1       9.247 -10.021   2.436  1.00  0.00    -0.269 OA
BRANCH  29  32
ATOM     32  C   UNL     1       8.608 -10.207   4.689  1.00  0.00     0.039 A 
ATOM     33  C   UNL     1       9.761  -9.629   5.231  1.00  0.00     0.014 A 
ATOM     34  C   UNL     1       7.790 -11.007   5.491  1.00  0.00     0.014 A 
ATOM     35  C   UNL     1      10.066  -9.813   6.582  1.00  0.00     0.010 A 
ATOM     36  C   UNL     1       8.061 -11.139   6.853  1.00  0.00     0.010 A 
ATOM     37  C   UNL     1       9.206 -10.550   7.412  1.00  0.00    -0.014 A 
BRANCH  37  38
ATOM     38  C   UNL     1       9.493 -10.712   8.862  1.00  0.00     0.031 A 
ATOM     39  C   UNL     1       9.797 -12.072   9.432  1.00  0.00     0.074 A 
ATOM     40  C   UNL     1       9.433  -9.638   9.674  1.00  0.00     0.049 A 
ATOM     41  N   UNL     1      10.022 -12.415  10.675  1.00  0.00    -0.248 NA
ATOM     42  C   UNL     1       9.827 -13.198   8.485  1.00  0.00     0.031 C 
ATOM     43  C   UNL     1       9.102  -8.276   9.250  1.00  0.00     0.029 A 
ATOM     44  N   UNL     1       9.637  -9.523  11.026  1.00  0.00    -0.354 N 
ATOM     45  C   UNL     1      10.209 -13.793  10.662  1.00  0.00     0.074 A 
ATOM     46  C   UNL     1      10.021 -14.229   9.295  1.00  0.00     0.031 C 
ATOM     47  C   UNL     1       9.146  -7.460  10.316  1.00  0.00     0.029 A 
ATOM     48  C   UNL     1       9.475  -8.244  11.503  1.00  0.00     0.049 A 
ATOM     49  H   UNL     1       9.879 -10.285  11.601  1.00  0.00     0.167 HD
ATOM     50  C   UNL     1      10.528 -14.616  11.691  1.00  0.00     0.037 A 
ATOM     51  C   UNL     1       9.574  -7.756  12.755  1.00  0.00     0.037 A 
ATOM     52  C   UNL     1      10.738 -14.173  13.045  1.00  0.00     0.049 A 
ATOM     53  C   UNL     1       9.943  -8.687  13.877  1.00  0.00     0.074 A 
ATOM     54  C   UNL     1      11.113 -14.920  14.148  1.00  0.00     0.029 A 
ATOM     55  N   UNL     1      10.591 -12.864  13.482  1.00  0.00    -0.354 N 
ATOM     56  N   UNL     1      10.171  -9.978  13.836  1.00  0.00    -0.248 NA
ATOM     57  C   UNL     1      10.078  -8.094  15.215  1.00  0.00     0.031 C 
ATOM     58  C   UNL     1      11.161 -14.070  15.259  1.00  0.00     0.029 A 
ATOM     59  C   UNL     1      10.857 -12.784  14.840  1.00  0.00     0.049 A 
ATOM     60  H   UNL     1      10.336 -12.103  12.912  1.00  0.00     0.167 HD
ATOM     61  C   UNL     1      10.501 -10.347  15.135  1.00  0.00     0.074 A 
ATOM     62  C   UNL     1      10.456  -9.141  15.936  1.00  0.00     0.031 C 
ATOM     63  C   UNL     1      10.813 -11.574  15.621  1.00  0.00     0.037 A 
BRANCH  50  64
ATOM     64  C   UNL     1      10.680 -16.082  11.387  1.00  0.00     0.058 A 
ATOM     65  C   UNL     1      11.768 -16.570  10.645  1.00  0.00     0.135 A 
ATOM     66  C   UNL     1       9.747 -17.014  11.867  1.00  0.00     0.135 A 
ATOM     67  F   UNL     1      12.684 -15.721  10.150  1.00  0.00    -0.206 F 
ATOM     68  C   UNL     1      11.908 -17.924  10.362  1.00  0.00     0.059 A 
ATOM     69  C   UNL     1       9.881 -18.378  11.620  1.00  0.00     0.059 A 
ATOM     70  F   UNL     1       8.688 -16.604  12.584  1.00  0.00    -0.206 F 
ATOM     71  C   UNL     1      10.957 -18.821  10.851  1.00  0.00     0.060 A 
BRANCH  71  72
ATOM     72  S   UNL     1      11.152 -20.576  10.474  1.00  0.00     0.124 S 
ATOM     73  O   UNL     1      10.760 -20.615   9.068  1.00  0.00    -0.237 OA
ATOM     74  O   UNL     1      12.569 -20.800  10.742  1.00  0.00    -0.237 OA
ATOM     75  O   UNL     1      10.231 -21.227  11.400  1.00  0.00    -0.744 OA
ENDBRANCH  71  72
ENDBRANCH  50  64
BRANCH  51  76
ATOM     76  C   UNL     1       9.348  -6.309  13.007  1.00  0.00     0.058 A 
ATOM     77  C   UNL     1      10.416  -5.459  13.331  1.00  0.00     0.135 A 
ATOM     78  C   UNL     1       8.067  -5.744  12.916  1.00  0.00     0.135 A 
ATOM     79  F   UNL     1      11.659  -5.953  13.435  1.00  0.00    -0.206 F 
ATOM     80  C   UNL     1      10.221  -4.103  13.573  1.00  0.00     0.059 A 
ATOM     81  C   UNL     1       7.850  -4.386  13.130  1.00  0.00     0.059 A 
ATOM     82  F   UNL     1       7.015  -6.512  12.590  1.00  0.00    -0.206 F 
ATOM     83  C   UNL     1       8.932  -3.576  13.469  1.00  0.00     0.060 A 
BRANCH  83  84
ATOM     84  S   UNL     1       8.696  -1.805  13.736  1.00  0.00     0.124 S 
ATOM     85  O   UNL     1       8.809  -1.710  15.187  1.00  0.00    -0.237 OA
ATOM     86  O   UNL     1       9.798  -1.229  12.970  1.00  0.00    -0.237 OA
ATOM     87  O   UNL     1       7.366  -1.559  13.186  1.00  0.00    -0.744 OA
ENDBRANCH  83  84
ENDBRANCH  51  76
BRANCH  63  88
ATOM     88  C   UNL     1      11.164 -11.667  17.080  1.00  0.00     0.058 A 
ATOM     89  C   UNL     1      10.187 -11.560  18.082  1.00  0.00     0.135 A 
ATOM     90  C   UNL     1      12.489 -11.904  17.478  1.00  0.00     0.135 A 
ATOM     91  F   UNL     1       8.906 -11.327  17.754  1.00  0.00    -0.206 F 
ATOM     92  C   UNL     1      10.516 -11.657  19.430  1.00  0.00     0.059 A 
ATOM     93  C   UNL     1      12.837 -12.030  18.820  1.00  0.00     0.059 A 
ATOM     94  F   UNL     1      13.461 -12.025  16.559  1.00  0.00    -0.206 F 
ATOM     95  C   UNL     1      11.845 -11.891  19.789  1.00  0.00     0.060 A 
BRANCH  95  96
ATOM     96  S   UNL     1      12.257 -12.038  21.541  1.00  0.00     0.124 S 
ATOM     97  O   UNL     1      12.217 -10.644  21.970  1.00  0.00    -0.237 OA
ATOM     98  O   UNL     1      11.183 -12.888  22.046  1.00  0.00    -0.237 OA
ATOM     99  O   UNL     1      13.581 -12.654  21.526  1.00  0.00    -0.744 OA
ENDBRANCH  95  96
ENDBRANCH  63  88
ENDBRANCH  37  38
ENDBRANCH  29  32
ENDBRANCH  27  28
ENDBRANCH   1  27
TORSDOF 17
