REMARK SMILES O=C(NCCCNC(=O)[C@@H]1CC=CC[C@@H]1C(=O)Nc1sc2c(c1C(=O)N1CCCCC1)CCCC2)c1ccc(-c2c3nc(c(-c4c(F)cc(S(=O)(=O)[O-])cc4F)c4ccc([nH]4)c(-c4c(F)cc(S(=O)(=O)[O-])cc4F)c4nc(c(-c5c(F)cc(S(=O)(=O)[O-])cc5F)c5ccc2[nH]5)C=C4)C=C3)cc1
REMARK SMILES IDX 5 1 4 2 3 3 1 4 2 5 36 7 37 8 101 9 38 10 100 11 39 12 40 13
REMARK SMILES IDX 41 14 94 15 42 16 99 17 93 18 95 19 43 20 98 21 92 22 91 23
REMARK SMILES IDX 44 25 78 26 57 27 77 28 58 29 61 30 76 31 96 32 59 33 60 34
REMARK SMILES IDX 75 36 97 37 62 38 45 39 46 40 55 41 47 42 48 43 54 44 56 45
REMARK SMILES IDX 49 46 50 47 51 48 52 49 53 50 79 51 80 52 89 53 81 54 82 55
REMARK SMILES IDX 88 56 90 57 83 58 84 59 85 60 86 61 87 62 63 63 64 64 73 65
REMARK SMILES IDX 65 66 66 67 72 68 74 69 67 70 68 71 69 72 70 73 71 74 6 75
REMARK SMILES IDX 7 76 8 77 9 79 10 80 11 81 15 82 12 83 14 84 13 85 16 86
REMARK SMILES IDX 17 87 18 88 19 90 20 91 23 92 21 93 22 94 35 95 32 96 34 97
REMARK SMILES IDX 33 98 24 99 25 100 26 101 27 102 31 103 28 104 30 105 29 106
REMARK H PARENT 3 6 95 24 61 35 7 78 18 89
REMARK Flexibility Score: inf
ROOT
ATOM      1  C   UNL     1       5.658  -6.760   0.698  1.00  0.00     0.042 C 
ENDROOT
BRANCH   1   2
ATOM      2  C   UNL     1       5.761  -8.097   1.431  1.00  0.00     0.118 C 
BRANCH   2   3
ATOM      3  N   UNL     1       6.565  -9.144   0.793  1.00  0.00    -0.352 N 
ATOM      4  O   UNL     1       7.686 -11.133   0.722  1.00  0.00    -0.269 OA
ATOM      5  C   UNL     1       6.877 -10.403   1.285  1.00  0.00     0.251 C 
ATOM      6  H   UNL     1       6.929  -8.926  -0.096  1.00  0.00     0.163 HD
BRANCH   5   7
ATOM      7  C   UNL     1       6.286 -10.841   2.564  1.00  0.00     0.039 A 
ATOM      8  C   UNL     1       4.958 -10.549   2.854  1.00  0.00     0.014 A 
ATOM      9  C   UNL     1       7.109 -11.420   3.532  1.00  0.00     0.014 A 
ATOM     10  C   UNL     1       4.560 -10.491   4.168  1.00  0.00     0.010 A 
ATOM     11  C   UNL     1       6.657 -11.499   4.848  1.00  0.00     0.010 A 
ATOM     12  C   UNL     1       5.427 -10.918   5.182  1.00  0.00    -0.014 A 
BRANCH  12  13
ATOM     13  C   UNL     1       5.062 -10.585   6.574  1.00  0.00     0.031 A 
ATOM     14  C   UNL     1       5.892  -9.581   7.331  1.00  0.00     0.074 A 
ATOM     15  C   UNL     1       3.892 -11.044   7.056  1.00  0.00     0.049 A 
ATOM     16  N   UNL     1       5.719  -9.114   8.538  1.00  0.00    -0.248 NA
ATOM     17  C   UNL     1       7.074  -9.026   6.645  1.00  0.00     0.031 C 
ATOM     18  C   UNL     1       2.993 -11.957   6.340  1.00  0.00     0.029 A 
ATOM     19  N   UNL     1       3.222 -10.758   8.211  1.00  0.00    -0.354 N 
ATOM     20  C   UNL     1       6.796  -8.266   8.777  1.00  0.00     0.074 A 
ATOM     21  C   UNL     1       7.615  -8.270   7.589  1.00  0.00     0.031 C 
ATOM     22  C   UNL     1       1.851 -12.079   7.030  1.00  0.00     0.029 A 
ATOM     23  C   UNL     1       1.978 -11.338   8.278  1.00  0.00     0.049 A 
ATOM     24  H   UNL     1       3.594 -10.191   8.925  1.00  0.00     0.167 HD
ATOM     25  C   UNL     1       7.071  -7.558   9.897  1.00  0.00     0.037 A 
ATOM     26  C   UNL     1       1.053 -11.290   9.254  1.00  0.00     0.037 A 
ATOM     27  C   UNL     1       6.203  -7.542  11.045  1.00  0.00     0.049 A 
ATOM     28  C   UNL     1       1.380 -10.495  10.483  1.00  0.00     0.074 A 
ATOM     29  C   UNL     1       6.378  -6.900  12.256  1.00  0.00     0.029 A 
ATOM     30  N   UNL     1       4.978  -8.194  11.107  1.00  0.00    -0.354 N 
ATOM     31  N   UNL     1       2.445  -9.767  10.729  1.00  0.00    -0.248 NA
ATOM     32  C   UNL     1       0.401 -10.530  11.573  1.00  0.00     0.031 C 
ATOM     33  C   UNL     1       5.270  -7.189  13.062  1.00  0.00     0.029 A 
ATOM     34  C   UNL     1       4.386  -7.977  12.338  1.00  0.00     0.049 A 
ATOM     35  H   UNL     1       4.587  -8.732  10.382  1.00  0.00     0.167 HD
ATOM     36  C   UNL     1       2.269  -9.259  12.008  1.00  0.00     0.074 A 
ATOM     37  C   UNL     1       0.978  -9.740  12.468  1.00  0.00     0.031 C 
ATOM     38  C   UNL     1       3.098  -8.479  12.746  1.00  0.00     0.037 A 
BRANCH  25  39
ATOM     39  C   UNL     1       8.377  -6.813   9.952  1.00  0.00     0.058 A 
ATOM     40  C   UNL     1       8.607  -5.636   9.221  1.00  0.00     0.135 A 
ATOM     41  C   UNL     1       9.427  -7.298  10.750  1.00  0.00     0.135 A 
ATOM     42  F   UNL     1       7.650  -5.141   8.419  1.00  0.00    -0.206 F 
ATOM     43  C   UNL     1       9.836  -4.982   9.260  1.00  0.00     0.059 A 
ATOM     44  C   UNL     1      10.657  -6.648  10.821  1.00  0.00     0.059 A 
ATOM     45  F   UNL     1       9.268  -8.424  11.463  1.00  0.00    -0.206 F 
ATOM     46  C   UNL     1      10.858  -5.499  10.059  1.00  0.00     0.060 A 
BRANCH  46  47
ATOM     47  S   UNL     1      12.453  -4.651  10.093  1.00  0.00     0.124 S 
ATOM     48  O   UNL     1      13.014  -5.037   8.802  1.00  0.00    -0.237 OA
ATOM     49  O   UNL     1      12.061  -3.251  10.220  1.00  0.00    -0.237 OA
ATOM     50  O   UNL     1      13.115  -5.220  11.262  1.00  0.00    -0.744 OA
ENDBRANCH  46  47
ENDBRANCH  25  39
BRANCH  26  51
ATOM     51  C   UNL     1      -0.222 -12.040   9.104  1.00  0.00     0.058 A 
ATOM     52  C   UNL     1      -1.448 -11.376   8.963  1.00  0.00     0.135 A 
ATOM     53  C   UNL     1      -0.229 -13.444   9.039  1.00  0.00     0.135 A 
ATOM     54  F   UNL     1      -1.496 -10.037   9.019  1.00  0.00    -0.206 F 
ATOM     55  C   UNL     1      -2.636 -12.075   8.761  1.00  0.00     0.059 A 
ATOM     56  C   UNL     1      -1.397 -14.162   8.807  1.00  0.00     0.059 A 
ATOM     57  F   UNL     1       0.920 -14.129   9.150  1.00  0.00    -0.206 F 
ATOM     58  C   UNL     1      -2.598 -13.468   8.677  1.00  0.00     0.060 A 
BRANCH  58  59
ATOM     59  S   UNL     1      -4.127 -14.366   8.334  1.00  0.00     0.124 S 
ATOM     60  O   UNL     1      -4.780 -14.340   9.637  1.00  0.00    -0.237 OA
ATOM     61  O   UNL     1      -4.741 -13.546   7.294  1.00  0.00    -0.237 OA
ATOM     62  O   UNL     1      -3.652 -15.673   7.889  1.00  0.00    -0.744 OA
ENDBRANCH  58  59
ENDBRANCH  26  51
BRANCH  38  63
ATOM     63  C   UNL     1       2.610  -8.095  14.108  1.00  0.00     0.058 A 
ATOM     64  C   UNL     1       2.618  -9.009  15.172  1.00  0.00     0.135 A 
ATOM     65  C   UNL     1       2.149  -6.793  14.352  1.00  0.00     0.135 A 
ATOM     66  F   UNL     1       3.044 -10.267  14.979  1.00  0.00    -0.206 F 
ATOM     67  C   UNL     1       2.152  -8.653  16.431  1.00  0.00     0.059 A 
ATOM     68  C   UNL     1       1.701  -6.408  15.609  1.00  0.00     0.059 A 
ATOM     69  F   UNL     1       2.134  -5.883  13.365  1.00  0.00    -0.206 F 
ATOM     70  C   UNL     1       1.691  -7.351  16.638  1.00  0.00     0.060 A 
BRANCH  70  71
ATOM     71  S   UNL     1       1.093  -6.894  18.277  1.00  0.00     0.124 S 
ATOM     72  O   UNL     1      -0.239  -7.490  18.277  1.00  0.00    -0.237 OA
ATOM     73  O   UNL     1       2.071  -7.525  19.157  1.00  0.00    -0.237 OA
ATOM     74  O   UNL     1       1.130  -5.435  18.253  1.00  0.00    -0.744 OA
ENDBRANCH  70  71
ENDBRANCH  38  63
ENDBRANCH  12  13
ENDBRANCH   5   7
ENDBRANCH   2   3
ENDBRANCH   1   2
BRANCH   1  75
ATOM     75  C   UNL     1       5.164  -6.981  -0.721  1.00  0.00     0.117 C 
BRANCH  75  76
ATOM     76  N   UNL     1       4.569  -5.839  -1.383  1.00  0.00    -0.356 N 
ATOM     77  C   UNL     1       4.914  -5.292  -2.590  1.00  0.00     0.224 C 
ATOM     78  H   UNL     1       3.825  -5.402  -0.907  1.00  0.00     0.163 HD
ATOM     79  O   UNL     1       3.985  -4.992  -3.346  1.00  0.00    -0.275 OA
BRANCH  77  80
ATOM     80  C   UNL     1       6.334  -4.790  -2.852  1.00  0.00     0.095 C 
ATOM     81  C   UNL     1       6.584  -4.238  -4.273  1.00  0.00     0.041 C 
ATOM     82  C   UNL     1       7.571  -5.521  -2.324  1.00  0.00     0.095 C 
ATOM     83  C   UNL     1       7.889  -3.499  -4.377  1.00  0.00    -0.030 C 
ATOM     84  C   UNL     1       8.681  -4.423  -2.196  1.00  0.00     0.041 C 
ATOM     85  C   UNL     1       8.829  -3.563  -3.424  1.00  0.00    -0.030 C 
BRANCH  82  86
ATOM     86  C   UNL     1       8.155  -6.799  -3.018  1.00  0.00     0.229 C 
ATOM     87  O   UNL     1       9.382  -6.906  -3.158  1.00  0.00    -0.274 OA
ATOM     88  N   UNL     1       7.435  -7.969  -3.119  1.00  0.00    -0.317 N 
ATOM     89  H   UNL     1       7.889  -8.762  -2.754  1.00  0.00     0.170 HD
BRANCH  88  90
ATOM     90  C   UNL     1       6.180  -8.217  -3.646  1.00  0.00     0.108 A 
ATOM     91  S   UNL     1       5.746  -7.414  -5.068  1.00  0.00    -0.122 S 
ATOM     92  C   UNL     1       5.267  -9.229  -3.328  1.00  0.00     0.078 A 
ATOM     93  C   UNL     1       4.161  -7.983  -4.973  1.00  0.00     0.011 A 
ATOM     94  C   UNL     1       4.012  -8.974  -4.020  1.00  0.00    -0.019 A 
ATOM     95  C   UNL     1       3.100  -7.469  -5.891  1.00  0.00     0.047 C 
ATOM     96  C   UNL     1       2.667  -9.607  -3.803  1.00  0.00     0.037 C 
ATOM     97  C   UNL     1       1.711  -7.869  -5.383  1.00  0.00     0.006 C 
ATOM     98  C   UNL     1       1.684  -9.335  -4.948  1.00  0.00     0.005 C 
BRANCH  92  99
ATOM     99  C   UNL     1       5.616 -10.301  -2.375  1.00  0.00     0.257 C 
ATOM    100  O   UNL     1       6.765 -10.428  -1.982  1.00  0.00    -0.269 OA
ATOM    101  N   UNL     1       4.626 -11.226  -2.071  1.00  0.00    -0.339 N 
ATOM    102  C   UNL     1       3.683 -11.014  -0.980  1.00  0.00     0.120 C 
ATOM    103  C   UNL     1       4.695 -12.549  -2.675  1.00  0.00     0.120 C 
ATOM    104  C   UNL     1       3.678 -12.160   0.031  1.00  0.00     0.022 C 
ATOM    105  C   UNL     1       4.697 -13.678  -1.650  1.00  0.00     0.022 C 
ATOM    106  C   UNL     1       3.552 -13.512  -0.656  1.00  0.00     0.004 C 
ENDBRANCH  92  99
ENDBRANCH  88  90
ENDBRANCH  82  86
ENDBRANCH  77  80
ENDBRANCH  75  76
ENDBRANCH   1  75
TORSDOF 16
