REMARK SMILES C[C@@H](Sc1ccccc1[N+](=O)[O-])[C@@H](C)C(=O)NCCCNC(=O)c1ccc(-c2c3nc(c(-c4c(F)cc(S(=O)(=O)[O-])cc4F)c4ccc([nH]4)c(-c4c(F)cc(S(=O)(=O)[O-])cc4F)c4nc(c(-c5c(F)cc(S(=O)(=O)[O-])cc5F)c5ccc2[nH]5)C=C4)C=C3)cc1
REMARK SMILES IDX 18 1 17 2 15 3 16 4 13 6 14 7 2 8 1 9 3 10 4 11 5 12 9 13
REMARK SMILES IDX 6 14 8 15 7 16 10 17 11 18 12 19 19 20 20 21 21 22 22 23
REMARK SMILES IDX 23 25 24 26 25 27 89 28 26 29 88 30 27 31 28 32 29 33 82 34
REMARK SMILES IDX 30 35 87 36 81 37 83 38 31 39 86 40 80 41 79 42 32 44 66 45
REMARK SMILES IDX 45 46 65 47 46 48 49 49 64 50 84 51 47 52 48 53 63 55 85 56
REMARK SMILES IDX 50 57 33 58 34 59 43 60 35 61 36 62 42 63 44 64 37 65 38 66
REMARK SMILES IDX 39 67 40 68 41 69 67 70 68 71 77 72 69 73 70 74 76 75 78 76
REMARK SMILES IDX 71 77 72 78 73 79 74 80 75 81 51 82 52 83 61 84 53 85 54 86
REMARK SMILES IDX 60 87 62 88 55 89 56 90 57 91 58 92 59 93
REMARK H PARENT 17 5 21 24 83 43 49 54
REMARK Flexibility Score: inf
ROOT
ATOM      1  C   UNL     1      -0.583  -3.733   1.731  1.00  0.00     0.117 C 
ENDROOT
BRANCH   1   2
ATOM      2  N   UNL     1      -1.406  -2.796   2.471  1.00  0.00    -0.356 N 
ATOM      3  C   UNL     1      -1.665  -1.476   2.290  1.00  0.00     0.223 C 
ATOM      4  O   UNL     1      -2.464  -0.951   3.071  1.00  0.00    -0.275 OA
ATOM      5  H   UNL     1      -1.863  -3.191   3.249  1.00  0.00     0.163 HD
BRANCH   3   6
ATOM      6  C   UNL     1      -1.064  -0.665   1.142  1.00  0.00     0.088 C 
ATOM      7  C   UNL     1      -1.673  -1.138  -0.184  1.00  0.00     0.019 C 
BRANCH   6   8
ATOM      8  C   UNL     1       0.483  -0.557   1.174  1.00  0.00     0.061 C 
ATOM      9  C   UNL     1       1.024   0.204  -0.039  1.00  0.00     0.020 C 
BRANCH   8  10
ATOM     10  S   UNL     1       0.979   0.304   2.746  1.00  0.00    -0.115 SA
BRANCH  10  11
ATOM     11  C   UNL     1       2.767   0.356   2.643  1.00  0.00     0.085 A 
ATOM     12  C   UNL     1       3.471  -0.856   2.725  1.00  0.00     0.022 A 
ATOM     13  C   UNL     1       3.522   1.542   2.618  1.00  0.00     0.282 A 
ATOM     14  C   UNL     1       4.870  -0.883   2.779  1.00  0.00     0.002 A 
ATOM     15  C   UNL     1       4.928   1.522   2.681  1.00  0.00     0.087 A 
ATOM     16  C   UNL     1       5.597   0.304   2.763  1.00  0.00     0.007 A 
BRANCH  13  17
ATOM     17  N   UNL     1       2.891   2.851   2.508  1.00  0.00     0.063 N 
ATOM     18  O   UNL     1       3.310   3.746   3.257  1.00  0.00    -0.258 OA
ATOM     19  O   UNL     1       2.039   3.013   1.623  1.00  0.00    -0.258 OA
ENDBRANCH  13  17
ENDBRANCH  10  11
ENDBRANCH   8  10
ENDBRANCH   6   8
ENDBRANCH   3   6
ENDBRANCH   1   2
BRANCH   1  20
ATOM     20  C   UNL     1       0.674  -4.123   2.495  1.00  0.00     0.042 C 
BRANCH  20  21
ATOM     21  C   UNL     1       0.412  -4.893   3.783  1.00  0.00     0.118 C 
BRANCH  21  22
ATOM     22  N   UNL     1      -0.227  -6.178   3.542  1.00  0.00    -0.352 N 
ATOM     23  C   UNL     1       0.242  -7.452   3.735  1.00  0.00     0.251 C 
ATOM     24  H   UNL     1      -1.142  -6.125   3.183  1.00  0.00     0.163 HD
ATOM     25  O   UNL     1      -0.382  -8.400   3.255  1.00  0.00    -0.269 OA
BRANCH  23  26
ATOM     26  C   UNL     1       1.490  -7.696   4.491  1.00  0.00     0.039 A 
ATOM     27  C   UNL     1       2.365  -8.693   4.051  1.00  0.00     0.014 A 
ATOM     28  C   UNL     1       1.789  -6.971   5.647  1.00  0.00     0.014 A 
ATOM     29  C   UNL     1       3.564  -8.916   4.731  1.00  0.00     0.010 A 
ATOM     30  C   UNL     1       3.025  -7.128   6.268  1.00  0.00     0.010 A 
ATOM     31  C   UNL     1       3.923  -8.109   5.823  1.00  0.00    -0.014 A 
BRANCH  31  32
ATOM     32  C   UNL     1       5.226  -8.280   6.516  1.00  0.00     0.031 A 
ATOM     33  C   UNL     1       5.268  -8.663   7.971  1.00  0.00     0.074 A 
ATOM     34  C   UNL     1       6.371  -8.022   5.852  1.00  0.00     0.049 A 
ATOM     35  N   UNL     1       6.302  -8.793   8.762  1.00  0.00    -0.248 NA
ATOM     36  C   UNL     1       3.975  -8.902   8.633  1.00  0.00     0.031 C 
ATOM     37  C   UNL     1       6.459  -7.592   4.454  1.00  0.00     0.029 A 
ATOM     38  N   UNL     1       7.679  -8.073   6.264  1.00  0.00    -0.354 N 
ATOM     39  C   UNL     1       5.786  -9.111  10.013  1.00  0.00     0.074 A 
ATOM     40  C   UNL     1       4.345  -9.096   9.890  1.00  0.00     0.031 C 
ATOM     41  C   UNL     1       7.750  -7.443   4.120  1.00  0.00     0.029 A 
ATOM     42  C   UNL     1       8.581  -7.724   5.287  1.00  0.00     0.049 A 
ATOM     43  H   UNL     1       7.946  -8.336   7.175  1.00  0.00     0.167 HD
ATOM     44  C   UNL     1       6.452  -9.410  11.154  1.00  0.00     0.037 A 
ATOM     45  C   UNL     1       9.924  -7.630   5.327  1.00  0.00     0.037 A 
ATOM     46  C   UNL     1       7.888  -9.443  11.262  1.00  0.00     0.049 A 
ATOM     47  C   UNL     1      10.644  -7.969   6.604  1.00  0.00     0.074 A 
ATOM     48  C   UNL     1       8.661  -9.798  12.353  1.00  0.00     0.029 A 
ATOM     49  N   UNL     1       8.768  -9.103  10.244  1.00  0.00    -0.354 N 
ATOM     50  N   UNL     1      10.142  -8.337   7.759  1.00  0.00    -0.248 NA
ATOM     51  C   UNL     1      12.110  -7.887   6.582  1.00  0.00     0.031 C 
ATOM     52  C   UNL     1      10.006  -9.621  12.012  1.00  0.00     0.029 A 
ATOM     53  C   UNL     1      10.075  -9.213  10.690  1.00  0.00     0.049 A 
ATOM     54  H   UNL     1       8.502  -8.824   9.338  1.00  0.00     0.167 HD
ATOM     55  C   UNL     1      11.232  -8.556   8.594  1.00  0.00     0.074 A 
ATOM     56  C   UNL     1      12.419  -8.291   7.807  1.00  0.00     0.031 C 
ATOM     57  C   UNL     1      11.248  -8.945   9.894  1.00  0.00     0.037 A 
BRANCH  44  58
ATOM     58  C   UNL     1       5.632  -9.722  12.379  1.00  0.00     0.058 A 
ATOM     59  C   UNL     1       4.854 -10.887  12.472  1.00  0.00     0.135 A 
ATOM     60  C   UNL     1       5.638  -8.852  13.482  1.00  0.00     0.135 A 
ATOM     61  F   UNL     1       4.799 -11.749  11.444  1.00  0.00    -0.206 F 
ATOM     62  C   UNL     1       4.081 -11.159  13.596  1.00  0.00     0.059 A 
ATOM     63  C   UNL     1       4.898  -9.121  14.630  1.00  0.00     0.059 A 
ATOM     64  F   UNL     1       6.365  -7.724  13.450  1.00  0.00    -0.206 F 
ATOM     65  C   UNL     1       4.107 -10.268  14.670  1.00  0.00     0.060 A 
BRANCH  65  66
ATOM     66  S   UNL     1       3.090 -10.630  16.116  1.00  0.00     0.124 S 
ATOM     67  O   UNL     1       1.750 -10.354  15.604  1.00  0.00    -0.237 OA
ATOM     68  O   UNL     1       3.394 -12.035  16.367  1.00  0.00    -0.237 OA
ATOM     69  O   UNL     1       3.582  -9.695  17.122  1.00  0.00    -0.744 OA
ENDBRANCH  65  66
ENDBRANCH  44  58
BRANCH  45  70
ATOM     70  C   UNL     1      10.671  -7.218   4.108  1.00  0.00     0.058 A 
ATOM     71  C   UNL     1      11.454  -8.138   3.396  1.00  0.00     0.135 A 
ATOM     72  C   UNL     1      10.586  -5.908   3.611  1.00  0.00     0.135 A 
ATOM     73  F   UNL     1      11.571  -9.400   3.834  1.00  0.00    -0.206 F 
ATOM     74  C   UNL     1      12.133  -7.774   2.237  1.00  0.00     0.059 A 
ATOM     75  C   UNL     1      11.235  -5.527   2.441  1.00  0.00     0.059 A 
ATOM     76  F   UNL     1       9.834  -4.995   4.245  1.00  0.00    -0.206 F 
ATOM     77  C   UNL     1      12.011  -6.466   1.764  1.00  0.00     0.060 A 
BRANCH  77  78
ATOM     78  S   UNL     1      12.837  -6.023   0.220  1.00  0.00     0.124 S 
ATOM     79  O   UNL     1      14.235  -5.995   0.632  1.00  0.00    -0.237 OA
ATOM     80  O   UNL     1      12.450  -7.122  -0.659  1.00  0.00    -0.237 OA
ATOM     81  O   UNL     1      12.249  -4.728  -0.113  1.00  0.00    -0.744 OA
ENDBRANCH  77  78
ENDBRANCH  45  70
BRANCH  57  82
ATOM     82  C   UNL     1      12.591  -9.137  10.543  1.00  0.00     0.058 A 
ATOM     83  C   UNL     1      13.416  -8.051  10.873  1.00  0.00     0.135 A 
ATOM     84  C   UNL     1      13.035 -10.425  10.888  1.00  0.00     0.135 A 
ATOM     85  F   UNL     1      13.044  -6.799  10.560  1.00  0.00    -0.206 F 
ATOM     86  C   UNL     1      14.645  -8.236  11.499  1.00  0.00     0.059 A 
ATOM     87  C   UNL     1      14.245 -10.630  11.542  1.00  0.00     0.059 A 
ATOM     88  F   UNL     1      12.280 -11.498  10.605  1.00  0.00    -0.206 F 
ATOM     89  C   UNL     1      15.049  -9.530  11.832  1.00  0.00     0.060 A 
BRANCH  89  90
ATOM     90  S   UNL     1      16.631  -9.752  12.674  1.00  0.00     0.124 S 
ATOM     91  O   UNL     1      17.577  -9.492  11.594  1.00  0.00    -0.237 OA
ATOM     92  O   UNL     1      16.571  -8.739  13.723  1.00  0.00    -0.237 OA
ATOM     93  O   UNL     1      16.576 -11.134  13.141  1.00  0.00    -0.744 OA
ENDBRANCH  89  90
ENDBRANCH  57  82
ENDBRANCH  31  32
ENDBRANCH  23  26
ENDBRANCH  21  22
ENDBRANCH  20  21
ENDBRANCH   1  20
TORSDOF 17
