REMARK SMILES Cc1ccc(S(=O)(=O)n2cc(C(=O)C(=O)N[C@@H](Cc3cnc[nH]3)C(=O)NCCCNC(=O)c3ccc(-c4c5nc(c(-c6c(F)cc(S(=O)(=O)[O-])cc6F)c6ccc([nH]6)c(-c6c(F)cc(S(=O)(=O)[O-])cc6F)c6nc(c(-c7c(F)cc(S(=O)(=O)[O-])cc7F)c7ccc4[nH]7)C=C6)C=C5)cc3)c3ccccc32)cc1
REMARK SMILES IDX 27 1 26 2 24 3 25 4 17 6 16 7 14 8 15 9 12 11 13 12 11 13
REMARK SMILES IDX 9 14 10 15 104 16 99 17 103 18 100 19 102 20 101 21 6 22
REMARK SMILES IDX 7 23 8 24 5 25 1 26 2 27 3 28 106 29 4 30 105 31 18 32 19 33
REMARK SMILES IDX 20 34 23 35 21 36 22 37 28 39 29 40 30 41 31 42 32 44 33 45
REMARK SMILES IDX 34 46 98 47 35 48 97 49 36 50 37 51 38 52 91 53 39 54 96 55
REMARK SMILES IDX 90 56 92 57 40 58 95 59 89 60 88 61 41 63 75 64 54 65 74 66
REMARK SMILES IDX 55 67 58 68 73 69 93 70 56 71 57 72 72 74 94 75 59 76 42 77
REMARK SMILES IDX 43 78 52 79 44 80 45 81 51 82 53 83 46 84 47 85 48 86 49 87
REMARK SMILES IDX 50 88 76 89 77 90 86 91 78 92 79 93 85 94 87 95 80 96 81 97
REMARK SMILES IDX 82 98 83 99 84 100 60 101 61 102 70 103 62 104 63 105 69 106
REMARK SMILES IDX 71 107 64 108 65 109 66 110 67 111 68 112
REMARK H PARENT 26 5 16 10 23 38 30 43 92 62 58 73
REMARK Flexibility Score: inf
ROOT
ATOM      1  C   UNL     1      -8.760   6.226   5.867  1.00  0.00     0.117 C 
ENDROOT
BRANCH   1   2
ATOM      2  N   UNL     1      -7.739   7.047   5.245  1.00  0.00    -0.354 N 
ATOM      3  C   UNL     1      -7.490   7.278   3.924  1.00  0.00     0.242 C 
ATOM      4  O   UNL     1      -6.800   8.265   3.645  1.00  0.00    -0.273 OA
ATOM      5  H   UNL     1      -7.135   7.507   5.871  1.00  0.00     0.163 HD
BRANCH   3   6
ATOM      6  C   UNL     1      -8.095   6.418   2.786  1.00  0.00     0.177 C 
BRANCH   6   7
ATOM      7  N   UNL     1      -7.881   4.976   2.997  1.00  0.00    -0.337 N 
ATOM      8  C   UNL     1      -6.957   4.106   2.441  1.00  0.00     0.293 C 
ATOM      9  O   UNL     1      -6.829   2.998   2.958  1.00  0.00    -0.265 OA
ATOM     10  H   UNL     1      -8.498   4.560   3.642  1.00  0.00     0.164 HD
BRANCH   8  11
ATOM     11  C   UNL     1      -6.135   4.467   1.170  1.00  0.00     0.252 C 
ATOM     12  O   UNL     1      -6.263   5.588   0.690  1.00  0.00    -0.283 OA
BRANCH  11  13
ATOM     13  C   UNL     1      -5.261   3.492   0.479  1.00  0.00     0.054 A 
ATOM     14  N   UNL     1      -4.170   1.636  -0.131  1.00  0.00    -0.240 N 
ATOM     15  C   UNL     1      -4.965   2.189   0.842  1.00  0.00     0.117 A 
ATOM     16  C   UNL     1      -3.915   2.537  -1.143  1.00  0.00     0.065 A 
ATOM     17  C   UNL     1      -4.548   3.727  -0.758  1.00  0.00     0.012 A 
ATOM     18  C   UNL     1      -3.182   2.436  -2.341  1.00  0.00     0.028 A 
ATOM     19  C   UNL     1      -4.405   4.856  -1.599  1.00  0.00     0.011 A 
ATOM     20  C   UNL     1      -3.060   3.572  -3.144  1.00  0.00     0.002 A 
ATOM     21  C   UNL     1      -3.656   4.770  -2.776  1.00  0.00     0.001 A 
BRANCH  14  22
ATOM     22  S   UNL     1      -3.585   0.035  -0.097  1.00  0.00     0.268 S 
ATOM     23  O   UNL     1      -3.920  -0.520  -1.386  1.00  0.00    -0.201 OA
ATOM     24  O   UNL     1      -4.084  -0.546   1.144  1.00  0.00    -0.201 OA
BRANCH  22  25
ATOM     25  C   UNL     1      -1.815   0.085   0.027  1.00  0.00     0.088 A 
ATOM     26  C   UNL     1       2.487  -0.035   0.067  1.00  0.00     0.044 C 
ATOM     27  C   UNL     1       0.987   0.012   0.061  1.00  0.00    -0.051 A 
ATOM     28  C   UNL     1       0.253  -1.172  -0.078  1.00  0.00     0.005 A 
ATOM     29  C   UNL     1       0.304   1.225   0.213  1.00  0.00     0.005 A 
ATOM     30  C   UNL     1      -1.142  -1.137  -0.102  1.00  0.00     0.022 A 
ATOM     31  C   UNL     1      -1.095   1.266   0.206  1.00  0.00     0.022 A 
ENDBRANCH  22  25
ENDBRANCH  14  22
ENDBRANCH  11  13
ENDBRANCH   8  11
ENDBRANCH   6   7
BRANCH   6  32
ATOM     32  C   UNL     1      -9.527   6.817   2.352  1.00  0.00     0.090 C 
BRANCH  32  33
ATOM     33  C   UNL     1     -10.654   6.426   3.249  1.00  0.00     0.037 A 
ATOM     34  C   UNL     1     -11.291   5.220   3.463  1.00  0.00     0.134 A 
ATOM     35  N   UNL     1     -11.275   7.300   4.119  1.00  0.00    -0.348 N 
ATOM     36  N   UNL     1     -12.190   5.318   4.492  1.00  0.00    -0.245 NA
ATOM     37  C   UNL     1     -12.146   6.572   4.882  1.00  0.00     0.196 A 
ATOM     38  H   UNL     1     -11.119   8.270   4.179  1.00  0.00     0.167 HD
ENDBRANCH  32  33
ENDBRANCH   6  32
ENDBRANCH   3   6
ENDBRANCH   1   2
BRANCH   1  39
ATOM     39  C   UNL     1      -8.236   5.027   6.624  1.00  0.00     0.042 C 
BRANCH  39  40
ATOM     40  C   UNL     1      -8.247   5.269   8.117  1.00  0.00     0.118 C 
BRANCH  40  41
ATOM     41  N   UNL     1      -9.496   4.928   8.795  1.00  0.00    -0.352 N 
ATOM     42  C   UNL     1      -9.801   5.065  10.145  1.00  0.00     0.251 C 
ATOM     43  H   UNL     1     -10.209   4.556   8.227  1.00  0.00     0.163 HD
ATOM     44  O   UNL     1     -10.830   4.592  10.612  1.00  0.00    -0.269 OA
BRANCH  42  45
ATOM     45  C   UNL     1      -8.875   5.853  10.991  1.00  0.00     0.039 A 
ATOM     46  C   UNL     1      -9.358   6.969  11.682  1.00  0.00     0.014 A 
ATOM     47  C   UNL     1      -7.510   5.650  10.850  1.00  0.00     0.014 A 
ATOM     48  C   UNL     1      -8.476   7.997  12.023  1.00  0.00     0.010 A 
ATOM     49  C   UNL     1      -6.681   6.734  11.008  1.00  0.00     0.010 A 
ATOM     50  C   UNL     1      -7.159   7.920  11.582  1.00  0.00    -0.014 A 
BRANCH  50  51
ATOM     51  C   UNL     1      -6.179   9.002  11.614  1.00  0.00     0.031 A 
ATOM     52  C   UNL     1      -4.913   8.803  12.371  1.00  0.00     0.074 A 
ATOM     53  C   UNL     1      -6.312  10.053  10.773  1.00  0.00     0.049 A 
ATOM     54  N   UNL     1      -4.008   9.702  12.540  1.00  0.00    -0.248 NA
ATOM     55  C   UNL     1      -4.571   7.539  13.021  1.00  0.00     0.031 C 
ATOM     56  C   UNL     1      -5.248  10.932  10.292  1.00  0.00     0.029 A 
ATOM     57  N   UNL     1      -7.483  10.656  10.312  1.00  0.00    -0.354 N 
ATOM     58  C   UNL     1      -2.890   9.099  13.076  1.00  0.00     0.074 A 
ATOM     59  C   UNL     1      -3.296   7.745  13.356  1.00  0.00     0.031 C 
ATOM     60  C   UNL     1      -5.790  12.063   9.818  1.00  0.00     0.029 A 
ATOM     61  C   UNL     1      -7.206  12.026  10.129  1.00  0.00     0.049 A 
ATOM     62  H   UNL     1      -8.344  10.207  10.146  1.00  0.00     0.167 HD
ATOM     63  C   UNL     1      -1.723   9.801  13.132  1.00  0.00     0.037 A 
ATOM     64  C   UNL     1      -7.849  12.978  10.872  1.00  0.00     0.037 A 
ATOM     65  C   UNL     1      -1.943  11.186  12.724  1.00  0.00     0.049 A 
ATOM     66  C   UNL     1      -6.943  13.769  11.791  1.00  0.00     0.074 A 
ATOM     67  C   UNL     1      -1.793  11.854  11.520  1.00  0.00     0.029 A 
ATOM     68  N   UNL     1      -2.703  12.011  13.542  1.00  0.00    -0.354 N 
ATOM     69  N   UNL     1      -5.718  13.425  12.079  1.00  0.00    -0.248 NA
ATOM     70  C   UNL     1      -7.340  15.002  12.467  1.00  0.00     0.031 C 
ATOM     71  C   UNL     1      -2.538  13.059  11.594  1.00  0.00     0.029 A 
ATOM     72  C   UNL     1      -3.114  13.133  12.850  1.00  0.00     0.049 A 
ATOM     73  H   UNL     1      -2.920  11.822  14.484  1.00  0.00     0.167 HD
ATOM     74  C   UNL     1      -5.184  14.310  12.981  1.00  0.00     0.074 A 
ATOM     75  C   UNL     1      -6.229  15.299  13.165  1.00  0.00     0.031 C 
ATOM     76  C   UNL     1      -3.935  14.138  13.509  1.00  0.00     0.037 A 
BRANCH  63  77
ATOM     77  C   UNL     1      -0.351   9.198  13.345  1.00  0.00     0.058 A 
ATOM     78  C   UNL     1       0.793   9.813  12.785  1.00  0.00     0.135 A 
ATOM     79  C   UNL     1      -0.088   8.005  14.046  1.00  0.00     0.135 A 
ATOM     80  F   UNL     1       0.715  10.986  12.143  1.00  0.00    -0.206 F 
ATOM     81  C   UNL     1       2.069   9.249  12.843  1.00  0.00     0.059 A 
ATOM     82  C   UNL     1       1.169   7.391  14.069  1.00  0.00     0.059 A 
ATOM     83  F   UNL     1      -1.028   7.409  14.790  1.00  0.00    -0.206 F 
ATOM     84  C   UNL     1       2.244   8.019  13.460  1.00  0.00     0.060 A 
BRANCH  84  85
ATOM     85  S   UNL     1       3.884   7.272  13.464  1.00  0.00     0.124 S 
ATOM     86  O   UNL     1       4.213   7.246  12.041  1.00  0.00    -0.237 OA
ATOM     87  O   UNL     1       4.646   8.215  14.275  1.00  0.00    -0.237 OA
ATOM     88  O   UNL     1       3.660   5.963  14.070  1.00  0.00    -0.744 OA
ENDBRANCH  84  85
ENDBRANCH  63  77
BRANCH  64  89
ATOM     89  C   UNL     1      -9.281  12.646  11.108  1.00  0.00     0.058 A 
ATOM     90  C   UNL     1     -10.126  12.696   9.982  1.00  0.00     0.135 A 
ATOM     91  C   UNL     1      -9.658  11.808  12.169  1.00  0.00     0.135 A 
ATOM     92  F   UNL     1      -9.826  13.506   8.954  1.00  0.00    -0.206 F 
ATOM     93  C   UNL     1     -11.165  11.790   9.815  1.00  0.00     0.059 A 
ATOM     94  C   UNL     1     -10.709  10.899  12.026  1.00  0.00     0.059 A 
ATOM     95  F   UNL     1      -8.898  11.731  13.271  1.00  0.00    -0.206 F 
ATOM     96  C   UNL     1     -11.387  10.839  10.807  1.00  0.00     0.060 A 
BRANCH  96  97
ATOM     97  S   UNL     1     -12.379   9.392  10.364  1.00  0.00     0.124 S 
ATOM     98  O   UNL     1     -13.631   9.999   9.929  1.00  0.00    -0.237 OA
ATOM     99  O   UNL     1     -11.563   8.802   9.302  1.00  0.00    -0.237 OA
ATOM    100  O   UNL     1     -12.441   8.635  11.608  1.00  0.00    -0.744 OA
ENDBRANCH  96  97
ENDBRANCH  64  89
BRANCH  76 101
ATOM    101  C   UNL     1      -3.327  14.915  14.655  1.00  0.00     0.058 A 
ATOM    102  C   UNL     1      -4.066  15.479  15.707  1.00  0.00     0.135 A 
ATOM    103  C   UNL     1      -1.917  14.968  14.805  1.00  0.00     0.135 A 
ATOM    104  F   UNL     1      -5.404  15.407  15.737  1.00  0.00    -0.206 F 
ATOM    105  C   UNL     1      -3.456  16.097  16.802  1.00  0.00     0.059 A 
ATOM    106  C   UNL     1      -1.290  15.525  15.916  1.00  0.00     0.059 A 
ATOM    107  F   UNL     1      -1.094  14.459  13.874  1.00  0.00    -0.206 F 
ATOM    108  C   UNL     1      -2.068  16.111  16.901  1.00  0.00     0.060 A 
BRANCH 108 109
ATOM    109  S   UNL     1      -1.271  16.840  18.343  1.00  0.00     0.124 S 
ATOM    110  O   UNL     1      -1.029  18.204  17.883  1.00  0.00    -0.237 OA
ATOM    111  O   UNL     1      -2.285  16.698  19.384  1.00  0.00    -0.237 OA
ATOM    112  O   UNL     1      -0.084  16.010  18.520  1.00  0.00    -0.744 OA
ENDBRANCH 108 109
ENDBRANCH  76 101
ENDBRANCH  50  51
ENDBRANCH  42  45
ENDBRANCH  40  41
ENDBRANCH  39  40
ENDBRANCH   1  39
TORSDOF 20
