REMARK SMILES CCOc1cc(OCC)cc(-c2ccc([C@@H](C)C(=O)NCCCNC(=O)c3ccc(-c4c5nc(c(-c6c(F)cc(S(=O)(=O)[O-])cc6F)c6ccc([nH]6)c(-c6c(F)cc(S(=O)(=O)[O-])cc6F)c6nc(c(-c7c(F)cc(S(=O)(=O)[O-])cc7F)c7ccc4[nH]7)C=C6)C=C5)cc3)cc2F)c1
REMARK SMILES IDX 21 1 20 2 18 3 19 4 16 6 17 7 15 8 12 9 13 10 94 11 14 12
REMARK SMILES IDX 93 13 95 14 11 15 4 16 5 17 96 18 6 19 10 20 3 21 2 22 1 23
REMARK SMILES IDX 7 24 8 25 9 26 22 27 23 28 24 29 25 30 26 32 27 33 28 34
REMARK SMILES IDX 92 35 29 36 91 37 30 38 31 39 32 40 85 41 33 42 90 43 84 44
REMARK SMILES IDX 86 45 34 46 89 47 83 48 82 49 35 51 69 52 48 53 68 54 49 55
REMARK SMILES IDX 52 56 67 57 87 58 50 59 51 60 66 62 88 63 53 64 36 65 37 66
REMARK SMILES IDX 46 67 38 68 39 69 45 70 47 71 40 72 41 73 42 74 43 75 44 76
REMARK SMILES IDX 70 77 71 78 80 79 72 80 73 81 79 82 81 83 74 84 75 85 76 86
REMARK SMILES IDX 77 87 78 88 54 89 55 90 64 91 56 92 57 93 63 94 65 95 58 96
REMARK SMILES IDX 59 97 60 98 61 99 62 100
REMARK H PARENT 20 5 24 31 86 50 52 61
REMARK Flexibility Score: inf
ROOT
ATOM      1  C   UNL     1       9.741  -1.492   1.546  1.00  0.00     0.117 C 
ENDROOT
BRANCH   1   2
ATOM      2  N   UNL     1       9.003  -2.661   1.983  1.00  0.00    -0.356 N 
ATOM      3  C   UNL     1       8.338  -3.637   1.307  1.00  0.00     0.227 C 
ATOM      4  O   UNL     1       7.783  -4.498   2.002  1.00  0.00    -0.274 OA
ATOM      5  H   UNL     1       8.979  -2.771   2.962  1.00  0.00     0.163 HD
BRANCH   3   6
ATOM      6  C   UNL     1       8.247  -3.726  -0.224  1.00  0.00     0.105 C 
ATOM      7  C   UNL     1       9.591  -3.843  -0.941  1.00  0.00     0.023 C 
BRANCH   6   8
ATOM      8  C   UNL     1       7.281  -2.724  -0.829  1.00  0.00    -0.033 A 
ATOM      9  C   UNL     1       5.388  -0.825  -1.821  1.00  0.00     0.018 A 
ATOM     10  C   UNL     1       6.735  -0.489  -1.597  1.00  0.00     0.012 A 
ATOM     11  C   UNL     1       5.022  -2.149  -1.548  1.00  0.00     0.131 A 
ATOM     12  C   UNL     1       7.668  -1.427  -1.160  1.00  0.00     0.005 A 
ATOM     13  C   UNL     1       5.939  -3.076  -1.041  1.00  0.00     0.044 A 
ATOM     14  F   UNL     1       3.768  -2.574  -1.768  1.00  0.00    -0.206 F 
BRANCH   9  15
ATOM     15  C   UNL     1       4.449   0.209  -2.307  1.00  0.00    -0.008 A 
ATOM     16  C   UNL     1       2.282   1.315  -2.304  1.00  0.00     0.123 A 
ATOM     17  C   UNL     1       2.778   2.334  -3.116  1.00  0.00     0.092 A 
ATOM     18  C   UNL     1       3.107   0.258  -1.912  1.00  0.00     0.055 A 
ATOM     19  C   UNL     1       4.101   2.296  -3.553  1.00  0.00     0.123 A 
ATOM     20  C   UNL     1       4.907   1.227  -3.166  1.00  0.00     0.055 A 
BRANCH  16  21
ATOM     21  O   UNL     1       0.946   1.309  -2.009  1.00  0.00    -0.494 OA
BRANCH  21  22
ATOM     22  C   UNL     1       0.657   1.541  -0.624  1.00  0.00     0.226 C 
ATOM     23  C   UNL     1       0.544   0.238   0.155  1.00  0.00     0.049 C 
ENDBRANCH  21  22
ENDBRANCH  16  21
BRANCH  19  24
ATOM     24  O   UNL     1       4.513   3.349  -4.322  1.00  0.00    -0.494 OA
BRANCH  24  25
ATOM     25  C   UNL     1       5.786   3.268  -4.970  1.00  0.00     0.226 C 
ATOM     26  C   UNL     1       6.925   3.723  -4.067  1.00  0.00     0.049 C 
ENDBRANCH  24  25
ENDBRANCH  19  24
ENDBRANCH   9  15
ENDBRANCH   6   8
ENDBRANCH   3   6
ENDBRANCH   1   2
BRANCH   1  27
ATOM     27  C   UNL     1       8.929  -0.203   1.668  1.00  0.00     0.042 C 
BRANCH  27  28
ATOM     28  C   UNL     1       8.926   0.403   3.066  1.00  0.00     0.118 C 
BRANCH  28  29
ATOM     29  N   UNL     1      10.232   0.925   3.443  1.00  0.00    -0.352 N 
ATOM     30  C   UNL     1      10.634   2.201   3.753  1.00  0.00     0.251 C 
ATOM     31  H   UNL     1      10.947   0.249   3.482  1.00  0.00     0.163 HD
ATOM     32  O   UNL     1      11.838   2.437   3.827  1.00  0.00    -0.269 OA
BRANCH  30  33
ATOM     33  C   UNL     1       9.654   3.289   3.986  1.00  0.00     0.039 A 
ATOM     34  C   UNL     1       9.981   4.586   3.573  1.00  0.00     0.014 A 
ATOM     35  C   UNL     1       8.451   3.064   4.659  1.00  0.00     0.014 A 
ATOM     36  C   UNL     1       9.084   5.637   3.785  1.00  0.00     0.010 A 
ATOM     37  C   UNL     1       7.522   4.095   4.798  1.00  0.00     0.010 A 
ATOM     38  C   UNL     1       7.832   5.395   4.373  1.00  0.00    -0.014 A 
BRANCH  38  39
ATOM     39  C   UNL     1       6.841   6.488   4.557  1.00  0.00     0.031 A 
ATOM     40  C   UNL     1       6.404   6.893   5.940  1.00  0.00     0.074 A 
ATOM     41  C   UNL     1       6.288   7.074   3.477  1.00  0.00     0.049 A 
ATOM     42  N   UNL     1       5.507   7.776   6.299  1.00  0.00    -0.248 NA
ATOM     43  C   UNL     1       7.039   6.194   7.069  1.00  0.00     0.031 C 
ATOM     44  C   UNL     1       6.593   6.737   2.084  1.00  0.00     0.029 A 
ATOM     45  N   UNL     1       5.349   8.070   3.377  1.00  0.00    -0.354 N 
ATOM     46  C   UNL     1       5.456   7.725   7.688  1.00  0.00     0.074 A 
ATOM     47  C   UNL     1       6.376   6.689   8.104  1.00  0.00     0.031 C 
ATOM     48  C   UNL     1       5.873   7.527   1.272  1.00  0.00     0.029 A 
ATOM     49  C   UNL     1       5.029   8.401   2.081  1.00  0.00     0.049 A 
ATOM     50  H   UNL     1       4.941   8.506   4.160  1.00  0.00     0.167 HD
ATOM     51  C   UNL     1       4.727   8.486   8.539  1.00  0.00     0.037 A 
ATOM     52  C   UNL     1       4.153   9.302   1.598  1.00  0.00     0.037 A 
ATOM     53  C   UNL     1       3.834   9.535   8.118  1.00  0.00     0.049 A 
ATOM     54  C   UNL     1       3.360  10.143   2.562  1.00  0.00     0.074 A 
ATOM     55  C   UNL     1       3.099  10.407   8.902  1.00  0.00     0.029 A 
ATOM     56  N   UNL     1       3.554   9.854   6.796  1.00  0.00    -0.354 N 
ATOM     57  N   UNL     1       3.373  10.125   3.873  1.00  0.00    -0.248 NA
ATOM     58  C   UNL     1       2.439  11.129   1.981  1.00  0.00     0.031 C 
ATOM     59  C   UNL     1       2.341  11.224   8.056  1.00  0.00     0.029 A 
ATOM     60  C   UNL     1       2.641  10.895   6.743  1.00  0.00     0.049 A 
ATOM     61  H   UNL     1       3.946   9.407   6.012  1.00  0.00     0.167 HD
ATOM     62  C   UNL     1       2.481  11.113   4.276  1.00  0.00     0.074 A 
ATOM     63  C   UNL     1       1.956  11.717   3.068  1.00  0.00     0.031 C 
ATOM     64  C   UNL     1       2.130  11.487   5.531  1.00  0.00     0.037 A 
BRANCH  51  65
ATOM     65  C   UNL     1       4.866   8.212  10.013  1.00  0.00     0.058 A 
ATOM     66  C   UNL     1       6.045   8.515  10.712  1.00  0.00     0.135 A 
ATOM     67  C   UNL     1       3.800   7.658  10.741  1.00  0.00     0.135 A 
ATOM     68  F   UNL     1       7.101   9.034  10.065  1.00  0.00    -0.206 F 
ATOM     69  C   UNL     1       6.177   8.245  12.071  1.00  0.00     0.059 A 
ATOM     70  C   UNL     1       3.899   7.406  12.107  1.00  0.00     0.059 A 
ATOM     71  F   UNL     1       2.648   7.351  10.124  1.00  0.00    -0.206 F 
ATOM     72  C   UNL     1       5.099   7.686  12.759  1.00  0.00     0.060 A 
BRANCH  72  73
ATOM     73  S   UNL     1       5.290   7.330  14.518  1.00  0.00     0.124 S 
ATOM     74  O   UNL     1       6.153   6.153  14.484  1.00  0.00    -0.237 OA
ATOM     75  O   UNL     1       5.907   8.553  15.020  1.00  0.00    -0.237 OA
ATOM     76  O   UNL     1       3.922   7.091  14.968  1.00  0.00    -0.744 OA
ENDBRANCH  72  73
ENDBRANCH  51  65
BRANCH  52  77
ATOM     77  C   UNL     1       4.008   9.478   0.128  1.00  0.00     0.058 A 
ATOM     78  C   UNL     1       4.497  10.629  -0.508  1.00  0.00     0.135 A 
ATOM     79  C   UNL     1       3.413   8.491  -0.673  1.00  0.00     0.135 A 
ATOM     80  F   UNL     1       5.070  11.603   0.216  1.00  0.00    -0.206 F 
ATOM     81  C   UNL     1       4.393  10.801  -1.884  1.00  0.00     0.059 A 
ATOM     82  C   UNL     1       3.320   8.629  -2.055  1.00  0.00     0.059 A 
ATOM     83  F   UNL     1       2.944   7.365  -0.114  1.00  0.00    -0.206 F 
ATOM     84  C   UNL     1       3.807   9.792  -2.650  1.00  0.00     0.060 A 
BRANCH  84  85
ATOM     85  S   UNL     1       3.736  10.004  -4.442  1.00  0.00     0.124 S 
ATOM     86  O   UNL     1       2.701  11.021  -4.578  1.00  0.00    -0.237 OA
ATOM     87  O   UNL     1       5.096  10.431  -4.754  1.00  0.00    -0.237 OA
ATOM     88  O   UNL     1       3.381   8.672  -4.925  1.00  0.00    -0.744 OA
ENDBRANCH  84  85
ENDBRANCH  52  77
BRANCH  64  89
ATOM     89  C   UNL     1       1.151  12.620   5.666  1.00  0.00     0.058 A 
ATOM     90  C   UNL     1      -0.211  12.457   5.370  1.00  0.00     0.135 A 
ATOM     91  C   UNL     1       1.573  13.871   6.145  1.00  0.00     0.135 A 
ATOM     92  F   UNL     1      -0.666  11.284   4.903  1.00  0.00    -0.206 F 
ATOM     93  C   UNL     1      -1.117  13.502   5.523  1.00  0.00     0.059 A 
ATOM     94  C   UNL     1       0.680  14.921   6.331  1.00  0.00     0.059 A 
ATOM     95  F   UNL     1       2.864  14.076   6.453  1.00  0.00    -0.206 F 
ATOM     96  C   UNL     1      -0.662  14.730   6.006  1.00  0.00     0.060 A 
BRANCH  96  97
ATOM     97  S   UNL     1      -1.853  16.068   6.232  1.00  0.00     0.124 S 
ATOM     98  O   UNL     1      -2.092  16.484   4.854  1.00  0.00    -0.237 OA
ATOM     99  O   UNL     1      -2.965  15.389   6.891  1.00  0.00    -0.237 OA
ATOM    100  O   UNL     1      -1.132  17.028   7.063  1.00  0.00    -0.744 OA
ENDBRANCH  96  97
ENDBRANCH  64  89
ENDBRANCH  38  39
ENDBRANCH  30  33
ENDBRANCH  28  29
ENDBRANCH  27  28
ENDBRANCH   1  27
TORSDOF 19
