REMARK SMILES O=C(C[C@@H](c1ccc(Cl)c(Cl)c1)N1Cc2ccccc2C1=O)NCCCNC(=O)c1ccc(-c2c3nc(c(-c4c(F)cc(S(=O)(=O)[O-])cc4F)c4ccc([nH]4)c(-c4c(F)cc(S(=O)(=O)[O-])cc4F)c4nc(c(-c5c(F)cc(S(=O)(=O)[O-])cc5F)c5ccc2[nH]5)C=C4)C=C3)cc1
REMARK SMILES IDX 25 1 24 2 23 3 1 4 2 5 3 7 4 8 5 9 6 10 12 11 7 12 10 13
REMARK SMILES IDX 8 14 11 15 9 16 13 17 14 18 21 19 15 20 20 21 22 22 16 23
REMARK SMILES IDX 19 24 17 25 18 26 26 27 27 28 28 29 29 31 30 32 31 33 95 34
REMARK SMILES IDX 32 35 94 36 33 37 34 38 35 39 88 40 36 41 93 42 87 43 89 44
REMARK SMILES IDX 37 45 92 46 86 47 85 48 38 50 72 51 51 52 71 53 52 54 55 55
REMARK SMILES IDX 70 56 90 57 53 58 54 59 69 61 91 62 56 63 39 64 40 65 49 66
REMARK SMILES IDX 41 67 42 68 48 69 50 70 43 71 44 72 45 73 46 74 47 75 73 76
REMARK SMILES IDX 74 77 83 78 75 79 76 80 82 81 84 82 77 83 78 84 79 85 80 86
REMARK SMILES IDX 81 87 57 88 58 89 67 90 59 91 60 92 66 93 68 94 61 95 62 96
REMARK SMILES IDX 63 97 64 98 65 99
REMARK H PARENT 23 6 27 30 89 49 55 60
REMARK Flexibility Score: inf
ROOT
ATOM      1  C   UNL     1       2.402   0.936   3.527  1.00  0.00     0.042 C 
ENDROOT
BRANCH   1   2
ATOM      2  C   UNL     1       2.065   1.379   2.107  1.00  0.00     0.117 C 
BRANCH   2   3
ATOM      3  N   UNL     1       2.723   0.552   1.117  1.00  0.00    -0.356 N 
ATOM      4  O   UNL     1       0.953   0.374  -0.335  1.00  0.00    -0.275 OA
ATOM      5  C   UNL     1       2.118   0.130  -0.042  1.00  0.00     0.222 C 
ATOM      6  H   UNL     1       3.653   0.277   1.283  1.00  0.00     0.163 HD
BRANCH   5   7
ATOM      7  C   UNL     1       3.007  -0.703  -0.943  1.00  0.00     0.130 C 
BRANCH   7   8
ATOM      8  C   UNL     1       3.987   0.152  -1.768  1.00  0.00     0.125 C 
BRANCH   8   9
ATOM      9  C   UNL     1       5.034   0.828  -0.878  1.00  0.00    -0.023 A 
ATOM     10  C   UNL     1       5.038   2.226  -0.748  1.00  0.00     0.007 A 
ATOM     11  C   UNL     1       5.956   0.082  -0.125  1.00  0.00     0.028 A 
ATOM     12  C   UNL     1       5.910   2.859   0.142  1.00  0.00     0.022 A 
ATOM     13  C   UNL     1       6.823   0.715   0.775  1.00  0.00     0.060 A 
ATOM     14  C   UNL     1       6.798   2.105   0.913  1.00  0.00     0.059 A 
ATOM     15  Cl  UNL     1       7.857  -0.291   1.726  1.00  0.00    -0.083 Cl
ATOM     16  Cl  UNL     1       7.816   2.945   2.023  1.00  0.00    -0.083 Cl
ENDBRANCH   8   9
BRANCH   8  17
ATOM     17  N   UNL     1       4.644  -0.587  -2.850  1.00  0.00    -0.327 N 
ATOM     18  C   UNL     1       4.616  -2.037  -2.998  1.00  0.00     0.157 C 
ATOM     19  C   UNL     1       5.309   0.034  -3.898  1.00  0.00     0.255 C 
ATOM     20  C   UNL     1       5.377  -2.254  -4.262  1.00  0.00    -0.016 A 
ATOM     21  C   UNL     1       5.797  -1.031  -4.782  1.00  0.00     0.045 A 
ATOM     22  O   UNL     1       5.466   1.225  -4.096  1.00  0.00    -0.269 OA
ATOM     23  C   UNL     1       5.669  -3.433  -4.925  1.00  0.00     0.006 A 
ATOM     24  C   UNL     1       6.528  -0.928  -5.950  1.00  0.00     0.014 A 
ATOM     25  C   UNL     1       6.402  -3.355  -6.115  1.00  0.00     0.000 A 
ATOM     26  C   UNL     1       6.833  -2.114  -6.620  1.00  0.00     0.001 A 
ENDBRANCH   8  17
ENDBRANCH   7   8
ENDBRANCH   5   7
ENDBRANCH   2   3
ENDBRANCH   1   2
BRANCH   1  27
ATOM     27  C   UNL     1       3.884   1.003   3.894  1.00  0.00     0.118 C 
BRANCH  27  28
ATOM     28  N   UNL     1       4.423   2.352   3.868  1.00  0.00    -0.352 N 
ATOM     29  C   UNL     1       5.165   3.022   4.812  1.00  0.00     0.251 C 
ATOM     30  H   UNL     1       4.228   2.864   3.050  1.00  0.00     0.163 HD
ATOM     31  O   UNL     1       5.379   4.221   4.655  1.00  0.00    -0.269 OA
BRANCH  29  32
ATOM     32  C   UNL     1       5.668   2.330   6.024  1.00  0.00     0.039 A 
ATOM     33  C   UNL     1       5.629   3.014   7.242  1.00  0.00     0.014 A 
ATOM     34  C   UNL     1       6.190   1.034   5.979  1.00  0.00     0.014 A 
ATOM     35  C   UNL     1       6.054   2.381   8.413  1.00  0.00     0.010 A 
ATOM     36  C   UNL     1       6.534   0.374   7.162  1.00  0.00     0.010 A 
ATOM     37  C   UNL     1       6.474   1.040   8.394  1.00  0.00    -0.014 A 
BRANCH  37  38
ATOM     38  C   UNL     1       6.829   0.344   9.663  1.00  0.00     0.031 A 
ATOM     39  C   UNL     1       8.222  -0.181   9.899  1.00  0.00     0.074 A 
ATOM     40  C   UNL     1       5.882   0.169  10.608  1.00  0.00     0.049 A 
ATOM     41  N   UNL     1       8.713  -0.771  10.960  1.00  0.00    -0.248 NA
ATOM     42  C   UNL     1       9.184  -0.049   8.794  1.00  0.00     0.031 C 
ATOM     43  C   UNL     1       4.479   0.571  10.481  1.00  0.00     0.029 A 
ATOM     44  N   UNL     1       5.952  -0.383  11.864  1.00  0.00    -0.354 N 
ATOM     45  C   UNL     1      10.034  -1.078  10.653  1.00  0.00     0.074 A 
ATOM     46  C   UNL     1      10.249  -0.668   9.282  1.00  0.00     0.031 C 
ATOM     47  C   UNL     1       3.834   0.295  11.626  1.00  0.00     0.029 A 
ATOM     48  C   UNL     1       4.763  -0.338  12.556  1.00  0.00     0.049 A 
ATOM     49  H   UNL     1       6.776  -0.773  12.235  1.00  0.00     0.167 HD
ATOM     50  C   UNL     1      10.988  -1.626  11.445  1.00  0.00     0.037 A 
ATOM     51  C   UNL     1       4.453  -0.754  13.800  1.00  0.00     0.037 A 
ATOM     52  C   UNL     1      10.772  -2.024  12.814  1.00  0.00     0.049 A 
ATOM     53  C   UNL     1       5.531  -1.355  14.662  1.00  0.00     0.074 A 
ATOM     54  C   UNL     1      11.688  -2.540  13.715  1.00  0.00     0.029 A 
ATOM     55  N   UNL     1       9.556  -1.959  13.480  1.00  0.00    -0.354 N 
ATOM     56  N   UNL     1       6.794  -1.566  14.377  1.00  0.00    -0.248 NA
ATOM     57  C   UNL     1       5.144  -1.759  16.020  1.00  0.00     0.031 C 
ATOM     58  C   UNL     1      11.015  -2.839  14.905  1.00  0.00     0.029 A 
ATOM     59  C   UNL     1       9.693  -2.448  14.770  1.00  0.00     0.049 A 
ATOM     60  H   UNL     1       8.718  -1.615  13.093  1.00  0.00     0.167 HD
ATOM     61  C   UNL     1       7.359  -2.102  15.531  1.00  0.00     0.074 A 
ATOM     62  C   UNL     1       6.303  -2.160  16.521  1.00  0.00     0.031 C 
ATOM     63  C   UNL     1       8.635  -2.508  15.749  1.00  0.00     0.037 A 
BRANCH  50  64
ATOM     64  C   UNL     1      12.360  -1.828  10.853  1.00  0.00     0.058 A 
ATOM     65  C   UNL     1      13.193  -0.744  10.529  1.00  0.00     0.135 A 
ATOM     66  C   UNL     1      12.868  -3.122  10.650  1.00  0.00     0.135 A 
ATOM     67  F   UNL     1      12.757   0.516  10.690  1.00  0.00    -0.206 F 
ATOM     68  C   UNL     1      14.465  -0.934   9.998  1.00  0.00     0.059 A 
ATOM     69  C   UNL     1      14.150  -3.336  10.150  1.00  0.00     0.059 A 
ATOM     70  F   UNL     1      12.120  -4.197  10.943  1.00  0.00    -0.206 F 
ATOM     71  C   UNL     1      14.936  -2.235   9.814  1.00  0.00     0.060 A 
BRANCH  71  72
ATOM     72  S   UNL     1      16.593  -2.463   9.134  1.00  0.00     0.124 S 
ATOM     73  O   UNL     1      16.400  -2.045   7.749  1.00  0.00    -0.237 OA
ATOM     74  O   UNL     1      17.394  -1.565   9.960  1.00  0.00    -0.237 OA
ATOM     75  O   UNL     1      16.849  -3.886   9.329  1.00  0.00    -0.744 OA
ENDBRANCH  71  72
ENDBRANCH  50  64
BRANCH  51  76
ATOM     76  C   UNL     1       3.066  -0.590  14.316  1.00  0.00     0.058 A 
ATOM     77  C   UNL     1       2.778   0.312  15.352  1.00  0.00     0.135 A 
ATOM     78  C   UNL     1       1.999  -1.329  13.782  1.00  0.00     0.135 A 
ATOM     79  F   UNL     1       3.763   1.038  15.903  1.00  0.00    -0.206 F 
ATOM     80  C   UNL     1       1.489   0.460  15.854  1.00  0.00     0.059 A 
ATOM     81  C   UNL     1       0.697  -1.176  14.245  1.00  0.00     0.059 A 
ATOM     82  F   UNL     1       2.216  -2.193  12.778  1.00  0.00    -0.206 F 
ATOM     83  C   UNL     1       0.453  -0.287  15.291  1.00  0.00     0.060 A 
BRANCH  83  84
ATOM     84  S   UNL     1      -1.224  -0.055  15.919  1.00  0.00     0.124 S 
ATOM     85  O   UNL     1      -1.140  -0.695  17.226  1.00  0.00    -0.237 OA
ATOM     86  O   UNL     1      -1.349   1.399  15.926  1.00  0.00    -0.237 OA
ATOM     87  O   UNL     1      -2.050  -0.742  14.931  1.00  0.00    -0.744 OA
ENDBRANCH  83  84
ENDBRANCH  51  76
BRANCH  63  88
ATOM     88  C   UNL     1       8.968  -3.017  17.128  1.00  0.00     0.058 A 
ATOM     89  C   UNL     1       8.454  -4.228  17.619  1.00  0.00     0.135 A 
ATOM     90  C   UNL     1       9.821  -2.283  17.969  1.00  0.00     0.135 A 
ATOM     91  F   UNL     1       7.633  -4.971  16.860  1.00  0.00    -0.206 F 
ATOM     92  C   UNL     1       8.730  -4.667  18.910  1.00  0.00     0.059 A 
ATOM     93  C   UNL     1      10.141  -2.720  19.251  1.00  0.00     0.059 A 
ATOM     94  F   UNL     1      10.356  -1.125  17.548  1.00  0.00    -0.206 F 
ATOM     95  C   UNL     1       9.571  -3.902  19.721  1.00  0.00     0.060 A 
BRANCH  95  96
ATOM     96  S   UNL     1       9.911  -4.475  21.399  1.00  0.00     0.124 S 
ATOM     97  O   UNL     1       8.643  -4.199  22.066  1.00  0.00    -0.237 OA
ATOM     98  O   UNL     1      10.224  -5.885  21.191  1.00  0.00    -0.237 OA
ATOM     99  O   UNL     1      11.036  -3.645  21.820  1.00  0.00    -0.744 OA
ENDBRANCH  95  96
ENDBRANCH  63  88
ENDBRANCH  37  38
ENDBRANCH  29  32
ENDBRANCH  27  28
ENDBRANCH   1  27
TORSDOF 16
