REMARK SMILES O=C(NCCCNC(=O)c1sccc1S(=O)(=O)Nc1ccc(-c2nc3ccccc3n2C(F)F)cc1)c1ccc(-c2c3nc(c(-c4c(F)cc(S(=O)(=O)[O-])cc4F)c4ccc([nH]4)c(-c4c(F)cc(S(=O)(=O)[O-])cc4F)c4nc(c(-c5c(F)cc(S(=O)(=O)[O-])cc5F)c5ccc2[nH]5)C=C4)C=C3)cc1
REMARK SMILES IDX 6 1 5 2 4 3 3 4 1 5 2 6 37 8 38 9 102 10 39 11 101 12 40 13
REMARK SMILES IDX 41 14 42 15 95 16 43 17 100 18 94 19 96 20 44 21 99 22 93 23
REMARK SMILES IDX 92 24 45 26 79 27 58 28 78 29 59 30 62 31 77 32 97 33 60 34
REMARK SMILES IDX 61 35 76 37 98 38 63 39 46 40 47 41 56 42 48 43 49 44 55 45
REMARK SMILES IDX 57 46 50 47 51 48 52 49 53 50 54 51 80 52 81 53 90 54 82 55
REMARK SMILES IDX 83 56 89 57 91 58 84 59 85 60 86 61 87 62 88 63 64 64 65 65
REMARK SMILES IDX 74 66 66 67 67 68 73 69 75 70 68 71 69 72 70 73 71 74 72 75
REMARK SMILES IDX 7 76 8 77 9 79 10 80 11 81 14 82 12 83 13 84 15 85 16 86
REMARK SMILES IDX 17 87 18 88 19 90 20 91 36 92 21 93 35 94 22 95 23 96 24 97
REMARK SMILES IDX 31 98 25 99 30 100 26 101 29 102 27 103 28 104 32 105 33 106
REMARK SMILES IDX 34 107
REMARK H PARENT 3 7 96 25 62 36 7 78 18 89
REMARK Flexibility Score: inf
ROOT
ATOM      1  C   UNL     1       5.009   1.992  -2.428  1.00  0.00     0.118 C 
ENDROOT
BRANCH   1   2
ATOM      2  C   UNL     1       5.127   0.619  -1.782  1.00  0.00     0.042 C 
BRANCH   2   3
ATOM      3  C   UNL     1       4.750   0.572  -0.294  1.00  0.00     0.118 C 
BRANCH   3   4
ATOM      4  N   UNL     1       3.352   0.814   0.003  1.00  0.00    -0.352 N 
ATOM      5  O   UNL     1       1.218   0.540   0.490  1.00  0.00    -0.269 OA
ATOM      6  C   UNL     1       2.225   0.036  -0.014  1.00  0.00     0.251 C 
ATOM      7  H   UNL     1       3.173   1.742   0.278  1.00  0.00     0.163 HD
BRANCH   6   8
ATOM      8  C   UNL     1       2.133  -1.317  -0.630  1.00  0.00     0.039 A 
ATOM      9  C   UNL     1       3.209  -2.034  -1.149  1.00  0.00     0.014 A 
ATOM     10  C   UNL     1       0.848  -1.881  -0.725  1.00  0.00     0.014 A 
ATOM     11  C   UNL     1       3.005  -3.215  -1.849  1.00  0.00     0.010 A 
ATOM     12  C   UNL     1       0.642  -3.092  -1.383  1.00  0.00     0.010 A 
ATOM     13  C   UNL     1       1.720  -3.737  -1.982  1.00  0.00    -0.014 A 
BRANCH  13  14
ATOM     14  C   UNL     1       1.601  -5.019  -2.672  1.00  0.00     0.031 A 
ATOM     15  C   UNL     1       2.334  -6.162  -2.049  1.00  0.00     0.074 A 
ATOM     16  C   UNL     1       0.799  -5.227  -3.733  1.00  0.00     0.049 A 
ATOM     17  N   UNL     1       3.259  -6.913  -2.558  1.00  0.00    -0.248 NA
ATOM     18  C   UNL     1       2.041  -6.451  -0.636  1.00  0.00     0.031 C 
ATOM     19  C   UNL     1      -0.217  -4.332  -4.288  1.00  0.00     0.029 A 
ATOM     20  N   UNL     1       0.659  -6.361  -4.476  1.00  0.00    -0.354 N 
ATOM     21  C   UNL     1       3.541  -7.885  -1.597  1.00  0.00     0.074 A 
ATOM     22  C   UNL     1       2.850  -7.484  -0.398  1.00  0.00     0.031 C 
ATOM     23  C   UNL     1      -1.016  -5.036  -5.120  1.00  0.00     0.029 A 
ATOM     24  C   UNL     1      -0.485  -6.382  -5.257  1.00  0.00     0.049 A 
ATOM     25  H   UNL     1       1.311  -7.098  -4.459  1.00  0.00     0.167 HD
ATOM     26  C   UNL     1       4.188  -9.048  -1.890  1.00  0.00     0.037 A 
ATOM     27  C   UNL     1      -1.003  -7.457  -5.898  1.00  0.00     0.037 A 
ATOM     28  C   UNL     1       4.896  -8.972  -3.137  1.00  0.00     0.049 A 
ATOM     29  C   UNL     1       0.083  -8.458  -6.060  1.00  0.00     0.074 A 
ATOM     30  C   UNL     1       5.930  -8.198  -3.626  1.00  0.00     0.029 A 
ATOM     31  N   UNL     1       4.360  -9.605  -4.230  1.00  0.00    -0.354 N 
ATOM     32  N   UNL     1       1.132  -8.296  -6.820  1.00  0.00    -0.248 NA
ATOM     33  C   UNL     1       0.194  -9.517  -5.068  1.00  0.00     0.031 C 
ATOM     34  C   UNL     1       5.650  -8.036  -5.014  1.00  0.00     0.029 A 
ATOM     35  C   UNL     1       4.474  -8.738  -5.285  1.00  0.00     0.049 A 
ATOM     36  H   UNL     1       3.969 -10.509  -4.252  1.00  0.00     0.167 HD
ATOM     37  C   UNL     1       2.161  -8.945  -6.156  1.00  0.00     0.074 A 
ATOM     38  C   UNL     1       1.502  -9.767  -5.148  1.00  0.00     0.031 C 
ATOM     39  C   UNL     1       3.462  -8.558  -6.303  1.00  0.00     0.037 A 
BRANCH  26  40
ATOM     40  C   UNL     1       3.941 -10.364  -1.189  1.00  0.00     0.058 A 
ATOM     41  C   UNL     1       4.809 -11.453  -1.413  1.00  0.00     0.135 A 
ATOM     42  C   UNL     1       2.728 -10.676  -0.537  1.00  0.00     0.135 A 
ATOM     43  F   UNL     1       5.988 -11.273  -2.030  1.00  0.00    -0.206 F 
ATOM     44  C   UNL     1       4.463 -12.765  -1.086  1.00  0.00     0.059 A 
ATOM     45  C   UNL     1       2.386 -11.969  -0.153  1.00  0.00     0.059 A 
ATOM     46  F   UNL     1       1.775  -9.757  -0.333  1.00  0.00    -0.206 F 
ATOM     47  C   UNL     1       3.237 -13.014  -0.476  1.00  0.00     0.060 A 
BRANCH  47  48
ATOM     48  S   UNL     1       2.721 -14.716  -0.185  1.00  0.00     0.124 S 
ATOM     49  O   UNL     1       2.438 -15.166  -1.543  1.00  0.00    -0.237 OA
ATOM     50  O   UNL     1       3.904 -15.291   0.446  1.00  0.00    -0.237 OA
ATOM     51  O   UNL     1       1.560 -14.568   0.688  1.00  0.00    -0.744 OA
ENDBRANCH  47  48
ENDBRANCH  26  40
BRANCH  27  52
ATOM     52  C   UNL     1      -2.440  -7.794  -6.059  1.00  0.00     0.058 A 
ATOM     53  C   UNL     1      -2.863  -8.769  -6.978  1.00  0.00     0.135 A 
ATOM     54  C   UNL     1      -3.404  -7.357  -5.126  1.00  0.00     0.135 A 
ATOM     55  F   UNL     1      -2.002  -9.265  -7.879  1.00  0.00    -0.206 F 
ATOM     56  C   UNL     1      -4.155  -9.303  -6.952  1.00  0.00     0.059 A 
ATOM     57  C   UNL     1      -4.700  -7.862  -5.091  1.00  0.00     0.059 A 
ATOM     58  F   UNL     1      -3.085  -6.487  -4.155  1.00  0.00    -0.206 F 
ATOM     59  C   UNL     1      -5.063  -8.854  -5.992  1.00  0.00     0.060 A 
BRANCH  59  60
ATOM     60  S   UNL     1      -6.677  -9.654  -5.849  1.00  0.00     0.124 S 
ATOM     61  O   UNL     1      -7.345  -9.202  -7.065  1.00  0.00    -0.237 OA
ATOM     62  O   UNL     1      -6.317 -11.067  -5.806  1.00  0.00    -0.237 OA
ATOM     63  O   UNL     1      -7.215  -9.113  -4.604  1.00  0.00    -0.744 OA
ENDBRANCH  59  60
ENDBRANCH  27  52
BRANCH  39  64
ATOM     64  C   UNL     1       3.818  -7.638  -7.440  1.00  0.00     0.058 A 
ATOM     65  C   UNL     1       3.376  -6.308  -7.536  1.00  0.00     0.135 A 
ATOM     66  C   UNL     1       4.798  -8.058  -8.352  1.00  0.00     0.135 A 
ATOM     67  F   UNL     1       2.517  -5.801  -6.640  1.00  0.00    -0.206 F 
ATOM     68  C   UNL     1       3.873  -5.439  -8.508  1.00  0.00     0.059 A 
ATOM     69  C   UNL     1       5.330  -7.199  -9.311  1.00  0.00     0.059 A 
ATOM     70  F   UNL     1       5.305  -9.300  -8.271  1.00  0.00    -0.206 F 
ATOM     71  C   UNL     1       4.860  -5.890  -9.385  1.00  0.00     0.060 A 
BRANCH  71  72
ATOM     72  S   UNL     1       5.604  -4.722 -10.545  1.00  0.00     0.124 S 
ATOM     73  O   UNL     1       4.553  -4.571 -11.546  1.00  0.00    -0.237 OA
ATOM     74  O   UNL     1       5.852  -3.553  -9.705  1.00  0.00    -0.237 OA
ATOM     75  O   UNL     1       6.807  -5.413 -11.001  1.00  0.00    -0.744 OA
ENDBRANCH  71  72
ENDBRANCH  39  64
ENDBRANCH  13  14
ENDBRANCH   6   8
ENDBRANCH   3   4
ENDBRANCH   2   3
ENDBRANCH   1   2
BRANCH   1  76
ATOM     76  N   UNL     1       5.906   2.949  -1.819  1.00  0.00    -0.351 N 
ATOM     77  C   UNL     1       6.541   4.032  -2.357  1.00  0.00     0.262 C 
ATOM     78  H   UNL     1       6.089   2.795  -0.864  1.00  0.00     0.163 HD
ATOM     79  O   UNL     1       7.373   4.584  -1.634  1.00  0.00    -0.268 OA
BRANCH  77  80
ATOM     80  C   UNL     1       6.286   4.433  -3.720  1.00  0.00     0.112 A 
ATOM     81  S   UNL     1       7.708   4.579  -4.696  1.00  0.00    -0.137 S 
ATOM     82  C   UNL     1       5.156   4.800  -4.433  1.00  0.00     0.111 A 
ATOM     83  C   UNL     1       6.821   5.033  -6.072  1.00  0.00     0.067 A 
ATOM     84  C   UNL     1       5.476   5.105  -5.804  1.00  0.00     0.035 A 
BRANCH  82  85
ATOM     85  S   UNL     1       3.506   4.975  -3.914  1.00  0.00     0.263 S 
ATOM     86  O   UNL     1       3.196   6.344  -4.257  1.00  0.00    -0.201 OA
ATOM     87  O   UNL     1       2.845   3.874  -4.591  1.00  0.00    -0.201 OA
BRANCH  85  88
ATOM     88  N   UNL     1       3.179   4.754  -2.304  1.00  0.00    -0.280 N 
ATOM     89  H   UNL     1       2.449   4.132  -2.079  1.00  0.00     0.180 HD
BRANCH  88  90
ATOM     90  C   UNL     1       3.848   5.373  -1.228  1.00  0.00     0.049 A 
ATOM     91  C   UNL     1       3.808   4.704  -0.003  1.00  0.00     0.027 A 
ATOM     92  C   UNL     1       4.639   6.502  -1.362  1.00  0.00     0.027 A 
ATOM     93  C   UNL     1       4.705   5.034   1.019  1.00  0.00     0.014 A 
ATOM     94  C   UNL     1       5.532   6.828  -0.340  1.00  0.00     0.014 A 
ATOM     95  C   UNL     1       5.642   6.049   0.830  1.00  0.00     0.018 A 
BRANCH  95  96
ATOM     96  C   UNL     1       6.785   6.334   1.718  1.00  0.00     0.145 A 
ATOM     97  N   UNL     1       7.385   7.515   1.719  1.00  0.00    -0.228 NA
ATOM     98  N   UNL     1       7.501   5.457   2.520  1.00  0.00    -0.266 N 
ATOM     99  C   UNL     1       8.553   7.369   2.403  1.00  0.00     0.089 A 
ATOM    100  C   UNL     1       8.667   6.088   2.924  1.00  0.00     0.074 A 
ATOM    101  C   UNL     1       9.580   8.302   2.601  1.00  0.00     0.030 A 
ATOM    102  C   UNL     1       9.790   5.682   3.661  1.00  0.00     0.029 A 
ATOM    103  C   UNL     1      10.711   7.914   3.325  1.00  0.00     0.002 A 
ATOM    104  C   UNL     1      10.810   6.624   3.846  1.00  0.00     0.002 A 
BRANCH  98 105
ATOM    105  C   UNL     1       7.152   4.102   2.884  1.00  0.00     0.451 C 
ATOM    106  F   UNL     1       6.033   4.076   3.658  1.00  0.00    -0.185 F 
ATOM    107  F   UNL     1       6.907   3.312   1.805  1.00  0.00    -0.185 F 
ENDBRANCH  98 105
ENDBRANCH  95  96
ENDBRANCH  88  90
ENDBRANCH  85  88
ENDBRANCH  82  85
ENDBRANCH  77  80
ENDBRANCH   1  76
TORSDOF 18
