REMARK SMILES C[C@@H](O)[C@@H](NC(=O)CSc1ccncc1)C(=O)NCCCNC(=O)c1ccc(-c2c3nc(c(-c4c(F)cc(S(=O)(=O)[O-])cc4F)c4ccc([nH]4)c(-c4c(F)cc(S(=O)(=O)[O-])cc4F)c4nc(c(-c5c(F)cc(S(=O)(=O)[O-])cc5F)c5ccc2[nH]5)C=C4)C=C3)cc1
REMARK SMILES IDX 19 1 18 2 16 3 17 4 4 6 2 7 1 8 3 9 5 11 6 12 7 14 8 15 9 16
REMARK SMILES IDX 10 17 11 18 15 19 12 20 14 21 13 22 20 23 21 24 22 25 23 26
REMARK SMILES IDX 24 28 25 29 26 30 90 31 27 32 89 33 28 34 29 35 30 36 83 37
REMARK SMILES IDX 31 38 88 39 82 40 84 41 32 42 87 43 81 44 80 45 33 47 67 48
REMARK SMILES IDX 46 49 66 50 47 51 50 52 65 53 85 54 48 55 49 56 64 58 86 59
REMARK SMILES IDX 51 60 34 61 35 62 44 63 36 64 37 65 43 66 45 67 38 68 39 69
REMARK SMILES IDX 40 70 41 71 42 72 68 73 69 74 78 75 70 76 71 77 77 78 79 79
REMARK SMILES IDX 72 80 73 81 74 82 75 83 76 84 52 85 53 86 62 87 54 88 55 89
REMARK SMILES IDX 61 90 63 91 56 92 57 93 58 94 59 95 60 96
REMARK H PARENT 18 5 3 10 5 13 22 27 84 46 50 57
REMARK Flexibility Score: inf
ROOT
ATOM      1  C   UNL     1       0.199  -3.440   2.059  1.00  0.00     0.117 C 
ENDROOT
BRANCH   1   2
ATOM      2  N   UNL     1      -0.469  -2.482   2.911  1.00  0.00    -0.354 N 
ATOM      3  C   UNL     1      -1.159  -1.371   2.517  1.00  0.00     0.245 C 
ATOM      4  O   UNL     1      -1.957  -0.872   3.314  1.00  0.00    -0.273 OA
ATOM      5  H   UNL     1      -0.422  -2.648   3.881  1.00  0.00     0.163 HD
BRANCH   3   6
ATOM      6  C   UNL     1      -0.916  -0.746   1.130  1.00  0.00     0.200 C 
BRANCH   6   7
ATOM      7  C   UNL     1       0.557  -0.209   1.131  1.00  0.00     0.143 C 
ATOM      8  C   UNL     1       0.960   0.529  -0.142  1.00  0.00     0.041 C 
BRANCH   7   9
ATOM      9  O   UNL     1       0.760   0.702   2.214  1.00  0.00    -0.391 OA
ATOM     10  H   UNL     1       0.195   1.480   2.092  1.00  0.00     0.211 HD
ENDBRANCH   7   9
ENDBRANCH   6   7
BRANCH   6  11
ATOM     11  N   UNL     1      -1.174  -1.616  -0.045  1.00  0.00    -0.341 N 
ATOM     12  C   UNL     1      -2.247  -2.386  -0.389  1.00  0.00     0.231 C 
ATOM     13  H   UNL     1      -0.435  -1.642  -0.696  1.00  0.00     0.164 HD
ATOM     14  O   UNL     1      -2.521  -2.418  -1.593  1.00  0.00    -0.274 OA
BRANCH  12  15
ATOM     15  C   UNL     1      -2.966  -3.259   0.618  1.00  0.00     0.174 C 
BRANCH  15  16
ATOM     16  S   UNL     1      -3.164  -5.008   0.041  1.00  0.00    -0.116 SA
BRANCH  16  17
ATOM     17  C   UNL     1      -1.532  -5.705  -0.238  1.00  0.00     0.011 A 
ATOM     18  C   UNL     1      -1.360  -7.063   0.049  1.00  0.00     0.035 A 
ATOM     19  C   UNL     1      -0.461  -5.040  -0.830  1.00  0.00     0.035 A 
ATOM     20  C   UNL     1      -0.146  -7.674  -0.240  1.00  0.00     0.112 A 
ATOM     21  C   UNL     1       0.723  -5.729  -1.068  1.00  0.00     0.112 A 
ATOM     22  N   UNL     1       0.906  -7.030  -0.782  1.00  0.00    -0.265 NA
ENDBRANCH  16  17
ENDBRANCH  15  16
ENDBRANCH  12  15
ENDBRANCH   6  11
ENDBRANCH   3   6
ENDBRANCH   1   2
BRANCH   1  23
ATOM     23  C   UNL     1       1.373  -4.126   2.711  1.00  0.00     0.042 C 
BRANCH  23  24
ATOM     24  C   UNL     1       0.948  -5.080   3.813  1.00  0.00     0.118 C 
BRANCH  24  25
ATOM     25  N   UNL     1       0.108  -6.182   3.345  1.00  0.00    -0.352 N 
ATOM     26  C   UNL     1       0.362  -7.532   3.322  1.00  0.00     0.251 C 
ATOM     27  H   UNL     1      -0.772  -5.916   2.993  1.00  0.00     0.163 HD
ATOM     28  O   UNL     1      -0.441  -8.316   2.820  1.00  0.00    -0.269 OA
BRANCH  26  29
ATOM     29  C   UNL     1       1.615  -8.034   3.904  1.00  0.00     0.039 A 
ATOM     30  C   UNL     1       2.418  -8.916   3.178  1.00  0.00     0.014 A 
ATOM     31  C   UNL     1       2.005  -7.587   5.165  1.00  0.00     0.014 A 
ATOM     32  C   UNL     1       3.654  -9.299   3.700  1.00  0.00     0.010 A 
ATOM     33  C   UNL     1       3.283  -7.860   5.617  1.00  0.00     0.010 A 
ATOM     34  C   UNL     1       4.110  -8.742   4.905  1.00  0.00    -0.014 A 
BRANCH  34  35
ATOM     35  C   UNL     1       5.426  -9.084   5.494  1.00  0.00     0.031 A 
ATOM     36  C   UNL     1       5.473  -9.678   6.877  1.00  0.00     0.074 A 
ATOM     37  C   UNL     1       6.559  -8.750   4.848  1.00  0.00     0.049 A 
ATOM     38  N   UNL     1       6.500  -9.882   7.657  1.00  0.00    -0.248 NA
ATOM     39  C   UNL     1       4.179 -10.039   7.484  1.00  0.00     0.031 C 
ATOM     40  C   UNL     1       6.631  -8.117   3.530  1.00  0.00     0.029 A 
ATOM     41  N   UNL     1       7.871  -8.873   5.229  1.00  0.00    -0.354 N 
ATOM     42  C   UNL     1       5.974 -10.353   8.854  1.00  0.00     0.074 A 
ATOM     43  C   UNL     1       4.535 -10.340   8.722  1.00  0.00     0.031 C 
ATOM     44  C   UNL     1       7.918  -7.923   3.204  1.00  0.00     0.029 A 
ATOM     45  C   UNL     1       8.760  -8.371   4.309  1.00  0.00     0.049 A 
ATOM     46  H   UNL     1       8.149  -9.283   6.080  1.00  0.00     0.167 HD
ATOM     47  C   UNL     1       6.634 -10.783   9.956  1.00  0.00     0.037 A 
ATOM     48  C   UNL     1      10.102  -8.268   4.361  1.00  0.00     0.037 A 
ATOM     49  C   UNL     1       8.068 -10.828  10.050  1.00  0.00     0.049 A 
ATOM     50  C   UNL     1      10.820  -8.778   5.580  1.00  0.00     0.074 A 
ATOM     51  C   UNL     1       8.848 -11.319  11.081  1.00  0.00     0.029 A 
ATOM     52  N   UNL     1       8.939 -10.361   9.074  1.00  0.00    -0.354 N 
ATOM     53  N   UNL     1      10.315  -9.285   6.681  1.00  0.00    -0.248 NA
ATOM     54  C   UNL     1      12.286  -8.713   5.564  1.00  0.00     0.031 C 
ATOM     55  C   UNL     1      10.190 -11.102  10.750  1.00  0.00     0.029 A 
ATOM     56  C   UNL     1      10.249 -10.531   9.488  1.00  0.00     0.049 A 
ATOM     57  H   UNL     1       8.665  -9.968   8.214  1.00  0.00     0.167 HD
ATOM     58  C   UNL     1      11.402  -9.621   7.479  1.00  0.00     0.074 A 
ATOM     59  C   UNL     1      12.591  -9.271   6.727  1.00  0.00     0.031 C 
ATOM     60  C   UNL     1      11.417 -10.172   8.720  1.00  0.00     0.037 A 
BRANCH  47  61
ATOM     61  C   UNL     1       5.808 -11.228  11.134  1.00  0.00     0.058 A 
ATOM     62  C   UNL     1       4.992 -12.371  11.083  1.00  0.00     0.135 A 
ATOM     63  C   UNL     1       5.829 -10.498  12.334  1.00  0.00     0.135 A 
ATOM     64  F   UNL     1       4.918 -13.101   9.958  1.00  0.00    -0.206 F 
ATOM     65  C   UNL     1       4.192 -12.746  12.158  1.00  0.00     0.059 A 
ATOM     66  C   UNL     1       5.065 -10.876  13.435  1.00  0.00     0.059 A 
ATOM     67  F   UNL     1       6.588  -9.397  12.443  1.00  0.00    -0.206 F 
ATOM     68  C   UNL     1       4.232 -11.989  13.329  1.00  0.00     0.060 A 
BRANCH  68  69
ATOM     69  S   UNL     1       3.177 -12.479  14.709  1.00  0.00     0.124 S 
ATOM     70  O   UNL     1       1.858 -12.091  14.217  1.00  0.00    -0.237 OA
ATOM     71  O   UNL     1       3.424 -13.915  14.794  1.00  0.00    -0.237 OA
ATOM     72  O   UNL     1       3.688 -11.690  15.825  1.00  0.00    -0.744 OA
ENDBRANCH  68  69
ENDBRANCH  47  61
BRANCH  48  73
ATOM     73  C   UNL     1      10.840  -7.686   3.208  1.00  0.00     0.058 A 
ATOM     74  C   UNL     1      11.607  -8.498   2.361  1.00  0.00     0.135 A 
ATOM     75  C   UNL     1      10.745  -6.321   2.895  1.00  0.00     0.135 A 
ATOM     76  F   UNL     1      11.733  -9.809   2.621  1.00  0.00    -0.206 F 
ATOM     77  C   UNL     1      12.257  -7.980   1.245  1.00  0.00     0.059 A 
ATOM     78  C   UNL     1      11.365  -5.783   1.771  1.00  0.00     0.059 A 
ATOM     79  F   UNL     1      10.008  -5.504   3.663  1.00  0.00    -0.206 F 
ATOM     80  C   UNL     1      12.122  -6.622   0.953  1.00  0.00     0.060 A 
BRANCH  80  81
ATOM     81  S   UNL     1      12.902  -5.977  -0.543  1.00  0.00     0.124 S 
ATOM     82  O   UNL     1      14.313  -6.016  -0.181  1.00  0.00    -0.237 OA
ATOM     83  O   UNL     1      12.473  -6.942  -1.551  1.00  0.00    -0.237 OA
ATOM     84  O   UNL     1      12.321  -4.644  -0.677  1.00  0.00    -0.744 OA
ENDBRANCH  80  81
ENDBRANCH  48  73
BRANCH  60  85
ATOM     85  C   UNL     1      12.761 -10.458   9.330  1.00  0.00     0.058 A 
ATOM     86  C   UNL     1      13.598  -9.431   9.791  1.00  0.00     0.135 A 
ATOM     87  C   UNL     1      13.189 -11.784   9.507  1.00  0.00     0.135 A 
ATOM     88  F   UNL     1      13.238  -8.146   9.641  1.00  0.00    -0.206 F 
ATOM     89  C   UNL     1      14.826  -9.707  10.382  1.00  0.00     0.059 A 
ATOM     90  C   UNL     1      14.398 -12.084  10.124  1.00  0.00     0.059 A 
ATOM     91  F   UNL     1      12.420 -12.805   9.096  1.00  0.00    -0.206 F 
ATOM     92  C   UNL     1      15.216 -11.037  10.547  1.00  0.00     0.060 A 
BRANCH  92  93
ATOM     93  S   UNL     1      16.798 -11.382  11.344  1.00  0.00     0.124 S 
ATOM     94  O   UNL     1      17.742 -10.991  10.302  1.00  0.00    -0.237 OA
ATOM     95  O   UNL     1      16.752 -10.513  12.516  1.00  0.00    -0.237 OA
ATOM     96  O   UNL     1      16.732 -12.812  11.628  1.00  0.00    -0.744 OA
ENDBRANCH  92  93
ENDBRANCH  60  85
ENDBRANCH  34  35
ENDBRANCH  26  29
ENDBRANCH  24  25
ENDBRANCH  23  24
ENDBRANCH   1  23
TORSDOF 19
