REMARK SMILES COc1ccc(-c2ccc(/C=C3\SC(=S)N([C@H](Cc4ccccc4)C(=O)NCCCNC(=O)c4ccc(-c5c6nc(c(-c7c(F)cc(S(=O)(=O)[O-])cc7F)c7ccc([nH]7)c(-c7c(F)cc(S(=O)(=O)[O-])cc7F)c7nc(c(-c8c(F)cc(S(=O)(=O)[O-])cc8F)c8ccc5[nH]8)C=C7)C=C6)cc4)C3=O)o2)cc1
REMARK SMILES IDX 28 1 27 2 25 3 26 4 17 6 16 7 11 8 12 9 13 10 100 11 14 12
REMARK SMILES IDX 101 13 15 14 10 15 7 16 8 17 102 18 9 19 6 20 3 21 4 22
REMARK SMILES IDX 104 23 5 24 103 25 2 26 1 27 18 28 19 29 20 30 24 31 21 32
REMARK SMILES IDX 23 33 22 34 29 35 30 36 31 37 32 38 33 40 34 41 35 42 99 43
REMARK SMILES IDX 36 44 98 45 37 46 38 47 39 48 92 49 40 50 97 51 91 52 93 53
REMARK SMILES IDX 41 54 96 55 90 56 89 57 42 59 76 60 55 61 75 62 56 63 59 64
REMARK SMILES IDX 74 65 94 66 57 67 58 68 73 70 95 71 60 72 43 73 44 74 53 75
REMARK SMILES IDX 45 76 46 77 52 78 54 79 47 80 48 81 49 82 50 83 51 84 77 85
REMARK SMILES IDX 78 86 87 87 79 88 80 89 86 90 88 91 81 92 82 93 83 94 84 95
REMARK SMILES IDX 85 96 61 97 62 98 71 99 63 100 64 101 70 102 72 103 65 104
REMARK SMILES IDX 66 105 67 106 68 107 69 108
REMARK H PARENT 27 5 31 39 93 58 59 69
REMARK Flexibility Score: inf
ROOT
ATOM      1  C   UNL     1       1.090  -6.282 -11.575  1.00  0.00     0.117 C 
ENDROOT
BRANCH   1   2
ATOM      2  N   UNL     1       1.410  -7.563 -12.186  1.00  0.00    -0.354 N 
ATOM      3  C   UNL     1       0.666  -8.708 -12.275  1.00  0.00     0.243 C 
ATOM      4  O   UNL     1       1.082  -9.602 -13.019  1.00  0.00    -0.273 OA
ATOM      5  H   UNL     1       2.301  -7.614 -12.602  1.00  0.00     0.163 HD
BRANCH   3   6
ATOM      6  C   UNL     1      -0.613  -8.937 -11.426  1.00  0.00     0.185 C 
BRANCH   6   7
ATOM      7  N   UNL     1      -1.830  -8.124 -11.763  1.00  0.00    -0.280 N 
ATOM      8  C   UNL     1      -3.364  -5.505 -13.759  1.00  0.00     0.068 C 
ATOM      9  C   UNL     1      -3.136  -6.489 -12.879  1.00  0.00     0.084 C 
ATOM     10  S   UNL     1      -4.231  -7.152 -11.748  1.00  0.00    -0.054 SA
ATOM     11  C   UNL     1      -1.838  -7.209 -12.807  1.00  0.00     0.267 C 
ATOM     12  C   UNL     1      -3.080  -8.356 -11.207  1.00  0.00     0.149 C 
ATOM     13  O   UNL     1      -0.952  -7.001 -13.626  1.00  0.00    -0.268 OA
ATOM     14  S   UNL     1      -3.612  -9.559 -10.185  1.00  0.00    -0.052 S 
BRANCH   8  15
ATOM     15  C   UNL     1      -4.612  -4.833 -13.848  1.00  0.00     0.128 A 
ATOM     16  C   UNL     1      -6.481  -4.082 -14.778  1.00  0.00     0.134 A 
ATOM     17  C   UNL     1      -6.548  -3.720 -13.454  1.00  0.00     0.051 A 
ATOM     18  O   UNL     1      -5.316  -4.739 -15.026  1.00  0.00    -0.457 OA
ATOM     19  C   UNL     1      -5.352  -4.184 -12.864  1.00  0.00     0.051 A 
BRANCH  16  20
ATOM     20  C   UNL     1      -7.354  -3.880 -15.916  1.00  0.00     0.017 A 
ATOM     21  C   UNL     1      -9.045  -3.456 -18.110  1.00  0.00     0.118 A 
ATOM     22  C   UNL     1      -8.578  -4.738 -17.826  1.00  0.00     0.047 A 
ATOM     23  C   UNL     1      -8.702  -2.389 -17.280  1.00  0.00     0.047 A 
ATOM     24  C   UNL     1      -7.721  -4.948 -16.743  1.00  0.00     0.016 A 
ATOM     25  C   UNL     1      -7.861  -2.603 -16.186  1.00  0.00     0.016 A 
BRANCH  21  26
ATOM     26  O   UNL     1      -9.875  -3.338 -19.192  1.00  0.00    -0.497 OA
ATOM     27  C   UNL     1      -9.595  -2.197 -20.000  1.00  0.00     0.278 C 
ENDBRANCH  21  26
ENDBRANCH  16  20
ENDBRANCH   8  15
ENDBRANCH   6   7
BRANCH   6  28
ATOM     28  C   UNL     1      -0.203  -8.852  -9.922  1.00  0.00     0.071 C 
BRANCH  28  29
ATOM     29  C   UNL     1      -0.120 -10.112  -9.073  1.00  0.00    -0.045 A 
ATOM     30  C   UNL     1       0.558 -10.021  -7.843  1.00  0.00     0.004 A 
ATOM     31  C   UNL     1      -0.751 -11.325  -9.378  1.00  0.00     0.004 A 
ATOM     32  C   UNL     1       0.572 -11.086  -6.940  1.00  0.00     0.000 A 
ATOM     33  C   UNL     1      -0.762 -12.382  -8.462  1.00  0.00     0.000 A 
ATOM     34  C   UNL     1      -0.106 -12.262  -7.242  1.00  0.00     0.000 A 
ENDBRANCH  28  29
ENDBRANCH   6  28
ENDBRANCH   3   6
ENDBRANCH   1   2
BRANCH   1  35
ATOM     35  C   UNL     1       2.210  -5.742 -10.694  1.00  0.00     0.042 C 
BRANCH  35  36
ATOM     36  C   UNL     1       3.515  -5.440 -11.428  1.00  0.00     0.118 C 
BRANCH  36  37
ATOM     37  N   UNL     1       3.379  -4.404 -12.444  1.00  0.00    -0.352 N 
ATOM     38  C   UNL     1       3.991  -3.178 -12.558  1.00  0.00     0.251 C 
ATOM     39  H   UNL     1       2.745  -4.618 -13.166  1.00  0.00     0.163 HD
ATOM     40  O   UNL     1       3.612  -2.397 -13.427  1.00  0.00    -0.269 OA
BRANCH  38  41
ATOM     41  C   UNL     1       5.073  -2.778 -11.630  1.00  0.00     0.039 A 
ATOM     42  C   UNL     1       5.072  -1.477 -11.115  1.00  0.00     0.014 A 
ATOM     43  C   UNL     1       6.092  -3.664 -11.273  1.00  0.00     0.014 A 
ATOM     44  C   UNL     1       6.034  -1.098 -10.175  1.00  0.00     0.010 A 
ATOM     45  C   UNL     1       7.005  -3.310 -10.281  1.00  0.00     0.010 A 
ATOM     46  C   UNL     1       6.979  -2.028  -9.712  1.00  0.00    -0.014 A 
BRANCH  46  47
ATOM     47  C   UNL     1       7.920  -1.694  -8.610  1.00  0.00     0.031 A 
ATOM     48  C   UNL     1       9.406  -1.696  -8.848  1.00  0.00     0.074 A 
ATOM     49  C   UNL     1       7.437  -1.473  -7.371  1.00  0.00     0.049 A 
ATOM     50  N   UNL     1      10.379  -1.533  -7.989  1.00  0.00    -0.248 NA
ATOM     51  C   UNL     1       9.857  -1.940 -10.227  1.00  0.00     0.031 C 
ATOM     52  C   UNL     1       6.020  -1.494  -6.999  1.00  0.00     0.029 A 
ATOM     53  N   UNL     1       8.083  -1.204  -6.190  1.00  0.00    -0.354 N 
ATOM     54  C   UNL     1      11.555  -1.674  -8.716  1.00  0.00     0.074 A 
ATOM     55  C   UNL     1      11.174  -1.977 -10.078  1.00  0.00     0.031 C 
ATOM     56  C   UNL     1       5.904  -1.233  -5.687  1.00  0.00     0.029 A 
ATOM     57  C   UNL     1       7.236  -1.066  -5.115  1.00  0.00     0.049 A 
ATOM     58  H   UNL     1       9.061  -1.118  -6.119  1.00  0.00     0.167 HD
ATOM     59  C   UNL     1      12.835  -1.542  -8.291  1.00  0.00     0.037 A 
ATOM     60  C   UNL     1       7.500  -0.843  -3.813  1.00  0.00     0.037 A 
ATOM     61  C   UNL     1      13.210  -1.209  -6.941  1.00  0.00     0.049 A 
ATOM     62  C   UNL     1       8.928  -0.697  -3.366  1.00  0.00     0.074 A 
ATOM     63  C   UNL     1      14.476  -0.983  -6.430  1.00  0.00     0.029 A 
ATOM     64  N   UNL     1      12.322  -1.056  -5.886  1.00  0.00    -0.354 N 
ATOM     65  N   UNL     1      10.025  -0.771  -4.081  1.00  0.00    -0.248 NA
ATOM     66  C   UNL     1       9.155  -0.435  -1.939  1.00  0.00     0.031 C 
ATOM     67  C   UNL     1      14.357  -0.730  -5.058  1.00  0.00     0.029 A 
ATOM     68  C   UNL     1      13.013  -0.760  -4.723  1.00  0.00     0.049 A 
ATOM     69  H   UNL     1      11.343  -1.145  -5.955  1.00  0.00     0.167 HD
ATOM     70  C   UNL     1      11.071  -0.551  -3.193  1.00  0.00     0.074 A 
ATOM     71  C   UNL     1      10.475  -0.324  -1.893  1.00  0.00     0.031 C 
ATOM     72  C   UNL     1      12.406  -0.541  -3.434  1.00  0.00     0.037 A 
BRANCH  59  73
ATOM     73  C   UNL     1      13.929  -1.752  -9.302  1.00  0.00     0.058 A 
ATOM     74  C   UNL     1      14.176  -0.819 -10.321  1.00  0.00     0.135 A 
ATOM     75  C   UNL     1      14.761  -2.881  -9.232  1.00  0.00     0.135 A 
ATOM     76  F   UNL     1      13.402   0.271 -10.442  1.00  0.00    -0.206 F 
ATOM     77  C   UNL     1      15.189  -1.012 -11.254  1.00  0.00     0.059 A 
ATOM     78  C   UNL     1      15.797  -3.082 -10.139  1.00  0.00     0.059 A 
ATOM     79  F   UNL     1      14.569  -3.804  -8.276  1.00  0.00    -0.206 F 
ATOM     80  C   UNL     1      15.993  -2.149 -11.157  1.00  0.00     0.060 A 
BRANCH  80  81
ATOM     81  S   UNL     1      17.304  -2.386 -12.375  1.00  0.00     0.124 S 
ATOM     82  O   UNL     1      16.538  -2.794 -13.549  1.00  0.00    -0.237 OA
ATOM     83  O   UNL     1      17.912  -1.061 -12.444  1.00  0.00    -0.237 OA
ATOM     84  O   UNL     1      18.139  -3.424 -11.778  1.00  0.00    -0.744 OA
ENDBRANCH  80  81
ENDBRANCH  59  73
BRANCH  60  85
ATOM     85  C   UNL     1       6.382  -0.733  -2.840  1.00  0.00     0.058 A 
ATOM     86  C   UNL     1       6.033   0.506  -2.283  1.00  0.00     0.135 A 
ATOM     87  C   UNL     1       5.628  -1.855  -2.464  1.00  0.00     0.135 A 
ATOM     88  F   UNL     1       6.730   1.606  -2.606  1.00  0.00    -0.206 F 
ATOM     89  C   UNL     1       4.983   0.629  -1.379  1.00  0.00     0.059 A 
ATOM     90  C   UNL     1       4.559  -1.754  -1.579  1.00  0.00     0.059 A 
ATOM     91  F   UNL     1       5.911  -3.060  -2.982  1.00  0.00    -0.206 F 
ATOM     92  C   UNL     1       4.249  -0.507  -1.036  1.00  0.00     0.060 A 
BRANCH  92  93
ATOM     93  S   UNL     1       2.848  -0.329   0.089  1.00  0.00     0.124 S 
ATOM     94  O   UNL     1       3.521  -0.176   1.374  1.00  0.00    -0.237 OA
ATOM     95  O   UNL     1       2.185   0.863  -0.431  1.00  0.00    -0.237 OA
ATOM     96  O   UNL     1       2.111  -1.575  -0.095  1.00  0.00    -0.744 OA
ENDBRANCH  92  93
ENDBRANCH  60  85
BRANCH  72  97
ATOM     97  C   UNL     1      13.312  -0.262  -2.269  1.00  0.00     0.058 A 
ATOM     98  C   UNL     1      13.550  -1.227  -1.278  1.00  0.00     0.135 A 
ATOM     99  C   UNL     1      13.985   0.966  -2.166  1.00  0.00     0.135 A 
ATOM    100  F   UNL     1      12.925  -2.413  -1.327  1.00  0.00    -0.206 F 
ATOM    101  C   UNL     1      14.410  -0.977  -0.213  1.00  0.00     0.059 A 
ATOM    102  C   UNL     1      14.867   1.229  -1.122  1.00  0.00     0.059 A 
ATOM    103  F   UNL     1      13.798   1.920  -3.092  1.00  0.00    -0.206 F 
ATOM    104  C   UNL     1      15.064   0.254  -0.144  1.00  0.00     0.060 A 
BRANCH 104 105
ATOM    105  S   UNL     1      16.203   0.555   1.224  1.00  0.00     0.124 S 
ATOM    106  O   UNL     1      15.279   0.801   2.326  1.00  0.00    -0.237 OA
ATOM    107  O   UNL     1      16.951  -0.696   1.291  1.00  0.00    -0.237 OA
ATOM    108  O   UNL     1      16.971   1.714   0.778  1.00  0.00    -0.744 OA
ENDBRANCH 104 105
ENDBRANCH  72  97
ENDBRANCH  46  47
ENDBRANCH  38  41
ENDBRANCH  36  37
ENDBRANCH  35  36
ENDBRANCH   1  35
TORSDOF 19
