REMARK SMILES O=C(CNC(=O)[C@@H](CC1=c2ccccc2=NC1)N1C(=O)N=C2C=CC=C[C@H]2C1=O)NCCCNC(=O)c1ccc(-c2c3nc(c(-c4c(F)cc(S(=O)(=O)[O-])cc4F)c4ccc([nH]4)c(-c4c(F)cc(S(=O)(=O)[O-])cc4F)c4nc(c(-c5c(F)cc(S(=O)(=O)[O-])cc5F)c5ccc2[nH]5)C=C4)C=C3)cc1
REMARK SMILES IDX 31 1 30 2 1 3 2 4 3 6 4 7 5 8 6 10 7 11 8 12 9 13 10 14
REMARK SMILES IDX 17 15 11 16 15 17 16 18 12 19 14 20 13 21 18 22 19 23 28 24
REMARK SMILES IDX 21 25 20 26 27 27 29 28 22 29 26 30 23 31 25 32 24 33 32 34
REMARK SMILES IDX 33 35 34 36 35 37 36 39 37 40 38 41 102 42 39 43 101 44
REMARK SMILES IDX 40 45 41 46 42 47 95 48 43 49 100 50 94 51 96 52 44 53 99 54
REMARK SMILES IDX 93 55 92 56 45 58 79 59 58 60 78 61 59 62 62 63 77 64 97 65
REMARK SMILES IDX 60 66 61 67 76 69 98 70 63 71 46 72 47 73 56 74 48 75 49 76
REMARK SMILES IDX 55 77 57 78 50 79 51 80 52 81 53 82 54 83 80 84 81 85 90 86
REMARK SMILES IDX 82 87 83 88 89 89 91 90 84 91 85 92 86 93 87 94 88 95 64 96
REMARK SMILES IDX 65 97 74 98 66 99 67 100 73 101 75 102 68 103 69 104 70 105
REMARK SMILES IDX 71 106 72 107
REMARK H PARENT 30 5 4 9 34 38 96 57 62 68
REMARK Flexibility Score: inf
ROOT
ATOM      1  C   UNL     1       2.191  -1.221   2.406  1.00  0.00     0.117 C 
ENDROOT
BRANCH   1   2
ATOM      2  N   UNL     1       2.710  -0.229   1.479  1.00  0.00    -0.355 N 
ATOM      3  O   UNL     1       0.729   0.903   1.180  1.00  0.00    -0.273 OA
ATOM      4  C   UNL     1       1.933   0.795   0.966  1.00  0.00     0.239 C 
ATOM      5  H   UNL     1       3.654  -0.288   1.205  1.00  0.00     0.163 HD
BRANCH   4   6
ATOM      6  C   UNL     1       2.706   1.871   0.179  1.00  0.00     0.216 C 
BRANCH   6   7
ATOM      7  N   UNL     1       4.107   1.521  -0.027  1.00  0.00    -0.345 N 
ATOM      8  C   UNL     1       4.702   1.760  -1.249  1.00  0.00     0.244 C 
ATOM      9  H   UNL     1       4.627   1.115   0.704  1.00  0.00     0.164 HD
ATOM     10  O   UNL     1       4.678   2.885  -1.745  1.00  0.00    -0.273 OA
BRANCH   8  11
ATOM     11  C   UNL     1       5.595   0.617  -1.765  1.00  0.00     0.188 C 
BRANCH  11  12
ATOM     12  C   UNL     1       5.102  -0.856  -1.684  1.00  0.00     0.069 C 
BRANCH  12  13
ATOM     13  C   UNL     1       3.742  -1.398  -2.036  1.00  0.00    -0.037 C 
ATOM     14  C   UNL     1       3.384  -2.676  -1.865  1.00  0.00     0.001 A 
ATOM     15  C   UNL     1       2.560  -0.620  -2.525  1.00  0.00     0.174 C 
ATOM     16  C   UNL     1       4.064  -3.874  -1.477  1.00  0.00     0.010 A 
ATOM     17  C   UNL     1       1.929  -2.663  -2.086  1.00  0.00     0.065 A 
ATOM     18  N   UNL     1       1.395  -1.537  -2.440  1.00  0.00    -0.280 NA
ATOM     19  C   UNL     1       3.348  -4.996  -1.294  1.00  0.00     0.001 A 
ATOM     20  C   UNL     1       1.204  -3.925  -1.826  1.00  0.00     0.028 A 
ATOM     21  C   UNL     1       1.903  -5.008  -1.443  1.00  0.00     0.002 A 
ENDBRANCH  12  13
ENDBRANCH  11  12
BRANCH  11  22
ATOM     22  N   UNL     1       6.306   0.951  -3.015  1.00  0.00    -0.249 N 
ATOM     23  C   UNL     1       7.691   1.030  -2.948  1.00  0.00     0.351 C 
ATOM     24  C   UNL     1       5.589   1.170  -4.178  1.00  0.00     0.244 C 
ATOM     25  N   UNL     1       8.423   1.137  -4.087  1.00  0.00    -0.197 NA
ATOM     26  O   UNL     1       8.284   0.930  -1.869  1.00  0.00    -0.246 OA
ATOM     27  C   UNL     1       6.384   1.629  -5.389  1.00  0.00     0.151 C 
ATOM     28  O   UNL     1       4.361   1.092  -4.223  1.00  0.00    -0.273 OA
ATOM     29  C   UNL     1       7.855   1.340  -5.229  1.00  0.00     0.062 C 
ATOM     30  C   UNL     1       5.883   1.040  -6.690  1.00  0.00    -0.007 C 
ATOM     31  C   UNL     1       8.715   1.274  -6.435  1.00  0.00     0.025 C 
ATOM     32  C   UNL     1       6.710   0.720  -7.698  1.00  0.00    -0.003 C 
ATOM     33  C   UNL     1       8.132   0.946  -7.593  1.00  0.00     0.002 C 
ENDBRANCH  11  22
ENDBRANCH   8  11
ENDBRANCH   6   7
ENDBRANCH   4   6
ENDBRANCH   1   2
BRANCH   1  34
ATOM     34  C   UNL     1       2.449  -2.666   1.988  1.00  0.00     0.042 C 
BRANCH  34  35
ATOM     35  C   UNL     1       3.914  -3.093   1.953  1.00  0.00     0.118 C 
BRANCH  35  36
ATOM     36  N   UNL     1       4.545  -3.164   3.263  1.00  0.00    -0.352 N 
ATOM     37  C   UNL     1       5.144  -4.221   3.912  1.00  0.00     0.251 C 
ATOM     38  H   UNL     1       4.543  -2.318   3.767  1.00  0.00     0.163 HD
ATOM     39  O   UNL     1       5.526  -4.067   5.070  1.00  0.00    -0.269 OA
BRANCH  37  40
ATOM     40  C   UNL     1       5.299  -5.545   3.260  1.00  0.00     0.039 A 
ATOM     41  C   UNL     1       5.753  -5.678   1.946  1.00  0.00     0.014 A 
ATOM     42  C   UNL     1       4.999  -6.694   4.002  1.00  0.00     0.014 A 
ATOM     43  C   UNL     1       5.746  -6.931   1.326  1.00  0.00     0.010 A 
ATOM     44  C   UNL     1       5.054  -7.956   3.399  1.00  0.00     0.010 A 
ATOM     45  C   UNL     1       5.370  -8.082   2.037  1.00  0.00    -0.014 A 
BRANCH  45  46
ATOM     46  C   UNL     1       5.255  -9.398   1.346  1.00  0.00     0.031 A 
ATOM     47  C   UNL     1       3.909 -10.068   1.210  1.00  0.00     0.074 A 
ATOM     48  C   UNL     1       6.343  -9.986   0.809  1.00  0.00     0.049 A 
ATOM     49  N   UNL     1       3.609 -11.227   0.677  1.00  0.00    -0.248 NA
ATOM     50  C   UNL     1       2.746  -9.340   1.743  1.00  0.00     0.031 C 
ATOM     51  C   UNL     1       7.701  -9.443   0.846  1.00  0.00     0.029 A 
ATOM     52  N   UNL     1       6.476 -11.168   0.121  1.00  0.00    -0.354 N 
ATOM     53  C   UNL     1       2.234 -11.373   0.822  1.00  0.00     0.074 A 
ATOM     54  C   UNL     1       1.760 -10.199   1.523  1.00  0.00     0.031 C 
ATOM     55  C   UNL     1       8.524 -10.273   0.185  1.00  0.00     0.029 A 
ATOM     56  C   UNL     1       7.766 -11.434  -0.276  1.00  0.00     0.049 A 
ATOM     57  H   UNL     1       5.719 -11.768  -0.069  1.00  0.00     0.167 HD
ATOM     58  C   UNL     1       1.433 -12.382   0.398  1.00  0.00     0.037 A 
ATOM     59  C   UNL     1       8.286 -12.497  -0.921  1.00  0.00     0.037 A 
ATOM     60  C   UNL     1       1.897 -13.547  -0.312  1.00  0.00     0.049 A 
ATOM     61  C   UNL     1       7.388 -13.634  -1.325  1.00  0.00     0.074 A 
ATOM     62  C   UNL     1       1.155 -14.614  -0.791  1.00  0.00     0.029 A 
ATOM     63  N   UNL     1       3.219 -13.801  -0.646  1.00  0.00    -0.354 N 
ATOM     64  N   UNL     1       6.090 -13.755  -1.173  1.00  0.00    -0.248 NA
ATOM     65  C   UNL     1       8.026 -14.783  -1.983  1.00  0.00     0.031 C 
ATOM     66  C   UNL     1       2.033 -15.532  -1.377  1.00  0.00     0.029 A 
ATOM     67  C   UNL     1       3.316 -15.015  -1.308  1.00  0.00     0.049 A 
ATOM     68  H   UNL     1       3.977 -13.206  -0.444  1.00  0.00     0.167 HD
ATOM     69  C   UNL     1       5.756 -14.986  -1.729  1.00  0.00     0.074 A 
ATOM     70  C   UNL     1       6.984 -15.561  -2.239  1.00  0.00     0.031 C 
ATOM     71  C   UNL     1       4.542 -15.586  -1.806  1.00  0.00     0.037 A 
BRANCH  58  72
ATOM     72  C   UNL     1      -0.039 -12.278   0.693  1.00  0.00     0.058 A 
ATOM     73  C   UNL     1      -0.864 -11.368   0.013  1.00  0.00     0.135 A 
ATOM     74  C   UNL     1      -0.644 -13.137   1.626  1.00  0.00     0.135 A 
ATOM     75  F   UNL     1      -0.335 -10.511  -0.876  1.00  0.00    -0.206 F 
ATOM     76  C   UNL     1      -2.231 -11.300   0.259  1.00  0.00     0.059 A 
ATOM     77  C   UNL     1      -2.014 -13.104   1.871  1.00  0.00     0.059 A 
ATOM     78  F   UNL     1       0.098 -14.025   2.306  1.00  0.00    -0.206 F 
ATOM     79  C   UNL     1      -2.797 -12.175   1.188  1.00  0.00     0.060 A 
BRANCH  79  80
ATOM     80  S   UNL     1      -4.576 -12.079   1.485  1.00  0.00     0.124 S 
ATOM     81  O   UNL     1      -4.686 -10.801   2.181  1.00  0.00    -0.237 OA
ATOM     82  O   UNL     1      -5.118 -12.112   0.131  1.00  0.00    -0.237 OA
ATOM     83  O   UNL     1      -4.851 -13.261   2.297  1.00  0.00    -0.744 OA
ENDBRANCH  79  80
ENDBRANCH  58  72
BRANCH  59  84
ATOM     84  C   UNL     1       9.742 -12.537  -1.224  1.00  0.00     0.058 A 
ATOM     85  C   UNL     1      10.206 -12.420  -2.542  1.00  0.00     0.135 A 
ATOM     86  C   UNL     1      10.696 -12.675  -0.204  1.00  0.00     0.135 A 
ATOM     87  F   UNL     1       9.332 -12.300  -3.553  1.00  0.00    -0.206 F 
ATOM     88  C   UNL     1      11.564 -12.440  -2.840  1.00  0.00     0.059 A 
ATOM     89  C   UNL     1      12.060 -12.671  -0.474  1.00  0.00     0.059 A 
ATOM     90  F   UNL     1      10.302 -12.783   1.075  1.00  0.00    -0.206 F 
ATOM     91  C   UNL     1      12.484 -12.558  -1.797  1.00  0.00     0.060 A 
BRANCH  91  92
ATOM     92  S   UNL     1      14.246 -12.514  -2.191  1.00  0.00     0.124 S 
ATOM     93  O   UNL     1      14.434 -13.802  -2.848  1.00  0.00    -0.237 OA
ATOM     94  O   UNL     1      14.335 -11.338  -3.051  1.00  0.00    -0.237 OA
ATOM     95  O   UNL     1      14.879 -12.373  -0.883  1.00  0.00    -0.744 OA
ENDBRANCH  91  92
ENDBRANCH  59  84
BRANCH  71  96
ATOM     96  C   UNL     1       4.475 -16.930  -2.480  1.00  0.00     0.058 A 
ATOM     97  C   UNL     1       4.990 -18.085  -1.871  1.00  0.00     0.135 A 
ATOM     98  C   UNL     1       3.858 -17.072  -3.734  1.00  0.00     0.135 A 
ATOM     99  F   UNL     1       5.594 -18.006  -0.674  1.00  0.00    -0.206 F 
ATOM    100  C   UNL     1       4.924 -19.328  -2.494  1.00  0.00     0.059 A 
ATOM    101  C   UNL     1       3.755 -18.309  -4.363  1.00  0.00     0.059 A 
ATOM    102  F   UNL     1       3.338 -16.002  -4.356  1.00  0.00    -0.206 F 
ATOM    103  C   UNL     1       4.305 -19.430  -3.741  1.00  0.00     0.060 A 
BRANCH 103 104
ATOM    104  S   UNL     1       4.217 -21.050  -4.532  1.00  0.00     0.124 S 
ATOM    105  O   UNL     1       5.604 -21.256  -4.935  1.00  0.00    -0.237 OA
ATOM    106  O   UNL     1       3.739 -21.901  -3.447  1.00  0.00    -0.237 OA
ATOM    107  O   UNL     1       3.271 -20.845  -5.624  1.00  0.00    -0.744 OA
ENDBRANCH 103 104
ENDBRANCH  71  96
ENDBRANCH  45  46
ENDBRANCH  37  40
ENDBRANCH  35  36
ENDBRANCH  34  35
ENDBRANCH   1  34
TORSDOF 18
