REMARK SMILES CCCC[C@@H](C(=O)NCCCNC(=O)c1ccc(-c2c3nc(c(-c4c(F)cc(S(=O)(=O)[O-])cc4F)c4ccc([nH]4)c(-c4c(F)cc(S(=O)(=O)[O-])cc4F)c4nc(c(-c5c(F)cc(S(=O)(=O)[O-])cc5F)c5ccc2[nH]5)C=C4)C=C3)cc1)[C@]1(O)COc2cc(O)ccc21
REMARK SMILES IDX 10 1 9 2 8 3 6 4 7 5 5 7 4 8 3 9 2 10 1 11 81 12 83 13 91 14
REMARK SMILES IDX 84 15 85 16 90 17 86 18 89 19 87 20 82 21 88 23 11 25 12 26
REMARK SMILES IDX 13 27 14 29 15 30 16 31 80 32 17 33 79 34 18 35 19 36 20 37
REMARK SMILES IDX 73 38 21 39 78 40 72 41 74 42 22 43 77 44 71 45 70 46 23 48
REMARK SMILES IDX 57 49 36 50 56 51 37 52 40 53 55 54 75 55 38 56 39 57 54 59
REMARK SMILES IDX 76 60 41 61 24 62 25 63 34 64 26 65 27 66 33 67 35 68 28 69
REMARK SMILES IDX 29 70 30 71 31 72 32 73 58 74 59 75 68 76 60 77 61 78 67 79
REMARK SMILES IDX 69 80 62 81 63 82 64 83 65 84 66 85 42 86 43 87 52 88 44 89
REMARK SMILES IDX 45 90 51 91 53 92 46 93 47 94 48 95 49 96 50 97
REMARK H PARENT 8 6 82 22 88 24 12 28 74 47 40 58
REMARK Flexibility Score: inf
ROOT
ATOM      1  C   UNL     1       0.281   0.436   4.343  1.00  0.00     0.042 C 
ENDROOT
BRANCH   1   2
ATOM      2  C   UNL     1      -1.088   0.616   3.685  1.00  0.00     0.117 C 
BRANCH   2   3
ATOM      3  N   UNL     1      -1.554   1.980   3.858  1.00  0.00    -0.356 N 
ATOM      4  C   UNL     1      -1.202   3.060   3.094  1.00  0.00     0.226 C 
ATOM      5  O   UNL     1      -0.908   4.095   3.687  1.00  0.00    -0.275 OA
ATOM      6  H   UNL     1      -2.183   2.144   4.597  1.00  0.00     0.163 HD
BRANCH   4   7
ATOM      7  C   UNL     1      -1.248   2.953   1.568  1.00  0.00     0.118 C 
BRANCH   7   8
ATOM      8  C   UNL     1       0.168   2.954   0.929  1.00  0.00     0.017 C 
BRANCH   8   9
ATOM      9  C   UNL     1       1.104   1.764   1.139  1.00  0.00     0.001 C 
BRANCH   9  10
ATOM     10  C   UNL     1       0.644   0.422   0.573  1.00  0.00    -0.003 C 
ATOM     11  C   UNL     1       1.256   0.122  -0.785  1.00  0.00     0.004 C 
ENDBRANCH   9  10
ENDBRANCH   8   9
ENDBRANCH   7   8
BRANCH   7  12
ATOM     12  C   UNL     1      -2.121   4.112   0.943  1.00  0.00     0.139 C 
ATOM     13  C   UNL     1      -1.395   5.461   0.684  1.00  0.00     0.270 C 
ATOM     14  C   UNL     1      -3.235   4.678   1.782  1.00  0.00     0.030 A 
ATOM     15  O   UNL     1      -1.613   6.341   1.803  1.00  0.00    -0.490 OA
ATOM     16  C   UNL     1      -2.831   5.922   2.274  1.00  0.00     0.129 A 
ATOM     17  C   UNL     1      -4.480   4.178   2.130  1.00  0.00     0.014 A 
ATOM     18  C   UNL     1      -3.579   6.655   3.171  1.00  0.00     0.093 A 
ATOM     19  C   UNL     1      -5.281   4.928   3.006  1.00  0.00     0.047 A 
ATOM     20  C   UNL     1      -4.814   6.141   3.535  1.00  0.00     0.119 A 
BRANCH  12  21
ATOM     21  O   UNL     1      -2.626   3.626  -0.314  1.00  0.00    -0.381 OA
ATOM     22  H   UNL     1      -1.895   3.266  -0.839  1.00  0.00     0.212 HD
ENDBRANCH  12  21
BRANCH  20  23
ATOM     23  O   UNL     1      -5.558   6.859   4.425  1.00  0.00    -0.508 OA
ATOM     24  H   UNL     1      -5.229   7.667   4.768  1.00  0.00     0.293 HD
ENDBRANCH  20  23
ENDBRANCH   7  12
ENDBRANCH   4   7
ENDBRANCH   2   3
ENDBRANCH   1   2
BRANCH   1  25
ATOM     25  C   UNL     1       0.245   0.456   5.862  1.00  0.00     0.118 C 
BRANCH  25  26
ATOM     26  N   UNL     1      -0.359  -0.744   6.410  1.00  0.00    -0.352 N 
ATOM     27  C   UNL     1       0.186  -1.678   7.258  1.00  0.00     0.251 C 
ATOM     28  H   UNL     1      -1.290  -0.912   6.137  1.00  0.00     0.163 HD
ATOM     29  O   UNL     1      -0.395  -2.744   7.431  1.00  0.00    -0.269 OA
BRANCH  27  30
ATOM     30  C   UNL     1       1.471  -1.404   7.942  1.00  0.00     0.039 A 
ATOM     31  C   UNL     1       2.394  -2.442   8.086  1.00  0.00     0.014 A 
ATOM     32  C   UNL     1       1.760  -0.138   8.460  1.00  0.00     0.014 A 
ATOM     33  C   UNL     1       3.618  -2.199   8.713  1.00  0.00     0.010 A 
ATOM     34  C   UNL     1       3.017   0.127   8.992  1.00  0.00     0.010 A 
ATOM     35  C   UNL     1       3.951  -0.906   9.150  1.00  0.00    -0.014 A 
BRANCH  35  36
ATOM     36  C   UNL     1       5.251  -0.624   9.810  1.00  0.00     0.031 A 
ATOM     37  C   UNL     1       5.279  -0.127  11.232  1.00  0.00     0.074 A 
ATOM     38  C   UNL     1       6.398  -0.768   9.118  1.00  0.00     0.049 A 
ATOM     39  N   UNL     1       6.303   0.218  11.968  1.00  0.00    -0.248 NA
ATOM     40  C   UNL     1       3.979   0.034  11.906  1.00  0.00     0.031 C 
ATOM     41  C   UNL     1       6.495  -1.194   7.720  1.00  0.00     0.029 A 
ATOM     42  N   UNL     1       7.702  -0.569   9.494  1.00  0.00    -0.354 N 
ATOM     43  C   UNL     1       5.773   0.649  13.179  1.00  0.00     0.074 A 
ATOM     44  C   UNL     1       4.334   0.587  13.056  1.00  0.00     0.031 C 
ATOM     45  C   UNL     1       7.788  -1.257   7.368  1.00  0.00     0.029 A 
ATOM     46  C   UNL     1       8.611  -0.837   8.498  1.00  0.00     0.049 A 
ATOM     47  H   UNL     1       7.963  -0.263  10.393  1.00  0.00     0.167 HD
ATOM     48  C   UNL     1       6.425   1.034  14.303  1.00  0.00     0.037 A 
ATOM     49  C   UNL     1       9.956  -0.752   8.495  1.00  0.00     0.037 A 
ATOM     50  C   UNL     1       7.859   1.069  14.422  1.00  0.00     0.049 A 
ATOM     51  C   UNL     1      10.661  -0.320   9.752  1.00  0.00     0.074 A 
ATOM     52  C   UNL     1       8.623   1.389  15.529  1.00  0.00     0.029 A 
ATOM     53  N   UNL     1       8.745   0.779  13.394  1.00  0.00    -0.354 N 
ATOM     54  N   UNL     1      10.146   0.021  10.911  1.00  0.00    -0.248 NA
ATOM     55  C   UNL     1      12.127  -0.267   9.707  1.00  0.00     0.031 C 
ATOM     56  C   UNL     1       9.971   1.341  15.157  1.00  0.00     0.029 A 
ATOM     57  C   UNL     1      10.049   0.934  13.834  1.00  0.00     0.049 A 
ATOM     58  H   UNL     1       8.485   0.503  12.485  1.00  0.00     0.167 HD
ATOM     59  C   UNL     1      11.226   0.301  11.740  1.00  0.00     0.074 A 
ATOM     60  C   UNL     1      12.422   0.078  10.953  1.00  0.00     0.031 C 
ATOM     61  C   UNL     1      11.229   0.704  13.035  1.00  0.00     0.037 A 
BRANCH  48  62
ATOM     62  C   UNL     1       5.589   1.444  15.487  1.00  0.00     0.058 A 
ATOM     63  C   UNL     1       4.799   0.520  16.191  1.00  0.00     0.135 A 
ATOM     64  C   UNL     1       5.583   2.776  15.932  1.00  0.00     0.135 A 
ATOM     65  F   UNL     1       4.752  -0.765  15.803  1.00  0.00    -0.206 F 
ATOM     66  C   UNL     1       4.002   0.908  17.264  1.00  0.00     0.059 A 
ATOM     67  C   UNL     1       4.820   3.181  17.024  1.00  0.00     0.059 A 
ATOM     68  F   UNL     1       6.320   3.703  15.300  1.00  0.00    -0.206 F 
ATOM     69  C   UNL     1       4.018   2.243  17.671  1.00  0.00     0.060 A 
BRANCH  69  70
ATOM     70  S   UNL     1       2.969   2.732  19.057  1.00  0.00     0.124 S 
ATOM     71  O   UNL     1       1.642   2.674  18.452  1.00  0.00    -0.237 OA
ATOM     72  O   UNL     1       3.259   1.699  20.047  1.00  0.00    -0.237 OA
ATOM     73  O   UNL     1       3.448   4.069  19.391  1.00  0.00    -0.744 OA
ENDBRANCH  69  70
ENDBRANCH  48  62
BRANCH  49  74
ATOM     74  C   UNL     1      10.718  -1.121   7.272  1.00  0.00     0.058 A 
ATOM     75  C   UNL     1      11.494  -2.289   7.230  1.00  0.00     0.135 A 
ATOM     76  C   UNL     1      10.661  -0.334   6.111  1.00  0.00     0.135 A 
ATOM     77  F   UNL     1      11.586  -3.071   8.316  1.00  0.00    -0.206 F 
ATOM     78  C   UNL     1      12.194  -2.660   6.086  1.00  0.00     0.059 A 
ATOM     79  C   UNL     1      11.330  -0.698   4.946  1.00  0.00     0.059 A 
ATOM     80  F   UNL     1       9.920   0.785   6.092  1.00  0.00    -0.206 F 
ATOM     81  C   UNL     1      12.100  -1.861   4.946  1.00  0.00     0.060 A 
BRANCH  81  82
ATOM     82  S   UNL     1      12.960  -2.388   3.448  1.00  0.00     0.124 S 
ATOM     83  O   UNL     1      14.352  -2.148   3.807  1.00  0.00    -0.237 OA
ATOM     84  O   UNL     1      12.558  -3.787   3.342  1.00  0.00    -0.237 OA
ATOM     85  O   UNL     1      12.412  -1.508   2.419  1.00  0.00    -0.744 OA
ENDBRANCH  81  82
ENDBRANCH  49  74
BRANCH  61  86
ATOM     86  C   UNL     1      12.565   0.897  13.697  1.00  0.00     0.058 A 
ATOM     87  C   UNL     1      13.403   1.975  13.374  1.00  0.00     0.135 A 
ATOM     88  C   UNL     1      12.988   0.018  14.709  1.00  0.00     0.135 A 
ATOM     89  F   UNL     1      13.050   2.841  12.411  1.00  0.00    -0.206 F 
ATOM     90  C   UNL     1      14.626   2.161  14.012  1.00  0.00     0.059 A 
ATOM     91  C   UNL     1      14.191   0.202  15.381  1.00  0.00     0.059 A 
ATOM     92  F   UNL     1      12.219  -1.024  15.065  1.00  0.00    -0.206 F 
ATOM     93  C   UNL     1      15.009   1.270  15.017  1.00  0.00     0.060 A 
BRANCH  93  94
ATOM     94  S   UNL     1      16.582   1.542  15.859  1.00  0.00     0.124 S 
ATOM     95  O   UNL     1      17.539   1.149  14.829  1.00  0.00    -0.237 OA
ATOM     96  O   UNL     1      16.530   2.969  16.165  1.00  0.00    -0.237 OA
ATOM     97  O   UNL     1      16.507   0.656  17.017  1.00  0.00    -0.744 OA
ENDBRANCH  93  94
ENDBRANCH  61  86
ENDBRANCH  35  36
ENDBRANCH  27  30
ENDBRANCH  25  26
ENDBRANCH   1  25
TORSDOF 19
