REMARK SMILES Cc1ncccc1C(=O)Nc1cnccc1C(=O)NCCCNC(=O)c1ccc(-c2c3nc(c(-c4c(F)cc(S(=O)(=O)[O-])cc4F)c4ccc([nH]4)c(-c4c(F)cc(S(=O)(=O)[O-])cc4F)c4nc(c(-c5c(F)cc(S(=O)(=O)[O-])cc5F)c5ccc2[nH]5)C=C4)C=C3)cc1
REMARK SMILES IDX 21 1 20 2 19 3 17 4 18 5 16 7 11 8 12 9 13 10 15 11 14 12
REMARK SMILES IDX 10 13 8 14 9 15 7 17 1 18 2 19 3 20 4 21 6 22 5 23 22 24
REMARK SMILES IDX 23 25 24 26 25 28 26 29 27 30 91 31 28 32 90 33 29 34 30 35
REMARK SMILES IDX 31 36 84 37 32 38 89 39 83 40 85 41 33 42 88 43 82 44 81 45
REMARK SMILES IDX 34 47 68 48 47 49 67 50 48 51 51 52 66 53 86 54 49 55 50 56
REMARK SMILES IDX 65 58 87 59 52 60 35 61 36 62 45 63 37 64 38 65 44 66 46 67
REMARK SMILES IDX 39 68 40 69 41 70 42 71 43 72 69 73 70 74 79 75 71 76 72 77
REMARK SMILES IDX 78 78 80 79 73 80 74 81 75 82 76 83 77 84 53 85 54 86 63 87
REMARK SMILES IDX 55 88 56 89 62 90 64 91 57 92 58 93 59 94 60 95 61 96
REMARK H PARENT 19 6 10 16 23 27 85 46 51 57
REMARK Flexibility Score: inf
ROOT
ATOM      1  C   UNL     1       1.464  -4.202   2.608  1.00  0.00     0.042 C 
ENDROOT
BRANCH   1   2
ATOM      2  C   UNL     1       1.551  -3.087   1.589  1.00  0.00     0.118 C 
BRANCH   2   3
ATOM      3  N   UNL     1       1.346  -1.756   2.125  1.00  0.00    -0.352 N 
ATOM      4  C   UNL     1       1.973  -0.573   1.818  1.00  0.00     0.253 C 
ATOM      5  O   UNL     1       1.598   0.452   2.387  1.00  0.00    -0.269 OA
ATOM      6  H   UNL     1       0.649  -1.689   2.817  1.00  0.00     0.163 HD
BRANCH   4   7
ATOM      7  C   UNL     1       3.159  -0.501   0.925  1.00  0.00     0.066 A 
ATOM      8  C   UNL     1       3.373  -1.179  -0.279  1.00  0.00     0.072 A 
ATOM      9  C   UNL     1       4.680  -1.147  -0.781  1.00  0.00     0.137 A 
ATOM     10  N   UNL     1       5.695  -0.406  -0.284  1.00  0.00    -0.263 NA
ATOM     11  C   UNL     1       4.194   0.307   1.439  1.00  0.00     0.036 A 
ATOM     12  C   UNL     1       5.418   0.336   0.799  1.00  0.00     0.112 A 
BRANCH   8  13
ATOM     13  N   UNL     1       2.454  -1.878  -1.087  1.00  0.00    -0.320 N 
ATOM     14  C   UNL     1       1.106  -1.781  -1.315  1.00  0.00     0.257 C 
ATOM     15  O   UNL     1       0.574  -2.688  -1.959  1.00  0.00    -0.269 OA
ATOM     16  H   UNL     1       2.877  -2.600  -1.606  1.00  0.00     0.170 HD
BRANCH  14  17
ATOM     17  C   UNL     1       0.258  -0.656  -0.885  1.00  0.00     0.061 A 
ATOM     18  C   UNL     1       1.789   1.197  -1.759  1.00  0.00     0.067 C 
ATOM     19  C   UNL     1       0.546   0.694  -1.091  1.00  0.00     0.050 A 
ATOM     20  N   UNL     1      -0.321   1.679  -0.722  1.00  0.00    -0.261 NA
ATOM     21  C   UNL     1      -1.509   1.316  -0.187  1.00  0.00     0.111 A 
ATOM     22  C   UNL     1      -1.008  -0.993  -0.377  1.00  0.00     0.017 A 
ATOM     23  C   UNL     1      -1.903   0.004  -0.015  1.00  0.00     0.021 A 
ENDBRANCH  14  17
ENDBRANCH   8  13
ENDBRANCH   4   7
ENDBRANCH   2   3
ENDBRANCH   1   2
BRANCH   1  24
ATOM     24  C   UNL     1       0.081  -4.439   3.194  1.00  0.00     0.118 C 
BRANCH  24  25
ATOM     25  N   UNL     1      -0.954  -4.749   2.215  1.00  0.00    -0.352 N 
ATOM     26  C   UNL     1      -1.754  -5.862   2.045  1.00  0.00     0.251 C 
ATOM     27  H   UNL     1      -1.111  -4.036   1.554  1.00  0.00     0.163 HD
ATOM     28  O   UNL     1      -2.525  -5.906   1.101  1.00  0.00    -0.269 OA
BRANCH  26  29
ATOM     29  C   UNL     1      -1.649  -7.014   2.973  1.00  0.00     0.039 A 
ATOM     30  C   UNL     1      -1.731  -8.312   2.459  1.00  0.00     0.014 A 
ATOM     31  C   UNL     1      -1.451  -6.827   4.339  1.00  0.00     0.014 A 
ATOM     32  C   UNL     1      -1.511  -9.406   3.301  1.00  0.00     0.010 A 
ATOM     33  C   UNL     1      -1.086  -7.901   5.139  1.00  0.00     0.010 A 
ATOM     34  C   UNL     1      -1.131  -9.208   4.638  1.00  0.00    -0.014 A 
BRANCH  34  35
ATOM     35  C   UNL     1      -0.808 -10.347   5.537  1.00  0.00     0.031 A 
ATOM     36  C   UNL     1      -1.583 -10.541   6.817  1.00  0.00     0.074 A 
ATOM     37  C   UNL     1       0.222 -11.164   5.237  1.00  0.00     0.049 A 
ATOM     38  N   UNL     1      -1.424 -11.444   7.750  1.00  0.00    -0.248 NA
ATOM     39  C   UNL     1      -2.644  -9.563   7.112  1.00  0.00     0.031 C 
ATOM     40  C   UNL     1       1.106 -11.025   4.076  1.00  0.00     0.029 A 
ATOM     41  N   UNL     1       0.701 -12.276   5.882  1.00  0.00    -0.354 N 
ATOM     42  C   UNL     1      -2.342 -11.124   8.745  1.00  0.00     0.074 A 
ATOM     43  C   UNL     1      -2.995  -9.901   8.342  1.00  0.00     0.031 C 
ATOM     44  C   UNL     1       1.981 -12.043   4.062  1.00  0.00     0.029 A 
ATOM     45  C   UNL     1       1.743 -12.889   5.226  1.00  0.00     0.049 A 
ATOM     46  H   UNL     1       0.334 -12.604   6.734  1.00  0.00     0.167 HD
ATOM     47  C   UNL     1      -2.649 -11.810   9.872  1.00  0.00     0.037 A 
ATOM     48  C   UNL     1       2.417 -14.018   5.522  1.00  0.00     0.037 A 
ATOM     49  C   UNL     1      -2.033 -13.057  10.237  1.00  0.00     0.049 A 
ATOM     50  C   UNL     1       2.014 -14.803   6.740  1.00  0.00     0.074 A 
ATOM     51  C   UNL     1      -2.309 -13.873  11.319  1.00  0.00     0.029 A 
ATOM     52  N   UNL     1      -1.023 -13.676   9.514  1.00  0.00    -0.354 N 
ATOM     53  N   UNL     1       1.095 -14.523   7.634  1.00  0.00    -0.248 NA
ATOM     54  C   UNL     1       2.725 -16.065   6.981  1.00  0.00     0.031 C 
ATOM     55  C   UNL     1      -1.445 -14.973  11.265  1.00  0.00     0.029 A 
ATOM     56  C   UNL     1      -0.662 -14.863  10.127  1.00  0.00     0.049 A 
ATOM     57  H   UNL     1      -0.622 -13.323   8.687  1.00  0.00     0.167 HD
ATOM     58  C   UNL     1       1.096 -15.589   8.526  1.00  0.00     0.074 A 
ATOM     59  C   UNL     1       2.100 -16.523   8.057  1.00  0.00     0.031 C 
ATOM     60  C   UNL     1       0.334 -15.780   9.632  1.00  0.00     0.037 A 
BRANCH  47  61
ATOM     61  C   UNL     1      -3.712 -11.231  10.767  1.00  0.00     0.058 A 
ATOM     62  C   UNL     1      -5.058 -11.170  10.368  1.00  0.00     0.135 A 
ATOM     63  C   UNL     1      -3.385 -10.725  12.035  1.00  0.00     0.135 A 
ATOM     64  F   UNL     1      -5.425 -11.622   9.158  1.00  0.00    -0.206 F 
ATOM     65  C   UNL     1      -6.032 -10.588  11.171  1.00  0.00     0.059 A 
ATOM     66  C   UNL     1      -4.350 -10.167  12.870  1.00  0.00     0.059 A 
ATOM     67  F   UNL     1      -2.116 -10.757  12.470  1.00  0.00    -0.206 F 
ATOM     68  C   UNL     1      -5.667 -10.083  12.419  1.00  0.00     0.060 A 
BRANCH  68  69
ATOM     69  S   UNL     1      -6.939  -9.315  13.445  1.00  0.00     0.124 S 
ATOM     70  O   UNL     1      -7.119  -8.033  12.771  1.00  0.00    -0.237 OA
ATOM     71  O   UNL     1      -8.049 -10.255  13.323  1.00  0.00    -0.237 OA
ATOM     72  O   UNL     1      -6.318  -9.251  14.764  1.00  0.00    -0.744 OA
ENDBRANCH  68  69
ENDBRANCH  47  61
BRANCH  48  73
ATOM     73  C   UNL     1       3.483 -14.508   4.607  1.00  0.00     0.058 A 
ATOM     74  C   UNL     1       3.270 -15.631   3.794  1.00  0.00     0.135 A 
ATOM     75  C   UNL     1       4.717 -13.850   4.500  1.00  0.00     0.135 A 
ATOM     76  F   UNL     1       2.106 -16.296   3.861  1.00  0.00    -0.206 F 
ATOM     77  C   UNL     1       4.246 -16.095   2.918  1.00  0.00     0.059 A 
ATOM     78  C   UNL     1       5.701 -14.281   3.615  1.00  0.00     0.059 A 
ATOM     79  F   UNL     1       4.963 -12.758   5.240  1.00  0.00    -0.206 F 
ATOM     80  C   UNL     1       5.459 -15.410   2.833  1.00  0.00     0.060 A 
BRANCH  80  81
ATOM     81  S   UNL     1       6.697 -15.984   1.649  1.00  0.00     0.124 S 
ATOM     82  O   UNL     1       7.199 -17.184   2.308  1.00  0.00    -0.237 OA
ATOM     83  O   UNL     1       5.896 -16.202   0.448  1.00  0.00    -0.237 OA
ATOM     84  O   UNL     1       7.632 -14.865   1.574  1.00  0.00    -0.744 OA
ENDBRANCH  80  81
ENDBRANCH  48  73
BRANCH  60  85
ATOM     85  C   UNL     1       0.527 -17.066  10.383  1.00  0.00     0.058 A 
ATOM     86  C   UNL     1       1.666 -17.298  11.169  1.00  0.00     0.135 A 
ATOM     87  C   UNL     1      -0.461 -18.063  10.344  1.00  0.00     0.135 A 
ATOM     88  F   UNL     1       2.640 -16.377  11.236  1.00  0.00    -0.206 F 
ATOM     89  C   UNL     1       1.833 -18.489  11.867  1.00  0.00     0.059 A 
ATOM     90  C   UNL     1      -0.327 -19.250  11.055  1.00  0.00     0.059 A 
ATOM     91  F   UNL     1      -1.576 -17.882   9.618  1.00  0.00    -0.206 F 
ATOM     92  C   UNL     1       0.832 -19.461  11.801  1.00  0.00     0.060 A 
BRANCH  92  93
ATOM     93  S   UNL     1       1.052 -20.997  12.722  1.00  0.00     0.124 S 
ATOM     94  O   UNL     1       2.012 -21.706  11.883  1.00  0.00    -0.237 OA
ATOM     95  O   UNL     1       1.561 -20.523  14.006  1.00  0.00    -0.237 OA
ATOM     96  O   UNL     1      -0.292 -21.565  12.759  1.00  0.00    -0.744 OA
ENDBRANCH  92  93
ENDBRANCH  60  85
ENDBRANCH  34  35
ENDBRANCH  26  29
ENDBRANCH  24  25
ENDBRANCH   1  24
TORSDOF 15
