REMARK SMILES Cc1cc(OCC(C)(C)C(=O)NCCCNC(=O)c2ccc(-c3c4nc(c(-c5c(F)cc(S(=O)(=O)[O-])cc5F)c5ccc([nH]5)c(-c5c(F)cc(S(=O)(=O)[O-])cc5F)c5nc(c(-c6c(F)cc(S(=O)(=O)[O-])cc6F)c6ccc3[nH]6)C=C5)C=C4)cc2)cc(C(C)C)c1
REMARK SMILES IDX 13 1 12 2 10 3 11 4 7 6 8 7 9 8 6 9 5 10 4 11 1 12 2 13 3 14
REMARK SMILES IDX 90 15 86 16 85 17 87 18 88 19 89 20 14 21 15 22 16 23 17 24
REMARK SMILES IDX 18 26 19 27 20 28 84 29 21 30 83 31 22 32 23 33 24 34 77 35
REMARK SMILES IDX 25 36 82 37 76 38 78 39 26 40 81 41 75 42 74 43 27 45 61 46
REMARK SMILES IDX 40 47 60 48 41 49 44 50 59 51 79 52 42 53 43 54 58 56 80 57
REMARK SMILES IDX 45 58 28 59 29 60 38 61 30 62 31 63 37 64 39 65 32 66 33 67
REMARK SMILES IDX 34 68 35 69 36 70 62 71 63 72 72 73 64 74 65 75 71 76 73 77
REMARK SMILES IDX 66 78 67 79 68 80 69 81 70 82 46 83 47 84 56 85 48 86 49 87
REMARK SMILES IDX 55 88 57 89 50 90 51 91 52 92 53 93 54 94
REMARK H PARENT 12 5 16 25 78 44 44 55
REMARK Flexibility Score: inf
ROOT
ATOM      1  C   UNL     1      -4.323  -0.603   4.214  1.00  0.00     0.117 C 
ENDROOT
BRANCH   1   2
ATOM      2  N   UNL     1      -3.658  -1.789   3.668  1.00  0.00    -0.355 N 
ATOM      3  C   UNL     1      -3.381  -2.247   2.414  1.00  0.00     0.229 C 
ATOM      4  O   UNL     1      -2.798  -3.336   2.363  1.00  0.00    -0.274 OA
ATOM      5  H   UNL     1      -3.336  -2.398   4.371  1.00  0.00     0.163 HD
BRANCH   3   6
ATOM      6  C   UNL     1      -3.856  -1.554   1.120  1.00  0.00     0.077 C 
ATOM      7  C   UNL     1      -3.706  -0.040   1.163  1.00  0.00     0.025 C 
ATOM      8  C   UNL     1      -5.354  -1.858   0.917  1.00  0.00     0.025 C 
BRANCH   6   9
ATOM      9  C   UNL     1      -3.113  -2.169  -0.127  1.00  0.00     0.245 C 
BRANCH   9  10
ATOM     10  O   UNL     1      -1.679  -2.164  -0.155  1.00  0.00    -0.492 OA
BRANCH  10  11
ATOM     11  C   UNL     1      -0.973  -1.025  -0.405  1.00  0.00     0.119 A 
ATOM     12  C   UNL     1       2.624  -0.016   0.279  1.00  0.00     0.044 C 
ATOM     13  C   UNL     1       1.169   0.069  -0.066  1.00  0.00    -0.047 A 
ATOM     14  C   UNL     1       0.380  -1.086  -0.070  1.00  0.00     0.049 A 
ATOM     15  C   UNL     1       0.560   1.300  -0.333  1.00  0.00     0.007 A 
ATOM     16  C   UNL     1      -0.790   1.371  -0.713  1.00  0.00    -0.042 A 
ATOM     17  C   UNL     1      -1.499   0.173  -0.873  1.00  0.00     0.050 A 
BRANCH  16  18
ATOM     18  C   UNL     1      -1.476   2.731  -0.744  1.00  0.00     0.013 C 
ATOM     19  C   UNL     1      -2.582   2.875  -1.792  1.00  0.00     0.012 C 
ATOM     20  C   UNL     1      -2.040   3.062   0.648  1.00  0.00     0.012 C 
ENDBRANCH  16  18
ENDBRANCH  10  11
ENDBRANCH   9  10
ENDBRANCH   6   9
ENDBRANCH   3   6
ENDBRANCH   1   2
BRANCH   1  21
ATOM     21  C   UNL     1      -5.829  -0.802   4.363  1.00  0.00     0.042 C 
BRANCH  21  22
ATOM     22  C   UNL     1      -6.222  -1.109   5.801  1.00  0.00     0.118 C 
BRANCH  22  23
ATOM     23  N   UNL     1      -6.816   0.010   6.519  1.00  0.00    -0.352 N 
ATOM     24  C   UNL     1      -7.384  -0.010   7.793  1.00  0.00     0.251 C 
ATOM     25  H   UNL     1      -6.818   0.877   6.053  1.00  0.00     0.163 HD
ATOM     26  O   UNL     1      -8.053   0.885   8.230  1.00  0.00    -0.269 OA
BRANCH  24  27
ATOM     27  C   UNL     1      -7.005  -1.170   8.639  1.00  0.00     0.039 A 
ATOM     28  C   UNL     1      -6.077  -0.928   9.658  1.00  0.00     0.014 A 
ATOM     29  C   UNL     1      -7.264  -2.457   8.182  1.00  0.00     0.014 A 
ATOM     30  C   UNL     1      -5.257  -1.966  10.088  1.00  0.00     0.010 A 
ATOM     31  C   UNL     1      -6.369  -3.451   8.519  1.00  0.00     0.010 A 
ATOM     32  C   UNL     1      -5.343  -3.199   9.444  1.00  0.00    -0.014 A 
BRANCH  32  33
ATOM     33  C   UNL     1      -4.381  -4.278   9.638  1.00  0.00     0.031 A 
ATOM     34  C   UNL     1      -4.802  -5.496  10.368  1.00  0.00     0.074 A 
ATOM     35  C   UNL     1      -3.147  -4.210   9.092  1.00  0.00     0.049 A 
ATOM     36  N   UNL     1      -3.999  -6.320  10.950  1.00  0.00    -0.248 NA
ATOM     37  C   UNL     1      -6.205  -5.856  10.535  1.00  0.00     0.031 C 
ATOM     38  C   UNL     1      -2.194  -5.305   8.935  1.00  0.00     0.029 A 
ATOM     39  N   UNL     1      -2.425  -3.068   8.735  1.00  0.00    -0.354 N 
ATOM     40  C   UNL     1      -4.726  -7.437  11.305  1.00  0.00     0.074 A 
ATOM     41  C   UNL     1      -6.102  -7.071  11.076  1.00  0.00     0.031 C 
ATOM     42  C   UNL     1      -0.965  -4.793   8.766  1.00  0.00     0.029 A 
ATOM     43  C   UNL     1      -1.062  -3.356   8.954  1.00  0.00     0.049 A 
ATOM     44  H   UNL     1      -2.797  -2.222   8.395  1.00  0.00     0.167 HD
ATOM     45  C   UNL     1      -4.070  -8.593  11.619  1.00  0.00     0.037 A 
ATOM     46  C   UNL     1      -0.328  -2.641   9.857  1.00  0.00     0.037 A 
ATOM     47  C   UNL     1      -2.622  -8.382  11.631  1.00  0.00     0.049 A 
ATOM     48  C   UNL     1       0.182  -3.465  11.019  1.00  0.00     0.074 A 
ATOM     49  C   UNL     1      -1.638  -8.617  10.684  1.00  0.00     0.029 A 
ATOM     50  N   UNL     1      -2.050  -7.553  12.592  1.00  0.00    -0.354 N 
ATOM     51  N   UNL     1      -0.256  -4.657  11.319  1.00  0.00    -0.248 NA
ATOM     52  C   UNL     1       1.211  -3.004  11.949  1.00  0.00     0.031 C 
ATOM     53  C   UNL     1      -0.492  -7.865  11.043  1.00  0.00     0.029 A 
ATOM     54  C   UNL     1      -0.769  -7.189  12.218  1.00  0.00     0.049 A 
ATOM     55  H   UNL     1      -2.495  -7.267  13.423  1.00  0.00     0.167 HD
ATOM     56  C   UNL     1       0.356  -5.101  12.463  1.00  0.00     0.074 A 
ATOM     57  C   UNL     1       1.291  -4.043  12.799  1.00  0.00     0.031 C 
ATOM     58  C   UNL     1       0.030  -6.295  13.044  1.00  0.00     0.037 A 
BRANCH  45  59
ATOM     59  C   UNL     1      -4.731  -9.961  11.579  1.00  0.00     0.058 A 
ATOM     60  C   UNL     1      -3.996 -11.107  11.203  1.00  0.00     0.135 A 
ATOM     61  C   UNL     1      -6.098 -10.203  11.820  1.00  0.00     0.135 A 
ATOM     62  F   UNL     1      -2.664 -11.073  11.062  1.00  0.00    -0.206 F 
ATOM     63  C   UNL     1      -4.590 -12.346  10.947  1.00  0.00     0.059 A 
ATOM     64  C   UNL     1      -6.728 -11.415  11.513  1.00  0.00     0.059 A 
ATOM     65  F   UNL     1      -6.871  -9.290  12.421  1.00  0.00    -0.206 F 
ATOM     66  C   UNL     1      -5.965 -12.480  11.061  1.00  0.00     0.060 A 
BRANCH  66  67
ATOM     67  S   UNL     1      -6.726 -14.058  10.636  1.00  0.00     0.124 S 
ATOM     68  O   UNL     1      -6.221 -14.292   9.286  1.00  0.00    -0.237 OA
ATOM     69  O   UNL     1      -6.199 -14.938  11.673  1.00  0.00    -0.237 OA
ATOM     70  O   UNL     1      -8.158 -13.778  10.719  1.00  0.00    -0.744 OA
ENDBRANCH  66  67
ENDBRANCH  45  59
BRANCH  46  71
ATOM     71  C   UNL     1      -0.715  -1.204   9.909  1.00  0.00     0.058 A 
ATOM     72  C   UNL     1      -0.455  -0.420   8.767  1.00  0.00     0.135 A 
ATOM     73  C   UNL     1      -1.691  -0.743  10.803  1.00  0.00     0.135 A 
ATOM     74  F   UNL     1       0.486  -0.805   7.890  1.00  0.00    -0.206 F 
ATOM     75  C   UNL     1      -1.249   0.671   8.433  1.00  0.00     0.059 A 
ATOM     76  C   UNL     1      -2.494   0.358  10.491  1.00  0.00     0.059 A 
ATOM     77  F   UNL     1      -1.977  -1.442  11.911  1.00  0.00    -0.206 F 
ATOM     78  C   UNL     1      -2.312   1.006   9.268  1.00  0.00     0.060 A 
BRANCH  78  79
ATOM     79  S   UNL     1      -3.545   2.169   8.633  1.00  0.00     0.124 S 
ATOM     80  O   UNL     1      -2.747   3.370   8.414  1.00  0.00    -0.237 OA
ATOM     81  O   UNL     1      -4.005   1.488   7.422  1.00  0.00    -0.237 OA
ATOM     82  O   UNL     1      -4.518   2.247   9.716  1.00  0.00    -0.744 OA
ENDBRANCH  78  79
ENDBRANCH  46  71
BRANCH  58  83
ATOM     83  C   UNL     1       0.505  -6.779  14.395  1.00  0.00     0.058 A 
ATOM     84  C   UNL     1       0.804  -5.933  15.476  1.00  0.00     0.135 A 
ATOM     85  C   UNL     1       0.546  -8.167  14.680  1.00  0.00     0.135 A 
ATOM     86  F   UNL     1       0.691  -4.601  15.371  1.00  0.00    -0.206 F 
ATOM     87  C   UNL     1       1.188  -6.422  16.727  1.00  0.00     0.059 A 
ATOM     88  C   UNL     1       0.871  -8.675  15.935  1.00  0.00     0.059 A 
ATOM     89  F   UNL     1       0.257  -9.082  13.742  1.00  0.00    -0.206 F 
ATOM     90  C   UNL     1       1.221  -7.795  16.947  1.00  0.00     0.060 A 
BRANCH  90  91
ATOM     91  S   UNL     1       1.665  -8.438  18.572  1.00  0.00     0.124 S 
ATOM     92  O   UNL     1       3.106  -8.617  18.430  1.00  0.00    -0.237 OA
ATOM     93  O   UNL     1       1.249  -7.366  19.472  1.00  0.00    -0.237 OA
ATOM     94  O   UNL     1       0.881  -9.665  18.669  1.00  0.00    -0.744 OA
ENDBRANCH  90  91
ENDBRANCH  58  83
ENDBRANCH  32  33
ENDBRANCH  24  27
ENDBRANCH  22  23
ENDBRANCH  21  22
ENDBRANCH   1  21
TORSDOF 17
