REMARK SMILES CC(C)C[C@H](NC(=O)CNC(=O)[C@@H]([NH3+])C(C)C)C(=O)NCCCNC(=O)c1ccc(-c2c3nc(c(-c4c(F)cc(S(=O)(=O)[O-])cc4F)c4ccc([nH]4)c(-c4c(F)cc(S(=O)(=O)[O-])cc4F)c4nc(c(-c5c(F)cc(S(=O)(=O)[O-])cc5F)c5ccc2[nH]5)C=C4)C=C3)cc1
REMARK SMILES IDX 21 1 20 2 18 3 19 4 5 6 4 7 2 8 1 9 3 10 6 11 7 12 8 14 9 15
REMARK SMILES IDX 10 16 11 17 12 19 13 20 14 21 15 25 16 26 17 27 22 28 23 29
REMARK SMILES IDX 24 30 25 31 26 33 27 34 28 35 92 36 29 37 91 38 30 39 31 40
REMARK SMILES IDX 32 41 85 42 33 43 90 44 84 45 86 46 34 47 89 48 83 49 82 50
REMARK SMILES IDX 35 52 69 53 48 54 68 55 49 56 52 57 67 58 87 59 50 60 51 61
REMARK SMILES IDX 66 63 88 64 53 65 36 66 37 67 46 68 38 69 39 70 45 71 47 72
REMARK SMILES IDX 40 73 41 74 42 75 43 76 44 77 70 78 71 79 80 80 72 81 73 82
REMARK SMILES IDX 79 83 81 84 74 85 75 86 76 87 77 88 78 89 54 90 55 91 64 92
REMARK SMILES IDX 56 93 57 94 63 95 65 96 58 97 59 98 60 99 61 100 62 101
REMARK H PARENT 20 5 6 13 10 18 14 22 14 23 14 24 24 32 86 51 52 62
REMARK Flexibility Score: inf
ROOT
ATOM      1  C   UNL     1      -3.215  -3.015  -2.390  1.00  0.00     0.117 C 
ENDROOT
BRANCH   1   2
ATOM      2  N   UNL     1      -3.699  -1.726  -1.938  1.00  0.00    -0.354 N 
ATOM      3  C   UNL     1      -3.013  -0.585  -1.666  1.00  0.00     0.242 C 
ATOM      4  O   UNL     1      -3.652   0.412  -1.320  1.00  0.00    -0.273 OA
ATOM      5  H   UNL     1      -4.673  -1.668  -1.808  1.00  0.00     0.163 HD
BRANCH   3   6
ATOM      6  C   UNL     1      -1.494  -0.521  -1.876  1.00  0.00     0.171 C 
BRANCH   6   7
ATOM      7  C   UNL     1      -1.087  -0.678  -3.352  1.00  0.00     0.038 C 
BRANCH   7   8
ATOM      8  C   UNL     1      -1.905   0.148  -4.373  1.00  0.00    -0.015 C 
ATOM      9  C   UNL     1      -1.926   1.651  -4.102  1.00  0.00     0.007 C 
ATOM     10  C   UNL     1      -1.352  -0.104  -5.778  1.00  0.00     0.007 C 
ENDBRANCH   7   8
ENDBRANCH   6   7
BRANCH   6  11
ATOM     11  N   UNL     1      -0.806  -1.446  -0.972  1.00  0.00    -0.343 N 
ATOM     12  C   UNL     1       0.215  -1.208  -0.099  1.00  0.00     0.240 C 
ATOM     13  H   UNL     1      -1.128  -2.376  -0.997  1.00  0.00     0.164 HD
ATOM     14  O   UNL     1       0.439  -2.071   0.754  1.00  0.00    -0.273 OA
BRANCH  12  15
ATOM     15  C   UNL     1       0.973   0.128  -0.076  1.00  0.00     0.216 C 
BRANCH  15  16
ATOM     16  N   UNL     1       1.334   0.596  -1.402  1.00  0.00    -0.342 N 
ATOM     17  C   UNL     1       1.048   1.755  -2.050  1.00  0.00     0.278 C 
ATOM     18  H   UNL     1       1.881  -0.036  -1.922  1.00  0.00     0.164 HD
ATOM     19  O   UNL     1       1.409   1.830  -3.231  1.00  0.00    -0.268 OA
BRANCH  17  20
ATOM     20  C   UNL     1       0.388   2.979  -1.363  1.00  0.00     0.273 C 
BRANCH  20  21
ATOM     21  N   UNL     1      -0.807   2.617  -0.577  1.00  0.00    -0.347 N 
ATOM     22  H   UNL     1      -0.539   1.989   0.181  1.00  0.00     0.345 HD
ATOM     23  H   UNL     1      -1.483   2.151  -1.182  1.00  0.00     0.345 HD
ATOM     24  H   UNL     1      -1.226   3.461  -0.187  1.00  0.00     0.345 HD
ENDBRANCH  20  21
BRANCH  20  25
ATOM     25  C   UNL     1       1.434   3.748  -0.529  1.00  0.00     0.051 C 
ATOM     26  C   UNL     1       2.583   4.228  -1.427  1.00  0.00     0.014 C 
ATOM     27  C   UNL     1       0.819   4.964   0.174  1.00  0.00     0.014 C 
ENDBRANCH  20  25
ENDBRANCH  17  20
ENDBRANCH  15  16
ENDBRANCH  12  15
ENDBRANCH   6  11
ENDBRANCH   3   6
ENDBRANCH   1   2
BRANCH   1  28
ATOM     28  C   UNL     1      -3.590  -4.114  -1.415  1.00  0.00     0.042 C 
BRANCH  28  29
ATOM     29  C   UNL     1      -5.092  -4.299  -1.293  1.00  0.00     0.118 C 
BRANCH  29  30
ATOM     30  N   UNL     1      -5.707  -4.605  -2.578  1.00  0.00    -0.352 N 
ATOM     31  C   UNL     1      -6.284  -5.770  -3.015  1.00  0.00     0.251 C 
ATOM     32  H   UNL     1      -5.709  -3.866  -3.228  1.00  0.00     0.163 HD
ATOM     33  O   UNL     1      -6.485  -5.934  -4.213  1.00  0.00    -0.269 OA
BRANCH  31  34
ATOM     34  C   UNL     1      -6.656  -6.811  -2.037  1.00  0.00     0.039 A 
ATOM     35  C   UNL     1      -6.506  -8.156  -2.380  1.00  0.00     0.014 A 
ATOM     36  C   UNL     1      -7.181  -6.457  -0.792  1.00  0.00     0.014 A 
ATOM     37  C   UNL     1      -6.857  -9.140  -1.457  1.00  0.00     0.010 A 
ATOM     38  C   UNL     1      -7.410  -7.431   0.168  1.00  0.00     0.010 A 
ATOM     39  C   UNL     1      -7.295  -8.784  -0.169  1.00  0.00    -0.014 A 
BRANCH  39  40
ATOM     40  C   UNL     1      -7.710  -9.813   0.812  1.00  0.00     0.031 A 
ATOM     41  C   UNL     1      -9.131  -9.837   1.312  1.00  0.00     0.074 A 
ATOM     42  C   UNL     1      -6.804 -10.697   1.274  1.00  0.00     0.049 A 
ATOM     43  N   UNL     1      -9.690 -10.647   2.174  1.00  0.00    -0.248 NA
ATOM     44  C   UNL     1     -10.038  -8.791   0.806  1.00  0.00     0.031 C 
ATOM     45  C   UNL     1      -5.384 -10.722   0.913  1.00  0.00     0.029 A 
ATOM     46  N   UNL     1      -6.944 -11.746   2.143  1.00  0.00    -0.354 N 
ATOM     47  C   UNL     1     -10.998 -10.199   2.321  1.00  0.00     0.074 A 
ATOM     48  C   UNL     1     -11.131  -9.003   1.522  1.00  0.00     0.031 C 
ATOM     49  C   UNL     1      -4.795 -11.763   1.524  1.00  0.00     0.029 A 
ATOM     50  C   UNL     1      -5.785 -12.457   2.340  1.00  0.00     0.049 A 
ATOM     51  H   UNL     1      -7.795 -11.970   2.585  1.00  0.00     0.167 HD
ATOM     52  C   UNL     1     -12.010 -10.755   3.028  1.00  0.00     0.037 A 
ATOM     53  C   UNL     1      -5.554 -13.554   3.086  1.00  0.00     0.037 A 
ATOM     54  C   UNL     1     -11.876 -11.968   3.789  1.00  0.00     0.049 A 
ATOM     55  C   UNL     1      -6.703 -14.179   3.829  1.00  0.00     0.074 A 
ATOM     56  C   UNL     1     -12.845 -12.652   4.500  1.00  0.00     0.029 A 
ATOM     57  N   UNL     1     -10.695 -12.684   3.930  1.00  0.00    -0.354 N 
ATOM     58  N   UNL     1      -7.951 -13.780   3.906  1.00  0.00    -0.248 NA
ATOM     59  C   UNL     1      -6.418 -15.414   4.569  1.00  0.00     0.031 C 
ATOM     60  C   UNL     1     -12.242 -13.761   5.103  1.00  0.00     0.029 A 
ATOM     61  C   UNL     1     -10.909 -13.797   4.723  1.00  0.00     0.049 A 
ATOM     62  H   UNL     1      -9.832 -12.436   3.526  1.00  0.00     0.167 HD
ATOM     63  C   UNL     1      -8.609 -14.735   4.673  1.00  0.00     0.074 A 
ATOM     64  C   UNL     1      -7.621 -15.736   5.024  1.00  0.00     0.031 C 
ATOM     65  C   UNL     1      -9.912 -14.785   5.050  1.00  0.00     0.037 A 
BRANCH  52  66
ATOM     66  C   UNL     1     -13.346 -10.062   2.995  1.00  0.00     0.058 A 
ATOM     67  C   UNL     1     -14.125 -10.014   1.827  1.00  0.00     0.135 A 
ATOM     68  C   UNL     1     -13.863  -9.452   4.149  1.00  0.00     0.135 A 
ATOM     69  F   UNL     1     -13.672 -10.563   0.688  1.00  0.00    -0.206 F 
ATOM     70  C   UNL     1     -15.351  -9.359   1.794  1.00  0.00     0.059 A 
ATOM     71  C   UNL     1     -15.103  -8.818   4.147  1.00  0.00     0.059 A 
ATOM     72  F   UNL     1     -13.161  -9.463   5.292  1.00  0.00    -0.206 F 
ATOM     73  C   UNL     1     -15.832  -8.763   2.961  1.00  0.00     0.060 A 
BRANCH  73  74
ATOM     74  S   UNL     1     -17.428  -7.922   2.903  1.00  0.00     0.124 S 
ATOM     75  O   UNL     1     -17.094  -6.716   2.152  1.00  0.00    -0.237 OA
ATOM     76  O   UNL     1     -18.267  -8.891   2.205  1.00  0.00    -0.237 OA
ATOM     77  O   UNL     1     -17.754  -7.714   4.311  1.00  0.00    -0.744 OA
ENDBRANCH  73  74
ENDBRANCH  52  66
BRANCH  53  78
ATOM     78  C   UNL     1      -4.195 -14.157   3.121  1.00  0.00     0.058 A 
ATOM     79  C   UNL     1      -3.934 -15.387   2.498  1.00  0.00     0.135 A 
ATOM     80  C   UNL     1      -3.127 -13.510   3.762  1.00  0.00     0.135 A 
ATOM     81  F   UNL     1      -4.922 -16.044   1.871  1.00  0.00    -0.206 F 
ATOM     82  C   UNL     1      -2.671 -15.968   2.532  1.00  0.00     0.059 A 
ATOM     83  C   UNL     1      -1.848 -14.058   3.785  1.00  0.00     0.059 A 
ATOM     84  F   UNL     1      -3.318 -12.320   4.352  1.00  0.00    -0.206 F 
ATOM     85  C   UNL     1      -1.633 -15.294   3.178  1.00  0.00     0.060 A 
BRANCH  85  86
ATOM     86  S   UNL     1       0.013 -16.038   3.181  1.00  0.00     0.124 S 
ATOM     87  O   UNL     1      -0.162 -17.132   4.129  1.00  0.00    -0.237 OA
ATOM     88  O   UNL     1       0.177 -16.424   1.783  1.00  0.00    -0.237 OA
ATOM     89  O   UNL     1       0.873 -14.946   3.627  1.00  0.00    -0.744 OA
ENDBRANCH  85  86
ENDBRANCH  53  78
BRANCH  65  90
ATOM     90  C   UNL     1     -10.351 -15.988   5.838  1.00  0.00     0.058 A 
ATOM     91  C   UNL     1      -9.954 -16.191   7.169  1.00  0.00     0.135 A 
ATOM     92  C   UNL     1     -11.200 -16.942   5.253  1.00  0.00     0.135 A 
ATOM     93  F   UNL     1      -9.143 -15.309   7.774  1.00  0.00    -0.206 F 
ATOM     94  C   UNL     1     -10.346 -17.322   7.877  1.00  0.00     0.059 A 
ATOM     95  C   UNL     1     -11.630 -18.063   5.953  1.00  0.00     0.059 A 
ATOM     96  F   UNL     1     -11.623 -16.786   3.988  1.00  0.00    -0.206 F 
ATOM     97  C   UNL     1     -11.179 -18.255   7.258  1.00  0.00     0.060 A 
BRANCH  97  98
ATOM     98  S   UNL     1     -11.676 -19.723   8.184  1.00  0.00     0.124 S 
ATOM     99  O   UNL     1     -10.455 -20.520   8.144  1.00  0.00    -0.237 OA
ATOM    100  O   UNL     1     -12.029 -19.167   9.486  1.00  0.00    -0.237 OA
ATOM    101  O   UNL     1     -12.796 -20.249   7.409  1.00  0.00    -0.744 OA
ENDBRANCH  97  98
ENDBRANCH  65  90
ENDBRANCH  39  40
ENDBRANCH  31  34
ENDBRANCH  29  30
ENDBRANCH  28  29
ENDBRANCH   1  28
TORSDOF 21
