REMARK SMILES CCc1ncc(CC(=O)NCCCNC(=O)c2ccc(-c3c4nc(c(-c5c(F)cc(S(=O)(=O)[O-])cc5F)c5ccc([nH]5)c(-c5c(F)cc(S(=O)(=O)[O-])cc5F)c5nc(c(-c6c(F)cc(S(=O)(=O)[O-])cc6F)c6ccc3[nH]6)C=C5)C=C4)cc2)c(=O)[nH]1
REMARK SMILES IDX 12 1 11 2 10 3 8 4 9 5 7 7 6 8 3 9 4 10 85 11 5 12 83 13
REMARK SMILES IDX 84 15 2 16 1 17 13 18 14 19 15 20 16 22 17 23 18 24 82 25
REMARK SMILES IDX 19 26 81 27 20 28 21 29 22 30 75 31 23 32 80 33 74 34 76 35
REMARK SMILES IDX 24 36 79 37 73 38 72 39 25 41 59 42 38 43 58 44 39 45 42 46
REMARK SMILES IDX 57 47 77 48 40 49 41 50 56 52 78 53 43 54 26 55 27 56 36 57
REMARK SMILES IDX 28 58 29 59 35 60 37 61 30 62 31 63 32 64 33 65 34 66 60 67
REMARK SMILES IDX 61 68 70 69 62 70 63 71 69 72 71 73 64 74 65 75 66 76 67 77
REMARK SMILES IDX 68 78 44 79 45 80 54 81 46 82 47 83 53 84 55 85 48 86 49 87
REMARK SMILES IDX 50 88 51 89 52 90
REMARK H PARENT 10 6 85 14 14 21 76 40 42 51
REMARK Flexibility Score: inf
ROOT
ATOM      1  C   UNL     1      -1.222  -0.149   6.002  1.00  0.00     0.042 C 
ENDROOT
BRANCH   1   2
ATOM      2  C   UNL     1      -0.101   0.284   6.943  1.00  0.00     0.117 C 
BRANCH   2   3
ATOM      3  N   UNL     1       0.629  -0.854   7.472  1.00  0.00    -0.356 N 
ATOM      4  C   UNL     1       1.841  -1.352   7.093  1.00  0.00     0.224 C 
ATOM      5  O   UNL     1       2.244  -2.389   7.624  1.00  0.00    -0.275 OA
ATOM      6  H   UNL     1       0.187  -1.334   8.209  1.00  0.00     0.163 HD
BRANCH   4   7
ATOM      7  C   UNL     1       2.678  -0.623   6.054  1.00  0.00     0.143 C 
BRANCH   7   8
ATOM      8  C   UNL     1       2.139  -0.808   4.671  1.00  0.00     0.045 A 
ATOM      9  C   UNL     1       1.055  -1.099   2.170  1.00  0.00     0.108 A 
ATOM     10  N   UNL     1       1.456  -2.159   2.797  1.00  0.00    -0.243 NA
ATOM     11  N   UNL     1       1.147   0.154   2.704  1.00  0.00    -0.310 N 
ATOM     12  C   UNL     1       1.978  -1.986   4.052  1.00  0.00     0.123 A 
ATOM     13  C   UNL     1       1.733   0.392   3.909  1.00  0.00     0.254 A 
ATOM     14  H   UNL     1       0.775   0.913   2.199  1.00  0.00     0.171 HD
ATOM     15  O   UNL     1       1.898   1.530   4.335  1.00  0.00    -0.269 OA
BRANCH   9  16
ATOM     16  C   UNL     1       0.420  -1.212   0.801  1.00  0.00     0.072 C 
ATOM     17  C   UNL     1       0.962  -0.202  -0.196  1.00  0.00     0.012 C 
ENDBRANCH   9  16
ENDBRANCH   7   8
ENDBRANCH   4   7
ENDBRANCH   2   3
ENDBRANCH   1   2
BRANCH   1  18
ATOM     18  C   UNL     1      -2.369  -0.867   6.709  1.00  0.00     0.118 C 
BRANCH  18  19
ATOM     19  N   UNL     1      -3.072  -0.001   7.648  1.00  0.00    -0.352 N 
ATOM     20  C   UNL     1      -4.398   0.351   7.697  1.00  0.00     0.251 C 
ATOM     21  H   UNL     1      -2.510   0.392   8.354  1.00  0.00     0.163 HD
ATOM     22  O   UNL     1      -4.758   1.253   8.451  1.00  0.00    -0.269 OA
BRANCH  20  23
ATOM     23  C   UNL     1      -5.385  -0.337   6.840  1.00  0.00     0.039 A 
ATOM     24  C   UNL     1      -6.366   0.418   6.190  1.00  0.00     0.014 A 
ATOM     25  C   UNL     1      -5.355  -1.725   6.689  1.00  0.00     0.014 A 
ATOM     26  C   UNL     1      -7.274  -0.212   5.336  1.00  0.00     0.010 A 
ATOM     27  C   UNL     1      -6.209  -2.340   5.779  1.00  0.00     0.010 A 
ATOM     28  C   UNL     1      -7.180  -1.592   5.097  1.00  0.00    -0.014 A 
BRANCH  28  29
ATOM     29  C   UNL     1      -8.084  -2.285   4.143  1.00  0.00     0.031 A 
ATOM     30  C   UNL     1      -9.002  -3.370   4.636  1.00  0.00     0.074 A 
ATOM     31  C   UNL     1      -8.004  -2.013   2.826  1.00  0.00     0.049 A 
ATOM     32  N   UNL     1      -9.760  -4.186   3.951  1.00  0.00    -0.248 NA
ATOM     33  C   UNL     1      -9.043  -3.587   6.090  1.00  0.00     0.031 C 
ATOM     34  C   UNL     1      -7.123  -1.013   2.222  1.00  0.00     0.029 A 
ATOM     35  N   UNL     1      -8.653  -2.575   1.755  1.00  0.00    -0.354 N 
ATOM     36  C   UNL     1     -10.345  -5.032   4.887  1.00  0.00     0.074 A 
ATOM     37  C   UNL     1      -9.816  -4.659   6.181  1.00  0.00     0.031 C 
ATOM     38  C   UNL     1      -7.286  -1.031   0.890  1.00  0.00     0.029 A 
ATOM     39  C   UNL     1      -8.246  -2.074   0.541  1.00  0.00     0.049 A 
ATOM     40  H   UNL     1      -9.344  -3.271   1.847  1.00  0.00     0.167 HD
ATOM     41  C   UNL     1     -11.251  -6.019   4.686  1.00  0.00     0.037 A 
ATOM     42  C   UNL     1      -8.586  -2.429  -0.715  1.00  0.00     0.037 A 
ATOM     43  C   UNL     1     -11.783  -6.368   3.394  1.00  0.00     0.049 A 
ATOM     44  C   UNL     1      -9.593  -3.526  -0.921  1.00  0.00     0.074 A 
ATOM     45  C   UNL     1     -12.756  -7.302   3.089  1.00  0.00     0.029 A 
ATOM     46  N   UNL     1     -11.375  -5.808   2.191  1.00  0.00    -0.354 N 
ATOM     47  N   UNL     1     -10.192  -4.270  -0.022  1.00  0.00    -0.248 NA
ATOM     48  C   UNL     1      -9.977  -3.830  -2.306  1.00  0.00     0.031 C 
ATOM     49  C   UNL     1     -12.894  -7.351   1.698  1.00  0.00     0.029 A 
ATOM     50  C   UNL     1     -12.056  -6.398   1.139  1.00  0.00     0.049 A 
ATOM     51  H   UNL     1     -10.701  -5.097   2.099  1.00  0.00     0.167 HD
ATOM     52  C   UNL     1     -11.047  -5.109  -0.729  1.00  0.00     0.074 A 
ATOM     53  C   UNL     1     -10.886  -4.781  -2.131  1.00  0.00     0.031 C 
ATOM     54  C   UNL     1     -11.894  -6.056  -0.255  1.00  0.00     0.037 A 
BRANCH  41  55
ATOM     55  C   UNL     1     -11.701  -6.803   5.890  1.00  0.00     0.058 A 
ATOM     56  C   UNL     1     -12.464  -6.221   6.917  1.00  0.00     0.135 A 
ATOM     57  C   UNL     1     -11.359  -8.159   6.023  1.00  0.00     0.135 A 
ATOM     58  F   UNL     1     -12.814  -4.927   6.849  1.00  0.00    -0.206 F 
ATOM     59  C   UNL     1     -12.820  -6.937   8.055  1.00  0.00     0.059 A 
ATOM     60  C   UNL     1     -11.736  -8.905   7.136  1.00  0.00     0.059 A 
ATOM     61  F   UNL     1     -10.638  -8.772   5.071  1.00  0.00    -0.206 F 
ATOM     62  C   UNL     1     -12.444  -8.277   8.159  1.00  0.00     0.060 A 
BRANCH  62  63
ATOM     63  S   UNL     1     -12.877  -9.180   9.661  1.00  0.00     0.124 S 
ATOM     64  O   UNL     1     -11.950  -8.597  10.626  1.00  0.00    -0.237 OA
ATOM     65  O   UNL     1     -14.282  -8.830   9.842  1.00  0.00    -0.237 OA
ATOM     66  O   UNL     1     -12.620 -10.572   9.307  1.00  0.00    -0.744 OA
ENDBRANCH  62  63
ENDBRANCH  41  55
BRANCH  42  67
ATOM     67  C   UNL     1      -7.965  -1.717  -1.863  1.00  0.00     0.058 A 
ATOM     68  C   UNL     1      -8.697  -0.796  -2.626  1.00  0.00     0.135 A 
ATOM     69  C   UNL     1      -6.605  -1.886  -2.170  1.00  0.00     0.135 A 
ATOM     70  F   UNL     1     -10.002  -0.607  -2.376  1.00  0.00    -0.206 F 
ATOM     71  C   UNL     1      -8.103  -0.060  -3.645  1.00  0.00     0.059 A 
ATOM     72  C   UNL     1      -5.983  -1.144  -3.169  1.00  0.00     0.059 A 
ATOM     73  F   UNL     1      -5.856  -2.742  -1.458  1.00  0.00    -0.206 F 
ATOM     74  C   UNL     1      -6.741  -0.231  -3.900  1.00  0.00     0.060 A 
BRANCH  74  75
ATOM     75  S   UNL     1      -5.957   0.809  -5.152  1.00  0.00     0.124 S 
ATOM     76  O   UNL     1      -6.508   0.257  -6.383  1.00  0.00    -0.237 OA
ATOM     77  O   UNL     1      -6.428   2.140  -4.780  1.00  0.00    -0.237 OA
ATOM     78  O   UNL     1      -4.531   0.577  -4.936  1.00  0.00    -0.744 OA
ENDBRANCH  74  75
ENDBRANCH  42  67
BRANCH  54  79
ATOM     79  C   UNL     1     -12.758  -6.789  -1.245  1.00  0.00     0.058 A 
ATOM     80  C   UNL     1     -12.239  -7.771  -2.101  1.00  0.00     0.135 A 
ATOM     81  C   UNL     1     -14.146  -6.572  -1.262  1.00  0.00     0.135 A 
ATOM     82  F   UNL     1     -10.918  -8.011  -2.133  1.00  0.00    -0.206 F 
ATOM     83  C   UNL     1     -13.065  -8.513  -2.940  1.00  0.00     0.059 A 
ATOM     84  C   UNL     1     -14.994  -7.321  -2.071  1.00  0.00     0.059 A 
ATOM     85  F   UNL     1     -14.695  -5.648  -0.458  1.00  0.00    -0.206 F 
ATOM     86  C   UNL     1     -14.444  -8.288  -2.909  1.00  0.00     0.060 A 
BRANCH  86  87
ATOM     87  S   UNL     1     -15.511  -9.310  -3.947  1.00  0.00     0.124 S 
ATOM     88  O   UNL     1     -15.211  -8.793  -5.278  1.00  0.00    -0.237 OA
ATOM     89  O   UNL     1     -15.024 -10.656  -3.664  1.00  0.00    -0.237 OA
ATOM     90  O   UNL     1     -16.852  -9.018  -3.448  1.00  0.00    -0.744 OA
ENDBRANCH  86  87
ENDBRANCH  54  79
ENDBRANCH  28  29
ENDBRANCH  20  23
ENDBRANCH  18  19
ENDBRANCH   1  18
TORSDOF 15
