REMARK SMILES O=C(NCCCNC(=O)c1cccc(Oc2ncc([N+](=O)[O-])cc2Br)c1)c1ccc(-c2c3nc(c(-c4c(F)cc(S(=O)(=O)[O-])cc4F)c4ccc([nH]4)c(-c4c(F)cc(S(=O)(=O)[O-])cc4F)c4nc(c(-c5c(F)cc(S(=O)(=O)[O-])cc5F)c5ccc2[nH]5)C=C4)C=C3)cc1
REMARK SMILES IDX 5 1 4 2 3 3 1 4 2 5 27 7 28 8 92 9 29 10 91 11 30 12 31 13
REMARK SMILES IDX 32 14 85 15 33 16 90 17 84 18 86 19 34 20 89 21 83 22 82 23
REMARK SMILES IDX 35 25 69 26 48 27 68 28 49 29 52 30 67 31 87 32 50 33 51 34
REMARK SMILES IDX 66 36 88 37 53 38 36 39 37 40 46 41 38 42 39 43 45 44 47 45
REMARK SMILES IDX 40 46 41 47 42 48 43 49 44 50 70 51 71 52 80 53 72 54 73 55
REMARK SMILES IDX 79 56 81 57 74 58 75 59 76 60 77 61 78 62 54 63 55 64 64 65
REMARK SMILES IDX 56 66 57 67 63 68 65 69 58 70 59 71 60 72 61 73 62 74 6 75
REMARK SMILES IDX 7 76 8 77 9 79 10 80 11 81 26 82 12 83 14 84 13 85 15 86
REMARK SMILES IDX 16 87 17 88 24 89 18 90 23 91 25 92 19 93 20 94 21 95 22 96
REMARK H PARENT 3 6 86 24 52 35 7 78
REMARK Flexibility Score: inf
ROOT
ATOM      1  C   UNL     1       4.929  -1.568   1.767  1.00  0.00     0.042 C 
ENDROOT
BRANCH   1   2
ATOM      2  C   UNL     1       4.538  -1.216   0.340  1.00  0.00     0.118 C 
BRANCH   2   3
ATOM      3  N   UNL     1       3.097  -1.083   0.167  1.00  0.00    -0.352 N 
ATOM      4  O   UNL     1       1.110  -0.043   0.011  1.00  0.00    -0.269 OA
ATOM      5  C   UNL     1       2.333   0.035  -0.070  1.00  0.00     0.251 C 
ATOM      6  H   UNL     1       2.592  -1.925   0.229  1.00  0.00     0.163 HD
BRANCH   5   7
ATOM      7  C   UNL     1       2.977   1.327  -0.394  1.00  0.00     0.039 A 
ATOM      8  C   UNL     1       4.070   1.382  -1.261  1.00  0.00     0.014 A 
ATOM      9  C   UNL     1       2.471   2.505   0.163  1.00  0.00     0.014 A 
ATOM     10  C   UNL     1       4.763   2.574  -1.427  1.00  0.00     0.010 A 
ATOM     11  C   UNL     1       3.107   3.724  -0.093  1.00  0.00     0.010 A 
ATOM     12  C   UNL     1       4.281   3.764  -0.861  1.00  0.00    -0.014 A 
BRANCH  12  13
ATOM     13  C   UNL     1       4.991   5.039  -1.135  1.00  0.00     0.031 A 
ATOM     14  C   UNL     1       5.623   5.832  -0.024  1.00  0.00     0.074 A 
ATOM     15  C   UNL     1       5.082   5.466  -2.410  1.00  0.00     0.049 A 
ATOM     16  N   UNL     1       6.271   6.967  -0.090  1.00  0.00    -0.248 NA
ATOM     17  C   UNL     1       5.509   5.287   1.337  1.00  0.00     0.031 C 
ATOM     18  C   UNL     1       4.501   4.783  -3.570  1.00  0.00     0.029 A 
ATOM     19  N   UNL     1       5.705   6.561  -2.950  1.00  0.00    -0.354 N 
ATOM     20  C   UNL     1       6.620   7.286   1.217  1.00  0.00     0.074 A 
ATOM     21  C   UNL     1       6.093   6.234   2.060  1.00  0.00     0.031 C 
ATOM     22  C   UNL     1       4.832   5.449  -4.685  1.00  0.00     0.029 A 
ATOM     23  C   UNL     1       5.587   6.640  -4.317  1.00  0.00     0.049 A 
ATOM     24  H   UNL     1       6.191   7.226  -2.411  1.00  0.00     0.167 HD
ATOM     25  C   UNL     1       7.320   8.355   1.669  1.00  0.00     0.037 A 
ATOM     26  C   UNL     1       6.018   7.577  -5.182  1.00  0.00     0.037 A 
ATOM     27  C   UNL     1       7.855   9.388   0.818  1.00  0.00     0.049 A 
ATOM     28  C   UNL     1       6.777   8.759  -4.655  1.00  0.00     0.074 A 
ATOM     29  C   UNL     1       8.604  10.497   1.175  1.00  0.00     0.029 A 
ATOM     30  N   UNL     1       7.697   9.443  -0.560  1.00  0.00    -0.354 N 
ATOM     31  N   UNL     1       7.113   9.034  -3.417  1.00  0.00    -0.248 NA
ATOM     32  C   UNL     1       7.212   9.759  -5.637  1.00  0.00     0.031 C 
ATOM     33  C   UNL     1       8.864  11.242   0.019  1.00  0.00     0.029 A 
ATOM     34  C   UNL     1       8.318  10.575  -1.065  1.00  0.00     0.049 A 
ATOM     35  H   UNL     1       7.215   8.775  -1.100  1.00  0.00     0.167 HD
ATOM     36  C   UNL     1       7.811  10.233  -3.472  1.00  0.00     0.074 A 
ATOM     37  C   UNL     1       7.863  10.622  -4.868  1.00  0.00     0.031 C 
ATOM     38  C   UNL     1       8.359  10.947  -2.458  1.00  0.00     0.037 A 
BRANCH  25  39
ATOM     39  C   UNL     1       7.529   8.476   3.154  1.00  0.00     0.058 A 
ATOM     40  C   UNL     1       8.413   7.635   3.849  1.00  0.00     0.135 A 
ATOM     41  C   UNL     1       6.859   9.468   3.889  1.00  0.00     0.135 A 
ATOM     42  F   UNL     1       9.070   6.660   3.200  1.00  0.00    -0.206 F 
ATOM     43  C   UNL     1       8.600   7.752   5.223  1.00  0.00     0.059 A 
ATOM     44  C   UNL     1       7.050   9.619   5.260  1.00  0.00     0.059 A 
ATOM     45  F   UNL     1       6.004  10.302   3.275  1.00  0.00    -0.206 F 
ATOM     46  C   UNL     1       7.910   8.745   5.921  1.00  0.00     0.060 A 
BRANCH  46  47
ATOM     47  S   UNL     1       8.153   8.876   7.705  1.00  0.00     0.124 S 
ATOM     48  O   UNL     1       7.393   7.726   8.187  1.00  0.00    -0.237 OA
ATOM     49  O   UNL     1       9.604   8.773   7.833  1.00  0.00    -0.237 OA
ATOM     50  O   UNL     1       7.590  10.182   8.031  1.00  0.00    -0.744 OA
ENDBRANCH  46  47
ENDBRANCH  25  39
BRANCH  26  51
ATOM     51  C   UNL     1       5.727   7.424  -6.630  1.00  0.00     0.058 A 
ATOM     52  C   UNL     1       6.742   7.106  -7.543  1.00  0.00     0.135 A 
ATOM     53  C   UNL     1       4.416   7.540  -7.121  1.00  0.00     0.135 A 
ATOM     54  F   UNL     1       8.010   6.988  -7.121  1.00  0.00    -0.206 F 
ATOM     55  C   UNL     1       6.470   6.910  -8.893  1.00  0.00     0.059 A 
ATOM     56  C   UNL     1       4.116   7.324  -8.461  1.00  0.00     0.059 A 
ATOM     57  F   UNL     1       3.407   7.824  -6.282  1.00  0.00    -0.206 F 
ATOM     58  C   UNL     1       5.152   7.016  -9.341  1.00  0.00     0.060 A 
BRANCH  58  59
ATOM     59  S   UNL     1       4.798   6.689 -11.081  1.00  0.00     0.124 S 
ATOM     60  O   UNL     1       5.289   7.908 -11.713  1.00  0.00    -0.237 OA
ATOM     61  O   UNL     1       5.576   5.480 -11.332  1.00  0.00    -0.237 OA
ATOM     62  O   UNL     1       3.349   6.507 -11.100  1.00  0.00    -0.744 OA
ENDBRANCH  58  59
ENDBRANCH  26  51
BRANCH  38  63
ATOM     63  C   UNL     1       9.086  12.209  -2.825  1.00  0.00     0.058 A 
ATOM     64  C   UNL     1       8.397  13.371  -3.203  1.00  0.00     0.135 A 
ATOM     65  C   UNL     1      10.487  12.267  -2.755  1.00  0.00     0.135 A 
ATOM     66  F   UNL     1       7.058  13.364  -3.294  1.00  0.00    -0.206 F 
ATOM     67  C   UNL     1       9.074  14.544  -3.520  1.00  0.00     0.059 A 
ATOM     68  C   UNL     1      11.183  13.436  -3.045  1.00  0.00     0.059 A 
ATOM     69  F   UNL     1      11.191  11.184  -2.391  1.00  0.00    -0.206 F 
ATOM     70  C   UNL     1      10.467  14.567  -3.437  1.00  0.00     0.060 A 
BRANCH  70  71
ATOM     71  S   UNL     1      11.334  16.104  -3.817  1.00  0.00     0.124 S 
ATOM     72  O   UNL     1      11.256  16.133  -5.274  1.00  0.00    -0.237 OA
ATOM     73  O   UNL     1      10.527  17.100  -3.119  1.00  0.00    -0.237 OA
ATOM     74  O   UNL     1      12.668  15.887  -3.264  1.00  0.00    -0.744 OA
ENDBRANCH  70  71
ENDBRANCH  38  63
ENDBRANCH  12  13
ENDBRANCH   5   7
ENDBRANCH   2   3
ENDBRANCH   1   2
BRANCH   1  75
ATOM     75  C   UNL     1       4.467  -2.946   2.208  1.00  0.00     0.118 C 
BRANCH  75  76
ATOM     76  N   UNL     1       5.067  -4.011   1.411  1.00  0.00    -0.352 N 
ATOM     77  C   UNL     1       5.933  -5.005   1.789  1.00  0.00     0.251 C 
ATOM     78  H   UNL     1       4.813  -4.016   0.460  1.00  0.00     0.163 HD
ATOM     79  O   UNL     1       6.506  -5.683   0.938  1.00  0.00    -0.269 OA
BRANCH  77  80
ATOM     80  C   UNL     1       6.154  -5.289   3.220  1.00  0.00     0.043 A 
ATOM     81  C   UNL     1       7.442  -5.535   3.693  1.00  0.00     0.014 A 
ATOM     82  C   UNL     1       5.058  -5.376   4.083  1.00  0.00     0.061 A 
ATOM     83  C   UNL     1       7.635  -5.804   5.048  1.00  0.00     0.005 A 
ATOM     84  C   UNL     1       5.246  -5.617   5.443  1.00  0.00     0.130 A 
ATOM     85  C   UNL     1       6.540  -5.834   5.921  1.00  0.00     0.047 A 
BRANCH  84  86
ATOM     86  O   UNL     1       4.224  -5.701   6.369  1.00  0.00    -0.438 OA
BRANCH  86  87
ATOM     87  C   UNL     1       2.992  -5.213   5.981  1.00  0.00     0.234 A 
ATOM     88  N   UNL     1       2.770  -3.897   6.235  1.00  0.00    -0.214 NA
ATOM     89  C   UNL     1       2.058  -6.044   5.360  1.00  0.00     0.087 A 
ATOM     90  C   UNL     1       1.582  -3.379   5.831  1.00  0.00     0.200 A 
ATOM     91  C   UNL     1       0.860  -5.484   4.919  1.00  0.00     0.108 A 
ATOM     92  Br  UNL     1       2.378  -7.882   5.043  1.00  0.00    -0.045 Br
ATOM     93  C   UNL     1       0.624  -4.128   5.164  1.00  0.00     0.288 A 
BRANCH  93  94
ATOM     94  N   UNL     1      -0.616  -3.501   4.730  1.00  0.00     0.064 N 
ATOM     95  O   UNL     1      -0.901  -2.398   5.213  1.00  0.00    -0.258 OA
ATOM     96  O   UNL     1      -1.311  -4.122   3.915  1.00  0.00    -0.258 OA
ENDBRANCH  93  94
ENDBRANCH  86  87
ENDBRANCH  84  86
ENDBRANCH  77  80
ENDBRANCH  75  76
ENDBRANCH   1  75
TORSDOF 16
