REMARK SMILES C[C@@H](C(=O)NCCCNC(=O)c1ccc(-c2c3nc(c(-c4c(F)cc(S(=O)(=O)[O-])cc4F)c4ccc([nH]4)c(-c4c(F)cc(S(=O)(=O)[O-])cc4F)c4nc(c(-c5c(F)cc(S(=O)(=O)[O-])cc5F)c5ccc2[nH]5)C=C4)C=C3)cc1)c1ccc(C[C@@H]2CCC[C@@H]2O)cc1Br
REMARK SMILES IDX 6 1 5 2 3 3 4 4 2 6 1 7 78 8 79 9 90 10 80 11 89 12 91 13
REMARK SMILES IDX 81 14 82 15 83 16 84 17 87 18 85 19 86 20 88 21 7 23 8 24
REMARK SMILES IDX 9 25 10 26 11 28 12 29 13 30 77 31 14 32 76 33 15 34 16 35
REMARK SMILES IDX 17 36 70 37 18 38 75 39 69 40 71 41 19 42 74 43 68 44 67 45
REMARK SMILES IDX 20 47 54 48 33 49 53 50 34 51 37 52 52 53 72 54 35 55 36 56
REMARK SMILES IDX 51 58 73 59 38 60 21 61 22 62 31 63 23 64 24 65 30 66 32 67
REMARK SMILES IDX 25 68 26 69 27 70 28 71 29 72 55 73 56 74 65 75 57 76 58 77
REMARK SMILES IDX 64 78 66 79 59 80 60 81 61 82 62 83 63 84 39 85 40 86 49 87
REMARK SMILES IDX 41 88 42 89 48 90 50 91 43 92 44 93 45 94 46 95 47 96
REMARK H PARENT 5 5 88 22 9 27 71 46 37 57
REMARK Flexibility Score: inf
ROOT
ATOM      1  C   UNL     1     -10.588   4.976   9.871  1.00  0.00     0.117 C 
ENDROOT
BRANCH   1   2
ATOM      2  N   UNL     1     -10.243   3.635   9.432  1.00  0.00    -0.356 N 
ATOM      3  C   UNL     1     -10.184   3.105   8.174  1.00  0.00     0.227 C 
ATOM      4  O   UNL     1     -10.243   1.875   8.112  1.00  0.00    -0.274 OA
ATOM      5  H   UNL     1     -10.017   3.008  10.156  1.00  0.00     0.163 HD
BRANCH   3   6
ATOM      6  C   UNL     1     -10.088   4.032   6.941  1.00  0.00     0.106 C 
ATOM      7  C   UNL     1     -11.530   4.465   6.634  1.00  0.00     0.023 C 
BRANCH   6   8
ATOM      8  C   UNL     1      -9.343   3.454   5.718  1.00  0.00    -0.022 A 
ATOM      9  C   UNL     1      -8.559   2.289   5.855  1.00  0.00     0.006 A 
ATOM     10  C   UNL     1      -9.341   4.044   4.436  1.00  0.00     0.022 A 
ATOM     11  C   UNL     1      -7.917   1.678   4.773  1.00  0.00     0.004 A 
ATOM     12  C   UNL     1      -8.688   3.432   3.351  1.00  0.00     0.019 A 
ATOM     13  Br  UNL     1     -10.085   5.751   4.035  1.00  0.00    -0.051 Br
ATOM     14  C   UNL     1      -7.964   2.247   3.507  1.00  0.00    -0.047 A 
BRANCH  14  15
ATOM     15  C   UNL     1      -7.212   1.648   2.349  1.00  0.00     0.041 C 
BRANCH  15  16
ATOM     16  C   UNL     1      -5.686   1.888   2.279  1.00  0.00     0.022 C 
ATOM     17  C   UNL     1      -4.878   1.236   3.408  1.00  0.00     0.007 C 
ATOM     18  C   UNL     1      -5.197   3.340   2.318  1.00  0.00     0.117 C 
ATOM     19  C   UNL     1      -4.572   2.339   4.426  1.00  0.00     0.003 C 
ATOM     20  C   UNL     1      -5.024   3.654   3.797  1.00  0.00     0.032 C 
BRANCH  18  21
ATOM     21  O   UNL     1      -6.054   4.259   1.677  1.00  0.00    -0.393 OA
ATOM     22  H   UNL     1      -6.923   4.246   2.107  1.00  0.00     0.210 HD
ENDBRANCH  18  21
ENDBRANCH  15  16
ENDBRANCH  14  15
ENDBRANCH   6   8
ENDBRANCH   3   6
ENDBRANCH   1   2
BRANCH   1  23
ATOM     23  C   UNL     1     -12.055   5.075  10.296  1.00  0.00     0.042 C 
BRANCH  23  24
ATOM     24  C   UNL     1     -12.457   4.130  11.427  1.00  0.00     0.118 C 
BRANCH  24  25
ATOM     25  N   UNL     1     -11.862   4.500  12.702  1.00  0.00    -0.352 N 
ATOM     26  C   UNL     1     -12.466   4.933  13.858  1.00  0.00     0.251 C 
ATOM     27  H   UNL     1     -10.881   4.430  12.743  1.00  0.00     0.163 HD
ATOM     28  O   UNL     1     -11.776   5.393  14.766  1.00  0.00    -0.269 OA
BRANCH  26  29
ATOM     29  C   UNL     1     -13.939   4.878  14.004  1.00  0.00     0.039 A 
ATOM     30  C   UNL     1     -14.608   5.988  14.525  1.00  0.00     0.014 A 
ATOM     31  C   UNL     1     -14.660   3.738  13.636  1.00  0.00     0.014 A 
ATOM     32  C   UNL     1     -16.004   5.989  14.596  1.00  0.00     0.010 A 
ATOM     33  C   UNL     1     -16.055   3.767  13.642  1.00  0.00     0.010 A 
ATOM     34  C   UNL     1     -16.742   4.898  14.108  1.00  0.00    -0.014 A 
BRANCH  34  35
ATOM     35  C   UNL     1     -18.228   4.939  14.029  1.00  0.00     0.031 A 
ATOM     36  C   UNL     1     -19.062   3.962  14.813  1.00  0.00     0.074 A 
ATOM     37  C   UNL     1     -18.819   5.801  13.174  1.00  0.00     0.049 A 
ATOM     38  N   UNL     1     -20.357   3.777  14.784  1.00  0.00    -0.248 NA
ATOM     39  C   UNL     1     -18.349   3.062  15.734  1.00  0.00     0.031 C 
ATOM     40  C   UNL     1     -18.116   6.768  12.327  1.00  0.00     0.029 A 
ATOM     41  N   UNL     1     -20.142   5.988  12.855  1.00  0.00    -0.354 N 
ATOM     42  C   UNL     1     -20.611   2.727  15.658  1.00  0.00     0.074 A 
ATOM     43  C   UNL     1     -19.334   2.297  16.185  1.00  0.00     0.031 C 
ATOM     44  C   UNL     1     -19.011   7.445  11.591  1.00  0.00     0.029 A 
ATOM     45  C   UNL     1     -20.347   6.930  11.872  1.00  0.00     0.049 A 
ATOM     46  H   UNL     1     -20.876   5.495  13.289  1.00  0.00     0.167 HD
ATOM     47  C   UNL     1     -21.804   2.180  15.995  1.00  0.00     0.037 A 
ATOM     48  C   UNL     1     -21.476   7.315  11.243  1.00  0.00     0.037 A 
ATOM     49  C   UNL     1     -23.073   2.639  15.493  1.00  0.00     0.049 A 
ATOM     50  C   UNL     1     -22.784   6.674  11.627  1.00  0.00     0.074 A 
ATOM     51  C   UNL     1     -24.340   2.216  15.855  1.00  0.00     0.029 A 
ATOM     52  N   UNL     1     -23.239   3.605  14.513  1.00  0.00    -0.354 N 
ATOM     53  N   UNL     1     -23.015   5.756  12.535  1.00  0.00    -0.248 NA
ATOM     54  C   UNL     1     -23.984   7.114  10.900  1.00  0.00     0.031 C 
ATOM     55  C   UNL     1     -25.269   2.877  15.047  1.00  0.00     0.029 A 
ATOM     56  C   UNL     1     -24.586   3.756  14.224  1.00  0.00     0.049 A 
ATOM     57  H   UNL     1     -22.509   4.109  14.086  1.00  0.00     0.167 HD
ATOM     58  C   UNL     1     -24.387   5.526  12.502  1.00  0.00     0.074 A 
ATOM     59  C   UNL     1     -24.937   6.415  11.501  1.00  0.00     0.031 C 
ATOM     60  C   UNL     1     -25.123   4.653  13.232  1.00  0.00     0.037 A 
BRANCH  47  61
ATOM     61  C   UNL     1     -21.815   1.017  16.950  1.00  0.00     0.058 A 
ATOM     62  C   UNL     1     -21.551   1.178  18.318  1.00  0.00     0.135 A 
ATOM     63  C   UNL     1     -22.199  -0.259  16.503  1.00  0.00     0.135 A 
ATOM     64  F   UNL     1     -21.167   2.372  18.797  1.00  0.00    -0.206 F 
ATOM     65  C   UNL     1     -21.663   0.115  19.209  1.00  0.00     0.059 A 
ATOM     66  C   UNL     1     -22.343  -1.329  17.380  1.00  0.00     0.059 A 
ATOM     67  F   UNL     1     -22.462  -0.468  15.203  1.00  0.00    -0.206 F 
ATOM     68  C   UNL     1     -22.069  -1.133  18.732  1.00  0.00     0.060 A 
BRANCH  68  69
ATOM     69  S   UNL     1     -22.259  -2.486  19.912  1.00  0.00     0.124 S 
ATOM     70  O   UNL     1     -20.870  -2.763  20.264  1.00  0.00    -0.237 OA
ATOM     71  O   UNL     1     -23.067  -1.871  20.961  1.00  0.00    -0.237 OA
ATOM     72  O   UNL     1     -22.928  -3.525  19.136  1.00  0.00    -0.744 OA
ENDBRANCH  68  69
ENDBRANCH  47  61
BRANCH  48  73
ATOM     73  C   UNL     1     -21.426   8.339  10.162  1.00  0.00     0.058 A 
ATOM     74  C   UNL     1     -22.033   9.594  10.322  1.00  0.00     0.135 A 
ATOM     75  C   UNL     1     -20.798   8.072   8.935  1.00  0.00     0.135 A 
ATOM     76  F   UNL     1     -22.652   9.897  11.474  1.00  0.00    -0.206 F 
ATOM     77  C   UNL     1     -22.052  10.532   9.295  1.00  0.00     0.059 A 
ATOM     78  C   UNL     1     -20.775   9.006   7.904  1.00  0.00     0.059 A 
ATOM     79  F   UNL     1     -20.187   6.894   8.733  1.00  0.00    -0.206 F 
ATOM     80  C   UNL     1     -21.422  10.227   8.087  1.00  0.00     0.060 A 
BRANCH  80  81
ATOM     81  S   UNL     1     -21.447  11.453   6.762  1.00  0.00     0.124 S 
ATOM     82  O   UNL     1     -22.835  11.380   6.322  1.00  0.00    -0.237 OA
ATOM     83  O   UNL     1     -21.063  12.673   7.466  1.00  0.00    -0.237 OA
ATOM     84  O   UNL     1     -20.457  10.945   5.818  1.00  0.00    -0.744 OA
ENDBRANCH  80  81
ENDBRANCH  48  73
BRANCH  60  85
ATOM     85  C   UNL     1     -26.608   4.622  12.998  1.00  0.00     0.058 A 
ATOM     86  C   UNL     1     -27.157   4.057  11.837  1.00  0.00     0.135 A 
ATOM     87  C   UNL     1     -27.494   5.085  13.985  1.00  0.00     0.135 A 
ATOM     88  F   UNL     1     -26.354   3.611  10.858  1.00  0.00    -0.206 F 
ATOM     89  C   UNL     1     -28.533   3.957  11.659  1.00  0.00     0.059 A 
ATOM     90  C   UNL     1     -28.873   4.968  13.841  1.00  0.00     0.059 A 
ATOM     91  F   UNL     1     -27.021   5.629  15.117  1.00  0.00    -0.206 F 
ATOM     92  C   UNL     1     -29.383   4.405  12.671  1.00  0.00     0.060 A 
BRANCH  92  93
ATOM     93  S   UNL     1     -31.164   4.203  12.455  1.00  0.00     0.124 S 
ATOM     94  O   UNL     1     -31.451   5.196  11.425  1.00  0.00    -0.237 OA
ATOM     95  O   UNL     1     -31.270   2.808  12.039  1.00  0.00    -0.237 OA
ATOM     96  O   UNL     1     -31.704   4.499  13.779  1.00  0.00    -0.744 OA
ENDBRANCH  92  93
ENDBRANCH  60  85
ENDBRANCH  34  35
ENDBRANCH  26  29
ENDBRANCH  24  25
ENDBRANCH  23  24
ENDBRANCH   1  23
TORSDOF 17
