REMARK SMILES COc1ccc(NC(=O)[C@@H]2[C@@H](C(=O)NCCCNC(=O)c3ccc(-c4c5nc(c(-c6c(F)cc(S(=O)(=O)[O-])cc6F)c6ccc([nH]6)c(-c6c(F)cc(S(=O)(=O)[O-])cc6F)c6nc(c(-c7c(F)cc(S(=O)(=O)[O-])cc7F)c7ccc4[nH]7)C=C6)C=C5)cc3)[C@@H]3CC[C@H]2C3=C(C)C)cc1
REMARK SMILES IDX 16 1 15 2 14 3 12 4 13 5 11 7 10 8 90 9 87 10 89 11 91 12
REMARK SMILES IDX 88 13 92 14 93 15 94 16 8 17 7 18 9 20 6 21 3 22 4 23 96 24
REMARK SMILES IDX 5 25 95 26 2 27 1 28 17 29 18 30 19 31 20 33 21 34 22 35
REMARK SMILES IDX 86 36 23 37 85 38 24 39 25 40 26 41 79 42 27 43 84 44 78 45
REMARK SMILES IDX 80 46 28 47 83 48 77 49 76 50 29 52 63 53 42 54 62 55 43 56
REMARK SMILES IDX 46 57 61 58 81 59 44 60 45 61 60 63 82 64 47 65 30 66 31 67
REMARK SMILES IDX 40 68 32 69 33 70 39 71 41 72 34 73 35 74 36 75 37 76 38 77
REMARK SMILES IDX 64 78 65 79 74 80 66 81 67 82 73 83 75 84 68 85 69 86 70 87
REMARK SMILES IDX 71 88 72 89 48 90 49 91 58 92 50 93 51 94 57 95 59 96 52 97
REMARK SMILES IDX 53 98 54 99 55 100 56 101
REMARK H PARENT 14 6 7 19 18 32 80 51 46 62
REMARK Flexibility Score: inf
ROOT
ATOM      1  C   UNL     1      -0.207  -2.133   7.454  1.00  0.00     0.042 C 
ENDROOT
BRANCH   1   2
ATOM      2  C   UNL     1      -1.080  -3.343   7.154  1.00  0.00     0.117 C 
BRANCH   2   3
ATOM      3  N   UNL     1      -1.658  -3.294   5.824  1.00  0.00    -0.356 N 
ATOM      4  C   UNL     1      -1.627  -4.223   4.827  1.00  0.00     0.224 C 
ATOM      5  O   UNL     1      -2.345  -4.023   3.848  1.00  0.00    -0.275 OA
ATOM      6  H   UNL     1      -2.146  -2.466   5.609  1.00  0.00     0.163 HD
BRANCH   4   7
ATOM      7  C   UNL     1      -0.782  -5.483   5.013  1.00  0.00     0.098 C 
ATOM      8  C   UNL     1      -0.536  -6.317   3.715  1.00  0.00     0.099 C 
ATOM      9  C   UNL     1      -1.209  -7.680   4.053  1.00  0.00     0.028 C 
ATOM     10  C   UNL     1      -1.648  -6.426   5.886  1.00  0.00     0.028 C 
ATOM     11  C   UNL     1      -0.571  -8.459   5.217  1.00  0.00     0.009 C 
ATOM     12  C   UNL     1      -2.403  -7.135   4.793  1.00  0.00    -0.064 C 
ATOM     13  C   UNL     1      -0.793  -7.564   6.439  1.00  0.00     0.009 C 
ATOM     14  C   UNL     1      -3.708  -7.154   4.479  1.00  0.00    -0.077 C 
ATOM     15  C   UNL     1      -4.759  -6.421   5.265  1.00  0.00     0.039 C 
ATOM     16  C   UNL     1      -4.198  -7.831   3.229  1.00  0.00     0.039 C 
BRANCH   8  17
ATOM     17  C   UNL     1       0.927  -6.450   3.295  1.00  0.00     0.228 C 
ATOM     18  N   UNL     1       1.674  -5.450   2.750  1.00  0.00    -0.326 N 
ATOM     19  H   UNL     1       2.619  -5.710   2.654  1.00  0.00     0.169 HD
ATOM     20  O   UNL     1       1.532  -7.521   3.433  1.00  0.00    -0.274 OA
BRANCH  18  21
ATOM     21  C   UNL     1       1.444  -4.144   2.289  1.00  0.00     0.041 A 
ATOM     22  C   UNL     1       1.191  -1.468   1.450  1.00  0.00     0.119 A 
ATOM     23  C   UNL     1       0.070  -2.207   1.791  1.00  0.00     0.048 A 
ATOM     24  C   UNL     1       2.448  -2.061   1.491  1.00  0.00     0.048 A 
ATOM     25  C   UNL     1       0.199  -3.549   2.159  1.00  0.00     0.030 A 
ATOM     26  C   UNL     1       2.570  -3.393   1.912  1.00  0.00     0.030 A 
BRANCH  22  27
ATOM     27  O   UNL     1       1.001  -0.149   1.155  1.00  0.00    -0.497 OA
ATOM     28  C   UNL     1       1.389   0.165  -0.179  1.00  0.00     0.278 C 
ENDBRANCH  22  27
ENDBRANCH  18  21
ENDBRANCH   8  17
ENDBRANCH   4   7
ENDBRANCH   2   3
ENDBRANCH   1   2
BRANCH   1  29
ATOM     29  C   UNL     1      -0.931  -0.792   7.381  1.00  0.00     0.118 C 
BRANCH  29  30
ATOM     30  N   UNL     1      -2.030  -0.679   8.330  1.00  0.00    -0.352 N 
ATOM     31  C   UNL     1      -2.239   0.223   9.345  1.00  0.00     0.251 C 
ATOM     32  H   UNL     1      -2.736  -1.358   8.229  1.00  0.00     0.163 HD
ATOM     33  O   UNL     1      -3.168   0.043  10.130  1.00  0.00    -0.269 OA
BRANCH  31  34
ATOM     34  C   UNL     1      -1.340   1.386   9.518  1.00  0.00     0.039 A 
ATOM     35  C   UNL     1      -0.919   1.725  10.808  1.00  0.00     0.014 A 
ATOM     36  C   UNL     1      -0.915   2.146   8.425  1.00  0.00     0.014 A 
ATOM     37  C   UNL     1      -0.008   2.769  10.989  1.00  0.00     0.010 A 
ATOM     38  C   UNL     1       0.054   3.131   8.599  1.00  0.00     0.010 A 
ATOM     39  C   UNL     1       0.524   3.449   9.882  1.00  0.00    -0.014 A 
BRANCH  39  40
ATOM     40  C   UNL     1       1.595   4.470  10.042  1.00  0.00     0.031 A 
ATOM     41  C   UNL     1       1.359   5.896   9.626  1.00  0.00     0.074 A 
ATOM     42  C   UNL     1       2.810   4.091  10.488  1.00  0.00     0.049 A 
ATOM     43  N   UNL     1       2.196   6.901   9.612  1.00  0.00    -0.248 NA
ATOM     44  C   UNL     1       0.012   6.231   9.137  1.00  0.00     0.031 C 
ATOM     45  C   UNL     1       3.180   2.728  10.876  1.00  0.00     0.029 A 
ATOM     46  N   UNL     1       3.964   4.812  10.675  1.00  0.00    -0.354 N 
ATOM     47  C   UNL     1       1.487   7.981   9.100  1.00  0.00     0.074 A 
ATOM     48  C   UNL     1       0.164   7.496   8.770  1.00  0.00     0.031 C 
ATOM     49  C   UNL     1       4.464   2.715  11.268  1.00  0.00     0.029 A 
ATOM     50  C   UNL     1       5.023   4.054  11.117  1.00  0.00     0.049 A 
ATOM     51  H   UNL     1       4.027   5.780  10.507  1.00  0.00     0.167 HD
ATOM     52  C   UNL     1       1.895   9.263   8.937  1.00  0.00     0.037 A 
ATOM     53  C   UNL     1       6.305   4.392  11.358  1.00  0.00     0.037 A 
ATOM     54  C   UNL     1       3.209   9.742   9.283  1.00  0.00     0.049 A 
ATOM     55  C   UNL     1       6.739   5.819  11.160  1.00  0.00     0.074 A 
ATOM     56  C   UNL     1       3.695  11.036   9.221  1.00  0.00     0.029 A 
ATOM     57  N   UNL     1       4.248   8.947   9.746  1.00  0.00    -0.354 N 
ATOM     58  N   UNL     1       6.032   6.844  10.747  1.00  0.00    -0.248 NA
ATOM     59  C   UNL     1       8.141   6.137  11.464  1.00  0.00     0.031 C 
ATOM     60  C   UNL     1       5.044  11.015   9.589  1.00  0.00     0.029 A 
ATOM     61  C   UNL     1       5.384   9.718   9.941  1.00  0.00     0.049 A 
ATOM     62  H   UNL     1       4.188   7.979   9.911  1.00  0.00     0.167 HD
ATOM     63  C   UNL     1       6.897   7.933  10.763  1.00  0.00     0.074 A 
ATOM     64  C   UNL     1       8.174   7.444  11.240  1.00  0.00     0.031 C 
ATOM     65  C   UNL     1       6.652   9.221  10.416  1.00  0.00     0.037 A 
BRANCH  52  66
ATOM     66  C   UNL     1       0.911  10.240   8.349  1.00  0.00     0.058 A 
ATOM     67  C   UNL     1      -0.229  10.659   9.054  1.00  0.00     0.135 A 
ATOM     68  C   UNL     1       1.130  10.792   7.076  1.00  0.00     0.135 A 
ATOM     69  F   UNL     1      -0.495  10.157  10.270  1.00  0.00    -0.206 F 
ATOM     70  C   UNL     1      -1.135  11.561   8.504  1.00  0.00     0.059 A 
ATOM     71  C   UNL     1       0.254  11.720   6.519  1.00  0.00     0.059 A 
ATOM     72  F   UNL     1       2.205  10.431   6.357  1.00  0.00    -0.206 F 
ATOM     73  C   UNL     1      -0.886  12.085   7.235  1.00  0.00     0.060 A 
BRANCH  73  74
ATOM     74  S   UNL     1      -2.074  13.249   6.535  1.00  0.00     0.124 S 
ATOM     75  O   UNL     1      -3.198  12.369   6.229  1.00  0.00    -0.237 OA
ATOM     76  O   UNL     1      -2.282  14.182   7.638  1.00  0.00    -0.237 OA
ATOM     77  O   UNL     1      -1.374  13.797   5.378  1.00  0.00    -0.744 OA
ENDBRANCH  73  74
ENDBRANCH  52  66
BRANCH  53  78
ATOM     78  C   UNL     1       7.266   3.355  11.824  1.00  0.00     0.058 A 
ATOM     79  C   UNL     1       7.760   3.364  13.136  1.00  0.00     0.135 A 
ATOM     80  C   UNL     1       7.685   2.318  10.975  1.00  0.00     0.135 A 
ATOM     81  F   UNL     1       7.396   4.338  13.983  1.00  0.00    -0.206 F 
ATOM     82  C   UNL     1       8.640   2.386  13.590  1.00  0.00     0.059 A 
ATOM     83  C   UNL     1       8.543   1.315  11.413  1.00  0.00     0.059 A 
ATOM     84  F   UNL     1       7.229   2.256   9.714  1.00  0.00    -0.206 F 
ATOM     85  C   UNL     1       9.020   1.361  12.722  1.00  0.00     0.060 A 
BRANCH  85  86
ATOM     86  S   UNL     1      10.110   0.061  13.342  1.00  0.00     0.124 S 
ATOM     87  O   UNL     1      11.380   0.769  13.452  1.00  0.00    -0.237 OA
ATOM     88  O   UNL     1       9.468  -0.299  14.603  1.00  0.00    -0.237 OA
ATOM     89  O   UNL     1      10.042  -0.959  12.300  1.00  0.00    -0.744 OA
ENDBRANCH  85  86
ENDBRANCH  53  78
BRANCH  65  90
ATOM     90  C   UNL     1       7.780  10.207  10.560  1.00  0.00     0.058 A 
ATOM     91  C   UNL     1       8.881  10.204   9.689  1.00  0.00     0.135 A 
ATOM     92  C   UNL     1       7.726  11.209  11.543  1.00  0.00     0.135 A 
ATOM     93  F   UNL     1       8.987   9.264   8.737  1.00  0.00    -0.206 F 
ATOM     94  C   UNL     1       9.897  11.148   9.800  1.00  0.00     0.059 A 
ATOM     95  C   UNL     1       8.716  12.180  11.653  1.00  0.00     0.059 A 
ATOM     96  F   UNL     1       6.691  11.264  12.397  1.00  0.00    -0.206 F 
ATOM     97  C   UNL     1       9.803  12.136  10.782  1.00  0.00     0.060 A 
BRANCH  97  98
ATOM     98  S   UNL     1      11.107  13.381  10.884  1.00  0.00     0.124 S 
ATOM     99  O   UNL     1      12.213  12.604  11.435  1.00  0.00    -0.237 OA
ATOM    100  O   UNL     1      11.253  13.793   9.492  1.00  0.00    -0.237 OA
ATOM    101  O   UNL     1      10.544  14.391  11.775  1.00  0.00    -0.744 OA
ENDBRANCH  97  98
ENDBRANCH  65  90
ENDBRANCH  39  40
ENDBRANCH  31  34
ENDBRANCH  29  30
ENDBRANCH   1  29
TORSDOF 16
