REMARK SMILES C[NH+](C)Cc1ccccc1[C@H]1[NH2+][C@@H](C(=O)NCCCNC(=O)c2ccc(-c3c4nc(c(-c5c(F)cc(S(=O)(=O)[O-])cc5F)c5ccc([nH]5)c(-c5c(F)cc(S(=O)(=O)[O-])cc5F)c5nc(c(-c6c(F)cc(S(=O)(=O)[O-])cc6F)c6ccc3[nH]6)C=C5)C=C4)cc2)C(C)(C)S1
REMARK SMILES IDX 18 1 17 2 16 3 14 4 15 5 13 7 11 8 12 9 92 10 89 13 90 14
REMARK SMILES IDX 91 15 10 16 5 17 6 18 7 19 9 20 8 21 4 22 2 23 1 24 3 25
REMARK SMILES IDX 19 27 20 28 21 29 22 31 23 32 24 33 88 34 25 35 87 36 26 37
REMARK SMILES IDX 27 38 28 39 81 40 29 41 86 42 80 43 82 44 30 45 85 46 79 47
REMARK SMILES IDX 78 48 31 50 65 51 44 52 64 53 45 54 48 55 63 56 83 57 46 58
REMARK SMILES IDX 47 59 62 61 84 62 49 63 32 64 33 65 42 66 34 67 35 68 41 69
REMARK SMILES IDX 43 70 36 71 37 72 38 73 39 74 40 75 66 76 67 77 76 78 68 79
REMARK SMILES IDX 69 80 75 81 77 82 70 83 71 84 72 85 73 86 74 87 50 88 51 89
REMARK SMILES IDX 60 90 52 91 53 92 59 93 61 94 54 95 55 96 56 97 57 98 58 99
REMARK H PARENT 16 6 12 11 12 12 2 26 20 30 82 49 48 60
REMARK Flexibility Score: inf
ROOT
ATOM      1  C   UNL     1       2.102  -5.592  -1.079  1.00  0.00     0.042 C 
ENDROOT
BRANCH   1   2
ATOM      2  C   UNL     1       1.799  -5.239  -2.530  1.00  0.00     0.118 C 
BRANCH   2   3
ATOM      3  N   UNL     1       0.772  -6.088  -3.117  1.00  0.00    -0.351 N 
ATOM      4  C   UNL     1      -0.484  -5.900  -3.597  1.00  0.00     0.279 C 
ATOM      5  O   UNL     1      -1.035  -6.922  -4.033  1.00  0.00    -0.268 OA
ATOM      6  H   UNL     1       1.058  -7.027  -3.181  1.00  0.00     0.163 HD
BRANCH   4   7
ATOM      7  C   UNL     1      -1.286  -4.585  -3.571  1.00  0.00     0.289 C 
ATOM      8  C   UNL     1      -1.403  -2.235  -3.741  1.00  0.00     0.275 C 
ATOM      9  N   UNL     1      -0.502  -3.377  -3.937  1.00  0.00    -0.320 N 
ATOM     10  S   UNL     1      -2.542  -2.589  -2.389  1.00  0.00    -0.081 SA
ATOM     11  H   UNL     1       0.316  -3.290  -3.334  1.00  0.00     0.348 HD
ATOM     12  H   UNL     1      -0.167  -3.427  -4.899  1.00  0.00     0.348 HD
ATOM     13  C   UNL     1      -2.096  -4.366  -2.273  1.00  0.00     0.077 C 
ATOM     14  C   UNL     1      -1.342  -4.594  -0.965  1.00  0.00     0.030 C 
ATOM     15  C   UNL     1      -3.380  -5.202  -2.250  1.00  0.00     0.030 C 
BRANCH   8  16
ATOM     16  C   UNL     1      -0.694  -0.882  -3.662  1.00  0.00     0.029 A 
ATOM     17  C   UNL     1       0.285  -0.473  -2.710  1.00  0.00     0.016 A 
ATOM     18  C   UNL     1       0.912   0.783  -2.890  1.00  0.00     0.010 A 
ATOM     19  C   UNL     1       0.554   1.655  -3.914  1.00  0.00     0.001 A 
ATOM     20  C   UNL     1      -1.037   0.035  -4.690  1.00  0.00     0.011 A 
ATOM     21  C   UNL     1      -0.432   1.285  -4.810  1.00  0.00     0.001 A 
BRANCH  17  22
ATOM     22  C   UNL     1       0.790  -1.314  -1.546  1.00  0.00     0.299 C 
BRANCH  22  23
ATOM     23  N   UNL     1       0.505  -0.898  -0.168  1.00  0.00    -0.336 N 
ATOM     24  C   UNL     1       1.219   0.278   0.299  1.00  0.00     0.332 C 
ATOM     25  C   UNL     1      -0.911  -0.826   0.160  1.00  0.00     0.332 C 
ATOM     26  H   UNL     1       0.894  -1.677   0.364  1.00  0.00     0.347 HD
ENDBRANCH  22  23
ENDBRANCH  17  22
ENDBRANCH   8  16
ENDBRANCH   4   7
ENDBRANCH   2   3
ENDBRANCH   1   2
BRANCH   1  27
ATOM     27  C   UNL     1       2.777  -6.943  -0.901  1.00  0.00     0.118 C 
BRANCH  27  28
ATOM     28  N   UNL     1       4.170  -6.916  -1.318  1.00  0.00    -0.352 N 
ATOM     29  C   UNL     1       5.319  -6.925  -0.564  1.00  0.00     0.251 C 
ATOM     30  H   UNL     1       4.312  -6.886  -2.292  1.00  0.00     0.163 HD
ATOM     31  O   UNL     1       6.387  -6.644  -1.103  1.00  0.00    -0.269 OA
BRANCH  29  32
ATOM     32  C   UNL     1       5.283  -7.255   0.881  1.00  0.00     0.039 A 
ATOM     33  C   UNL     1       6.133  -6.567   1.753  1.00  0.00     0.014 A 
ATOM     34  C   UNL     1       4.464  -8.273   1.376  1.00  0.00     0.014 A 
ATOM     35  C   UNL     1       6.123  -6.867   3.119  1.00  0.00     0.010 A 
ATOM     36  C   UNL     1       4.388  -8.506   2.747  1.00  0.00     0.010 A 
ATOM     37  C   UNL     1       5.232  -7.822   3.633  1.00  0.00    -0.014 A 
BRANCH  37  38
ATOM     38  C   UNL     1       5.201  -8.154   5.082  1.00  0.00     0.031 A 
ATOM     39  C   UNL     1       5.550  -9.547   5.542  1.00  0.00     0.074 A 
ATOM     40  C   UNL     1       4.813  -7.225   5.978  1.00  0.00     0.049 A 
ATOM     41  N   UNL     1       5.511 -10.055   6.747  1.00  0.00    -0.248 NA
ATOM     42  C   UNL     1       5.972 -10.503   4.505  1.00  0.00     0.031 C 
ATOM     43  C   UNL     1       4.406  -5.855   5.657  1.00  0.00     0.029 A 
ATOM     44  N   UNL     1       4.690  -7.295   7.344  1.00  0.00    -0.354 N 
ATOM     45  C   UNL     1       5.884 -11.387   6.610  1.00  0.00     0.074 A 
ATOM     46  C   UNL     1       6.090 -11.625   5.199  1.00  0.00     0.031 C 
ATOM     47  C   UNL     1       4.104  -5.208   6.795  1.00  0.00     0.029 A 
ATOM     48  C   UNL     1       4.261  -6.123   7.921  1.00  0.00     0.049 A 
ATOM     49  H   UNL     1       4.890  -8.108   7.861  1.00  0.00     0.167 HD
ATOM     50  C   UNL     1       6.068 -12.322   7.573  1.00  0.00     0.037 A 
ATOM     51  C   UNL     1       4.020  -5.821   9.212  1.00  0.00     0.037 A 
ATOM     52  C   UNL     1       5.899 -12.073   8.980  1.00  0.00     0.049 A 
ATOM     53  C   UNL     1       4.243  -6.872  10.266  1.00  0.00     0.074 A 
ATOM     54  C   UNL     1       6.103 -12.940  10.040  1.00  0.00     0.029 A 
ATOM     55  N   UNL     1       5.494 -10.864   9.526  1.00  0.00    -0.354 N 
ATOM     56  N   UNL     1       4.639  -8.114  10.120  1.00  0.00    -0.248 NA
ATOM     57  C   UNL     1       3.992  -6.480  11.660  1.00  0.00     0.031 C 
ATOM     58  C   UNL     1       5.795 -12.262  11.225  1.00  0.00     0.029 A 
ATOM     59  C   UNL     1       5.435 -10.963  10.905  1.00  0.00     0.049 A 
ATOM     60  H   UNL     1       5.279 -10.054   9.008  1.00  0.00     0.167 HD
ATOM     61  C   UNL     1       4.713  -8.642  11.404  1.00  0.00     0.074 A 
ATOM     62  C   UNL     1       4.330  -7.582  12.315  1.00  0.00     0.031 C 
ATOM     63  C   UNL     1       5.066  -9.891  11.796  1.00  0.00     0.037 A 
BRANCH  50  64
ATOM     64  C   UNL     1       6.492 -13.697   7.135  1.00  0.00     0.058 A 
ATOM     65  C   UNL     1       7.782 -13.942   6.636  1.00  0.00     0.135 A 
ATOM     66  C   UNL     1       5.613 -14.787   7.237  1.00  0.00     0.135 A 
ATOM     67  F   UNL     1       8.658 -12.933   6.502  1.00  0.00    -0.206 F 
ATOM     68  C   UNL     1       8.174 -15.210   6.222  1.00  0.00     0.059 A 
ATOM     69  C   UNL     1       5.993 -16.071   6.854  1.00  0.00     0.059 A 
ATOM     70  F   UNL     1       4.368 -14.610   7.707  1.00  0.00    -0.206 F 
ATOM     71  C   UNL     1       7.271 -16.269   6.332  1.00  0.00     0.060 A 
BRANCH  71  72
ATOM     72  S   UNL     1       7.794 -17.909   5.790  1.00  0.00     0.124 S 
ATOM     73  O   UNL     1       7.740 -17.765   4.338  1.00  0.00    -0.237 OA
ATOM     74  O   UNL     1       9.130 -18.019   6.366  1.00  0.00    -0.237 OA
ATOM     75  O   UNL     1       6.790 -18.795   6.370  1.00  0.00    -0.744 OA
ENDBRANCH  71  72
ENDBRANCH  50  64
BRANCH  51  76
ATOM     76  C   UNL     1       3.568  -4.455   9.586  1.00  0.00     0.058 A 
ATOM     77  C   UNL     1       4.425  -3.575  10.265  1.00  0.00     0.135 A 
ATOM     78  C   UNL     1       2.278  -4.001   9.275  1.00  0.00     0.135 A 
ATOM     79  F   UNL     1       5.667  -3.965  10.588  1.00  0.00    -0.206 F 
ATOM     80  C   UNL     1       4.013  -2.301  10.641  1.00  0.00     0.059 A 
ATOM     81  C   UNL     1       1.850  -2.722   9.620  1.00  0.00     0.059 A 
ATOM     82  F   UNL     1       1.426  -4.798   8.611  1.00  0.00    -0.206 F 
ATOM     83  C   UNL     1       2.721  -1.884  10.315  1.00  0.00     0.060 A 
BRANCH  83  84
ATOM     84  S   UNL     1       2.206  -0.215  10.774  1.00  0.00     0.124 S 
ATOM     85  O   UNL     1       1.971  -0.365  12.206  1.00  0.00    -0.237 OA
ATOM     86  O   UNL     1       3.370   0.583  10.398  1.00  0.00    -0.237 OA
ATOM     87  O   UNL     1       1.016   0.004   9.957  1.00  0.00    -0.744 OA
ENDBRANCH  83  84
ENDBRANCH  51  76
BRANCH  63  88
ATOM     88  C   UNL     1       5.094 -10.171  13.271  1.00  0.00     0.058 A 
ATOM     89  C   UNL     1       3.913 -10.337  14.011  1.00  0.00     0.135 A 
ATOM     90  C   UNL     1       6.318 -10.325  13.941  1.00  0.00     0.135 A 
ATOM     91  F   UNL     1       2.718 -10.193  13.418  1.00  0.00    -0.206 F 
ATOM     92  C   UNL     1       3.945 -10.626  15.372  1.00  0.00     0.059 A 
ATOM     93  C   UNL     1       6.374 -10.638  15.295  1.00  0.00     0.059 A 
ATOM     94  F   UNL     1       7.475 -10.186  13.275  1.00  0.00    -0.206 F 
ATOM     95  C   UNL     1       5.181 -10.775  16.005  1.00  0.00     0.060 A 
BRANCH  95  96
ATOM     96  S   UNL     1       5.211 -11.187  17.762  1.00  0.00     0.124 S 
ATOM     97  O   UNL     1       4.879  -9.902  18.370  1.00  0.00    -0.237 OA
ATOM     98  O   UNL     1       4.184 -12.219  17.861  1.00  0.00    -0.237 OA
ATOM     99  O   UNL     1       6.578 -11.650  17.979  1.00  0.00    -0.744 OA
ENDBRANCH  95  96
ENDBRANCH  63  88
ENDBRANCH  37  38
ENDBRANCH  29  32
ENDBRANCH  27  28
ENDBRANCH   1  27
TORSDOF 16
