REMARK SMILES CC(C)(C)[NH2+]CC(=O)N[C@](C)(C(=O)NCCCNC(=O)c1ccc(-c2c3nc(c(-c4c(F)cc(S(=O)(=O)[O-])cc4F)c4ccc([nH]4)c(-c4c(F)cc(S(=O)(=O)[O-])cc4F)c4nc(c(-c5c(F)cc(S(=O)(=O)[O-])cc5F)c5ccc2[nH]5)C=C4)C=C3)cc1)C1CC1
REMARK SMILES IDX 15 1 14 2 12 3 13 4 10 6 11 7 9 8 7 9 8 10 6 12 5 13 2 16
REMARK SMILES IDX 1 17 3 18 4 19 87 20 88 21 89 22 16 23 17 24 18 25 19 26
REMARK SMILES IDX 20 28 21 29 22 30 86 31 23 32 85 33 24 34 25 35 26 36 79 37
REMARK SMILES IDX 27 38 84 39 78 40 80 41 28 42 83 43 77 44 76 45 29 47 63 48
REMARK SMILES IDX 42 49 62 50 43 51 46 52 61 53 81 54 44 55 45 56 60 58 82 59
REMARK SMILES IDX 47 60 30 61 31 62 40 63 32 64 33 65 39 66 41 67 34 68 35 69
REMARK SMILES IDX 36 70 37 71 38 72 64 73 65 74 74 75 66 76 67 77 73 78 75 79
REMARK SMILES IDX 68 80 69 81 70 82 71 83 72 84 48 85 49 86 58 87 50 88 51 89
REMARK SMILES IDX 57 90 59 91 52 92 53 93 54 94 55 95 56 96
REMARK H PARENT 14 5 9 11 5 14 5 15 18 27 80 46 46 57
REMARK Flexibility Score: inf
ROOT
ATOM      1  C   UNL     1       2.591  -4.665   0.562  1.00  0.00     0.117 C 
ENDROOT
BRANCH   1   2
ATOM      2  N   UNL     1       2.756  -3.448   1.321  1.00  0.00    -0.354 N 
ATOM      3  C   UNL     1       2.267  -2.189   1.155  1.00  0.00     0.245 C 
ATOM      4  O   UNL     1       2.502  -1.424   2.103  1.00  0.00    -0.272 OA
ATOM      5  H   UNL     1       3.335  -3.548   2.112  1.00  0.00     0.163 HD
BRANCH   3   6
ATOM      6  C   UNL     1       1.687  -1.608  -0.204  1.00  0.00     0.119 C 
ATOM      7  C   UNL     1       2.946  -1.110  -0.927  1.00  0.00     0.046 C 
BRANCH   6   8
ATOM      8  N   UNL     1       0.679  -2.425  -0.976  1.00  0.00    -0.337 N 
ATOM      9  C   UNL     1       0.395  -3.336  -1.929  1.00  0.00     0.275 C 
ATOM     10  O   UNL     1      -0.826  -3.449  -2.143  1.00  0.00    -0.268 OA
ATOM     11  H   UNL     1      -0.195  -2.169  -0.602  1.00  0.00     0.164 HD
BRANCH   9  12
ATOM     12  C   UNL     1       1.335  -4.241  -2.718  1.00  0.00     0.362 C 
BRANCH  12  13
ATOM     13  N   UNL     1       1.600  -3.854  -4.115  1.00  0.00    -0.334 N 
ATOM     14  H   UNL     1       1.957  -4.678  -4.598  1.00  0.00     0.347 HD
ATOM     15  H   UNL     1       0.708  -3.499  -4.460  1.00  0.00     0.347 HD
BRANCH  13  16
ATOM     16  C   UNL     1       2.552  -2.762  -4.346  1.00  0.00     0.088 C 
ATOM     17  C   UNL     1       3.780  -2.878  -3.433  1.00  0.00     0.078 C 
ATOM     18  C   UNL     1       1.802  -1.427  -4.245  1.00  0.00     0.078 C 
ATOM     19  C   UNL     1       3.114  -2.850  -5.776  1.00  0.00     0.078 C 
ENDBRANCH  13  16
ENDBRANCH  12  13
ENDBRANCH   9  12
ENDBRANCH   6   8
BRANCH   6  20
ATOM     20  C   UNL     1       0.813  -0.351   0.169  1.00  0.00     0.024 C 
ATOM     21  C   UNL     1       1.141   1.103  -0.140  1.00  0.00     0.007 C 
ATOM     22  C   UNL     1       0.064   0.413  -0.915  1.00  0.00     0.007 C 
ENDBRANCH   6  20
ENDBRANCH   3   6
ENDBRANCH   1   2
BRANCH   1  23
ATOM     23  C   UNL     1       3.839  -5.069  -0.222  1.00  0.00     0.042 C 
BRANCH  23  24
ATOM     24  C   UNL     1       4.818  -5.947   0.548  1.00  0.00     0.118 C 
BRANCH  24  25
ATOM     25  N   UNL     1       4.272  -7.272   0.821  1.00  0.00    -0.352 N 
ATOM     26  C   UNL     1       4.703  -8.528   0.466  1.00  0.00     0.251 C 
ATOM     27  H   UNL     1       3.446  -7.265   1.355  1.00  0.00     0.163 HD
ATOM     28  O   UNL     1       3.953  -9.480   0.675  1.00  0.00    -0.269 OA
BRANCH  26  29
ATOM     29  C   UNL     1       6.025  -8.760  -0.166  1.00  0.00     0.039 A 
ATOM     30  C   UNL     1       6.159  -9.818  -1.074  1.00  0.00     0.014 A 
ATOM     31  C   UNL     1       7.147  -7.998   0.161  1.00  0.00     0.014 A 
ATOM     32  C   UNL     1       7.391 -10.070  -1.687  1.00  0.00     0.010 A 
ATOM     33  C   UNL     1       8.347  -8.185  -0.523  1.00  0.00     0.010 A 
ATOM     34  C   UNL     1       8.491  -9.234  -1.442  1.00  0.00    -0.014 A 
BRANCH  34  35
ATOM     35  C   UNL     1       9.803  -9.453  -2.108  1.00  0.00     0.031 A 
ATOM     36  C   UNL     1      11.031  -9.740  -1.282  1.00  0.00     0.074 A 
ATOM     37  C   UNL     1       9.909  -9.327  -3.446  1.00  0.00     0.049 A 
ATOM     38  N   UNL     1      12.277  -9.865  -1.664  1.00  0.00    -0.248 NA
ATOM     39  C   UNL     1      10.838  -9.870   0.172  1.00  0.00     0.031 C 
ATOM     40  C   UNL     1       8.807  -9.004  -4.356  1.00  0.00     0.029 A 
ATOM     41  N   UNL     1      10.997  -9.445  -4.275  1.00  0.00    -0.354 N 
ATOM     42  C   UNL     1      13.014 -10.062  -0.501  1.00  0.00     0.074 A 
ATOM     43  C   UNL     1      12.085  -9.984   0.604  1.00  0.00     0.031 C 
ATOM     44  C   UNL     1       9.270  -8.974  -5.616  1.00  0.00     0.029 A 
ATOM     45  C   UNL     1      10.706  -9.235  -5.603  1.00  0.00     0.049 A 
ATOM     46  H   UNL     1      11.901  -9.659  -3.950  1.00  0.00     0.167 HD
ATOM     47  C   UNL     1      14.339 -10.312  -0.367  1.00  0.00     0.037 A 
ATOM     48  C   UNL     1      11.505  -9.244  -6.688  1.00  0.00     0.037 A 
ATOM     49  C   UNL     1      15.252 -10.430  -1.473  1.00  0.00     0.049 A 
ATOM     50  C   UNL     1      12.971  -9.539  -6.517  1.00  0.00     0.074 A 
ATOM     51  C   UNL     1      16.599 -10.747  -1.448  1.00  0.00     0.029 A 
ATOM     52  N   UNL     1      14.912 -10.240  -2.805  1.00  0.00    -0.354 N 
ATOM     53  N   UNL     1      13.640  -9.779  -5.414  1.00  0.00    -0.248 NA
ATOM     54  C   UNL     1      13.790  -9.568  -7.736  1.00  0.00     0.031 C 
ATOM     55  C   UNL     1      17.082 -10.709  -2.760  1.00  0.00     0.029 A 
ATOM     56  C   UNL     1      16.026 -10.415  -3.608  1.00  0.00     0.049 A 
ATOM     57  H   UNL     1      14.010 -10.014  -3.130  1.00  0.00     0.167 HD
ATOM     58  C   UNL     1      14.953 -10.014  -5.809  1.00  0.00     0.074 A 
ATOM     59  C   UNL     1      14.981  -9.898  -7.253  1.00  0.00     0.031 C 
ATOM     60  C   UNL     1      16.036 -10.302  -5.046  1.00  0.00     0.037 A 
BRANCH  47  61
ATOM     61  C   UNL     1      14.877 -10.482   1.029  1.00  0.00     0.058 A 
ATOM     62  C   UNL     1      14.556 -11.602   1.813  1.00  0.00     0.135 A 
ATOM     63  C   UNL     1      15.742  -9.524   1.583  1.00  0.00     0.135 A 
ATOM     64  F   UNL     1      13.723 -12.543   1.339  1.00  0.00    -0.206 F 
ATOM     65  C   UNL     1      15.040 -11.748   3.109  1.00  0.00     0.059 A 
ATOM     66  C   UNL     1      16.262  -9.664   2.868  1.00  0.00     0.059 A 
ATOM     67  F   UNL     1      16.085  -8.434   0.879  1.00  0.00    -0.206 F 
ATOM     68  C   UNL     1      15.889 -10.770   3.629  1.00  0.00     0.060 A 
BRANCH  68  69
ATOM     69  S   UNL     1      16.499 -10.969   5.317  1.00  0.00     0.124 S 
ATOM     70  O   UNL     1      15.308 -10.648   6.096  1.00  0.00    -0.237 OA
ATOM     71  O   UNL     1      16.913 -12.368   5.338  1.00  0.00    -0.237 OA
ATOM     72  O   UNL     1      17.585  -9.996   5.402  1.00  0.00    -0.744 OA
ENDBRANCH  68  69
ENDBRANCH  47  61
BRANCH  48  73
ATOM     73  C   UNL     1      10.928  -8.995  -8.036  1.00  0.00     0.058 A 
ATOM     74  C   UNL     1      10.805 -10.034  -8.970  1.00  0.00     0.135 A 
ATOM     75  C   UNL     1      10.466  -7.723  -8.409  1.00  0.00     0.135 A 
ATOM     76  F   UNL     1      11.239 -11.266  -8.662  1.00  0.00    -0.206 F 
ATOM     77  C   UNL     1      10.257  -9.821 -10.230  1.00  0.00     0.059 A 
ATOM     78  C   UNL     1       9.891  -7.491  -9.655  1.00  0.00     0.059 A 
ATOM     79  F   UNL     1      10.545  -6.699  -7.546  1.00  0.00    -0.206 F 
ATOM     80  C   UNL     1       9.798  -8.545 -10.562  1.00  0.00     0.060 A 
BRANCH  80  81
ATOM     81  S   UNL     1       9.036  -8.293 -12.180  1.00  0.00     0.124 S 
ATOM     82  O   UNL     1      10.197  -8.332 -13.061  1.00  0.00    -0.237 OA
ATOM     83  O   UNL     1       8.126  -9.431 -12.271  1.00  0.00    -0.237 OA
ATOM     84  O   UNL     1       8.388  -6.992 -12.046  1.00  0.00    -0.744 OA
ENDBRANCH  80  81
ENDBRANCH  48  73
BRANCH  60  85
ATOM     85  C   UNL     1      17.339 -10.543  -5.755  1.00  0.00     0.058 A 
ATOM     86  C   UNL     1      18.072  -9.492  -6.328  1.00  0.00     0.135 A 
ATOM     87  C   UNL     1      17.888 -11.834  -5.813  1.00  0.00     0.135 A 
ATOM     88  F   UNL     1      17.589  -8.240  -6.305  1.00  0.00    -0.206 F 
ATOM     89  C   UNL     1      19.295  -9.717  -6.952  1.00  0.00     0.059 A 
ATOM     90  C   UNL     1      19.121 -12.078  -6.408  1.00  0.00     0.059 A 
ATOM     91  F   UNL     1      17.231 -12.873  -5.271  1.00  0.00    -0.206 F 
ATOM     92  C   UNL     1      19.813 -11.013  -6.984  1.00  0.00     0.060 A 
BRANCH  92  93
ATOM     93  S   UNL     1      21.419 -11.285  -7.763  1.00  0.00     0.124 S 
ATOM     94  O   UNL     1      21.081 -11.178  -9.179  1.00  0.00    -0.237 OA
ATOM     95  O   UNL     1      22.220 -10.193  -7.219  1.00  0.00    -0.237 OA
ATOM     96  O   UNL     1      21.797 -12.619  -7.306  1.00  0.00    -0.744 OA
ENDBRANCH  92  93
ENDBRANCH  60  85
ENDBRANCH  34  35
ENDBRANCH  26  29
ENDBRANCH  24  25
ENDBRANCH  23  24
ENDBRANCH   1  23
TORSDOF 18
