REMARK SMILES CC[C@@](C)(NC(=O)c1cccc(Br)c1C)C(=O)NCCCNC(=O)c1ccc(-c2c3nc(c(-c4c(F)cc(S(=O)(=O)[O-])cc4F)c4ccc([nH]4)c(-c4c(F)cc(S(=O)(=O)[O-])cc4F)c4nc(c(-c5c(F)cc(S(=O)(=O)[O-])cc5F)c5ccc2[nH]5)C=C4)C=C3)cc1
REMARK SMILES IDX 20 1 19 2 18 3 16 4 17 5 3 7 4 8 2 9 1 10 5 11 6 12 7 14
REMARK SMILES IDX 8 15 9 16 14 17 10 18 12 19 15 20 11 21 13 22 21 23 22 24
REMARK SMILES IDX 23 25 24 27 25 28 26 29 90 30 27 31 89 32 28 33 29 34 30 35
REMARK SMILES IDX 83 36 31 37 88 38 82 39 84 40 32 41 87 42 81 43 80 44 33 46
REMARK SMILES IDX 67 47 46 48 66 49 47 50 50 51 65 52 85 53 48 54 49 55 64 57
REMARK SMILES IDX 86 58 51 59 34 60 35 61 44 62 36 63 37 64 43 65 45 66 38 67
REMARK SMILES IDX 39 68 40 69 41 70 42 71 68 72 69 73 78 74 70 75 71 76 77 77
REMARK SMILES IDX 79 78 72 79 73 80 74 81 75 82 76 83 52 84 53 85 62 86 54 87
REMARK SMILES IDX 55 88 61 89 63 90 56 91 57 92 58 93 59 94 60 95
REMARK H PARENT 18 6 5 13 22 26 84 45 50 56
REMARK Flexibility Score: inf
ROOT
ATOM      1  C   UNL     1       2.937   3.314  -5.436  1.00  0.00     0.042 C 
ENDROOT
BRANCH   1   2
ATOM      2  C   UNL     1       2.535   2.033  -4.615  1.00  0.00     0.117 C 
BRANCH   2   3
ATOM      3  N   UNL     1       3.003   1.810  -3.236  1.00  0.00    -0.354 N 
ATOM      4  C   UNL     1       2.500   1.479  -2.002  1.00  0.00     0.245 C 
ATOM      5  O   UNL     1       3.346   0.901  -1.297  1.00  0.00    -0.272 OA
ATOM      6  H   UNL     1       3.977   1.939  -3.183  1.00  0.00     0.163 HD
BRANCH   4   7
ATOM      7  C   UNL     1       1.044   1.718  -1.376  1.00  0.00     0.116 C 
ATOM      8  C   UNL     1      -0.004   1.030  -2.270  1.00  0.00     0.045 C 
BRANCH   7   9
ATOM      9  C   UNL     1       0.971   1.072   0.067  1.00  0.00     0.035 C 
ATOM     10  C   UNL     1       1.080  -0.444   0.204  1.00  0.00     0.007 C 
ENDBRANCH   7   9
BRANCH   7  11
ATOM     11  N   UNL     1       0.549   3.131  -1.159  1.00  0.00    -0.338 N 
ATOM     12  C   UNL     1       1.014   4.094  -0.272  1.00  0.00     0.252 C 
ATOM     13  H   UNL     1      -0.209   3.406  -1.724  1.00  0.00     0.164 HD
ATOM     14  O   UNL     1       0.208   4.706   0.425  1.00  0.00    -0.269 OA
BRANCH  12  15
ATOM     15  C   UNL     1       2.454   4.452  -0.228  1.00  0.00     0.043 A 
ATOM     16  C   UNL     1       3.015   5.098   0.879  1.00  0.00     0.014 A 
ATOM     17  C   UNL     1       3.213   4.383  -1.393  1.00  0.00    -0.024 A 
ATOM     18  C   UNL     1       4.362   5.478   0.866  1.00  0.00     0.002 A 
ATOM     19  C   UNL     1       4.607   4.441  -1.275  1.00  0.00     0.021 A 
ATOM     20  C   UNL     1       2.471   4.802  -2.642  1.00  0.00     0.046 C 
ATOM     21  C   UNL     1       5.178   5.066  -0.177  1.00  0.00     0.016 A 
ATOM     22  Br  UNL     1       5.790   3.245  -2.170  1.00  0.00    -0.051 Br
ENDBRANCH  12  15
ENDBRANCH   7  11
ENDBRANCH   4   7
ENDBRANCH   2   3
ENDBRANCH   1   2
BRANCH   1  23
ATOM     23  C   UNL     1       4.264   4.089  -5.281  1.00  0.00     0.118 C 
BRANCH  23  24
ATOM     24  N   UNL     1       5.307   3.782  -6.239  1.00  0.00    -0.352 N 
ATOM     25  C   UNL     1       6.071   4.646  -7.000  1.00  0.00     0.251 C 
ATOM     26  H   UNL     1       5.497   2.824  -6.366  1.00  0.00     0.163 HD
ATOM     27  O   UNL     1       6.781   4.184  -7.891  1.00  0.00    -0.269 OA
BRANCH  25  28
ATOM     28  C   UNL     1       6.066   6.121  -6.782  1.00  0.00     0.039 A 
ATOM     29  C   UNL     1       5.860   6.966  -7.880  1.00  0.00     0.014 A 
ATOM     30  C   UNL     1       6.413   6.684  -5.548  1.00  0.00     0.014 A 
ATOM     31  C   UNL     1       5.977   8.360  -7.743  1.00  0.00     0.010 A 
ATOM     32  C   UNL     1       6.508   8.083  -5.409  1.00  0.00     0.010 A 
ATOM     33  C   UNL     1       6.305   8.939  -6.506  1.00  0.00    -0.014 A 
BRANCH  33  34
ATOM     34  C   UNL     1       6.477  10.422  -6.380  1.00  0.00     0.031 A 
ATOM     35  C   UNL     1       7.840  11.020  -6.115  1.00  0.00     0.074 A 
ATOM     36  C   UNL     1       5.413  11.246  -6.495  1.00  0.00     0.049 A 
ATOM     37  N   UNL     1       8.185  12.276  -5.974  1.00  0.00    -0.248 NA
ATOM     38  C   UNL     1       8.959  10.076  -5.971  1.00  0.00     0.031 C 
ATOM     39  C   UNL     1       4.033  10.811  -6.718  1.00  0.00     0.029 A 
ATOM     40  N   UNL     1       5.320  12.618  -6.440  1.00  0.00    -0.354 N 
ATOM     41  C   UNL     1       9.553  12.274  -5.714  1.00  0.00     0.074 A 
ATOM     42  C   UNL     1       9.964  10.887  -5.670  1.00  0.00     0.031 C 
ATOM     43  C   UNL     1       3.237  11.891  -6.797  1.00  0.00     0.029 A 
ATOM     44  C   UNL     1       4.040  13.097  -6.609  1.00  0.00     0.049 A 
ATOM     45  H   UNL     1       6.098  13.203  -6.293  1.00  0.00     0.167 HD
ATOM     46  C   UNL     1      10.396  13.325  -5.550  1.00  0.00     0.037 A 
ATOM     47  C   UNL     1       3.563  14.359  -6.614  1.00  0.00     0.037 A 
ATOM     48  C   UNL     1       9.994  14.707  -5.625  1.00  0.00     0.049 A 
ATOM     49  C   UNL     1       4.517  15.513  -6.438  1.00  0.00     0.074 A 
ATOM     50  C   UNL     1      10.785  15.841  -5.532  1.00  0.00     0.029 A 
ATOM     51  N   UNL     1       8.691  15.146  -5.810  1.00  0.00    -0.354 N 
ATOM     52  N   UNL     1       5.816  15.487  -6.258  1.00  0.00    -0.248 NA
ATOM     53  C   UNL     1       3.944  16.866  -6.473  1.00  0.00     0.031 C 
ATOM     54  C   UNL     1       9.954  16.964  -5.622  1.00  0.00     0.029 A 
ATOM     55  C   UNL     1       8.653  16.531  -5.815  1.00  0.00     0.049 A 
ATOM     56  H   UNL     1       7.909  14.559  -5.921  1.00  0.00     0.167 HD
ATOM     57  C   UNL     1       6.218  16.817  -6.181  1.00  0.00     0.074 A 
ATOM     58  C   UNL     1       5.026  17.623  -6.349  1.00  0.00     0.031 C 
ATOM     59  C   UNL     1       7.460  17.324  -5.988  1.00  0.00     0.037 A 
BRANCH  46  60
ATOM     60  C   UNL     1      11.847  13.023  -5.277  1.00  0.00     0.058 A 
ATOM     61  C   UNL     1      12.687  12.488  -6.268  1.00  0.00     0.135 A 
ATOM     62  C   UNL     1      12.416  13.302  -4.023  1.00  0.00     0.135 A 
ATOM     63  F   UNL     1      12.197  12.195  -7.483  1.00  0.00    -0.206 F 
ATOM     64  C   UNL     1      14.026  12.204  -6.014  1.00  0.00     0.059 A 
ATOM     65  C   UNL     1      13.760  13.051  -3.756  1.00  0.00     0.059 A 
ATOM     66  F   UNL     1      11.665  13.822  -3.040  1.00  0.00    -0.206 F 
ATOM     67  C   UNL     1      14.553  12.485  -4.753  1.00  0.00     0.060 A 
BRANCH  67  68
ATOM     68  S   UNL     1      16.289  12.099  -4.439  1.00  0.00     0.124 S 
ATOM     69  O   UNL     1      16.250  10.645  -4.334  1.00  0.00    -0.237 OA
ATOM     70  O   UNL     1      16.949  12.632  -5.625  1.00  0.00    -0.237 OA
ATOM     71  O   UNL     1      16.575  12.810  -3.193  1.00  0.00    -0.744 OA
ENDBRANCH  67  68
ENDBRANCH  46  60
BRANCH  47  72
ATOM     72  C   UNL     1       2.108  14.606  -6.817  1.00  0.00     0.058 A 
ATOM     73  C   UNL     1       1.629  15.174  -8.008  1.00  0.00     0.135 A 
ATOM     74  C   UNL     1       1.167  14.271  -5.831  1.00  0.00     0.135 A 
ATOM     75  F   UNL     1       2.489  15.523  -8.977  1.00  0.00    -0.206 F 
ATOM     76  C   UNL     1       0.272  15.410  -8.211  1.00  0.00     0.059 A 
ATOM     77  C   UNL     1      -0.198  14.475  -6.021  1.00  0.00     0.059 A 
ATOM     78  F   UNL     1       1.570  13.716  -4.678  1.00  0.00    -0.206 F 
ATOM     79  C   UNL     1      -0.635  15.053  -7.212  1.00  0.00     0.060 A 
BRANCH  79  80
ATOM     80  S   UNL     1      -2.399  15.307  -7.510  1.00  0.00     0.124 S 
ATOM     81  O   UNL     1      -2.514  16.755  -7.376  1.00  0.00    -0.237 OA
ATOM     82  O   UNL     1      -2.562  14.776  -8.860  1.00  0.00    -0.237 OA
ATOM     83  O   UNL     1      -3.033  14.522  -6.456  1.00  0.00    -0.744 OA
ENDBRANCH  79  80
ENDBRANCH  47  72
BRANCH  59  84
ATOM     84  C   UNL     1       7.607  18.821  -5.969  1.00  0.00     0.058 A 
ATOM     85  C   UNL     1       7.174  19.588  -4.876  1.00  0.00     0.135 A 
ATOM     86  C   UNL     1       8.242  19.489  -7.028  1.00  0.00     0.135 A 
ATOM     87  F   UNL     1       6.555  19.000  -3.840  1.00  0.00    -0.206 F 
ATOM     88  C   UNL     1       7.351  20.968  -4.842  1.00  0.00     0.059 A 
ATOM     89  C   UNL     1       8.451  20.865  -7.004  1.00  0.00     0.059 A 
ATOM     90  F   UNL     1       8.684  18.801  -8.093  1.00  0.00    -0.206 F 
ATOM     91  C   UNL     1       7.993  21.597  -5.910  1.00  0.00     0.060 A 
BRANCH  91  92
ATOM     92  S   UNL     1       8.253  23.383  -5.834  1.00  0.00     0.124 S 
ATOM     93  O   UNL     1       6.910  23.887  -6.099  1.00  0.00    -0.237 OA
ATOM     94  O   UNL     1       8.743  23.570  -4.472  1.00  0.00    -0.237 OA
ATOM     95  O   UNL     1       9.235  23.628  -6.886  1.00  0.00    -0.744 OA
ENDBRANCH  91  92
ENDBRANCH  59  84
ENDBRANCH  33  34
ENDBRANCH  25  28
ENDBRANCH  23  24
ENDBRANCH   1  23
TORSDOF 16
