REMARK SMILES CCCc1nnc(SCC(=O)NCCCNC(=O)c2ccc(-c3c4nc(c(-c5c(F)cc(S(=O)(=O)[O-])cc5F)c5ccc([nH]5)c(-c5c(F)cc(S(=O)(=O)[O-])cc5F)c5nc(c(-c6c(F)cc(S(=O)(=O)[O-])cc6F)c6ccc3[nH]6)C=C5)C=C4)cc2)n1C[C@H]1CCCO1
REMARK SMILES IDX 13 1 12 2 10 3 11 4 9 6 8 7 7 8 4 9 5 10 85 11 6 12 3 13
REMARK SMILES IDX 2 14 1 15 86 16 87 17 88 18 91 19 89 20 90 21 14 22 15 23
REMARK SMILES IDX 16 24 17 25 18 27 19 28 20 29 84 30 21 31 83 32 22 33 23 34
REMARK SMILES IDX 24 35 77 36 25 37 82 38 76 39 78 40 26 41 81 42 75 43 74 44
REMARK SMILES IDX 27 46 61 47 40 48 60 49 41 50 44 51 59 52 79 53 42 54 43 55
REMARK SMILES IDX 58 57 80 58 45 59 28 60 29 61 38 62 30 63 31 64 37 65 39 66
REMARK SMILES IDX 32 67 33 68 34 69 35 70 36 71 62 72 63 73 72 74 64 75 65 76
REMARK SMILES IDX 71 77 73 78 66 79 67 80 68 81 69 82 70 83 46 84 47 85 56 86
REMARK SMILES IDX 48 87 49 88 55 89 57 90 50 91 51 92 52 93 53 94 54 95
REMARK H PARENT 12 5 16 26 78 45 44 56
REMARK Flexibility Score: inf
ROOT
ATOM      1  C   UNL     1       6.165  10.037   0.266  1.00  0.00     0.117 C 
ENDROOT
BRANCH   1   2
ATOM      2  N   UNL     1       6.340   8.814   1.020  1.00  0.00    -0.355 N 
ATOM      3  C   UNL     1       5.393   7.903   1.363  1.00  0.00     0.230 C 
ATOM      4  O   UNL     1       5.686   7.016   2.163  1.00  0.00    -0.274 OA
ATOM      5  H   UNL     1       7.257   8.618   1.321  1.00  0.00     0.163 HD
BRANCH   3   6
ATOM      6  C   UNL     1       4.071   7.928   0.652  1.00  0.00     0.178 C 
BRANCH   6   7
ATOM      7  S   UNL     1       2.814   8.974   1.327  1.00  0.00    -0.076 SA
BRANCH   7   8
ATOM      8  C   UNL     1       1.974   8.156   2.589  1.00  0.00     0.191 A 
ATOM      9  C   UNL     1       1.289   6.872   4.216  1.00  0.00     0.133 A 
ATOM     10  N   UNL     1       0.750   8.061   4.376  1.00  0.00    -0.134 NA
ATOM     11  N   UNL     1       1.943   6.837   2.983  1.00  0.00    -0.303 N 
ATOM     12  N   UNL     1       1.168   8.855   3.358  1.00  0.00    -0.123 NA
BRANCH   9  13
ATOM     13  C   UNL     1       1.274   5.769   5.229  1.00  0.00     0.077 C 
BRANCH  13  14
ATOM     14  C   UNL     1       0.598   6.138   6.555  1.00  0.00     0.005 C 
ATOM     15  C   UNL     1      -0.906   6.354   6.440  1.00  0.00     0.004 C 
ENDBRANCH  13  14
ENDBRANCH   9  13
BRANCH  11  16
ATOM     16  C   UNL     1       2.589   5.665   2.438  1.00  0.00     0.158 C 
BRANCH  16  17
ATOM     17  C   UNL     1       1.994   4.936   1.204  1.00  0.00     0.138 C 
ATOM     18  C   UNL     1       1.728   5.644  -0.121  1.00  0.00     0.036 C 
ATOM     19  O   UNL     1       2.901   3.858   0.874  1.00  0.00    -0.376 OA
ATOM     20  C   UNL     1       2.870   5.278  -1.046  1.00  0.00     0.031 C 
ATOM     21  C   UNL     1       3.498   4.063  -0.409  1.00  0.00     0.160 C 
ENDBRANCH  16  17
ENDBRANCH  11  16
ENDBRANCH   7   8
ENDBRANCH   6   7
ENDBRANCH   3   6
ENDBRANCH   1   2
BRANCH   1  22
ATOM     22  C   UNL     1       5.712  11.198   1.152  1.00  0.00     0.042 C 
BRANCH  22  23
ATOM     23  C   UNL     1       6.660  11.439   2.311  1.00  0.00     0.118 C 
BRANCH  23  24
ATOM     24  N   UNL     1       7.994  11.796   1.845  1.00  0.00    -0.352 N 
ATOM     25  C   UNL     1       9.088  12.141   2.606  1.00  0.00     0.251 C 
ATOM     26  H   UNL     1       8.129  11.789   0.870  1.00  0.00     0.163 HD
ATOM     27  O   UNL     1      10.019  12.753   2.109  1.00  0.00    -0.269 OA
BRANCH  25  28
ATOM     28  C   UNL     1       9.102  11.748   4.024  1.00  0.00     0.039 A 
ATOM     29  C   UNL     1       9.531  12.647   5.000  1.00  0.00     0.014 A 
ATOM     30  C   UNL     1       8.651  10.471   4.365  1.00  0.00     0.014 A 
ATOM     31  C   UNL     1       9.447  12.266   6.333  1.00  0.00     0.010 A 
ATOM     32  C   UNL     1       8.445  10.147   5.682  1.00  0.00     0.010 A 
ATOM     33  C   UNL     1       8.885  11.020   6.667  1.00  0.00    -0.014 A 
BRANCH  33  34
ATOM     34  C   UNL     1       8.591  10.700   8.059  1.00  0.00     0.031 A 
ATOM     35  C   UNL     1       7.744  11.732   8.711  1.00  0.00     0.074 A 
ATOM     36  C   UNL     1       8.882   9.514   8.637  1.00  0.00     0.049 A 
ATOM     37  N   UNL     1       8.135  12.653   9.527  1.00  0.00    -0.248 NA
ATOM     38  C   UNL     1       6.362  11.919   8.231  1.00  0.00     0.031 C 
ATOM     39  C   UNL     1       9.434   8.311   8.004  1.00  0.00     0.029 A 
ATOM     40  N   UNL     1       8.662   9.097   9.914  1.00  0.00    -0.354 N 
ATOM     41  C   UNL     1       6.979  13.328   9.902  1.00  0.00     0.074 A 
ATOM     42  C   UNL     1       6.002  13.023   8.893  1.00  0.00     0.031 C 
ATOM     43  C   UNL     1       9.286   7.252   8.831  1.00  0.00     0.029 A 
ATOM     44  C   UNL     1       8.788   7.722  10.110  1.00  0.00     0.049 A 
ATOM     45  H   UNL     1       8.433   9.718  10.643  1.00  0.00     0.167 HD
ATOM     46  C   UNL     1       6.842  13.791  11.176  1.00  0.00     0.037 A 
ATOM     47  C   UNL     1       8.492   7.024  11.240  1.00  0.00     0.037 A 
ATOM     48  C   UNL     1       8.124  13.806  11.847  1.00  0.00     0.049 A 
ATOM     49  C   UNL     1       8.507   8.001  12.358  1.00  0.00     0.074 A 
ATOM     50  C   UNL     1       9.354  14.389  11.608  1.00  0.00     0.029 A 
ATOM     51  N   UNL     1       8.356  12.792  12.745  1.00  0.00    -0.354 N 
ATOM     52  N   UNL     1       9.582   8.618  12.767  1.00  0.00    -0.248 NA
ATOM     53  C   UNL     1       7.251   8.641  12.712  1.00  0.00     0.031 C 
ATOM     54  C   UNL     1      10.314  13.416  12.017  1.00  0.00     0.029 A 
ATOM     55  C   UNL     1       9.632  12.329  12.565  1.00  0.00     0.049 A 
ATOM     56  H   UNL     1       7.712  12.454  13.407  1.00  0.00     0.167 HD
ATOM     57  C   UNL     1       9.169   9.920  13.008  1.00  0.00     0.074 A 
ATOM     58  C   UNL     1       7.709   9.847  13.058  1.00  0.00     0.031 C 
ATOM     59  C   UNL     1      10.034  10.966  12.846  1.00  0.00     0.037 A 
BRANCH  46  60
ATOM     60  C   UNL     1       5.541  13.774  11.958  1.00  0.00     0.058 A 
ATOM     61  C   UNL     1       5.529  14.327  13.257  1.00  0.00     0.135 A 
ATOM     62  C   UNL     1       4.413  12.987  11.630  1.00  0.00     0.135 A 
ATOM     63  F   UNL     1       6.545  15.094  13.683  1.00  0.00    -0.206 F 
ATOM     64  C   UNL     1       4.528  14.040  14.186  1.00  0.00     0.059 A 
ATOM     65  C   UNL     1       3.379  12.732  12.523  1.00  0.00     0.059 A 
ATOM     66  F   UNL     1       4.289  12.345  10.465  1.00  0.00    -0.206 F 
ATOM     67  C   UNL     1       3.464  13.228  13.812  1.00  0.00     0.060 A 
BRANCH  67  68
ATOM     68  S   UNL     1       2.210  12.795  15.028  1.00  0.00     0.124 S 
ATOM     69  O   UNL     1       2.966  11.935  15.930  1.00  0.00    -0.237 OA
ATOM     70  O   UNL     1       1.838  14.106  15.551  1.00  0.00    -0.237 OA
ATOM     71  O   UNL     1       1.184  12.131  14.230  1.00  0.00    -0.744 OA
ENDBRANCH  67  68
ENDBRANCH  46  60
BRANCH  47  72
ATOM     72  C   UNL     1       7.879   5.671  11.379  1.00  0.00     0.058 A 
ATOM     73  C   UNL     1       7.792   5.036  12.634  1.00  0.00     0.135 A 
ATOM     74  C   UNL     1       7.095   5.111  10.352  1.00  0.00     0.135 A 
ATOM     75  F   UNL     1       8.493   5.505  13.678  1.00  0.00    -0.206 F 
ATOM     76  C   UNL     1       6.930   3.957  12.873  1.00  0.00     0.059 A 
ATOM     77  C   UNL     1       6.235   4.032  10.564  1.00  0.00     0.059 A 
ATOM     78  F   UNL     1       7.068   5.658   9.128  1.00  0.00    -0.206 F 
ATOM     79  C   UNL     1       6.134   3.477  11.834  1.00  0.00     0.060 A 
BRANCH  79  80
ATOM     80  S   UNL     1       4.882   2.214  12.175  1.00  0.00     0.124 S 
ATOM     81  O   UNL     1       5.703   1.034  12.427  1.00  0.00    -0.237 OA
ATOM     82  O   UNL     1       4.189   2.767  13.334  1.00  0.00    -0.237 OA
ATOM     83  O   UNL     1       4.097   2.175  10.944  1.00  0.00    -0.744 OA
ENDBRANCH  79  80
ENDBRANCH  47  72
BRANCH  59  84
ATOM     84  C   UNL     1      11.512  10.666  12.791  1.00  0.00     0.058 A 
ATOM     85  C   UNL     1      12.154   9.887  11.811  1.00  0.00     0.135 A 
ATOM     86  C   UNL     1      12.332  11.303  13.735  1.00  0.00     0.135 A 
ATOM     87  F   UNL     1      11.462   9.326  10.809  1.00  0.00    -0.206 F 
ATOM     88  C   UNL     1      13.540   9.706  11.808  1.00  0.00     0.059 A 
ATOM     89  C   UNL     1      13.716  11.166  13.730  1.00  0.00     0.059 A 
ATOM     90  F   UNL     1      11.789  12.109  14.663  1.00  0.00    -0.206 F 
ATOM     91  C   UNL     1      14.313  10.348  12.777  1.00  0.00     0.060 A 
BRANCH  91  92
ATOM     92  S   UNL     1      16.107  10.142  12.762  1.00  0.00     0.124 S 
ATOM     93  O   UNL     1      16.260   8.747  13.161  1.00  0.00    -0.237 OA
ATOM     94  O   UNL     1      16.451  10.448  11.376  1.00  0.00    -0.237 OA
ATOM     95  O   UNL     1      16.572  11.124  13.740  1.00  0.00    -0.744 OA
ENDBRANCH  91  92
ENDBRANCH  59  84
ENDBRANCH  33  34
ENDBRANCH  25  28
ENDBRANCH  23  24
ENDBRANCH  22  23
ENDBRANCH   1  22
TORSDOF 19
