REMARK SMILES CC[C@@]1(C)NC(=O)N(/N=C/c2ccccc2C(=O)NCCCNC(=O)c2ccc(-c3c4nc(c(-c5c(F)cc(S(=O)(=O)[O-])cc5F)c5ccc([nH]5)c(-c5c(F)cc(S(=O)(=O)[O-])cc5F)c5nc(c(-c6c(F)cc(S(=O)(=O)[O-])cc6F)c6ccc3[nH]6)C=C5)C=C4)cc2)C1=O
REMARK SMILES IDX 21 1 20 2 19 3 17 4 18 5 16 7 11 8 12 9 13 10 15 11 14 12
REMARK SMILES IDX 10 13 9 14 8 15 3 16 4 17 5 18 92 19 6 20 93 22 7 23 2 24
REMARK SMILES IDX 1 25 22 26 23 27 24 28 25 30 26 31 27 32 91 33 28 34 90 35
REMARK SMILES IDX 29 36 30 37 31 38 84 39 32 40 89 41 83 42 85 43 33 44 88 45
REMARK SMILES IDX 82 46 81 47 34 49 68 50 47 51 67 52 48 53 51 54 66 55 86 56
REMARK SMILES IDX 49 57 50 58 65 60 87 61 52 62 35 63 36 64 45 65 37 66 38 67
REMARK SMILES IDX 44 68 46 69 39 70 40 71 41 72 42 73 43 74 69 75 70 76 79 77
REMARK SMILES IDX 71 78 72 79 78 80 80 81 73 82 74 83 75 84 76 85 77 86 53 87
REMARK SMILES IDX 54 88 63 89 55 90 56 91 62 92 64 93 57 94 58 95 59 96 60 97
REMARK SMILES IDX 61 98
REMARK H PARENT 19 6 5 21 23 29 85 48 51 59
REMARK Flexibility Score: inf
ROOT
ATOM      1  C   UNL     1       3.020  -2.772  -0.859  1.00  0.00     0.042 C 
ENDROOT
BRANCH   1   2
ATOM      2  C   UNL     1       2.876  -3.689  -2.049  1.00  0.00     0.118 C 
BRANCH   2   3
ATOM      3  N   UNL     1       3.436  -4.995  -1.941  1.00  0.00    -0.352 N 
ATOM      4  C   UNL     1       3.017  -6.188  -2.473  1.00  0.00     0.251 C 
ATOM      5  O   UNL     1       3.926  -7.028  -2.552  1.00  0.00    -0.269 OA
ATOM      6  H   UNL     1       4.256  -5.050  -1.398  1.00  0.00     0.163 HD
BRANCH   4   7
ATOM      7  C   UNL     1       1.615  -6.627  -2.863  1.00  0.00     0.048 A 
ATOM      8  C   UNL     1       0.432  -5.952  -3.246  1.00  0.00     0.007 A 
ATOM      9  C   UNL     1      -0.757  -6.672  -3.514  1.00  0.00     0.010 A 
ATOM     10  C   UNL     1      -0.805  -8.060  -3.422  1.00  0.00     0.001 A 
ATOM     11  C   UNL     1       1.509  -8.046  -2.784  1.00  0.00     0.014 A 
ATOM     12  C   UNL     1       0.333  -8.751  -3.052  1.00  0.00     0.001 A 
BRANCH   8  13
ATOM     13  C   UNL     1       0.173  -4.501  -3.287  1.00  0.00     0.143 C 
ATOM     14  N   UNL     1       0.693  -3.698  -4.161  1.00  0.00    -0.169 NA
BRANCH  14  15
ATOM     15  N   UNL     1       0.531  -2.337  -3.912  1.00  0.00    -0.146 N 
ATOM     16  C   UNL     1      -0.086  -0.214  -3.050  1.00  0.00     0.120 C 
ATOM     17  C   UNL     1      -0.736   0.727  -4.067  1.00  0.00     0.045 C 
ATOM     18  N   UNL     1       1.310  -0.304  -3.400  1.00  0.00    -0.322 N 
ATOM     19  C   UNL     1      -0.523  -1.684  -3.295  1.00  0.00     0.276 C 
ATOM     20  C   UNL     1       1.603  -1.479  -4.073  1.00  0.00     0.346 C 
ATOM     21  H   UNL     1       1.976   0.388  -3.185  1.00  0.00     0.166 HD
ATOM     22  O   UNL     1      -1.626  -2.138  -3.015  1.00  0.00    -0.270 OA
ATOM     23  O   UNL     1       2.670  -1.683  -4.620  1.00  0.00    -0.246 OA
BRANCH  16  24
ATOM     24  C   UNL     1      -0.409   0.289  -1.631  1.00  0.00     0.035 C 
ATOM     25  C   UNL     1       0.152  -0.501  -0.462  1.00  0.00     0.007 C 
ENDBRANCH  16  24
ENDBRANCH  14  15
ENDBRANCH   8  13
ENDBRANCH   4   7
ENDBRANCH   2   3
ENDBRANCH   1   2
BRANCH   1  26
ATOM     26  C   UNL     1       4.260  -1.898  -0.837  1.00  0.00     0.118 C 
BRANCH  26  27
ATOM     27  N   UNL     1       4.292  -0.858  -1.869  1.00  0.00    -0.352 N 
ATOM     28  C   UNL     1       3.992   0.487  -1.884  1.00  0.00     0.251 C 
ATOM     29  H   UNL     1       4.595  -1.194  -2.744  1.00  0.00     0.163 HD
ATOM     30  O   UNL     1       4.016   1.085  -2.961  1.00  0.00    -0.269 OA
BRANCH  28  31
ATOM     31  C   UNL     1       3.493   1.219  -0.696  1.00  0.00     0.039 A 
ATOM     32  C   UNL     1       2.551   2.249  -0.883  1.00  0.00     0.014 A 
ATOM     33  C   UNL     1       3.896   0.905   0.593  1.00  0.00     0.014 A 
ATOM     34  C   UNL     1       1.931   2.864   0.214  1.00  0.00     0.010 A 
ATOM     35  C   UNL     1       3.212   1.434   1.679  1.00  0.00     0.010 A 
ATOM     36  C   UNL     1       2.233   2.429   1.505  1.00  0.00    -0.014 A 
BRANCH  36  37
ATOM     37  C   UNL     1       1.722   3.078   2.738  1.00  0.00     0.031 A 
ATOM     38  C   UNL     1       2.740   3.749   3.618  1.00  0.00     0.074 A 
ATOM     39  C   UNL     1       0.450   2.922   3.152  1.00  0.00     0.049 A 
ATOM     40  N   UNL     1       2.667   4.063   4.880  1.00  0.00    -0.248 NA
ATOM     41  C   UNL     1       4.046   4.042   2.995  1.00  0.00     0.031 C 
ATOM     42  C   UNL     1      -0.632   2.310   2.384  1.00  0.00     0.029 A 
ATOM     43  N   UNL     1      -0.132   3.220   4.362  1.00  0.00    -0.354 N 
ATOM     44  C   UNL     1       3.930   4.535   5.216  1.00  0.00     0.074 A 
ATOM     45  C   UNL     1       4.761   4.426   4.040  1.00  0.00     0.031 C 
ATOM     46  C   UNL     1      -1.730   2.226   3.157  1.00  0.00     0.029 A 
ATOM     47  C   UNL     1      -1.420   2.749   4.486  1.00  0.00     0.049 A 
ATOM     48  H   UNL     1       0.329   3.723   5.072  1.00  0.00     0.167 HD
ATOM     49  C   UNL     1       4.351   5.028   6.400  1.00  0.00     0.037 A 
ATOM     50  C   UNL     1      -2.237   2.712   5.560  1.00  0.00     0.037 A 
ATOM     51  C   UNL     1       3.494   5.194   7.539  1.00  0.00     0.049 A 
ATOM     52  C   UNL     1      -1.745   3.278   6.872  1.00  0.00     0.074 A 
ATOM     53  C   UNL     1       3.792   5.775   8.757  1.00  0.00     0.029 A 
ATOM     54  N   UNL     1       2.170   4.787   7.595  1.00  0.00    -0.354 N 
ATOM     55  N   UNL     1      -0.568   3.781   7.163  1.00  0.00    -0.248 NA
ATOM     56  C   UNL     1      -2.689   3.284   8.000  1.00  0.00     0.031 C 
ATOM     57  C   UNL     1       2.662   5.673   9.571  1.00  0.00     0.029 A 
ATOM     58  C   UNL     1       1.642   5.088   8.836  1.00  0.00     0.049 A 
ATOM     59  H   UNL     1       1.680   4.350   6.862  1.00  0.00     0.167 HD
ATOM     60  C   UNL     1      -0.653   4.214   8.484  1.00  0.00     0.074 A 
ATOM     61  C   UNL     1      -1.990   3.905   8.941  1.00  0.00     0.031 C 
ATOM     62  C   UNL     1       0.288   4.821   9.247  1.00  0.00     0.037 A 
BRANCH  49  63
ATOM     63  C   UNL     1       5.789   5.436   6.527  1.00  0.00     0.058 A 
ATOM     64  C   UNL     1       6.299   6.565   5.869  1.00  0.00     0.135 A 
ATOM     65  C   UNL     1       6.651   4.725   7.378  1.00  0.00     0.135 A 
ATOM     66  F   UNL     1       5.524   7.264   5.023  1.00  0.00    -0.206 F 
ATOM     67  C   UNL     1       7.615   6.973   6.044  1.00  0.00     0.059 A 
ATOM     68  C   UNL     1       7.962   5.133   7.593  1.00  0.00     0.059 A 
ATOM     69  F   UNL     1       6.215   3.630   8.021  1.00  0.00    -0.206 F 
ATOM     70  C   UNL     1       8.436   6.257   6.918  1.00  0.00     0.060 A 
BRANCH  70  71
ATOM     71  S   UNL     1      10.122   6.841   7.181  1.00  0.00     0.124 S 
ATOM     72  O   UNL     1      10.747   6.510   5.905  1.00  0.00    -0.237 OA
ATOM     73  O   UNL     1       9.920   8.263   7.438  1.00  0.00    -0.237 OA
ATOM     74  O   UNL     1      10.579   6.058   8.325  1.00  0.00    -0.744 OA
ENDBRANCH  70  71
ENDBRANCH  49  63
BRANCH  50  75
ATOM     75  C   UNL     1      -3.601   2.118   5.464  1.00  0.00     0.058 A 
ATOM     76  C   UNL     1      -4.747   2.919   5.591  1.00  0.00     0.135 A 
ATOM     77  C   UNL     1      -3.791   0.737   5.298  1.00  0.00     0.135 A 
ATOM     78  F   UNL     1      -4.622   4.245   5.757  1.00  0.00    -0.206 F 
ATOM     79  C   UNL     1      -6.027   2.371   5.602  1.00  0.00     0.059 A 
ATOM     80  C   UNL     1      -5.062   0.168   5.276  1.00  0.00     0.059 A 
ATOM     81  F   UNL     1      -2.732  -0.075   5.153  1.00  0.00    -0.206 F 
ATOM     82  C   UNL     1      -6.173   0.992   5.451  1.00  0.00     0.060 A 
BRANCH  82  83
ATOM     83  S   UNL     1      -7.839   0.292   5.474  1.00  0.00     0.124 S 
ATOM     84  O   UNL     1      -8.197   0.434   6.881  1.00  0.00    -0.237 OA
ATOM     85  O   UNL     1      -8.549   1.164   4.543  1.00  0.00    -0.237 OA
ATOM     86  O   UNL     1      -7.634  -1.076   5.009  1.00  0.00    -0.744 OA
ENDBRANCH  82  83
ENDBRANCH  50  75
BRANCH  62  87
ATOM     87  C   UNL     1      -0.097   5.286  10.623  1.00  0.00     0.058 A 
ATOM     88  C   UNL     1      -0.239   4.395  11.696  1.00  0.00     0.135 A 
ATOM     89  C   UNL     1      -0.179   6.663  10.893  1.00  0.00     0.135 A 
ATOM     90  F   UNL     1      -0.175   3.070  11.488  1.00  0.00    -0.206 F 
ATOM     91  C   UNL     1      -0.440   4.854  12.994  1.00  0.00     0.059 A 
ATOM     92  C   UNL     1      -0.350   7.144  12.186  1.00  0.00     0.059 A 
ATOM     93  F   UNL     1      -0.038   7.556   9.900  1.00  0.00    -0.206 F 
ATOM     94  C   UNL     1      -0.478   6.230  13.231  1.00  0.00     0.060 A 
BRANCH  94  95
ATOM     95  S   UNL     1      -0.636   6.810  14.932  1.00  0.00     0.124 S 
ATOM     96  O   UNL     1      -2.026   6.479  15.229  1.00  0.00    -0.237 OA
ATOM     97  O   UNL     1       0.369   6.012  15.627  1.00  0.00    -0.237 OA
ATOM     98  O   UNL     1      -0.338   8.236  14.836  1.00  0.00    -0.744 OA
ENDBRANCH  94  95
ENDBRANCH  62  87
ENDBRANCH  36  37
ENDBRANCH  28  31
ENDBRANCH  26  27
ENDBRANCH   1  26
TORSDOF 16
