REMARK SMILES CC1=C(C)C[C@H](C(=O)Nc2nc(-c3ccc(C)cc3)c(C)s2)[C@@H](C(=O)NCCCNC(=O)c2ccc(-c3c4nc(c(-c5c(F)cc(S(=O)(=O)[O-])cc5F)c5ccc([nH]5)c(-c5c(F)cc(S(=O)(=O)[O-])cc5F)c5nc(c(-c6c(F)cc(S(=O)(=O)[O-])cc6F)c6ccc3[nH]6)C=C5)C=C4)cc2)C1
REMARK SMILES IDX 28 1 27 2 26 3 24 4 25 5 23 7 1 8 2 9 3 10 99 11 4 12 5 13
REMARK SMILES IDX 6 14 7 15 8 16 9 17 10 19 11 20 22 21 12 22 20 23 21 24
REMARK SMILES IDX 13 25 14 26 19 27 15 28 18 29 16 30 17 31 29 32 30 33 31 34
REMARK SMILES IDX 32 36 33 37 34 38 98 39 35 40 97 41 36 42 37 43 38 44 91 45
REMARK SMILES IDX 39 46 96 47 90 48 92 49 40 50 95 51 89 52 88 53 41 55 75 56
REMARK SMILES IDX 54 57 74 58 55 59 58 60 73 61 93 62 56 63 57 64 72 66 94 67
REMARK SMILES IDX 59 68 42 69 43 70 52 71 44 72 45 73 51 74 53 75 46 76 47 77
REMARK SMILES IDX 48 78 49 79 50 80 76 81 77 82 86 83 78 84 79 85 85 86 87 87
REMARK SMILES IDX 80 88 81 89 82 90 83 91 84 92 60 93 61 94 70 95 62 96 63 97
REMARK SMILES IDX 69 98 71 99 64 100 65 101 66 102 67 103 68 104
REMARK H PARENT 26 6 9 18 30 35 92 54 58 65
REMARK Flexibility Score: inf
ROOT
ATOM      1  C   UNL     1       2.318  -1.151   2.773  1.00  0.00     0.042 C 
ENDROOT
BRANCH   1   2
ATOM      2  C   UNL     1       1.597  -2.441   3.154  1.00  0.00     0.117 C 
BRANCH   2   3
ATOM      3  N   UNL     1       0.220  -2.199   3.565  1.00  0.00    -0.356 N 
ATOM      4  C   UNL     1      -0.967  -2.206   2.906  1.00  0.00     0.224 C 
ATOM      5  O   UNL     1      -1.946  -1.759   3.521  1.00  0.00    -0.275 OA
ATOM      6  H   UNL     1       0.132  -1.986   4.522  1.00  0.00     0.163 HD
BRANCH   4   7
ATOM      7  C   UNL     1      -1.156  -2.610   1.441  1.00  0.00     0.095 C 
ATOM      8  C   UNL     1       0.824   0.175  -0.378  1.00  0.00     0.039 C 
ATOM      9  C   UNL     1       0.400  -1.245  -0.095  1.00  0.00    -0.074 C 
ATOM     10  C   UNL     1       1.130  -2.337  -0.392  1.00  0.00    -0.074 C 
ATOM     11  C   UNL     1      -0.950  -1.375   0.558  1.00  0.00     0.045 C 
ATOM     12  C   UNL     1       2.457  -2.313  -1.106  1.00  0.00     0.039 C 
ATOM     13  C   UNL     1       0.637  -3.732  -0.082  1.00  0.00     0.045 C 
ATOM     14  C   UNL     1      -0.462  -3.903   0.994  1.00  0.00     0.095 C 
BRANCH  14  15
ATOM     15  C   UNL     1      -1.479  -4.937   0.470  1.00  0.00     0.230 C 
ATOM     16  O   UNL     1      -1.908  -4.890  -0.689  1.00  0.00    -0.274 OA
ATOM     17  N   UNL     1      -1.855  -6.000   1.241  1.00  0.00    -0.302 N 
ATOM     18  H   UNL     1      -2.171  -6.808   0.774  1.00  0.00     0.172 HD
BRANCH  17  19
ATOM     19  C   UNL     1      -1.830  -6.033   2.602  1.00  0.00     0.190 A 
ATOM     20  N   UNL     1      -1.669  -5.025   3.405  1.00  0.00    -0.220 NA
ATOM     21  S   UNL     1      -2.132  -7.543   3.328  1.00  0.00    -0.101 S 
ATOM     22  C   UNL     1      -1.829  -5.441   4.710  1.00  0.00     0.086 A 
ATOM     23  C   UNL     1      -2.003  -6.802   4.884  1.00  0.00     0.031 A 
ATOM     24  C   UNL     1      -2.123  -7.615   6.123  1.00  0.00     0.059 C 
BRANCH  22  25
ATOM     25  C   UNL     1      -1.857  -4.448   5.759  1.00  0.00     0.001 A 
ATOM     26  C   UNL     1      -0.690  -4.083   6.425  1.00  0.00     0.010 A 
ATOM     27  C   UNL     1      -3.046  -3.747   5.996  1.00  0.00     0.010 A 
ATOM     28  C   UNL     1      -0.709  -2.987   7.289  1.00  0.00     0.004 A 
ATOM     29  C   UNL     1      -3.062  -2.665   6.875  1.00  0.00     0.004 A 
ATOM     30  C   UNL     1      -1.885  -2.256   7.504  1.00  0.00    -0.051 A 
ATOM     31  C   UNL     1      -1.904  -1.059   8.408  1.00  0.00     0.044 C 
ENDBRANCH  22  25
ENDBRANCH  17  19
ENDBRANCH  14  15
ENDBRANCH   4   7
ENDBRANCH   2   3
ENDBRANCH   1   2
BRANCH   1  32
ATOM     32  C   UNL     1       2.783  -0.364   3.983  1.00  0.00     0.118 C 
BRANCH  32  33
ATOM     33  N   UNL     1       4.210  -0.468   4.262  1.00  0.00    -0.352 N 
ATOM     34  C   UNL     1       4.843   0.533   4.999  1.00  0.00     0.251 C 
ATOM     35  H   UNL     1       4.723  -1.240   3.932  1.00  0.00     0.163 HD
ATOM     36  O   UNL     1       5.702   1.274   4.575  1.00  0.00    -0.269 OA
BRANCH  34  37
ATOM     37  C   UNL     1       4.334   0.645   6.385  1.00  0.00     0.039 A 
ATOM     38  C   UNL     1       5.000   0.000   7.429  1.00  0.00     0.014 A 
ATOM     39  C   UNL     1       3.054   1.167   6.555  1.00  0.00     0.014 A 
ATOM     40  C   UNL     1       4.320  -0.236   8.627  1.00  0.00     0.010 A 
ATOM     41  C   UNL     1       2.352   0.832   7.691  1.00  0.00     0.010 A 
ATOM     42  C   UNL     1       2.972   0.114   8.726  1.00  0.00    -0.014 A 
BRANCH  42  43
ATOM     43  C   UNL     1       2.086  -0.258   9.827  1.00  0.00     0.031 A 
ATOM     44  C   UNL     1       1.492   0.793  10.690  1.00  0.00     0.074 A 
ATOM     45  C   UNL     1       1.615  -1.522   9.913  1.00  0.00     0.049 A 
ATOM     46  N   UNL     1       0.798   0.560  11.752  1.00  0.00    -0.248 NA
ATOM     47  C   UNL     1       1.648   2.217  10.416  1.00  0.00     0.031 C 
ATOM     48  C   UNL     1       0.412  -1.966  10.615  1.00  0.00     0.029 A 
ATOM     49  N   UNL     1       2.201  -2.713   9.487  1.00  0.00    -0.354 N 
ATOM     50  C   UNL     1       0.181   1.732  12.123  1.00  0.00     0.074 A 
ATOM     51  C   UNL     1       0.776   2.744  11.280  1.00  0.00     0.031 C 
ATOM     52  C   UNL     1       0.471  -3.292  10.789  1.00  0.00     0.029 A 
ATOM     53  C   UNL     1       1.806  -3.703  10.406  1.00  0.00     0.049 A 
ATOM     54  H   UNL     1       2.777  -2.838   8.698  1.00  0.00     0.167 HD
ATOM     55  C   UNL     1      -0.844   1.697  13.025  1.00  0.00     0.037 A 
ATOM     56  C   UNL     1       2.684  -4.354  11.227  1.00  0.00     0.037 A 
ATOM     57  C   UNL     1      -1.050   0.347  13.562  1.00  0.00     0.049 A 
ATOM     58  C   UNL     1       2.439  -4.067  12.703  1.00  0.00     0.074 A 
ATOM     59  C   UNL     1      -1.981  -0.661  13.366  1.00  0.00     0.029 A 
ATOM     60  N   UNL     1      -0.017  -0.238  14.276  1.00  0.00    -0.354 N 
ATOM     61  N   UNL     1       1.471  -3.314  13.152  1.00  0.00    -0.248 NA
ATOM     62  C   UNL     1       3.301  -4.542  13.786  1.00  0.00     0.031 C 
ATOM     63  C   UNL     1      -1.481  -1.858  13.963  1.00  0.00     0.029 A 
ATOM     64  C   UNL     1      -0.245  -1.579  14.514  1.00  0.00     0.049 A 
ATOM     65  H   UNL     1       0.785   0.246  14.579  1.00  0.00     0.167 HD
ATOM     66  C   UNL     1       1.590  -3.151  14.502  1.00  0.00     0.074 A 
ATOM     67  C   UNL     1       2.741  -3.958  14.862  1.00  0.00     0.031 C 
ATOM     68  C   UNL     1       0.768  -2.340  15.228  1.00  0.00     0.037 A 
BRANCH  55  69
ATOM     69  C   UNL     1      -1.785   2.863  13.249  1.00  0.00     0.058 A 
ATOM     70  C   UNL     1      -3.144   2.657  13.567  1.00  0.00     0.135 A 
ATOM     71  C   UNL     1      -1.413   4.217  13.119  1.00  0.00     0.135 A 
ATOM     72  F   UNL     1      -3.626   1.434  13.824  1.00  0.00    -0.206 F 
ATOM     73  C   UNL     1      -4.078   3.695  13.624  1.00  0.00     0.059 A 
ATOM     74  C   UNL     1      -2.338   5.266  13.103  1.00  0.00     0.059 A 
ATOM     75  F   UNL     1      -0.124   4.579  13.052  1.00  0.00    -0.206 F 
ATOM     76  C   UNL     1      -3.675   4.994  13.348  1.00  0.00     0.060 A 
BRANCH  76  77
ATOM     77  S   UNL     1      -4.912   6.305  13.315  1.00  0.00     0.124 S 
ATOM     78  O   UNL     1      -5.938   5.743  12.442  1.00  0.00    -0.237 OA
ATOM     79  O   UNL     1      -5.270   6.417  14.725  1.00  0.00    -0.237 OA
ATOM     80  O   UNL     1      -4.185   7.443  12.759  1.00  0.00    -0.744 OA
ENDBRANCH  76  77
ENDBRANCH  55  69
BRANCH  56  81
ATOM     81  C   UNL     1       3.994  -4.616  10.566  1.00  0.00     0.058 A 
ATOM     82  C   UNL     1       3.972  -5.492   9.460  1.00  0.00     0.135 A 
ATOM     83  C   UNL     1       5.028  -3.672  10.628  1.00  0.00     0.135 A 
ATOM     84  F   UNL     1       3.024  -6.440   9.374  1.00  0.00    -0.206 F 
ATOM     85  C   UNL     1       4.783  -5.280   8.351  1.00  0.00     0.059 A 
ATOM     86  C   UNL     1       5.866  -3.457   9.532  1.00  0.00     0.059 A 
ATOM     87  F   UNL     1       5.096  -2.812  11.655  1.00  0.00    -0.206 F 
ATOM     88  C   UNL     1       5.663  -4.201   8.367  1.00  0.00     0.060 A 
BRANCH  88  89
ATOM     89  S   UNL     1       6.388  -3.665   6.794  1.00  0.00     0.124 S 
ATOM     90  O   UNL     1       6.913  -4.913   6.254  1.00  0.00    -0.237 OA
ATOM     91  O   UNL     1       5.224  -3.111   6.100  1.00  0.00    -0.237 OA
ATOM     92  O   UNL     1       7.383  -2.685   7.211  1.00  0.00    -0.744 OA
ENDBRANCH  88  89
ENDBRANCH  56  81
BRANCH  68  93
ATOM     93  C   UNL     1       0.876  -2.195  16.714  1.00  0.00     0.058 A 
ATOM     94  C   UNL     1       0.875  -3.308  17.568  1.00  0.00     0.135 A 
ATOM     95  C   UNL     1       0.846  -0.926  17.328  1.00  0.00     0.135 A 
ATOM     96  F   UNL     1       0.864  -4.553  17.067  1.00  0.00    -0.206 F 
ATOM     97  C   UNL     1       0.875  -3.171  18.955  1.00  0.00     0.059 A 
ATOM     98  C   UNL     1       0.800  -0.765  18.708  1.00  0.00     0.059 A 
ATOM     99  F   UNL     1       0.886   0.199  16.597  1.00  0.00    -0.206 F 
ATOM    100  C   UNL     1       0.837  -1.895  19.516  1.00  0.00     0.060 A 
BRANCH 100 101
ATOM    101  S   UNL     1       0.817  -1.707  21.308  1.00  0.00     0.124 S 
ATOM    102  O   UNL     1       0.092  -2.895  21.751  1.00  0.00    -0.237 OA
ATOM    103  O   UNL     1       2.245  -1.691  21.611  1.00  0.00    -0.237 OA
ATOM    104  O   UNL     1       0.115  -0.443  21.504  1.00  0.00    -0.744 OA
ENDBRANCH 100 101
ENDBRANCH  68  93
ENDBRANCH  42  43
ENDBRANCH  34  37
ENDBRANCH  32  33
ENDBRANCH   1  32
TORSDOF 16
