REMARK SMILES C[C@H]1[C@H](C(=O)NCCCNC(=O)c2ccc(-c3c4nc(c(-c5c(F)cc(S(=O)(=O)[O-])cc5F)c5ccc([nH]5)c(-c5c(F)cc(S(=O)(=O)[O-])cc5F)c5nc(c(-c6c(F)cc(S(=O)(=O)[O-])cc6F)c6ccc3[nH]6)C=C5)C=C4)cc2)CC[N@@H+]1Cc1nnnn1-c1ccccc1
REMARK SMILES IDX 8 1 7 2 6 3 4 4 5 5 3 7 1 8 2 9 81 10 79 11 80 12 82 14
REMARK SMILES IDX 83 15 84 16 87 17 85 18 86 19 88 20 89 21 93 22 90 23 92 24
REMARK SMILES IDX 91 25 9 26 10 27 11 28 12 30 13 31 14 32 78 33 15 34 77 35
REMARK SMILES IDX 16 36 17 37 18 38 71 39 19 40 76 41 70 42 72 43 20 44 75 45
REMARK SMILES IDX 69 46 68 47 21 49 55 50 34 51 54 52 35 53 38 54 53 55 73 56
REMARK SMILES IDX 36 57 37 58 52 60 74 61 39 62 22 63 23 64 32 65 24 66 25 67
REMARK SMILES IDX 31 68 33 69 26 70 27 71 28 72 29 73 30 74 56 75 57 76 66 77
REMARK SMILES IDX 58 78 59 79 65 80 67 81 60 82 61 83 62 84 63 85 64 86 40 87
REMARK SMILES IDX 41 88 50 89 42 90 43 91 49 92 51 93 44 94 45 95 46 96 47 97
REMARK SMILES IDX 48 98
REMARK H PARENT 6 6 81 13 10 29 72 48 38 59
REMARK Flexibility Score: inf
ROOT
ATOM      1  C   UNL     1       0.534   0.923   4.016  1.00  0.00     0.042 C 
ENDROOT
BRANCH   1   2
ATOM      2  C   UNL     1      -0.388   1.671   3.060  1.00  0.00     0.117 C 
BRANCH   2   3
ATOM      3  N   UNL     1       0.314   2.598   2.206  1.00  0.00    -0.356 N 
ATOM      4  C   UNL     1       0.595   2.512   0.882  1.00  0.00     0.229 C 
ATOM      5  O   UNL     1       1.043   3.530   0.342  1.00  0.00    -0.275 OA
ATOM      6  H   UNL     1       0.637   3.414   2.651  1.00  0.00     0.163 HD
BRANCH   4   7
ATOM      7  C   UNL     1       0.338   1.266   0.042  1.00  0.00     0.142 C 
ATOM      8  C   UNL     1       2.102  -0.505  -0.163  1.00  0.00     0.076 C 
ATOM      9  C   UNL     1       0.823  -0.097   0.586  1.00  0.00     0.194 C 
ATOM     10  N   UNL     1      -0.235  -1.067   0.243  1.00  0.00    -0.326 N 
ATOM     11  C   UNL     1      -1.111   1.027  -0.361  1.00  0.00     0.081 C 
ATOM     12  C   UNL     1      -1.084  -0.441  -0.755  1.00  0.00     0.263 C 
ATOM     13  H   UNL     1       0.208  -1.891  -0.163  1.00  0.00     0.348 HD
BRANCH  10  14
ATOM     14  C   UNL     1      -0.852  -1.893   1.301  1.00  0.00     0.343 C 
BRANCH  14  15
ATOM     15  C   UNL     1      -1.887  -1.318   2.225  1.00  0.00     0.210 A 
ATOM     16  N   UNL     1      -1.756  -1.133   3.528  1.00  0.00    -0.107 NA
ATOM     17  N   UNL     1      -3.145  -0.847   1.891  1.00  0.00    -0.192 N 
ATOM     18  N   UNL     1      -2.816  -0.359   3.925  1.00  0.00    -0.023 NA
ATOM     19  N   UNL     1      -3.597  -0.071   2.898  1.00  0.00    -0.040 NA
BRANCH  17  20
ATOM     20  C   UNL     1      -3.938  -1.101   0.767  1.00  0.00     0.069 A 
ATOM     21  C   UNL     1      -4.549  -0.031   0.102  1.00  0.00     0.028 A 
ATOM     22  C   UNL     1      -4.061  -2.412   0.300  1.00  0.00     0.028 A 
ATOM     23  C   UNL     1      -5.203  -0.274  -1.103  1.00  0.00     0.002 A 
ATOM     24  C   UNL     1      -4.767  -2.649  -0.874  1.00  0.00     0.002 A 
ATOM     25  C   UNL     1      -5.312  -1.580  -1.588  1.00  0.00     0.000 A 
ENDBRANCH  17  20
ENDBRANCH  14  15
ENDBRANCH  10  14
ENDBRANCH   4   7
ENDBRANCH   2   3
ENDBRANCH   1   2
BRANCH   1  26
ATOM     26  C   UNL     1       0.295   1.250   5.481  1.00  0.00     0.118 C 
BRANCH  26  27
ATOM     27  N   UNL     1      -1.074   1.052   5.940  1.00  0.00    -0.352 N 
ATOM     28  C   UNL     1      -1.571   0.544   7.119  1.00  0.00     0.251 C 
ATOM     29  H   UNL     1      -1.763   1.328   5.293  1.00  0.00     0.163 HD
ATOM     30  O   UNL     1      -2.779   0.468   7.284  1.00  0.00    -0.269 OA
BRANCH  28  31
ATOM     31  C   UNL     1      -0.653   0.037   8.164  1.00  0.00     0.039 A 
ATOM     32  C   UNL     1      -1.020  -1.116   8.866  1.00  0.00     0.014 A 
ATOM     33  C   UNL     1       0.564   0.657   8.437  1.00  0.00     0.014 A 
ATOM     34  C   UNL     1      -0.131  -1.686   9.778  1.00  0.00     0.010 A 
ATOM     35  C   UNL     1       1.495   0.022   9.247  1.00  0.00     0.010 A 
ATOM     36  C   UNL     1       1.155  -1.149   9.937  1.00  0.00    -0.014 A 
BRANCH  36  37
ATOM     37  C   UNL     1       2.159  -1.780  10.829  1.00  0.00     0.031 A 
ATOM     38  C   UNL     1       2.749  -0.989  11.968  1.00  0.00     0.074 A 
ATOM     39  C   UNL     1       2.598  -3.026  10.563  1.00  0.00     0.049 A 
ATOM     40  N   UNL     1       3.712  -1.315  12.789  1.00  0.00    -0.248 NA
ATOM     41  C   UNL     1       2.213   0.366  12.184  1.00  0.00     0.031 C 
ATOM     42  C   UNL     1       2.152  -3.862   9.445  1.00  0.00     0.029 A 
ATOM     43  N   UNL     1       3.528  -3.804  11.204  1.00  0.00    -0.354 N 
ATOM     44  C   UNL     1       3.911  -0.203  13.599  1.00  0.00     0.074 A 
ATOM     45  C   UNL     1       3.021   0.832  13.123  1.00  0.00     0.031 C 
ATOM     46  C   UNL     1       2.786  -5.044   9.496  1.00  0.00     0.029 A 
ATOM     47  C   UNL     1       3.715  -5.035  10.621  1.00  0.00     0.049 A 
ATOM     48  H   UNL     1       4.016  -3.509  12.007  1.00  0.00     0.167 HD
ATOM     49  C   UNL     1       4.735  -0.067  14.664  1.00  0.00     0.037 A 
ATOM     50  C   UNL     1       4.547  -6.041  10.953  1.00  0.00     0.037 A 
ATOM     51  C   UNL     1       5.590  -1.118  15.150  1.00  0.00     0.049 A 
ATOM     52  C   UNL     1       5.434  -5.879  12.156  1.00  0.00     0.074 A 
ATOM     53  C   UNL     1       6.422  -1.111  16.255  1.00  0.00     0.029 A 
ATOM     54  N   UNL     1       5.717  -2.368  14.560  1.00  0.00    -0.354 N 
ATOM     55  N   UNL     1       5.566  -4.841  12.949  1.00  0.00    -0.248 NA
ATOM     56  C   UNL     1       6.276  -7.026  12.519  1.00  0.00     0.031 C 
ATOM     57  C   UNL     1       7.083  -2.342  16.310  1.00  0.00     0.029 A 
ATOM     58  C   UNL     1       6.625  -3.136  15.270  1.00  0.00     0.049 A 
ATOM     59  H   UNL     1       5.233  -2.665  13.756  1.00  0.00     0.167 HD
ATOM     60  C   UNL     1       6.491  -5.216  13.916  1.00  0.00     0.074 A 
ATOM     61  C   UNL     1       6.868  -6.585  13.620  1.00  0.00     0.031 C 
ATOM     62  C   UNL     1       6.987  -4.497  14.954  1.00  0.00     0.037 A 
BRANCH  49  63
ATOM     63  C   UNL     1       4.735   1.258  15.379  1.00  0.00     0.058 A 
ATOM     64  C   UNL     1       3.619   1.702  16.110  1.00  0.00     0.135 A 
ATOM     65  C   UNL     1       5.865   2.091  15.348  1.00  0.00     0.135 A 
ATOM     66  F   UNL     1       2.503   0.957  16.160  1.00  0.00    -0.206 F 
ATOM     67  C   UNL     1       3.610   2.937  16.750  1.00  0.00     0.059 A 
ATOM     68  C   UNL     1       5.891   3.316  16.010  1.00  0.00     0.059 A 
ATOM     69  F   UNL     1       6.960   1.720  14.666  1.00  0.00    -0.206 F 
ATOM     70  C   UNL     1       4.751   3.738  16.694  1.00  0.00     0.060 A 
BRANCH  70  71
ATOM     71  S   UNL     1       4.723   5.335  17.533  1.00  0.00     0.124 S 
ATOM     72  O   UNL     1       3.846   6.108  16.659  1.00  0.00    -0.237 OA
ATOM     73  O   UNL     1       4.172   4.992  18.840  1.00  0.00    -0.237 OA
ATOM     74  O   UNL     1       6.124   5.744  17.535  1.00  0.00    -0.744 OA
ENDBRANCH  70  71
ENDBRANCH  49  63
BRANCH  50  75
ATOM     75  C   UNL     1       4.555  -7.293  10.148  1.00  0.00     0.058 A 
ATOM     76  C   UNL     1       4.038  -8.489  10.667  1.00  0.00     0.135 A 
ATOM     77  C   UNL     1       5.052  -7.313   8.835  1.00  0.00     0.135 A 
ATOM     78  F   UNL     1       3.555  -8.524  11.918  1.00  0.00    -0.206 F 
ATOM     79  C   UNL     1       4.027  -9.664   9.921  1.00  0.00     0.059 A 
ATOM     80  C   UNL     1       5.027  -8.468   8.060  1.00  0.00     0.059 A 
ATOM     81  F   UNL     1       5.540  -6.191   8.284  1.00  0.00    -0.206 F 
ATOM     82  C   UNL     1       4.520  -9.642   8.615  1.00  0.00     0.060 A 
BRANCH  82  83
ATOM     83  S   UNL     1       4.448 -11.158   7.636  1.00  0.00     0.124 S 
ATOM     84  O   UNL     1       5.493 -11.961   8.259  1.00  0.00    -0.237 OA
ATOM     85  O   UNL     1       3.077 -11.605   7.864  1.00  0.00    -0.237 OA
ATOM     86  O   UNL     1       4.730 -10.696   6.280  1.00  0.00    -0.744 OA
ENDBRANCH  82  83
ENDBRANCH  50  75
BRANCH  62  87
ATOM     87  C   UNL     1       7.970  -5.186  15.859  1.00  0.00     0.058 A 
ATOM     88  C   UNL     1       9.276  -5.482  15.440  1.00  0.00     0.135 A 
ATOM     89  C   UNL     1       7.608  -5.526  17.173  1.00  0.00     0.135 A 
ATOM     90  F   UNL     1       9.671  -5.182  14.192  1.00  0.00    -0.206 F 
ATOM     91  C   UNL     1      10.180  -6.122  16.281  1.00  0.00     0.059 A 
ATOM     92  C   UNL     1       8.506  -6.138  18.041  1.00  0.00     0.059 A 
ATOM     93  F   UNL     1       6.375  -5.253  17.628  1.00  0.00    -0.206 F 
ATOM     94  C   UNL     1       9.784  -6.448  17.579  1.00  0.00     0.060 A 
BRANCH  94  95
ATOM     95  S   UNL     1      10.970  -7.268  18.664  1.00  0.00     0.124 S 
ATOM     96  O   UNL     1      10.992  -8.617  18.109  1.00  0.00    -0.237 OA
ATOM     97  O   UNL     1      12.181  -6.479  18.459  1.00  0.00    -0.237 OA
ATOM     98  O   UNL     1      10.365  -7.143  19.987  1.00  0.00    -0.744 OA
ENDBRANCH  94  95
ENDBRANCH  62  87
ENDBRANCH  36  37
ENDBRANCH  28  31
ENDBRANCH  26  27
ENDBRANCH   1  26
TORSDOF 16
