REMARK SMILES Cc1oc(C[N@H+]2C[C@@H](C)[C@@H](C)C2)cc1C(=O)NCCCNC(=O)c1ccc(-c2c3nc(c(-c4c(F)cc(S(=O)(=O)[O-])cc4F)c4ccc([nH]4)c(-c4c(F)cc(S(=O)(=O)[O-])cc4F)c4nc(c(-c5c(F)cc(S(=O)(=O)[O-])cc5F)c5ccc2[nH]5)C=C4)C=C3)cc1
REMARK SMILES IDX 19 1 18 2 17 3 15 4 16 5 14 7 1 8 2 9 3 10 4 11 13 12 5 13
REMARK SMILES IDX 6 14 7 15 12 16 8 18 10 19 9 20 11 21 20 22 21 23 22 24
REMARK SMILES IDX 23 26 24 27 25 28 89 29 26 30 88 31 27 32 28 33 29 34 82 35
REMARK SMILES IDX 30 36 87 37 81 38 83 39 31 40 86 41 80 42 79 43 32 45 66 46
REMARK SMILES IDX 45 47 65 48 46 49 49 50 64 51 84 52 47 53 48 54 63 56 85 57
REMARK SMILES IDX 50 58 33 59 34 60 43 61 35 62 36 63 42 64 44 65 37 66 38 67
REMARK SMILES IDX 39 68 40 69 41 70 67 71 68 72 77 73 69 74 70 75 76 76 78 77
REMARK SMILES IDX 71 78 72 79 73 80 74 81 75 82 51 83 52 84 61 85 53 86 54 87
REMARK SMILES IDX 60 88 62 89 55 90 56 91 57 92 58 93 59 94
REMARK H PARENT 17 6 6 17 21 25 83 44 49 55
REMARK Flexibility Score: inf
ROOT
ATOM      1  C   UNL     1       3.513  -2.512   0.643  1.00  0.00     0.042 C 
ENDROOT
BRANCH   1   2
ATOM      2  C   UNL     1       2.614  -2.663  -0.585  1.00  0.00     0.118 C 
BRANCH   2   3
ATOM      3  N   UNL     1       1.308  -3.137  -0.209  1.00  0.00    -0.352 N 
ATOM      4  C   UNL     1       0.111  -2.518  -0.011  1.00  0.00     0.254 C 
ATOM      5  O   UNL     1      -0.823  -3.286   0.255  1.00  0.00    -0.269 OA
ATOM      6  H   UNL     1       1.272  -4.111  -0.066  1.00  0.00     0.163 HD
BRANCH   4   7
ATOM      7  C   UNL     1      -0.145  -1.081  -0.119  1.00  0.00     0.081 A 
ATOM      8  C   UNL     1       2.034   0.517  -0.092  1.00  0.00     0.088 C 
ATOM      9  C   UNL     1       0.625   0.080  -0.163  1.00  0.00     0.114 A 
ATOM     10  O   UNL     1      -0.186   1.174  -0.234  1.00  0.00    -0.460 OA
ATOM     11  C   UNL     1      -1.468   0.775  -0.099  1.00  0.00     0.159 A 
ATOM     12  C   UNL     1      -1.508  -0.594  -0.103  1.00  0.00     0.066 A 
BRANCH  11  13
ATOM     13  C   UNL     1      -2.486   1.843   0.119  1.00  0.00     0.338 C 
BRANCH  13  14
ATOM     14  N   UNL     1      -2.333   2.588   1.378  1.00  0.00    -0.328 N 
ATOM     15  C   UNL     1      -2.272   1.751   2.577  1.00  0.00     0.266 C 
ATOM     16  C   UNL     1      -1.199   3.521   1.409  1.00  0.00     0.266 C 
ATOM     17  H   UNL     1      -3.199   3.129   1.397  1.00  0.00     0.348 HD
ATOM     18  C   UNL     1      -1.672   2.687   3.621  1.00  0.00     0.049 C 
ATOM     19  C   UNL     1      -0.606   3.453   2.826  1.00  0.00     0.049 C 
ATOM     20  C   UNL     1      -1.187   1.944   4.858  1.00  0.00     0.014 C 
ATOM     21  C   UNL     1       0.775   2.796   2.824  1.00  0.00     0.014 C 
ENDBRANCH  13  14
ENDBRANCH  11  13
ENDBRANCH   4   7
ENDBRANCH   2   3
ENDBRANCH   1   2
BRANCH   1  22
ATOM     22  C   UNL     1       4.189  -3.811   1.062  1.00  0.00     0.118 C 
BRANCH  22  23
ATOM     23  N   UNL     1       5.160  -4.241   0.063  1.00  0.00    -0.352 N 
ATOM     24  C   UNL     1       6.505  -4.459   0.183  1.00  0.00     0.251 C 
ATOM     25  H   UNL     1       4.791  -4.398  -0.836  1.00  0.00     0.163 HD
ATOM     26  O   UNL     1       7.189  -4.545  -0.842  1.00  0.00    -0.269 OA
BRANCH  24  27
ATOM     27  C   UNL     1       7.138  -4.591   1.509  1.00  0.00     0.039 A 
ATOM     28  C   UNL     1       8.422  -4.073   1.699  1.00  0.00     0.014 A 
ATOM     29  C   UNL     1       6.494  -5.266   2.551  1.00  0.00     0.014 A 
ATOM     30  C   UNL     1       9.041  -4.196   2.943  1.00  0.00     0.010 A 
ATOM     31  C   UNL     1       7.079  -5.316   3.812  1.00  0.00     0.010 A 
ATOM     32  C   UNL     1       8.363  -4.794   4.018  1.00  0.00    -0.014 A 
BRANCH  32  33
ATOM     33  C   UNL     1       8.987  -4.893   5.360  1.00  0.00     0.031 A 
ATOM     34  C   UNL     1       9.277  -6.242   5.960  1.00  0.00     0.074 A 
ATOM     35  C   UNL     1       9.232  -3.767   6.058  1.00  0.00     0.049 A 
ATOM     36  N   UNL     1       9.754  -6.533   7.142  1.00  0.00    -0.248 NA
ATOM     37  C   UNL     1       8.962  -7.419   5.134  1.00  0.00     0.031 C 
ATOM     38  C   UNL     1       8.944  -2.406   5.597  1.00  0.00     0.029 A 
ATOM     39  N   UNL     1       9.770  -3.586   7.307  1.00  0.00    -0.354 N 
ATOM     40  C   UNL     1       9.783  -7.922   7.208  1.00  0.00     0.074 A 
ATOM     41  C   UNL     1       9.222  -8.415   5.969  1.00  0.00     0.031 C 
ATOM     42  C   UNL     1       9.330  -1.531   6.539  1.00  0.00     0.029 A 
ATOM     43  C   UNL     1       9.853  -2.266   7.685  1.00  0.00     0.049 A 
ATOM     44  H   UNL     1      10.068  -4.330   7.878  1.00  0.00     0.167 HD
ATOM     45  C   UNL     1      10.256  -8.712   8.200  1.00  0.00     0.037 A 
ATOM     46  C   UNL     1      10.294  -1.713   8.831  1.00  0.00     0.037 A 
ATOM     47  C   UNL     1      10.835  -8.207   9.418  1.00  0.00     0.049 A 
ATOM     48  C   UNL     1      10.819  -2.611   9.917  1.00  0.00     0.074 A 
ATOM     49  C   UNL     1      11.398  -8.919  10.463  1.00  0.00     0.029 A 
ATOM     50  N   UNL     1      10.925  -6.864   9.756  1.00  0.00    -0.354 N 
ATOM     51  N   UNL     1      10.899  -3.921   9.937  1.00  0.00    -0.248 NA
ATOM     52  C   UNL     1      11.322  -1.959  11.133  1.00  0.00     0.031 C 
ATOM     53  C   UNL     1      11.785  -8.009  11.453  1.00  0.00     0.029 A 
ATOM     54  C   UNL     1      11.514  -6.727  11.001  1.00  0.00     0.049 A 
ATOM     55  H   UNL     1      10.615  -6.119   9.192  1.00  0.00     0.167 HD
ATOM     56  C   UNL     1      11.485  -4.248  11.154  1.00  0.00     0.074 A 
ATOM     57  C   UNL     1      11.752  -2.998  11.836  1.00  0.00     0.031 C 
ATOM     58  C   UNL     1      11.777  -5.471  11.661  1.00  0.00     0.037 A 
BRANCH  45  59
ATOM     59  C   UNL     1      10.172 -10.203   8.009  1.00  0.00     0.058 A 
ATOM     60  C   UNL     1      10.961 -10.871   7.058  1.00  0.00     0.135 A 
ATOM     61  C   UNL     1       9.317 -10.979   8.808  1.00  0.00     0.135 A 
ATOM     62  F   UNL     1      11.785 -10.178   6.256  1.00  0.00    -0.206 F 
ATOM     63  C   UNL     1      10.882 -12.249   6.884  1.00  0.00     0.059 A 
ATOM     64  C   UNL     1       9.244 -12.363   8.672  1.00  0.00     0.059 A 
ATOM     65  F   UNL     1       8.539 -10.395   9.732  1.00  0.00    -0.206 F 
ATOM     66  C   UNL     1      10.021 -12.987   7.697  1.00  0.00     0.060 A 
BRANCH  66  67
ATOM     67  S   UNL     1       9.935 -14.775   7.461  1.00  0.00     0.124 S 
ATOM     68  O   UNL     1       9.216 -14.867   6.195  1.00  0.00    -0.237 OA
ATOM     69  O   UNL     1      11.345 -15.151   7.417  1.00  0.00    -0.237 OA
ATOM     70  O   UNL     1       9.202 -15.238   8.634  1.00  0.00    -0.744 OA
ENDBRANCH  66  67
ENDBRANCH  45  59
BRANCH  46  71
ATOM     71  C   UNL     1      10.278  -0.235   8.995  1.00  0.00     0.058 A 
ATOM     72  C   UNL     1      11.472   0.502   9.016  1.00  0.00     0.135 A 
ATOM     73  C   UNL     1       9.072   0.473   9.113  1.00  0.00     0.135 A 
ATOM     74  F   UNL     1      12.651  -0.129   8.911  1.00  0.00    -0.206 F 
ATOM     75  C   UNL     1      11.472   1.885   9.166  1.00  0.00     0.059 A 
ATOM     76  C   UNL     1       9.045   1.858   9.236  1.00  0.00     0.059 A 
ATOM     77  F   UNL     1       7.901  -0.183   9.078  1.00  0.00    -0.206 F 
ATOM     78  C   UNL     1      10.252   2.555   9.273  1.00  0.00     0.060 A 
BRANCH  78  79
ATOM     79  S   UNL     1      10.263   4.355   9.419  1.00  0.00     0.124 S 
ATOM     80  O   UNL     1      10.742   4.536  10.784  1.00  0.00    -0.237 OA
ATOM     81  O   UNL     1      11.189   4.742   8.359  1.00  0.00    -0.237 OA
ATOM     82  O   UNL     1       8.868   4.718   9.185  1.00  0.00    -0.744 OA
ENDBRANCH  78  79
ENDBRANCH  46  71
BRANCH  58  83
ATOM     83  C   UNL     1      12.452  -5.518  13.005  1.00  0.00     0.058 A 
ATOM     84  C   UNL     1      11.764  -5.211  14.188  1.00  0.00     0.135 A 
ATOM     85  C   UNL     1      13.792  -5.925  13.111  1.00  0.00     0.135 A 
ATOM     86  F   UNL     1      10.483  -4.811  14.142  1.00  0.00    -0.206 F 
ATOM     87  C   UNL     1      12.388  -5.281  15.429  1.00  0.00     0.059 A 
ATOM     88  C   UNL     1      14.428  -6.030  14.343  1.00  0.00     0.059 A 
ATOM     89  F   UNL     1      14.492  -6.240  12.010  1.00  0.00    -0.206 F 
ATOM     90  C   UNL     1      13.720  -5.693  15.496  1.00  0.00     0.060 A 
BRANCH  90  91
ATOM     91  S   UNL     1      14.509  -5.809  17.116  1.00  0.00     0.124 S 
ATOM     92  O   UNL     1      14.705  -4.402  17.448  1.00  0.00    -0.237 OA
ATOM     93  O   UNL     1      13.502  -6.513  17.904  1.00  0.00    -0.237 OA
ATOM     94  O   UNL     1      15.728  -6.566  16.847  1.00  0.00    -0.744 OA
ENDBRANCH  90  91
ENDBRANCH  58  83
ENDBRANCH  32  33
ENDBRANCH  24  27
ENDBRANCH  22  23
ENDBRANCH   1  22
TORSDOF 15
