REMARK SMILES Cc1[nH]c2ccc(Br)cc2c(=O)c1CCC(=O)NCCCNC(=O)c1ccc(-c2c3nc(c(-c4c(F)cc(S(=O)(=O)[O-])cc4F)c4ccc([nH]4)c(-c4c(F)cc(S(=O)(=O)[O-])cc4F)c4nc(c(-c5c(F)cc(S(=O)(=O)[O-])cc5F)c5ccc2[nH]5)C=C4)C=C3)cc1
REMARK SMILES IDX 20 1 19 2 18 3 16 4 17 5 15 7 14 8 13 9 1 10 2 11 3 12 4 13
REMARK SMILES IDX 11 15 5 16 10 17 12 18 6 19 9 20 7 21 8 22 21 23 22 24 23 25
REMARK SMILES IDX 24 27 25 28 26 29 90 30 27 31 89 32 28 33 29 34 30 35 83 36
REMARK SMILES IDX 31 37 88 38 82 39 84 40 32 41 87 42 81 43 80 44 33 46 67 47
REMARK SMILES IDX 46 48 66 49 47 50 50 51 65 52 85 53 48 54 49 55 64 57 86 58
REMARK SMILES IDX 51 59 34 60 35 61 44 62 36 63 37 64 43 65 45 66 38 67 39 68
REMARK SMILES IDX 40 69 41 70 42 71 68 72 69 73 78 74 70 75 71 76 77 77 79 78
REMARK SMILES IDX 72 79 73 80 74 81 75 82 76 83 52 84 53 85 62 86 54 87 55 88
REMARK SMILES IDX 61 89 63 90 56 91 57 92 58 93 59 94 60 95
REMARK H PARENT 18 6 3 14 22 26 84 45 50 56
REMARK Flexibility Score: inf
ROOT
ATOM      1  C   UNL     1      -1.688   3.380  -3.126  1.00  0.00     0.042 C 
ENDROOT
BRANCH   1   2
ATOM      2  C   UNL     1      -2.884   2.453  -2.846  1.00  0.00     0.117 C 
BRANCH   2   3
ATOM      3  N   UNL     1      -2.909   1.295  -3.747  1.00  0.00    -0.356 N 
ATOM      4  C   UNL     1      -2.524  -0.008  -3.597  1.00  0.00     0.220 C 
ATOM      5  O   UNL     1      -2.616  -0.749  -4.580  1.00  0.00    -0.275 OA
ATOM      6  H   UNL     1      -3.276   1.497  -4.638  1.00  0.00     0.163 HD
BRANCH   4   7
ATOM      7  C   UNL     1      -2.085  -0.576  -2.256  1.00  0.00     0.105 C 
BRANCH   7   8
ATOM      8  C   UNL     1      -0.608  -0.998  -2.201  1.00  0.00     0.051 C 
BRANCH   8   9
ATOM      9  C   UNL     1       0.241   0.172  -1.790  1.00  0.00     0.020 A 
ATOM     10  C   UNL     1       0.465  -0.344   0.673  1.00  0.00     0.064 C 
ATOM     11  C   UNL     1       0.614   0.538  -0.541  1.00  0.00     0.019 A 
ATOM     12  N   UNL     1       1.169   1.778  -0.280  1.00  0.00    -0.358 N 
ATOM     13  C   UNL     1       1.538   2.657  -1.296  1.00  0.00     0.050 A 
ATOM     14  H   UNL     1       1.307   2.048   0.657  1.00  0.00     0.166 HD
ATOM     15  C   UNL     1       0.703   1.016  -2.932  1.00  0.00     0.192 A 
ATOM     16  C   UNL     1       2.015   3.934  -1.028  1.00  0.00     0.028 A 
ATOM     17  C   UNL     1       1.410   2.265  -2.631  1.00  0.00     0.047 A 
ATOM     18  O   UNL     1       0.480   0.704  -4.097  1.00  0.00    -0.289 OA
ATOM     19  C   UNL     1       2.535   4.699  -2.074  1.00  0.00     0.018 A 
ATOM     20  C   UNL     1       1.922   3.022  -3.678  1.00  0.00     0.030 A 
ATOM     21  C   UNL     1       2.576   4.196  -3.373  1.00  0.00     0.018 A 
ATOM     22  Br  UNL     1       3.665   4.965  -4.706  1.00  0.00    -0.051 Br
ENDBRANCH   8   9
ENDBRANCH   7   8
ENDBRANCH   4   7
ENDBRANCH   2   3
ENDBRANCH   1   2
BRANCH   1  23
ATOM     23  C   UNL     1      -1.961   4.753  -3.765  1.00  0.00     0.118 C 
BRANCH  23  24
ATOM     24  N   UNL     1      -2.178   5.827  -2.800  1.00  0.00    -0.352 N 
ATOM     25  C   UNL     1      -1.473   6.936  -2.377  1.00  0.00     0.251 C 
ATOM     26  H   UNL     1      -3.041   5.738  -2.335  1.00  0.00     0.163 HD
ATOM     27  O   UNL     1      -2.013   7.599  -1.484  1.00  0.00    -0.269 OA
BRANCH  25  28
ATOM     28  C   UNL     1      -0.123   7.387  -2.856  1.00  0.00     0.039 A 
ATOM     29  C   UNL     1       0.393   7.196  -4.130  1.00  0.00     0.014 A 
ATOM     30  C   UNL     1       0.660   8.154  -1.968  1.00  0.00     0.014 A 
ATOM     31  C   UNL     1       1.710   7.619  -4.440  1.00  0.00     0.010 A 
ATOM     32  C   UNL     1       1.960   8.608  -2.298  1.00  0.00     0.010 A 
ATOM     33  C   UNL     1       2.559   8.271  -3.514  1.00  0.00    -0.014 A 
BRANCH  33  34
ATOM     34  C   UNL     1       4.035   8.515  -3.810  1.00  0.00     0.031 A 
ATOM     35  C   UNL     1       5.156   8.002  -2.890  1.00  0.00     0.074 A 
ATOM     36  C   UNL     1       4.430   9.096  -4.968  1.00  0.00     0.049 A 
ATOM     37  N   UNL     1       6.455   7.949  -3.103  1.00  0.00    -0.248 NA
ATOM     38  C   UNL     1       4.779   7.450  -1.581  1.00  0.00     0.031 C 
ATOM     39  C   UNL     1       3.537   9.650  -5.984  1.00  0.00     0.029 A 
ATOM     40  N   UNL     1       5.689   9.297  -5.502  1.00  0.00    -0.354 N 
ATOM     41  C   UNL     1       7.021   7.310  -1.996  1.00  0.00     0.074 A 
ATOM     42  C   UNL     1       5.930   6.992  -1.107  1.00  0.00     0.031 C 
ATOM     43  C   UNL     1       4.261  10.064  -7.035  1.00  0.00     0.029 A 
ATOM     44  C   UNL     1       5.683   9.888  -6.747  1.00  0.00     0.049 A 
ATOM     45  H   UNL     1       6.517   9.041  -5.034  1.00  0.00     0.167 HD
ATOM     46  C   UNL     1       8.318   7.032  -1.708  1.00  0.00     0.037 A 
ATOM     47  C   UNL     1       6.685  10.281  -7.565  1.00  0.00     0.037 A 
ATOM     48  C   UNL     1       9.450   7.434  -2.504  1.00  0.00     0.049 A 
ATOM     49  C   UNL     1       8.125  10.087  -7.162  1.00  0.00     0.074 A 
ATOM     50  C   UNL     1      10.798   7.246  -2.234  1.00  0.00     0.029 A 
ATOM     51  N   UNL     1       9.380   8.132  -3.696  1.00  0.00    -0.354 N 
ATOM     52  N   UNL     1       8.613   9.468  -6.115  1.00  0.00    -0.248 NA
ATOM     53  C   UNL     1       9.152  10.669  -8.043  1.00  0.00     0.031 C 
ATOM     54  C   UNL     1      11.542   7.885  -3.229  1.00  0.00     0.029 A 
ATOM     55  C   UNL     1      10.659   8.418  -4.150  1.00  0.00     0.049 A 
ATOM     56  H   UNL     1       8.547   8.388  -4.153  1.00  0.00     0.167 HD
ATOM     57  C   UNL     1       9.997   9.588  -6.214  1.00  0.00     0.074 A 
ATOM     58  C   UNL     1      10.275  10.310  -7.435  1.00  0.00     0.031 C 
ATOM     59  C   UNL     1      10.949   9.145  -5.358  1.00  0.00     0.037 A 
BRANCH  46  60
ATOM     60  C   UNL     1       8.634   6.290  -0.431  1.00  0.00     0.058 A 
ATOM     61  C   UNL     1       8.517   4.894  -0.347  1.00  0.00     0.135 A 
ATOM     62  C   UNL     1       9.200   6.965   0.665  1.00  0.00     0.135 A 
ATOM     63  F   UNL     1       7.976   4.199  -1.360  1.00  0.00    -0.206 F 
ATOM     64  C   UNL     1       8.960   4.192   0.772  1.00  0.00     0.059 A 
ATOM     65  C   UNL     1       9.664   6.282   1.787  1.00  0.00     0.059 A 
ATOM     66  F   UNL     1       9.339   8.299   0.635  1.00  0.00    -0.206 F 
ATOM     67  C   UNL     1       9.540   4.894   1.831  1.00  0.00     0.060 A 
BRANCH  67  68
ATOM     68  S   UNL     1      10.148   3.967   3.259  1.00  0.00     0.124 S 
ATOM     69  O   UNL     1       8.899   3.475   3.839  1.00  0.00    -0.237 OA
ATOM     70  O   UNL     1      10.993   2.950   2.631  1.00  0.00    -0.237 OA
ATOM     71  O   UNL     1      10.851   4.966   4.046  1.00  0.00    -0.744 OA
ENDBRANCH  67  68
ENDBRANCH  46  60
BRANCH  47  72
ATOM     72  C   UNL     1       6.366  10.981  -8.844  1.00  0.00     0.058 A 
ATOM     73  C   UNL     1       6.681  10.422 -10.092  1.00  0.00     0.135 A 
ATOM     74  C   UNL     1       5.758  12.248  -8.834  1.00  0.00     0.135 A 
ATOM     75  F   UNL     1       7.290   9.228 -10.159  1.00  0.00    -0.206 F 
ATOM     76  C   UNL     1       6.410  11.093 -11.281  1.00  0.00     0.059 A 
ATOM     77  C   UNL     1       5.444  12.921 -10.008  1.00  0.00     0.059 A 
ATOM     78  F   UNL     1       5.441  12.833  -7.668  1.00  0.00    -0.206 F 
ATOM     79  C   UNL     1       5.785  12.341 -11.228  1.00  0.00     0.060 A 
BRANCH  79  80
ATOM     80  S   UNL     1       5.390  13.189 -12.773  1.00  0.00     0.124 S 
ATOM     81  O   UNL     1       6.705  13.657 -13.196  1.00  0.00    -0.237 OA
ATOM     82  O   UNL     1       4.804  12.117 -13.572  1.00  0.00    -0.237 OA
ATOM     83  O   UNL     1       4.454  14.228 -12.353  1.00  0.00    -0.744 OA
ENDBRANCH  79  80
ENDBRANCH  47  72
BRANCH  59  84
ATOM     84  C   UNL     1      12.390   9.422  -5.690  1.00  0.00     0.058 A 
ATOM     85  C   UNL     1      12.936  10.710  -5.566  1.00  0.00     0.135 A 
ATOM     86  C   UNL     1      13.253   8.382  -6.073  1.00  0.00     0.135 A 
ATOM     87  F   UNL     1      12.156  11.742  -5.204  1.00  0.00    -0.206 F 
ATOM     88  C   UNL     1      14.280  10.960  -5.827  1.00  0.00     0.059 A 
ATOM     89  C   UNL     1      14.606   8.605  -6.316  1.00  0.00     0.059 A 
ATOM     90  F   UNL     1      12.788   7.129  -6.197  1.00  0.00    -0.206 F 
ATOM     91  C   UNL     1      15.109   9.900  -6.199  1.00  0.00     0.060 A 
BRANCH  91  92
ATOM     92  S   UNL     1      16.858  10.236  -6.500  1.00  0.00     0.124 S 
ATOM     93  O   UNL     1      16.805  10.974  -7.758  1.00  0.00    -0.237 OA
ATOM     94  O   UNL     1      17.233  11.015  -5.324  1.00  0.00    -0.237 OA
ATOM     95  O   UNL     1      17.453   8.905  -6.579  1.00  0.00    -0.744 OA
ENDBRANCH  91  92
ENDBRANCH  59  84
ENDBRANCH  33  34
ENDBRANCH  25  28
ENDBRANCH  23  24
ENDBRANCH   1  23
TORSDOF 15
