REMARK SMILES C[C@H]1CC[C@H]([NH2+]Cc2c(C(=O)NCCCNC(=O)c3ccc(-c4c5nc(c(-c6c(F)cc(S(=O)(=O)[O-])cc6F)c6ccc([nH]6)c(-c6c(F)cc(S(=O)(=O)[O-])cc6F)c6nc(c(-c7c(F)cc(S(=O)(=O)[O-])cc7F)c7ccc4[nH]7)C=C6)C=C5)cc3)n(Cc3ccccc3F)c3ccccc23)CC1
REMARK SMILES IDX 14 1 13 2 12 3 10 4 11 5 9 7 8 8 99 9 85 10 94 11 98 12
REMARK SMILES IDX 95 13 97 14 96 15 7 16 6 17 5 20 1 21 2 22 3 23 101 24 4 25
REMARK SMILES IDX 100 26 86 27 87 28 88 29 92 30 89 31 91 32 93 33 90 34 15 35
REMARK SMILES IDX 16 36 17 37 18 39 19 40 20 41 84 42 21 43 83 44 22 45 23 46
REMARK SMILES IDX 24 47 77 48 25 49 82 50 76 51 78 52 26 53 81 54 75 55 74 56
REMARK SMILES IDX 27 58 61 59 40 60 60 61 41 62 44 63 59 64 79 65 42 66 43 67
REMARK SMILES IDX 58 69 80 70 45 71 28 72 29 73 38 74 30 75 31 76 37 77 39 78
REMARK SMILES IDX 32 79 33 80 34 81 35 82 36 83 62 84 63 85 72 86 64 87 65 88
REMARK SMILES IDX 71 89 73 90 66 91 67 92 68 93 69 94 70 95 46 96 47 97 56 98
REMARK SMILES IDX 48 99 49 100 55 101 57 102 50 103 51 104 52 105 53 106
REMARK SMILES IDX 54 107
REMARK H PARENT 12 6 6 18 6 19 16 38 78 57 44 68
REMARK Flexibility Score: inf
ROOT
ATOM      1  C   UNL     1      -4.433   1.691   2.322  1.00  0.00     0.042 C 
ENDROOT
BRANCH   1   2
ATOM      2  C   UNL     1      -3.796   0.443   1.720  1.00  0.00     0.118 C 
BRANCH   2   3
ATOM      3  N   UNL     1      -2.829  -0.261   2.521  1.00  0.00    -0.351 N 
ATOM      4  C   UNL     1      -2.252  -1.503   2.338  1.00  0.00     0.268 C 
ATOM      5  O   UNL     1      -1.340  -1.730   3.135  1.00  0.00    -0.268 OA
ATOM      6  H   UNL     1      -2.531   0.219   3.328  1.00  0.00     0.163 HD
BRANCH   4   7
ATOM      7  C   UNL     1      -2.695  -2.505   1.350  1.00  0.00     0.117 A 
ATOM      8  C   UNL     1      -3.359  -2.433   0.108  1.00  0.00     0.045 A 
ATOM      9  C   UNL     1      -3.874  -3.746  -0.145  1.00  0.00     0.009 A 
ATOM     10  N   UNL     1      -2.312  -3.873   1.423  1.00  0.00    -0.331 N 
ATOM     11  C   UNL     1      -3.022  -4.626   0.496  1.00  0.00     0.049 A 
ATOM     12  C   UNL     1      -4.872  -4.256  -1.004  1.00  0.00     0.011 A 
ATOM     13  C   UNL     1      -2.993  -5.987   0.138  1.00  0.00     0.027 A 
ATOM     14  C   UNL     1      -4.966  -5.631  -1.218  1.00  0.00     0.001 A 
ATOM     15  C   UNL     1      -4.006  -6.481  -0.690  1.00  0.00     0.002 A 
BRANCH   8  16
ATOM     16  C   UNL     1      -3.612  -1.366  -0.924  1.00  0.00     0.300 C 
BRANCH  16  17
ATOM     17  N   UNL     1      -2.702  -0.238  -0.942  1.00  0.00    -0.340 N 
ATOM     18  H   UNL     1      -3.122   0.446  -1.571  1.00  0.00     0.346 HD
ATOM     19  H   UNL     1      -2.611  -0.048   0.056  1.00  0.00     0.346 HD
BRANCH  17  20
ATOM     20  C   UNL     1      -1.297  -0.326  -1.334  1.00  0.00     0.182 C 
ATOM     21  C   UNL     1       3.005   0.033  -0.320  1.00  0.00     0.007 C 
ATOM     22  C   UNL     1       1.488  -0.081  -0.282  1.00  0.00    -0.014 C 
ATOM     23  C   UNL     1       1.005  -1.369  -0.954  1.00  0.00     0.009 C 
ATOM     24  C   UNL     1       0.816   1.116  -0.957  1.00  0.00     0.009 C 
ATOM     25  C   UNL     1      -0.502  -1.510  -0.778  1.00  0.00     0.065 C 
ATOM     26  C   UNL     1      -0.700   1.014  -0.841  1.00  0.00     0.065 C 
ENDBRANCH  17  20
ENDBRANCH  16  17
ENDBRANCH   8  16
BRANCH  10  27
ATOM     27  C   UNL     1      -1.234  -4.456   2.242  1.00  0.00     0.161 C 
BRANCH  27  28
ATOM     28  C   UNL     1      -1.697  -5.169   3.494  1.00  0.00     0.008 A 
ATOM     29  C   UNL     1      -2.485  -6.332   3.454  1.00  0.00     0.008 A 
ATOM     30  C   UNL     1      -1.282  -4.733   4.755  1.00  0.00     0.128 A 
ATOM     31  C   UNL     1      -2.880  -6.998   4.617  1.00  0.00     0.001 A 
ATOM     32  C   UNL     1      -1.682  -5.383   5.925  1.00  0.00     0.039 A 
ATOM     33  F   UNL     1      -0.442  -3.696   4.870  1.00  0.00    -0.207 F 
ATOM     34  C   UNL     1      -2.490  -6.515   5.857  1.00  0.00     0.003 A 
ENDBRANCH  27  28
ENDBRANCH  10  27
ENDBRANCH   4   7
ENDBRANCH   2   3
ENDBRANCH   1   2
BRANCH   1  35
ATOM     35  C   UNL     1      -3.592   2.981   2.257  1.00  0.00     0.118 C 
BRANCH  35  36
ATOM     36  N   UNL     1      -2.938   3.277   0.989  1.00  0.00    -0.352 N 
ATOM     37  C   UNL     1      -3.070   4.314   0.099  1.00  0.00     0.251 C 
ATOM     38  H   UNL     1      -2.273   2.603   0.718  1.00  0.00     0.163 HD
ATOM     39  O   UNL     1      -2.045   4.691  -0.474  1.00  0.00    -0.269 OA
BRANCH  37  40
ATOM     40  C   UNL     1      -4.376   4.890  -0.316  1.00  0.00     0.039 A 
ATOM     41  C   UNL     1      -5.605   4.393   0.110  1.00  0.00     0.014 A 
ATOM     42  C   UNL     1      -4.353   5.862  -1.337  1.00  0.00     0.014 A 
ATOM     43  C   UNL     1      -6.774   4.769  -0.540  1.00  0.00     0.010 A 
ATOM     44  C   UNL     1      -5.523   6.251  -1.983  1.00  0.00     0.010 A 
ATOM     45  C   UNL     1      -6.727   5.657  -1.620  1.00  0.00    -0.014 A 
BRANCH  45  46
ATOM     46  C   UNL     1      -7.988   5.955  -2.295  1.00  0.00     0.031 A 
ATOM     47  C   UNL     1      -9.031   6.586  -1.436  1.00  0.00     0.074 A 
ATOM     48  C   UNL     1      -8.205   5.746  -3.608  1.00  0.00     0.049 A 
ATOM     49  N   UNL     1     -10.178   6.104  -1.079  1.00  0.00    -0.248 NA
ATOM     50  C   UNL     1      -8.697   7.869  -0.801  1.00  0.00     0.031 C 
ATOM     51  C   UNL     1      -7.242   5.391  -4.652  1.00  0.00     0.029 A 
ATOM     52  N   UNL     1      -9.367   5.898  -4.303  1.00  0.00    -0.354 N 
ATOM     53  C   UNL     1     -10.792   7.093  -0.311  1.00  0.00     0.074 A 
ATOM     54  C   UNL     1      -9.785   8.093  -0.063  1.00  0.00     0.031 C 
ATOM     55  C   UNL     1      -7.813   5.578  -5.864  1.00  0.00     0.029 A 
ATOM     56  C   UNL     1      -9.211   5.935  -5.681  1.00  0.00     0.049 A 
ATOM     57  H   UNL     1     -10.245   5.975  -3.864  1.00  0.00     0.167 HD
ATOM     58  C   UNL     1     -12.133   7.104  -0.067  1.00  0.00     0.037 A 
ATOM     59  C   UNL     1     -10.146   6.308  -6.591  1.00  0.00     0.037 A 
ATOM     60  C   UNL     1     -12.735   5.826  -0.340  1.00  0.00     0.049 A 
ATOM     61  C   UNL     1     -11.478   6.166  -5.943  1.00  0.00     0.074 A 
ATOM     62  C   UNL     1     -12.577   4.554   0.177  1.00  0.00     0.029 A 
ATOM     63  N   UNL     1     -13.416   5.662  -1.522  1.00  0.00    -0.354 N 
ATOM     64  N   UNL     1     -12.005   5.017  -5.610  1.00  0.00    -0.248 NA
ATOM     65  C   UNL     1     -12.021   7.321  -5.242  1.00  0.00     0.031 C 
ATOM     66  C   UNL     1     -12.711   3.683  -0.943  1.00  0.00     0.029 A 
ATOM     67  C   UNL     1     -12.990   4.473  -2.059  1.00  0.00     0.049 A 
ATOM     68  H   UNL     1     -14.081   6.277  -1.908  1.00  0.00     0.167 HD
ATOM     69  C   UNL     1     -12.628   5.245  -4.391  1.00  0.00     0.074 A 
ATOM     70  C   UNL     1     -12.675   6.700  -4.256  1.00  0.00     0.031 C 
ATOM     71  C   UNL     1     -12.802   4.246  -3.475  1.00  0.00     0.037 A 
BRANCH  58  72
ATOM     72  C   UNL     1     -12.953   8.353   0.141  1.00  0.00     0.058 A 
ATOM     73  C   UNL     1     -14.282   8.255   0.603  1.00  0.00     0.135 A 
ATOM     74  C   UNL     1     -12.574   9.618  -0.359  1.00  0.00     0.135 A 
ATOM     75  F   UNL     1     -14.752   7.098   1.095  1.00  0.00    -0.206 F 
ATOM     76  C   UNL     1     -15.188   9.314   0.505  1.00  0.00     0.059 A 
ATOM     77  C   UNL     1     -13.443  10.702  -0.415  1.00  0.00     0.059 A 
ATOM     78  F   UNL     1     -11.374   9.834  -0.911  1.00  0.00    -0.206 F 
ATOM     79  C   UNL     1     -14.761  10.528  -0.026  1.00  0.00     0.060 A 
BRANCH  79  80
ATOM     80  S   UNL     1     -15.958  11.848  -0.290  1.00  0.00     0.124 S 
ATOM     81  O   UNL     1     -16.790  11.280  -1.345  1.00  0.00    -0.237 OA
ATOM     82  O   UNL     1     -16.580  11.963   1.025  1.00  0.00    -0.237 OA
ATOM     83  O   UNL     1     -15.126  12.982  -0.685  1.00  0.00    -0.744 OA
ENDBRANCH  79  80
ENDBRANCH  58  72
BRANCH  59  84
ATOM     84  C   UNL     1      -9.920   7.088  -7.837  1.00  0.00     0.058 A 
ATOM     85  C   UNL     1     -10.897   7.187  -8.844  1.00  0.00     0.135 A 
ATOM     86  C   UNL     1      -8.821   7.965  -7.957  1.00  0.00     0.135 A 
ATOM     87  F   UNL     1     -11.997   6.421  -8.793  1.00  0.00    -0.206 F 
ATOM     88  C   UNL     1     -10.798   8.112  -9.893  1.00  0.00     0.059 A 
ATOM     89  C   UNL     1      -8.694   8.884  -8.996  1.00  0.00     0.059 A 
ATOM     90  F   UNL     1      -7.872   8.019  -7.011  1.00  0.00    -0.206 F 
ATOM     91  C   UNL     1      -9.697   8.966  -9.953  1.00  0.00     0.060 A 
BRANCH  91  92
ATOM     92  S   UNL     1      -9.626  10.252 -11.223  1.00  0.00     0.124 S 
ATOM     93  O   UNL     1      -9.520   9.465 -12.446  1.00  0.00    -0.237 OA
ATOM     94  O   UNL     1     -10.890  10.952 -11.021  1.00  0.00    -0.237 OA
ATOM     95  O   UNL     1      -8.432  11.015 -10.869  1.00  0.00    -0.744 OA
ENDBRANCH  91  92
ENDBRANCH  59  84
BRANCH  71  96
ATOM     96  C   UNL     1     -12.517   2.826  -3.898  1.00  0.00     0.058 A 
ATOM     97  C   UNL     1     -11.246   2.367  -4.288  1.00  0.00     0.135 A 
ATOM     98  C   UNL     1     -13.520   1.858  -3.732  1.00  0.00     0.135 A 
ATOM     99  F   UNL     1     -10.203   3.205  -4.359  1.00  0.00    -0.206 F 
ATOM    100  C   UNL     1     -10.994   1.019  -4.542  1.00  0.00     0.059 A 
ATOM    101  C   UNL     1     -13.283   0.502  -3.948  1.00  0.00     0.059 A 
ATOM    102  F   UNL     1     -14.738   2.219  -3.294  1.00  0.00    -0.206 F 
ATOM    103  C   UNL     1     -12.018   0.091  -4.365  1.00  0.00     0.060 A 
BRANCH 103 104
ATOM    104  S   UNL     1     -11.662  -1.664  -4.604  1.00  0.00     0.124 S 
ATOM    105  O   UNL     1     -11.490  -1.747  -6.054  1.00  0.00    -0.237 OA
ATOM    106  O   UNL     1     -10.444  -1.850  -3.815  1.00  0.00    -0.237 OA
ATOM    107  O   UNL     1     -12.843  -2.331  -4.076  1.00  0.00    -0.744 OA
ENDBRANCH 103 104
ENDBRANCH  71  96
ENDBRANCH  45  46
ENDBRANCH  37  40
ENDBRANCH  35  36
ENDBRANCH   1  35
TORSDOF 18
