REMARK SMILES CCCC[C@H](C(=O)NCCCNC(=O)c1ccc(-c2c3nc(c(-c4c(F)cc(S(=O)(=O)[O-])cc4F)c4ccc([nH]4)c(-c4c(F)cc(S(=O)(=O)[O-])cc4F)c4nc(c(-c5c(F)cc(S(=O)(=O)[O-])cc5F)c5ccc2[nH]5)C=C4)C=C3)cc1)[C@H](O)c1ccc(C(F)(F)F)cc1
REMARK SMILES IDX 10 1 9 2 8 3 6 4 7 5 5 7 4 8 3 9 2 10 1 11 81 12 83 13 84 14
REMARK SMILES IDX 92 15 85 16 91 17 86 18 87 19 88 20 89 21 90 22 82 23 11 25
REMARK SMILES IDX 12 26 13 27 14 29 15 30 16 31 80 32 17 33 79 34 18 35 19 36
REMARK SMILES IDX 20 37 73 38 21 39 78 40 72 41 74 42 22 43 77 44 71 45 70 46
REMARK SMILES IDX 23 48 57 49 36 50 56 51 37 52 40 53 55 54 75 55 38 56 39 57
REMARK SMILES IDX 54 59 76 60 41 61 24 62 25 63 34 64 26 65 27 66 33 67 35 68
REMARK SMILES IDX 28 69 29 70 30 71 31 72 32 73 58 74 59 75 68 76 60 77 61 78
REMARK SMILES IDX 67 79 69 80 62 81 63 82 64 83 65 84 66 85 42 86 43 87 52 88
REMARK SMILES IDX 44 89 45 90 51 91 53 92 46 93 47 94 48 95 49 96 50 97
REMARK H PARENT 8 6 82 24 12 28 74 47 40 58
REMARK Flexibility Score: inf
ROOT
ATOM      1  C   UNL     1      -4.487  -3.098  -0.222  1.00  0.00     0.042 C 
ENDROOT
BRANCH   1   2
ATOM      2  C   UNL     1      -3.147  -3.793   0.005  1.00  0.00     0.117 C 
BRANCH   2   3
ATOM      3  N   UNL     1      -2.692  -4.575  -1.133  1.00  0.00    -0.356 N 
ATOM      4  C   UNL     1      -1.822  -4.287  -2.140  1.00  0.00     0.226 C 
ATOM      5  O   UNL     1      -1.626  -5.164  -2.987  1.00  0.00    -0.275 OA
ATOM      6  H   UNL     1      -3.085  -5.476  -1.185  1.00  0.00     0.163 HD
BRANCH   4   7
ATOM      7  C   UNL     1      -1.115  -2.939  -2.230  1.00  0.00     0.111 C 
BRANCH   7   8
ATOM      8  C   UNL     1       0.419  -3.206  -2.288  1.00  0.00     0.016 C 
BRANCH   8   9
ATOM      9  C   UNL     1       1.217  -2.668  -1.095  1.00  0.00     0.001 C 
BRANCH   9  10
ATOM     10  C   UNL     1       0.858  -3.246   0.274  1.00  0.00    -0.003 C 
ATOM     11  C   UNL     1       1.004  -4.756   0.369  1.00  0.00     0.004 C 
ENDBRANCH   9  10
ENDBRANCH   8   9
ENDBRANCH   7   8
BRANCH   7  12
ATOM     12  C   UNL     1      -1.568  -2.195  -3.516  1.00  0.00     0.157 C 
BRANCH  12  13
ATOM     13  C   UNL     1      -3.071  -2.007  -3.640  1.00  0.00    -0.019 A 
ATOM     14  C   UNL     1      -3.719  -0.835  -3.224  1.00  0.00     0.007 A 
ATOM     15  C   UNL     1      -3.854  -3.051  -4.160  1.00  0.00     0.007 A 
ATOM     16  C   UNL     1      -5.115  -0.738  -3.263  1.00  0.00     0.013 A 
ATOM     17  C   UNL     1      -5.246  -2.964  -4.181  1.00  0.00     0.013 A 
ATOM     18  C   UNL     1      -5.893  -1.818  -3.705  1.00  0.00     0.056 A 
BRANCH  18  19
ATOM     19  C   UNL     1      -7.400  -1.750  -3.642  1.00  0.00     0.416 C 
ATOM     20  F   UNL     1      -7.841  -1.297  -2.436  1.00  0.00    -0.166 F 
ATOM     21  F   UNL     1      -7.932  -0.933  -4.585  1.00  0.00    -0.166 F 
ATOM     22  F   UNL     1      -7.988  -2.969  -3.813  1.00  0.00    -0.166 F 
ENDBRANCH  18  19
ENDBRANCH  12  13
BRANCH  12  23
ATOM     23  O   UNL     1      -0.945  -0.901  -3.517  1.00  0.00    -0.388 OA
ATOM     24  H   UNL     1      -1.247  -0.396  -2.746  1.00  0.00     0.211 HD
ENDBRANCH  12  23
ENDBRANCH   7  12
ENDBRANCH   4   7
ENDBRANCH   2   3
ENDBRANCH   1   2
BRANCH   1  25
ATOM     25  C   UNL     1      -5.652  -4.019  -0.580  1.00  0.00     0.118 C 
BRANCH  25  26
ATOM     26  N   UNL     1      -6.100  -4.813   0.552  1.00  0.00    -0.352 N 
ATOM     27  C   UNL     1      -7.341  -4.890   1.139  1.00  0.00     0.251 C 
ATOM     28  H   UNL     1      -5.409  -5.383   0.961  1.00  0.00     0.163 HD
ATOM     29  O   UNL     1      -7.454  -5.478   2.214  1.00  0.00    -0.269 OA
BRANCH  27  30
ATOM     30  C   UNL     1      -8.534  -4.271   0.512  1.00  0.00     0.039 A 
ATOM     31  C   UNL     1      -9.440  -3.585   1.328  1.00  0.00     0.014 A 
ATOM     32  C   UNL     1      -8.806  -4.413  -0.852  1.00  0.00     0.014 A 
ATOM     33  C   UNL     1     -10.585  -3.002   0.773  1.00  0.00     0.010 A 
ATOM     34  C   UNL     1      -9.927  -3.791  -1.412  1.00  0.00     0.010 A 
ATOM     35  C   UNL     1     -10.828  -3.076  -0.608  1.00  0.00    -0.014 A 
BRANCH  35  36
ATOM     36  C   UNL     1     -12.016  -2.413  -1.217  1.00  0.00     0.031 A 
ATOM     37  C   UNL     1     -13.115  -3.234  -1.842  1.00  0.00     0.074 A 
ATOM     38  C   UNL     1     -12.095  -1.067  -1.240  1.00  0.00     0.049 A 
ATOM     39  N   UNL     1     -14.191  -2.832  -2.470  1.00  0.00    -0.248 NA
ATOM     40  C   UNL     1     -12.981  -4.697  -1.761  1.00  0.00     0.031 C 
ATOM     41  C   UNL     1     -11.089  -0.151  -0.698  1.00  0.00     0.029 A 
ATOM     42  N   UNL     1     -13.062  -0.232  -1.746  1.00  0.00    -0.354 N 
ATOM     43  C   UNL     1     -14.859  -3.987  -2.863  1.00  0.00     0.074 A 
ATOM     44  C   UNL     1     -14.044  -5.106  -2.440  1.00  0.00     0.031 C 
ATOM     45  C   UNL     1     -11.500   1.114  -0.883  1.00  0.00     0.029 A 
ATOM     46  C   UNL     1     -12.777   1.105  -1.590  1.00  0.00     0.049 A 
ATOM     47  H   UNL     1     -13.882  -0.560  -2.180  1.00  0.00     0.167 HD
ATOM     48  C   UNL     1     -16.051  -4.107  -3.497  1.00  0.00     0.037 A 
ATOM     49  C   UNL     1     -13.460   2.199  -1.981  1.00  0.00     0.037 A 
ATOM     50  C   UNL     1     -16.874  -2.997  -3.904  1.00  0.00     0.049 A 
ATOM     51  C   UNL     1     -14.770   2.037  -2.706  1.00  0.00     0.074 A 
ATOM     52  C   UNL     1     -18.107  -3.025  -4.534  1.00  0.00     0.029 A 
ATOM     53  N   UNL     1     -16.554  -1.661  -3.716  1.00  0.00    -0.354 N 
ATOM     54  N   UNL     1     -15.399   0.935  -3.037  1.00  0.00    -0.248 NA
ATOM     55  C   UNL     1     -15.465   3.269  -3.110  1.00  0.00     0.031 C 
ATOM     56  C   UNL     1     -18.520  -1.706  -4.753  1.00  0.00     0.029 A 
ATOM     57  C   UNL     1     -17.563  -0.857  -4.224  1.00  0.00     0.049 A 
ATOM     58  H   UNL     1     -15.732  -1.331  -3.286  1.00  0.00     0.167 HD
ATOM     59  C   UNL     1     -16.576   1.342  -3.657  1.00  0.00     0.074 A 
ATOM     60  C   UNL     1     -16.578   2.789  -3.648  1.00  0.00     0.031 C 
ATOM     61  C   UNL     1     -17.566   0.583  -4.188  1.00  0.00     0.037 A 
BRANCH  48  62
ATOM     62  C   UNL     1     -16.556  -5.495  -3.780  1.00  0.00     0.058 A 
ATOM     63  C   UNL     1     -17.058  -6.311  -2.754  1.00  0.00     0.135 A 
ATOM     64  C   UNL     1     -16.606  -5.989  -5.094  1.00  0.00     0.135 A 
ATOM     65  F   UNL     1     -17.022  -5.892  -1.479  1.00  0.00    -0.206 F 
ATOM     66  C   UNL     1     -17.576  -7.574  -3.017  1.00  0.00     0.059 A 
ATOM     67  C   UNL     1     -17.142  -7.241  -5.383  1.00  0.00     0.059 A 
ATOM     68  F   UNL     1     -16.142  -5.249  -6.113  1.00  0.00    -0.206 F 
ATOM     69  C   UNL     1     -17.616  -8.030  -4.335  1.00  0.00     0.060 A 
BRANCH  69  70
ATOM     70  S   UNL     1     -18.315  -9.662  -4.664  1.00  0.00     0.124 S 
ATOM     71  O   UNL     1     -17.258 -10.537  -4.163  1.00  0.00    -0.237 OA
ATOM     72  O   UNL     1     -19.544  -9.641  -3.873  1.00  0.00    -0.237 OA
ATOM     73  O   UNL     1     -18.504  -9.669  -6.108  1.00  0.00    -0.744 OA
ENDBRANCH  69  70
ENDBRANCH  48  62
BRANCH  49  74
ATOM     74  C   UNL     1     -12.928   3.559  -1.695  1.00  0.00     0.058 A 
ATOM     75  C   UNL     1     -13.562   4.401  -0.768  1.00  0.00     0.135 A 
ATOM     76  C   UNL     1     -11.801   4.057  -2.366  1.00  0.00     0.135 A 
ATOM     77  F   UNL     1     -14.648   3.972  -0.107  1.00  0.00    -0.206 F 
ATOM     78  C   UNL     1     -13.118   5.699  -0.540  1.00  0.00     0.059 A 
ATOM     79  C   UNL     1     -11.323   5.343  -2.136  1.00  0.00     0.059 A 
ATOM     80  F   UNL     1     -11.149   3.287  -3.251  1.00  0.00    -0.206 F 
ATOM     81  C   UNL     1     -12.000   6.163  -1.235  1.00  0.00     0.060 A 
BRANCH  81  82
ATOM     82  S   UNL     1     -11.422   7.847  -0.928  1.00  0.00     0.124 S 
ATOM     83  O   UNL     1     -12.392   8.631  -1.684  1.00  0.00    -0.237 OA
ATOM     84  O   UNL     1     -11.513   7.946   0.525  1.00  0.00    -0.237 OA
ATOM     85  O   UNL     1     -10.063   7.835  -1.463  1.00  0.00    -0.744 OA
ENDBRANCH  81  82
ENDBRANCH  49  74
BRANCH  61  86
ATOM     86  C   UNL     1     -18.760   1.296  -4.758  1.00  0.00     0.058 A 
ATOM     87  C   UNL     1     -18.700   1.970  -5.988  1.00  0.00     0.135 A 
ATOM     88  C   UNL     1     -19.994   1.261  -4.090  1.00  0.00     0.135 A 
ATOM     89  F   UNL     1     -17.542   2.039  -6.664  1.00  0.00    -0.206 F 
ATOM     90  C   UNL     1     -19.817   2.601  -6.526  1.00  0.00     0.059 A 
ATOM     91  C   UNL     1     -21.131   1.864  -4.620  1.00  0.00     0.059 A 
ATOM     92  F   UNL     1     -20.108   0.623  -2.914  1.00  0.00    -0.206 F 
ATOM     93  C   UNL     1     -21.029   2.541  -5.835  1.00  0.00     0.060 A 
BRANCH  93  94
ATOM     94  S   UNL     1     -22.482   3.330  -6.562  1.00  0.00     0.124 S 
ATOM     95  O   UNL     1     -22.215   4.740  -6.298  1.00  0.00    -0.237 OA
ATOM     96  O   UNL     1     -22.396   2.920  -7.960  1.00  0.00    -0.237 OA
ATOM     97  O   UNL     1     -23.593   2.750  -5.813  1.00  0.00    -0.744 OA
ENDBRANCH  93  94
ENDBRANCH  61  86
ENDBRANCH  35  36
ENDBRANCH  27  30
ENDBRANCH  25  26
ENDBRANCH   1  25
TORSDOF 20
