REMARK SMILES C[C@@H](NC(=O)[C@@H]1CC[C@@H]2CCCC[C@@H]2[NH2+]1)C(=O)NCCCNC(=O)c1ccc(-c2c3nc(c(-c4c(F)cc(S(=O)(=O)[O-])cc4F)c4ccc([nH]4)c(-c4c(F)cc(S(=O)(=O)[O-])cc4F)c4nc(c(-c5c(F)cc(S(=O)(=O)[O-])cc5F)c5ccc2[nH]5)C=C4)C=C3)cc1
REMARK SMILES IDX 20 1 19 2 18 3 16 4 17 5 2 7 1 8 3 9 4 10 5 12 6 13 7 14
REMARK SMILES IDX 15 15 8 16 14 17 9 20 13 21 10 22 12 23 11 24 21 25 22 26
REMARK SMILES IDX 23 27 24 29 25 30 26 31 90 32 27 33 89 34 28 35 29 36 30 37
REMARK SMILES IDX 83 38 31 39 88 40 82 41 84 42 32 43 87 44 81 45 80 46 33 48
REMARK SMILES IDX 67 49 46 50 66 51 47 52 50 53 65 54 85 55 48 56 49 57 64 59
REMARK SMILES IDX 86 60 51 61 34 62 35 63 44 64 36 65 37 66 43 67 45 68 38 69
REMARK SMILES IDX 39 70 40 71 41 72 42 73 68 74 69 75 78 76 70 77 71 78 77 79
REMARK SMILES IDX 79 80 72 81 73 82 74 83 75 84 76 85 52 86 53 87 62 88 54 89
REMARK SMILES IDX 55 90 61 91 63 92 56 93 57 94 58 95 59 96 60 97
REMARK H PARENT 18 6 3 11 15 18 15 19 22 28 84 47 50 58
REMARK Flexibility Score: inf
ROOT
ATOM      1  C   UNL     1      -1.537   2.904  -0.247  1.00  0.00     0.042 C 
ENDROOT
BRANCH   1   2
ATOM      2  C   UNL     1      -0.637   1.716   0.108  1.00  0.00     0.117 C 
BRANCH   2   3
ATOM      3  N   UNL     1      -1.186   0.420  -0.260  1.00  0.00    -0.354 N 
ATOM      4  C   UNL     1      -0.875  -0.818   0.225  1.00  0.00     0.242 C 
ATOM      5  O   UNL     1      -1.601  -1.763  -0.095  1.00  0.00    -0.273 OA
ATOM      6  H   UNL     1      -1.880   0.438  -0.958  1.00  0.00     0.163 HD
BRANCH   4   7
ATOM      7  C   UNL     1       0.407  -1.060   1.038  1.00  0.00     0.168 C 
ATOM      8  C   UNL     1       1.608  -0.813   0.113  1.00  0.00     0.041 C 
BRANCH   7   9
ATOM      9  N   UNL     1       0.574  -0.340   2.309  1.00  0.00    -0.339 N 
ATOM     10  C   UNL     1      -0.012  -0.762   3.477  1.00  0.00     0.278 C 
ATOM     11  H   UNL     1       1.126   0.475   2.323  1.00  0.00     0.164 HD
ATOM     12  O   UNL     1       0.721  -1.334   4.292  1.00  0.00    -0.268 OA
BRANCH  10  13
ATOM     13  C   UNL     1      -1.525  -0.528   3.771  1.00  0.00     0.272 C 
ATOM     14  C   UNL     1      -2.184   0.639   3.053  1.00  0.00     0.076 C 
ATOM     15  N   UNL     1      -1.750  -0.382   5.245  1.00  0.00    -0.333 N 
ATOM     16  C   UNL     1      -1.623   1.956   3.564  1.00  0.00     0.016 C 
ATOM     17  C   UNL     1      -1.522   0.966   5.834  1.00  0.00     0.186 C 
ATOM     18  H   UNL     1      -1.125  -1.034   5.718  1.00  0.00     0.347 HD
ATOM     19  H   UNL     1      -2.745  -0.564   5.380  1.00  0.00     0.347 HD
ATOM     20  C   UNL     1      -2.103   2.110   4.998  1.00  0.00     0.048 C 
ATOM     21  C   UNL     1      -0.055   1.181   6.255  1.00  0.00     0.065 C 
ATOM     22  C   UNL     1      -1.757   3.478   5.579  1.00  0.00     0.010 C 
ATOM     23  C   UNL     1       0.510   2.608   6.297  1.00  0.00     0.006 C 
ATOM     24  C   UNL     1      -0.262   3.716   5.594  1.00  0.00     0.001 C 
ENDBRANCH  10  13
ENDBRANCH   7   9
ENDBRANCH   4   7
ENDBRANCH   2   3
ENDBRANCH   1   2
BRANCH   1  25
ATOM     25  C   UNL     1      -3.048   2.727  -0.047  1.00  0.00     0.118 C 
BRANCH  25  26
ATOM     26  N   UNL     1      -3.577   3.191   1.231  1.00  0.00    -0.352 N 
ATOM     27  C   UNL     1      -4.025   4.428   1.640  1.00  0.00     0.251 C 
ATOM     28  H   UNL     1      -3.623   2.494   1.925  1.00  0.00     0.163 HD
ATOM     29  O   UNL     1      -4.206   4.665   2.825  1.00  0.00    -0.269 OA
BRANCH  27  30
ATOM     30  C   UNL     1      -4.298   5.458   0.624  1.00  0.00     0.039 A 
ATOM     31  C   UNL     1      -3.868   6.772   0.811  1.00  0.00     0.014 A 
ATOM     32  C   UNL     1      -4.981   5.093  -0.534  1.00  0.00     0.014 A 
ATOM     33  C   UNL     1      -4.020   7.691  -0.230  1.00  0.00     0.010 A 
ATOM     34  C   UNL     1      -5.014   5.963  -1.607  1.00  0.00     0.010 A 
ATOM     35  C   UNL     1      -4.532   7.271  -1.468  1.00  0.00    -0.014 A 
BRANCH  35  36
ATOM     36  C   UNL     1      -4.568   8.153  -2.658  1.00  0.00     0.031 A 
ATOM     37  C   UNL     1      -5.880   8.422  -3.342  1.00  0.00     0.074 A 
ATOM     38  C   UNL     1      -3.409   8.583  -3.194  1.00  0.00     0.049 A 
ATOM     39  N   UNL     1      -6.109   9.012  -4.485  1.00  0.00    -0.248 NA
ATOM     40  C   UNL     1      -7.093   7.917  -2.675  1.00  0.00     0.031 C 
ATOM     41  C   UNL     1      -2.073   8.322  -2.650  1.00  0.00     0.029 A 
ATOM     42  N   UNL     1      -3.163   9.310  -4.330  1.00  0.00    -0.354 N 
ATOM     43  C   UNL     1      -7.482   8.929  -4.683  1.00  0.00     0.074 A 
ATOM     44  C   UNL     1      -8.027   8.174  -3.577  1.00  0.00     0.031 C 
ATOM     45  C   UNL     1      -1.153   8.899  -3.439  1.00  0.00     0.029 A 
ATOM     46  C   UNL     1      -1.826   9.524  -4.571  1.00  0.00     0.049 A 
ATOM     47  H   UNL     1      -3.877   9.648  -4.918  1.00  0.00     0.167 HD
ATOM     48  C   UNL     1      -8.224   9.460  -5.683  1.00  0.00     0.037 A 
ATOM     49  C   UNL     1      -1.212  10.138  -5.600  1.00  0.00     0.037 A 
ATOM     50  C   UNL     1      -7.666  10.233  -6.761  1.00  0.00     0.049 A 
ATOM     51  C   UNL     1      -2.057  10.720  -6.700  1.00  0.00     0.074 A 
ATOM     52  C   UNL     1      -8.328  10.879  -7.788  1.00  0.00     0.029 A 
ATOM     53  N   UNL     1      -6.310  10.462  -6.950  1.00  0.00    -0.354 N 
ATOM     54  N   UNL     1      -3.363  10.701  -6.834  1.00  0.00    -0.248 NA
ATOM     55  C   UNL     1      -1.350  11.408  -7.788  1.00  0.00     0.031 C 
ATOM     56  C   UNL     1      -7.370  11.452  -8.630  1.00  0.00     0.029 A 
ATOM     57  C   UNL     1      -6.113  11.215  -8.095  1.00  0.00     0.049 A 
ATOM     58  H   UNL     1      -5.594  10.136  -6.358  1.00  0.00     0.167 HD
ATOM     59  C   UNL     1      -3.635  11.394  -8.007  1.00  0.00     0.074 A 
ATOM     60  C   UNL     1      -2.359  11.835  -8.535  1.00  0.00     0.031 C 
ATOM     61  C   UNL     1      -4.830  11.643  -8.598  1.00  0.00     0.037 A 
BRANCH  48  62
ATOM     62  C   UNL     1      -9.711   9.231  -5.651  1.00  0.00     0.058 A 
ATOM     63  C   UNL     1     -10.527   9.811  -4.666  1.00  0.00     0.135 A 
ATOM     64  C   UNL     1     -10.334   8.446  -6.635  1.00  0.00     0.135 A 
ATOM     65  F   UNL     1      -9.985  10.556  -3.690  1.00  0.00    -0.206 F 
ATOM     66  C   UNL     1     -11.901   9.598  -4.640  1.00  0.00     0.059 A 
ATOM     67  C   UNL     1     -11.712   8.246  -6.648  1.00  0.00     0.059 A 
ATOM     68  F   UNL     1      -9.604   7.863  -7.599  1.00  0.00    -0.206 F 
ATOM     69  C   UNL     1     -12.485   8.815  -5.637  1.00  0.00     0.060 A 
BRANCH  69  70
ATOM     70  S   UNL     1     -14.271   8.562  -5.594  1.00  0.00     0.124 S 
ATOM     71  O   UNL     1     -14.412   7.677  -4.441  1.00  0.00    -0.237 OA
ATOM     72  O   UNL     1     -14.773   9.920  -5.414  1.00  0.00    -0.237 OA
ATOM     73  O   UNL     1     -14.561   7.955  -6.889  1.00  0.00    -0.744 OA
ENDBRANCH  69  70
ENDBRANCH  48  62
BRANCH  49  74
ATOM     74  C   UNL     1       0.271  10.250  -5.625  1.00  0.00     0.058 A 
ATOM     75  C   UNL     1       0.902  11.491  -5.454  1.00  0.00     0.135 A 
ATOM     76  C   UNL     1       1.089   9.121  -5.798  1.00  0.00     0.135 A 
ATOM     77  F   UNL     1       0.165  12.600  -5.288  1.00  0.00    -0.206 F 
ATOM     78  C   UNL     1       2.288  11.615  -5.473  1.00  0.00     0.059 A 
ATOM     79  C   UNL     1       2.477   9.215  -5.792  1.00  0.00     0.059 A 
ATOM     80  F   UNL     1       0.537   7.906  -5.944  1.00  0.00    -0.206 F 
ATOM     81  C   UNL     1       3.067  10.469  -5.638  1.00  0.00     0.060 A 
BRANCH  81  82
ATOM     82  S   UNL     1       4.865  10.635  -5.613  1.00  0.00     0.124 S 
ATOM     83  O   UNL     1       5.117  11.302  -6.885  1.00  0.00    -0.237 OA
ATOM     84  O   UNL     1       5.079  11.441  -4.415  1.00  0.00    -0.237 OA
ATOM     85  O   UNL     1       5.328   9.254  -5.521  1.00  0.00    -0.744 OA
ENDBRANCH  81  82
ENDBRANCH  49  74
BRANCH  61  86
ATOM     86  C   UNL     1      -4.818  12.449  -9.867  1.00  0.00     0.058 A 
ATOM     87  C   UNL     1      -4.345  11.914 -11.075  1.00  0.00     0.135 A 
ATOM     88  C   UNL     1      -5.343  13.752  -9.885  1.00  0.00     0.135 A 
ATOM     89  F   UNL     1      -3.826  10.677 -11.109  1.00  0.00    -0.206 F 
ATOM     90  C   UNL     1      -4.374  12.651 -12.254  1.00  0.00     0.059 A 
ATOM     91  C   UNL     1      -5.411  14.494 -11.059  1.00  0.00     0.059 A 
ATOM     92  F   UNL     1      -5.817  14.307  -8.758  1.00  0.00    -0.206 F 
ATOM     93  C   UNL     1      -4.914  13.938 -12.237  1.00  0.00     0.060 A 
BRANCH  93  94
ATOM     94  S   UNL     1      -4.983  14.865 -13.784  1.00  0.00     0.124 S 
ATOM     95  O   UNL     1      -3.576  15.189 -13.995  1.00  0.00    -0.237 OA
ATOM     96  O   UNL     1      -5.553  13.887 -14.706  1.00  0.00    -0.237 OA
ATOM     97  O   UNL     1      -5.847  15.997 -13.465  1.00  0.00    -0.744 OA
ENDBRANCH  93  94
ENDBRANCH  61  86
ENDBRANCH  35  36
ENDBRANCH  27  30
ENDBRANCH  25  26
ENDBRANCH   1  25
TORSDOF 15
