REMARK SMILES O=C(NCCCNC(=O)c1cc(-c2cncnc2)cc(S(=O)(=O)N2CCCC2)c1)c1ccc(-c2c3nc(c(-c4c(F)cc(S(=O)(=O)[O-])cc4F)c4ccc([nH]4)c(-c4c(F)cc(S(=O)(=O)[O-])cc4F)c4nc(c(-c5c(F)cc(S(=O)(=O)[O-])cc5F)c5ccc2[nH]5)C=C4)C=C3)cc1
REMARK SMILES IDX 4 1 3 2 1 3 2 4 30 6 31 7 95 8 32 9 94 10 33 11 34 12 35 13
REMARK SMILES IDX 88 14 36 15 93 16 87 17 89 18 37 19 92 20 86 21 85 22 38 24
REMARK SMILES IDX 72 25 51 26 71 27 52 28 55 29 70 30 90 31 53 32 54 33 69 35
REMARK SMILES IDX 91 36 56 37 39 38 40 39 49 40 41 41 42 42 48 43 50 44 43 45
REMARK SMILES IDX 44 46 45 47 46 48 47 49 73 50 74 51 83 52 75 53 76 54 82 55
REMARK SMILES IDX 84 56 77 57 78 58 79 59 80 60 81 61 57 62 58 63 67 64 59 65
REMARK SMILES IDX 60 66 66 67 68 68 61 69 62 70 63 71 64 72 65 73 5 74 6 75
REMARK SMILES IDX 7 76 8 77 9 79 10 80 11 81 29 82 12 83 20 84 19 85 13 86
REMARK SMILES IDX 14 87 18 88 15 89 17 90 16 91 21 92 22 93 23 94 24 95 25 96
REMARK SMILES IDX 28 97 26 98 27 99
REMARK H PARENT 3 5 89 23 55 34 7 78
REMARK Flexibility Score: inf
ROOT
ATOM      1  C   UNL     1       4.566   1.119  -0.839  1.00  0.00     0.118 C 
ENDROOT
BRANCH   1   2
ATOM      2  N   UNL     1       3.124   0.970  -0.664  1.00  0.00    -0.352 N 
ATOM      3  O   UNL     1       1.183   0.034  -0.015  1.00  0.00    -0.269 OA
ATOM      4  C   UNL     1       2.399   0.111   0.134  1.00  0.00     0.251 C 
ATOM      5  H   UNL     1       2.579   1.586  -1.205  1.00  0.00     0.163 HD
BRANCH   4   6
ATOM      6  C   UNL     1       3.085  -0.736   1.135  1.00  0.00     0.039 A 
ATOM      7  C   UNL     1       4.154  -0.227   1.865  1.00  0.00     0.014 A 
ATOM      8  C   UNL     1       2.668  -2.053   1.351  1.00  0.00     0.014 A 
ATOM      9  C   UNL     1       4.955  -1.085   2.599  1.00  0.00     0.010 A 
ATOM     10  C   UNL     1       3.385  -2.878   2.230  1.00  0.00     0.010 A 
ATOM     11  C   UNL     1       4.566  -2.415   2.826  1.00  0.00    -0.014 A 
BRANCH  11  12
ATOM     12  C   UNL     1       5.403  -3.233   3.746  1.00  0.00     0.031 A 
ATOM     13  C   UNL     1       6.078  -4.500   3.293  1.00  0.00     0.074 A 
ATOM     14  C   UNL     1       5.636  -2.747   4.984  1.00  0.00     0.049 A 
ATOM     15  N   UNL     1       6.919  -5.258   3.950  1.00  0.00    -0.248 NA
ATOM     16  C   UNL     1       5.767  -4.990   1.941  1.00  0.00     0.031 C 
ATOM     17  C   UNL     1       5.009  -1.543   5.545  1.00  0.00     0.029 A 
ATOM     18  N   UNL     1       6.497  -3.153   5.969  1.00  0.00    -0.354 N 
ATOM     19  C   UNL     1       7.221  -6.321   3.108  1.00  0.00     0.074 A 
ATOM     20  C   UNL     1       6.455  -6.125   1.896  1.00  0.00     0.031 C 
ATOM     21  C   UNL     1       5.580  -1.253   6.720  1.00  0.00     0.029 A 
ATOM     22  C   UNL     1       6.545  -2.295   7.043  1.00  0.00     0.049 A 
ATOM     23  H   UNL     1       7.030  -3.979   5.914  1.00  0.00     0.167 HD
ATOM     24  C   UNL     1       8.065  -7.360   3.325  1.00  0.00     0.037 A 
ATOM     25  C   UNL     1       7.274  -2.340   8.173  1.00  0.00     0.037 A 
ATOM     26  C   UNL     1       8.839  -7.534   4.529  1.00  0.00     0.049 A 
ATOM     27  C   UNL     1       8.225  -3.482   8.370  1.00  0.00     0.074 A 
ATOM     28  C   UNL     1       9.717  -8.556   4.849  1.00  0.00     0.029 A 
ATOM     29  N   UNL     1       8.839  -6.660   5.606  1.00  0.00    -0.354 N 
ATOM     30  N   UNL     1       8.482  -4.483   7.562  1.00  0.00    -0.248 NA
ATOM     31  C   UNL     1       8.974  -3.510   9.631  1.00  0.00     0.031 C 
ATOM     32  C   UNL     1      10.226  -8.314   6.130  1.00  0.00     0.029 A 
ATOM     33  C   UNL     1       9.697  -7.120   6.593  1.00  0.00     0.049 A 
ATOM     34  H   UNL     1       8.308  -5.833   5.662  1.00  0.00     0.167 HD
ATOM     35  C   UNL     1       9.413  -5.270   8.224  1.00  0.00     0.074 A 
ATOM     36  C   UNL     1       9.707  -4.603   9.478  1.00  0.00     0.031 C 
ATOM     37  C   UNL     1       9.962  -6.448   7.839  1.00  0.00     0.037 A 
BRANCH  24  38
ATOM     38  C   UNL     1       8.192  -8.399   2.244  1.00  0.00     0.058 A 
ATOM     39  C   UNL     1       8.896  -8.145   1.056  1.00  0.00     0.135 A 
ATOM     40  C   UNL     1       7.655  -9.685   2.423  1.00  0.00     0.135 A 
ATOM     41  F   UNL     1       9.414  -6.929   0.826  1.00  0.00    -0.206 F 
ATOM     42  C   UNL     1       9.050  -9.123   0.078  1.00  0.00     0.059 A 
ATOM     43  C   UNL     1       7.816 -10.685   1.467  1.00  0.00     0.059 A 
ATOM     44  F   UNL     1       6.972  -9.983   3.539  1.00  0.00    -0.206 F 
ATOM     45  C   UNL     1       8.507 -10.391   0.293  1.00  0.00     0.060 A 
BRANCH  45  46
ATOM     46  S   UNL     1       8.731 -11.655  -0.978  1.00  0.00     0.124 S 
ATOM     47  O   UNL     1       7.802 -11.199  -2.007  1.00  0.00    -0.237 OA
ATOM     48  O   UNL     1      10.148 -11.525  -1.302  1.00  0.00    -0.237 OA
ATOM     49  O   UNL     1       8.358 -12.891  -0.298  1.00  0.00    -0.744 OA
ENDBRANCH  45  46
ENDBRANCH  24  38
BRANCH  25  50
ATOM     50  C   UNL     1       7.100  -1.286   9.206  1.00  0.00     0.058 A 
ATOM     51  C   UNL     1       8.113  -0.356   9.482  1.00  0.00     0.135 A 
ATOM     52  C   UNL     1       5.894  -1.170   9.917  1.00  0.00     0.135 A 
ATOM     53  F   UNL     1       9.284  -0.425   8.831  1.00  0.00    -0.206 F 
ATOM     54  C   UNL     1       7.942   0.644  10.435  1.00  0.00     0.059 A 
ATOM     55  C   UNL     1       5.688  -0.162  10.850  1.00  0.00     0.059 A 
ATOM     56  F   UNL     1       4.886  -2.022   9.674  1.00  0.00    -0.206 F 
ATOM     57  C   UNL     1       6.724   0.734  11.112  1.00  0.00     0.060 A 
BRANCH  57  58
ATOM     58  S   UNL     1       6.481   2.064  12.308  1.00  0.00     0.124 S 
ATOM     59  O   UNL     1       7.184   1.541  13.473  1.00  0.00    -0.237 OA
ATOM     60  O   UNL     1       7.107   3.201  11.640  1.00  0.00    -0.237 OA
ATOM     61  O   UNL     1       5.027   2.142  12.426  1.00  0.00    -0.744 OA
ENDBRANCH  57  58
ENDBRANCH  25  50
BRANCH  37  62
ATOM     62  C   UNL     1      10.931  -7.080   8.796  1.00  0.00     0.058 A 
ATOM     63  C   UNL     1      10.491  -7.692   9.981  1.00  0.00     0.135 A 
ATOM     64  C   UNL     1      12.308  -7.070   8.530  1.00  0.00     0.135 A 
ATOM     65  F   UNL     1       9.183  -7.719  10.283  1.00  0.00    -0.206 F 
ATOM     66  C   UNL     1      11.389  -8.238  10.890  1.00  0.00     0.059 A 
ATOM     67  C   UNL     1      13.222  -7.632   9.414  1.00  0.00     0.059 A 
ATOM     68  F   UNL     1      12.776  -6.505   7.406  1.00  0.00    -0.206 F 
ATOM     69  C   UNL     1      12.755  -8.196  10.601  1.00  0.00     0.060 A 
BRANCH  69  70
ATOM     70  S   UNL     1      13.915  -8.900  11.791  1.00  0.00     0.124 S 
ATOM     71  O   UNL     1      13.963  -7.853  12.806  1.00  0.00    -0.237 OA
ATOM     72  O   UNL     1      13.248 -10.137  12.188  1.00  0.00    -0.237 OA
ATOM     73  O   UNL     1      15.135  -9.076  11.009  1.00  0.00    -0.744 OA
ENDBRANCH  69  70
ENDBRANCH  37  62
ENDBRANCH  11  12
ENDBRANCH   4   6
ENDBRANCH   1   2
BRANCH   1  74
ATOM     74  C   UNL     1       5.084   0.444  -2.097  1.00  0.00     0.042 C 
BRANCH  74  75
ATOM     75  C   UNL     1       4.683   1.169  -3.368  1.00  0.00     0.118 C 
BRANCH  75  76
ATOM     76  N   UNL     1       5.238   2.516  -3.434  1.00  0.00    -0.352 N 
ATOM     77  C   UNL     1       6.114   3.078  -4.325  1.00  0.00     0.251 C 
ATOM     78  H   UNL     1       4.931   3.122  -2.721  1.00  0.00     0.163 HD
ATOM     79  O   UNL     1       6.621   4.168  -4.077  1.00  0.00    -0.269 OA
BRANCH  77  80
ATOM     80  C   UNL     1       6.422   2.411  -5.606  1.00  0.00     0.041 A 
ATOM     81  C   UNL     1       7.710   2.503  -6.136  1.00  0.00     0.022 A 
ATOM     82  C   UNL     1       5.413   1.794  -6.339  1.00  0.00     0.035 A 
ATOM     83  C   UNL     1       8.012   1.945  -7.390  1.00  0.00    -0.013 A 
ATOM     84  C   UNL     1       5.693   1.195  -7.557  1.00  0.00     0.084 A 
ATOM     85  C   UNL     1       6.988   1.275  -8.089  1.00  0.00     0.030 A 
BRANCH  83  86
ATOM     86  C   UNL     1       9.352   2.107  -7.956  1.00  0.00     0.018 A 
ATOM     87  C   UNL     1       9.579   2.687  -9.194  1.00  0.00     0.123 A 
ATOM     88  C   UNL     1      10.511   1.758  -7.282  1.00  0.00     0.123 A 
ATOM     89  N   UNL     1      10.801   2.912  -9.724  1.00  0.00    -0.244 NA
ATOM     90  N   UNL     1      11.761   1.956  -7.756  1.00  0.00    -0.244 NA
ATOM     91  C   UNL     1      11.839   2.531  -8.964  1.00  0.00     0.221 A 
ENDBRANCH  83  86
BRANCH  84  92
ATOM     92  S   UNL     1       4.430   0.340  -8.479  1.00  0.00     0.243 S 
ATOM     93  O   UNL     1       4.469   0.902  -9.816  1.00  0.00    -0.207 OA
ATOM     94  O   UNL     1       4.640  -1.067  -8.236  1.00  0.00    -0.207 OA
BRANCH  92  95
ATOM     95  N   UNL     1       2.949   0.765  -7.806  1.00  0.00    -0.198 NA
ATOM     96  C   UNL     1       2.385   2.110  -7.978  1.00  0.00     0.102 C 
ATOM     97  C   UNL     1       2.456   0.136  -6.569  1.00  0.00     0.102 C 
ATOM     98  C   UNL     1       1.875   2.491  -6.596  1.00  0.00     0.018 C 
ATOM     99  C   UNL     1       1.505   1.163  -5.956  1.00  0.00     0.018 C 
ENDBRANCH  92  95
ENDBRANCH  84  92
ENDBRANCH  77  80
ENDBRANCH  75  76
ENDBRANCH  74  75
ENDBRANCH   1  74
TORSDOF 16
