REMARK SMILES CC[N@H+]1C[C@@H](C(=O)NCCCNC(=O)c2ccc(-c3c4nc(c(-c5c(F)cc(S(=O)(=O)[O-])cc5F)c5ccc([nH]5)c(-c5c(F)cc(S(=O)(=O)[O-])cc5F)c5nc(c(-c6c(F)cc(S(=O)(=O)[O-])cc6F)c6ccc3[nH]6)C=C5)C=C4)cc2)C[C@@H](C(=O)Nc2ccc(F)cc2)C1
REMARK SMILES IDX 10 1 9 2 8 3 6 4 7 5 5 7 3 8 4 9 93 10 82 12 81 13 2 14 1 15
REMARK SMILES IDX 83 16 84 17 85 18 86 20 87 21 92 22 88 23 91 24 89 25 90 26
REMARK SMILES IDX 11 27 12 28 13 29 14 31 15 32 16 33 80 34 17 35 79 36 18 37
REMARK SMILES IDX 19 38 20 39 73 40 21 41 78 42 72 43 74 44 22 45 77 46 71 47
REMARK SMILES IDX 70 48 23 50 57 51 36 52 56 53 37 54 40 55 55 56 75 57 38 58
REMARK SMILES IDX 39 59 54 61 76 62 41 63 24 64 25 65 34 66 26 67 27 68 33 69
REMARK SMILES IDX 35 70 28 71 29 72 30 73 31 74 32 75 58 76 59 77 68 78 60 79
REMARK SMILES IDX 61 80 67 81 69 82 62 83 63 84 64 85 65 86 66 87 42 88 43 89
REMARK SMILES IDX 52 90 44 91 45 92 51 93 53 94 46 95 47 96 48 97 49 98 50 99
REMARK H PARENT 8 6 3 11 85 19 12 30 74 49 40 60
REMARK Flexibility Score: inf
ROOT
ATOM      1  C   UNL     1      -3.070   1.301  -5.307  1.00  0.00     0.042 C 
ENDROOT
BRANCH   1   2
ATOM      2  C   UNL     1      -2.231   0.466  -4.350  1.00  0.00     0.117 C 
BRANCH   2   3
ATOM      3  N   UNL     1      -1.195  -0.297  -5.036  1.00  0.00    -0.356 N 
ATOM      4  C   UNL     1       0.163  -0.203  -5.001  1.00  0.00     0.228 C 
ATOM      5  O   UNL     1       0.811  -0.997  -5.688  1.00  0.00    -0.275 OA
ATOM      6  H   UNL     1      -1.538  -1.006  -5.628  1.00  0.00     0.163 HD
BRANCH   4   7
ATOM      7  C   UNL     1       0.871   0.816  -4.121  1.00  0.00     0.134 C 
ATOM      8  N   UNL     1       0.994   1.540  -1.695  1.00  0.00    -0.334 N 
ATOM      9  C   UNL     1       0.619   0.479  -2.642  1.00  0.00     0.275 C 
ATOM     10  C   UNL     1       0.459   2.848  -2.118  1.00  0.00     0.275 C 
ATOM     11  H   UNL     1       2.014   1.578  -1.690  1.00  0.00     0.348 HD
ATOM     12  C   UNL     1       1.012   3.257  -3.489  1.00  0.00     0.135 C 
ATOM     13  C   UNL     1       0.557   2.252  -4.546  1.00  0.00     0.038 C 
BRANCH   8  14
ATOM     14  C   UNL     1       0.524   1.245  -0.326  1.00  0.00     0.258 C 
ATOM     15  C   UNL     1       1.056  -0.065   0.245  1.00  0.00     0.071 C 
ENDBRANCH   8  14
BRANCH  12  16
ATOM     16  C   UNL     1       0.541   4.675  -3.821  1.00  0.00     0.233 C 
ATOM     17  O   UNL     1      -0.358   4.872  -4.642  1.00  0.00    -0.274 OA
ATOM     18  N   UNL     1       1.009   5.747  -3.106  1.00  0.00    -0.326 N 
ATOM     19  H   UNL     1       0.516   6.588  -3.246  1.00  0.00     0.169 HD
BRANCH  18  20
ATOM     20  C   UNL     1       2.081   5.832  -2.207  1.00  0.00     0.041 A 
ATOM     21  C   UNL     1       1.923   6.645  -1.080  1.00  0.00     0.029 A 
ATOM     22  C   UNL     1       3.286   5.149  -2.396  1.00  0.00     0.029 A 
ATOM     23  C   UNL     1       2.913   6.674  -0.095  1.00  0.00     0.041 A 
ATOM     24  C   UNL     1       4.278   5.182  -1.415  1.00  0.00     0.041 A 
ATOM     25  C   UNL     1       4.073   5.928  -0.263  1.00  0.00     0.123 A 
ATOM     26  F   UNL     1       5.012   5.936   0.691  1.00  0.00    -0.207 F 
ENDBRANCH  18  20
ENDBRANCH  12  16
ENDBRANCH   4   7
ENDBRANCH   2   3
ENDBRANCH   1   2
BRANCH   1  27
ATOM     27  C   UNL     1      -3.878   0.472  -6.294  1.00  0.00     0.118 C 
BRANCH  27  28
ATOM     28  N   UNL     1      -4.872  -0.368  -5.635  1.00  0.00    -0.352 N 
ATOM     29  C   UNL     1      -6.243  -0.289  -5.649  1.00  0.00     0.251 C 
ATOM     30  H   UNL     1      -4.503  -1.106  -5.098  1.00  0.00     0.163 HD
ATOM     31  O   UNL     1      -6.898  -0.962  -4.857  1.00  0.00    -0.269 OA
BRANCH  29  32
ATOM     32  C   UNL     1      -6.925   0.624  -6.591  1.00  0.00     0.039 A 
ATOM     33  C   UNL     1      -7.975   1.419  -6.126  1.00  0.00     0.014 A 
ATOM     34  C   UNL     1      -6.521   0.707  -7.926  1.00  0.00     0.014 A 
ATOM     35  C   UNL     1      -8.550   2.370  -6.972  1.00  0.00     0.010 A 
ATOM     36  C   UNL     1      -7.037   1.709  -8.742  1.00  0.00     0.010 A 
ATOM     37  C   UNL     1      -8.044   2.562  -8.268  1.00  0.00    -0.014 A 
BRANCH  37  38
ATOM     38  C   UNL     1      -8.506   3.687  -9.123  1.00  0.00     0.031 A 
ATOM     39  C   UNL     1      -9.169   3.415 -10.446  1.00  0.00     0.074 A 
ATOM     40  C   UNL     1      -8.225   4.953  -8.750  1.00  0.00     0.049 A 
ATOM     41  N   UNL     1      -9.522   4.261 -11.377  1.00  0.00    -0.248 NA
ATOM     42  C   UNL     1      -9.449   2.007 -10.777  1.00  0.00     0.031 C 
ATOM     43  C   UNL     1      -7.531   5.338  -7.517  1.00  0.00     0.029 A 
ATOM     44  N   UNL     1      -8.458   6.151  -9.381  1.00  0.00    -0.354 N 
ATOM     45  C   UNL     1     -10.042   3.493 -12.412  1.00  0.00     0.074 A 
ATOM     46  C   UNL     1      -9.934   2.108 -12.008  1.00  0.00     0.031 C 
ATOM     47  C   UNL     1      -7.397   6.673  -7.483  1.00  0.00     0.029 A 
ATOM     48  C   UNL     1      -7.948   7.238  -8.709  1.00  0.00     0.049 A 
ATOM     49  H   UNL     1      -8.944   6.224 -10.234  1.00  0.00     0.167 HD
ATOM     50  C   UNL     1     -10.572   3.910 -13.586  1.00  0.00     0.037 A 
ATOM     51  C   UNL     1      -7.899   8.540  -9.054  1.00  0.00     0.037 A 
ATOM     52  C   UNL     1     -10.711   5.293 -13.961  1.00  0.00     0.049 A 
ATOM     53  C   UNL     1      -8.491   8.971 -10.369  1.00  0.00     0.074 A 
ATOM     54  C   UNL     1     -11.336   5.818 -15.079  1.00  0.00     0.029 A 
ATOM     55  N   UNL     1     -10.209   6.367 -13.242  1.00  0.00    -0.354 N 
ATOM     56  N   UNL     1      -9.080   8.239 -11.285  1.00  0.00    -0.248 NA
ATOM     57  C   UNL     1      -8.411  10.400 -10.703  1.00  0.00     0.031 C 
ATOM     58  C   UNL     1     -11.160   7.204 -15.067  1.00  0.00     0.029 A 
ATOM     59  C   UNL     1     -10.471   7.548 -13.915  1.00  0.00     0.049 A 
ATOM     60  H   UNL     1      -9.737   6.299 -12.381  1.00  0.00     0.167 HD
ATOM     61  C   UNL     1      -9.450   9.120 -12.295  1.00  0.00     0.074 A 
ATOM     62  C   UNL     1      -9.044  10.442 -11.867  1.00  0.00     0.031 C 
ATOM     63  C   UNL     1     -10.064   8.858 -13.474  1.00  0.00     0.037 A 
BRANCH  50  64
ATOM     64  C   UNL     1     -11.053   2.874 -14.563  1.00  0.00     0.058 A 
ATOM     65  C   UNL     1     -12.237   2.154 -14.351  1.00  0.00     0.135 A 
ATOM     66  C   UNL     1     -10.378   2.684 -15.780  1.00  0.00     0.135 A 
ATOM     67  F   UNL     1     -12.913   2.287 -13.198  1.00  0.00    -0.206 F 
ATOM     68  C   UNL     1     -12.738   1.282 -15.312  1.00  0.00     0.059 A 
ATOM     69  C   UNL     1     -10.873   1.835 -16.765  1.00  0.00     0.059 A 
ATOM     70  F   UNL     1      -9.237   3.346 -16.031  1.00  0.00    -0.206 F 
ATOM     71  C   UNL     1     -12.055   1.137 -16.521  1.00  0.00     0.060 A 
BRANCH  71  72
ATOM     72  S   UNL     1     -12.755   0.050 -17.781  1.00  0.00     0.124 S 
ATOM     73  O   UNL     1     -12.527  -1.266 -17.191  1.00  0.00    -0.237 OA
ATOM     74  O   UNL     1     -14.146   0.489 -17.830  1.00  0.00    -0.237 OA
ATOM     75  O   UNL     1     -11.963   0.350 -18.969  1.00  0.00    -0.744 OA
ENDBRANCH  71  72
ENDBRANCH  50  64
BRANCH  51  76
ATOM     76  C   UNL     1      -7.235   9.531  -8.163  1.00  0.00     0.058 A 
ATOM     77  C   UNL     1      -7.971  10.535  -7.517  1.00  0.00     0.135 A 
ATOM     78  C   UNL     1      -5.845   9.511  -7.962  1.00  0.00     0.135 A 
ATOM     79  F   UNL     1      -9.301  10.602  -7.681  1.00  0.00    -0.206 F 
ATOM     80  C   UNL     1      -7.352  11.503  -6.732  1.00  0.00     0.059 A 
ATOM     81  C   UNL     1      -5.207  10.450  -7.157  1.00  0.00     0.059 A 
ATOM     82  F   UNL     1      -5.095   8.562  -8.543  1.00  0.00    -0.206 F 
ATOM     83  C   UNL     1      -5.968  11.454  -6.562  1.00  0.00     0.060 A 
BRANCH  83  84
ATOM     84  S   UNL     1      -5.173  12.708  -5.533  1.00  0.00     0.124 S 
ATOM     85  O   UNL     1      -5.218  13.875  -6.407  1.00  0.00    -0.237 OA
ATOM     86  O   UNL     1      -6.048  12.750  -4.366  1.00  0.00    -0.237 OA
ATOM     87  O   UNL     1      -3.846  12.151  -5.290  1.00  0.00    -0.744 OA
ENDBRANCH  83  84
ENDBRANCH  51  76
BRANCH  63  88
ATOM     88  C   UNL     1     -10.345  10.019 -14.386  1.00  0.00     0.058 A 
ATOM     89  C   UNL     1      -9.317  10.649 -15.105  1.00  0.00     0.135 A 
ATOM     90  C   UNL     1     -11.662  10.456 -14.602  1.00  0.00     0.135 A 
ATOM     91  F   UNL     1      -8.040  10.275 -14.926  1.00  0.00    -0.206 F 
ATOM     92  C   UNL     1      -9.584  11.680 -15.999  1.00  0.00     0.059 A 
ATOM     93  C   UNL     1     -11.955  11.466 -15.512  1.00  0.00     0.059 A 
ATOM     94  F   UNL     1     -12.681   9.881 -13.945  1.00  0.00    -0.206 F 
ATOM     95  C   UNL     1     -10.908  12.077 -16.202  1.00  0.00     0.060 A 
BRANCH  95  96
ATOM     96  S   UNL     1     -11.243  13.376 -17.409  1.00  0.00     0.124 S 
ATOM     97  O   UNL     1     -10.749  14.559 -16.714  1.00  0.00    -0.237 OA
ATOM     98  O   UNL     1     -10.458  12.942 -18.560  1.00  0.00    -0.237 OA
ATOM     99  O   UNL     1     -12.691  13.311 -17.585  1.00  0.00    -0.744 OA
ENDBRANCH  95  96
ENDBRANCH  63  88
ENDBRANCH  37  38
ENDBRANCH  29  32
ENDBRANCH  27  28
ENDBRANCH   1  27
TORSDOF 16
