REMARK SMILES CC(C)Cc1ccc(-c2cc(Cl)cc3c2O[C@H](C(F)(F)F)C(C(=O)NCCCNC(=O)c2ccc(-c4c5nc(c(-c6c(F)cc(S(=O)(=O)[O-])cc6F)c6ccc([nH]6)c(-c6c(F)cc(S(=O)(=O)[O-])cc6F)c6nc(c(-c7c(F)cc(S(=O)(=O)[O-])cc7F)c7ccc4[nH]7)C=C6)C=C5)cc2)=C3)cc1
REMARK SMILES IDX 27 1 26 2 25 3 23 4 24 5 22 7 9 8 10 9 15 10 11 11 14 12
REMARK SMILES IDX 16 13 12 14 13 15 98 16 17 17 8 18 5 19 6 20 100 21 7 22
REMARK SMILES IDX 99 23 4 24 2 25 1 26 3 27 18 28 19 29 20 30 21 31 28 32
REMARK SMILES IDX 29 33 30 34 31 36 32 37 33 38 97 39 34 40 96 41 35 42 36 43
REMARK SMILES IDX 37 44 90 45 38 46 95 47 89 48 91 49 39 50 94 51 88 52 87 53
REMARK SMILES IDX 40 55 74 56 53 57 73 58 54 59 57 60 72 61 92 62 55 63 56 64
REMARK SMILES IDX 71 66 93 67 58 68 41 69 42 70 51 71 43 72 44 73 50 74 52 75
REMARK SMILES IDX 45 76 46 77 47 78 48 79 49 80 75 81 76 82 85 83 77 84 78 85
REMARK SMILES IDX 84 86 86 87 79 88 80 89 81 90 82 91 83 92 59 93 60 94 69 95
REMARK SMILES IDX 61 96 62 97 68 98 70 99 63 100 64 101 65 102 66 103 67 104
REMARK H PARENT 25 6 29 35 91 54 57 65
REMARK Flexibility Score: inf
ROOT
ATOM      1  C   UNL     1      -4.823 -12.332   4.716  1.00  0.00     0.042 C 
ENDROOT
BRANCH   1   2
ATOM      2  C   UNL     1      -3.923 -11.818   3.590  1.00  0.00     0.118 C 
BRANCH   2   3
ATOM      3  N   UNL     1      -4.607 -10.788   2.834  1.00  0.00    -0.352 N 
ATOM      4  C   UNL     1      -4.248  -9.486   2.724  1.00  0.00     0.251 C 
ATOM      5  O   UNL     1      -5.108  -8.613   2.735  1.00  0.00    -0.270 OA
ATOM      6  H   UNL     1      -5.419 -11.064   2.349  1.00  0.00     0.163 HD
BRANCH   4   7
ATOM      7  C   UNL     1      -2.811  -9.199   2.436  1.00  0.00     0.067 C 
ATOM      8  C   UNL     1      -3.052  -5.196   1.730  1.00  0.00     0.026 A 
ATOM      9  C   UNL     1      -4.171  -4.988   0.879  1.00  0.00     0.033 A 
ATOM     10  C   UNL     1      -2.619  -6.526   1.867  1.00  0.00     0.135 A 
ATOM     11  C   UNL     1      -4.711  -5.999   0.086  1.00  0.00     0.042 A 
ATOM     12  C   UNL     1      -3.100  -7.511   0.968  1.00  0.00     0.019 A 
ATOM     13  O   UNL     1      -1.767  -6.942   2.880  1.00  0.00    -0.475 OA
ATOM     14  Cl  UNL     1      -6.074  -5.668  -0.908  1.00  0.00    -0.084 Cl
ATOM     15  C   UNL     1      -4.131  -7.252   0.070  1.00  0.00     0.032 A 
ATOM     16  C   UNL     1      -2.610  -8.897   1.138  1.00  0.00     0.025 C 
ATOM     17  C   UNL     1      -2.125  -8.280   3.440  1.00  0.00     0.314 C 
BRANCH   8  18
ATOM     18  C   UNL     1      -2.348  -3.956   2.165  1.00  0.00    -0.015 A 
ATOM     19  C   UNL     1      -1.312  -1.310   1.815  1.00  0.00    -0.048 A 
ATOM     20  C   UNL     1      -2.583  -1.527   2.369  1.00  0.00     0.004 A 
ATOM     21  C   UNL     1      -0.510  -2.434   1.594  1.00  0.00     0.004 A 
ATOM     22  C   UNL     1      -3.079  -2.824   2.571  1.00  0.00     0.009 A 
ATOM     23  C   UNL     1      -1.018  -3.737   1.772  1.00  0.00     0.009 A 
BRANCH  19  24
ATOM     24  C   UNL     1      -0.957   0.104   1.382  1.00  0.00     0.038 C 
BRANCH  24  25
ATOM     25  C   UNL     1       0.525   0.477   1.153  1.00  0.00    -0.013 C 
ATOM     26  C   UNL     1       1.014   0.115  -0.255  1.00  0.00     0.008 C 
ATOM     27  C   UNL     1       0.723   1.988   1.349  1.00  0.00     0.008 C 
ENDBRANCH  24  25
ENDBRANCH  19  24
ENDBRANCH   8  18
BRANCH  17  28
ATOM     28  C   UNL     1      -0.883  -9.012   3.998  1.00  0.00     0.429 C 
ATOM     29  F   UNL     1       0.277  -8.427   3.625  1.00  0.00    -0.167 F 
ATOM     30  F   UNL     1      -0.904  -9.055   5.351  1.00  0.00    -0.167 F 
ATOM     31  F   UNL     1      -0.809 -10.304   3.579  1.00  0.00    -0.167 F 
ENDBRANCH  17  28
ENDBRANCH   4   7
ENDBRANCH   2   3
ENDBRANCH   1   2
BRANCH   1  32
ATOM     32  C   UNL     1      -6.136 -12.958   4.251  1.00  0.00     0.118 C 
BRANCH  32  33
ATOM     33  N   UNL     1      -5.947 -14.117   3.392  1.00  0.00    -0.352 N 
ATOM     34  C   UNL     1      -6.512 -15.366   3.488  1.00  0.00     0.251 C 
ATOM     35  H   UNL     1      -5.327 -13.989   2.638  1.00  0.00     0.163 HD
ATOM     36  O   UNL     1      -6.122 -16.273   2.756  1.00  0.00    -0.269 OA
BRANCH  34  37
ATOM     37  C   UNL     1      -7.565 -15.618   4.494  1.00  0.00     0.039 A 
ATOM     38  C   UNL     1      -7.470 -16.753   5.303  1.00  0.00     0.014 A 
ATOM     39  C   UNL     1      -8.627 -14.725   4.657  1.00  0.00     0.014 A 
ATOM     40  C   UNL     1      -8.402 -16.953   6.324  1.00  0.00     0.010 A 
ATOM     41  C   UNL     1      -9.505 -14.883   5.726  1.00  0.00     0.010 A 
ATOM     42  C   UNL     1      -9.403 -15.998   6.571  1.00  0.00    -0.014 A 
BRANCH  42  43
ATOM     43  C   UNL     1     -10.347 -16.146   7.711  1.00  0.00     0.031 A 
ATOM     44  C   UNL     1     -11.826 -16.270   7.457  1.00  0.00     0.074 A 
ATOM     45  C   UNL     1      -9.880 -16.100   8.975  1.00  0.00     0.049 A 
ATOM     46  N   UNL     1     -12.810 -16.331   8.317  1.00  0.00    -0.248 NA
ATOM     47  C   UNL     1     -12.259 -16.297   6.050  1.00  0.00     0.031 C 
ATOM     48  C   UNL     1      -8.475 -15.929   9.354  1.00  0.00     0.029 A 
ATOM     49  N   UNL     1     -10.537 -16.182  10.178  1.00  0.00    -0.354 N 
ATOM     50  C   UNL     1     -13.974 -16.388   7.559  1.00  0.00     0.074 A 
ATOM     51  C   UNL     1     -13.578 -16.295   6.171  1.00  0.00     0.031 C 
ATOM     52  C   UNL     1      -8.374 -15.944  10.692  1.00  0.00     0.029 A 
ATOM     53  C   UNL     1      -9.706 -16.084  11.270  1.00  0.00     0.049 A 
ATOM     54  H   UNL     1     -11.511 -16.300  10.252  1.00  0.00     0.167 HD
ATOM     55  C   UNL     1     -15.254 -16.531   7.979  1.00  0.00     0.037 A 
ATOM     56  C   UNL     1      -9.986 -16.098  12.589  1.00  0.00     0.037 A 
ATOM     57  C   UNL     1     -15.637 -16.652   9.362  1.00  0.00     0.049 A 
ATOM     58  C   UNL     1     -11.415 -16.262  13.032  1.00  0.00     0.074 A 
ATOM     59  C   UNL     1     -16.900 -16.861   9.889  1.00  0.00     0.029 A 
ATOM     60  N   UNL     1     -14.764 -16.573  10.437  1.00  0.00    -0.354 N 
ATOM     61  N   UNL     1     -12.497 -16.380  12.298  1.00  0.00    -0.248 NA
ATOM     62  C   UNL     1     -11.663 -16.301  14.479  1.00  0.00     0.031 C 
ATOM     63  C   UNL     1     -16.797 -16.863  11.283  1.00  0.00     0.029 A 
ATOM     64  C   UNL     1     -15.463 -16.710  11.625  1.00  0.00     0.049 A 
ATOM     65  H   UNL     1     -13.791 -16.440  10.366  1.00  0.00     0.167 HD
ATOM     66  C   UNL     1     -13.549 -16.537  13.195  1.00  0.00     0.074 A 
ATOM     67  C   UNL     1     -12.971 -16.511  14.523  1.00  0.00     0.031 C 
ATOM     68  C   UNL     1     -14.872 -16.690  12.941  1.00  0.00     0.037 A 
BRANCH  55  69
ATOM     69  C   UNL     1     -16.333 -16.571   6.931  1.00  0.00     0.058 A 
ATOM     70  C   UNL     1     -16.467 -17.658   6.051  1.00  0.00     0.135 A 
ATOM     71  C   UNL     1     -17.267 -15.527   6.825  1.00  0.00     0.135 A 
ATOM     72  F   UNL     1     -15.594 -18.677   6.097  1.00  0.00    -0.206 F 
ATOM     73  C   UNL     1     -17.466 -17.695   5.085  1.00  0.00     0.059 A 
ATOM     74  C   UNL     1     -18.294 -15.557   5.885  1.00  0.00     0.059 A 
ATOM     75  F   UNL     1     -17.187 -14.463   7.639  1.00  0.00    -0.206 F 
ATOM     76  C   UNL     1     -18.375 -16.639   5.009  1.00  0.00     0.060 A 
BRANCH  76  77
ATOM     77  S   UNL     1     -19.669 -16.706   3.752  1.00  0.00     0.124 S 
ATOM     78  O   UNL     1     -18.905 -16.454   2.535  1.00  0.00    -0.237 OA
ATOM     79  O   UNL     1     -20.185 -18.062   3.908  1.00  0.00    -0.237 OA
ATOM     80  O   UNL     1     -20.585 -15.641   4.149  1.00  0.00    -0.744 OA
ENDBRANCH  76  77
ENDBRANCH  55  69
BRANCH  56  81
ATOM     81  C   UNL     1      -8.887 -15.976  13.585  1.00  0.00     0.058 A 
ATOM     82  C   UNL     1      -8.514 -17.066  14.385  1.00  0.00     0.135 A 
ATOM     83  C   UNL     1      -8.181 -14.774  13.749  1.00  0.00     0.135 A 
ATOM     84  F   UNL     1      -9.162 -18.235  14.270  1.00  0.00    -0.206 F 
ATOM     85  C   UNL     1      -7.493 -16.965  15.326  1.00  0.00     0.059 A 
ATOM     86  C   UNL     1      -7.139 -14.656  14.664  1.00  0.00     0.059 A 
ATOM     87  F   UNL     1      -8.486 -13.705  12.996  1.00  0.00    -0.206 F 
ATOM     88  C   UNL     1      -6.809 -15.755  15.456  1.00  0.00     0.060 A 
BRANCH  88  89
ATOM     89  S   UNL     1      -5.454 -15.650  16.645  1.00  0.00     0.124 S 
ATOM     90  O   UNL     1      -6.176 -15.640  17.912  1.00  0.00    -0.237 OA
ATOM     91  O   UNL     1      -4.695 -16.862  16.352  1.00  0.00    -0.237 OA
ATOM     92  O   UNL     1      -4.789 -14.402  16.286  1.00  0.00    -0.744 OA
ENDBRANCH  88  89
ENDBRANCH  56  81
BRANCH  68  93
ATOM     93  C   UNL     1     -15.787 -16.881  14.120  1.00  0.00     0.058 A 
ATOM     94  C   UNL     1     -16.099 -15.827  14.992  1.00  0.00     0.135 A 
ATOM     95  C   UNL     1     -16.401 -18.123  14.347  1.00  0.00     0.135 A 
ATOM     96  F   UNL     1     -15.535 -14.620  14.824  1.00  0.00    -0.206 F 
ATOM     97  C   UNL     1     -16.970 -16.004  16.063  1.00  0.00     0.059 A 
ATOM     98  C   UNL     1     -17.297 -18.316  15.393  1.00  0.00     0.059 A 
ATOM     99  F   UNL     1     -16.145 -19.162  13.536  1.00  0.00    -0.206 F 
ATOM    100  C   UNL     1     -17.566 -17.252  16.253  1.00  0.00     0.060 A 
BRANCH 100 101
ATOM    101  S   UNL     1     -18.719 -17.460  17.626  1.00  0.00     0.124 S 
ATOM    102  O   UNL     1     -17.814 -17.479  18.771  1.00  0.00    -0.237 OA
ATOM    103  O   UNL     1     -19.564 -16.276  17.506  1.00  0.00    -0.237 OA
ATOM    104  O   UNL     1     -19.380 -18.727  17.328  1.00  0.00    -0.744 OA
ENDBRANCH 100 101
ENDBRANCH  68  93
ENDBRANCH  42  43
ENDBRANCH  34  37
ENDBRANCH  32  33
ENDBRANCH   1  32
TORSDOF 17
