REMARK SMILES [NH3+][C@H]1C=C[C@@H](C(=O)NC2(CC(=O)NCCCNC(=O)c3ccc(-c4c5nc(c(-c6c(F)cc(S(=O)(=O)[O-])cc6F)c6ccc([nH]6)c(-c6c(F)cc(S(=O)(=O)[O-])cc6F)c6nc(c(-c7c(F)cc(S(=O)(=O)[O-])cc7F)c7ccc4[nH]7)C=C6)C=C5)cc3)CCCCC2)C1
REMARK SMILES IDX 14 1 13 2 11 3 12 4 10 6 9 7 86 8 90 9 87 10 89 11 88 12
REMARK SMILES IDX 8 13 6 14 7 15 5 17 2 18 3 19 91 20 4 21 1 22 15 26 16 27
REMARK SMILES IDX 17 28 18 29 19 31 20 32 21 33 85 34 22 35 84 36 23 37 24 38
REMARK SMILES IDX 25 39 78 40 26 41 83 42 77 43 79 44 27 45 82 46 76 47 75 48
REMARK SMILES IDX 28 50 62 51 41 52 61 53 42 54 45 55 60 56 80 57 43 58 44 59
REMARK SMILES IDX 59 61 81 62 46 63 29 64 30 65 39 66 31 67 32 68 38 69 40 70
REMARK SMILES IDX 33 71 34 72 35 73 36 74 37 75 63 76 64 77 73 78 65 79 66 80
REMARK SMILES IDX 72 81 74 82 67 83 68 84 69 85 70 86 71 87 47 88 48 89 57 90
REMARK SMILES IDX 49 91 50 92 56 93 58 94 51 95 52 96 53 97 54 98 55 99
REMARK H PARENT 13 5 8 16 1 23 1 24 1 25 17 30 79 49 45 60
REMARK Flexibility Score: inf
ROOT
ATOM      1  C   UNL     1       6.760   1.788  -1.244  1.00  0.00     0.117 C 
ENDROOT
BRANCH   1   2
ATOM      2  N   UNL     1       6.670   3.234  -1.198  1.00  0.00    -0.356 N 
ATOM      3  C   UNL     1       5.811   4.031  -0.508  1.00  0.00     0.222 C 
ATOM      4  O   UNL     1       5.765   5.227  -0.805  1.00  0.00    -0.275 OA
ATOM      5  H   UNL     1       7.330   3.712  -1.751  1.00  0.00     0.163 HD
BRANCH   3   6
ATOM      6  C   UNL     1       4.969   3.502   0.639  1.00  0.00     0.128 C 
BRANCH   6   7
ATOM      7  C   UNL     1       3.457   3.186   0.352  1.00  0.00     0.049 C 
ATOM      8  C   UNL     1       2.737   3.228   1.726  1.00  0.00     0.029 C 
ATOM      9  C   UNL     1       3.302   1.785  -0.252  1.00  0.00     0.029 C 
ATOM     10  C   UNL     1       3.063   2.046   2.647  1.00  0.00     0.002 C 
ATOM     11  C   UNL     1       3.665   0.625   0.667  1.00  0.00     0.002 C 
ATOM     12  C   UNL     1       2.858   0.703   1.953  1.00  0.00     0.000 C 
BRANCH   7  13
ATOM     13  N   UNL     1       2.903   4.210  -0.587  1.00  0.00    -0.350 N 
ATOM     14  C   UNL     1       1.764   4.480  -1.273  1.00  0.00     0.227 C 
ATOM     15  O   UNL     1       1.861   5.451  -2.043  1.00  0.00    -0.274 OA
ATOM     16  H   UNL     1       3.576   4.907  -0.761  1.00  0.00     0.164 HD
BRANCH  14  17
ATOM     17  C   UNL     1       0.401   3.762  -1.218  1.00  0.00     0.107 C 
ATOM     18  C   UNL     1      -0.601   1.522  -0.979  1.00  0.00     0.205 C 
ATOM     19  C   UNL     1      -0.693   2.322   0.276  1.00  0.00     0.033 C 
ATOM     20  C   UNL     1       0.264   2.398  -1.913  1.00  0.00     0.087 C 
ATOM     21  C   UNL     1      -0.182   3.550   0.137  1.00  0.00    -0.012 C 
BRANCH  18  22
ATOM     22  N   UNL     1      -0.075   0.195  -0.706  1.00  0.00    -0.352 N 
ATOM     23  H   UNL     1      -0.713  -0.302  -0.084  1.00  0.00     0.345 HD
ATOM     24  H   UNL     1       0.839   0.276  -0.261  1.00  0.00     0.345 HD
ATOM     25  H   UNL     1       0.018  -0.321  -1.581  1.00  0.00     0.345 HD
ENDBRANCH  18  22
ENDBRANCH  14  17
ENDBRANCH   7  13
ENDBRANCH   6   7
ENDBRANCH   3   6
ENDBRANCH   1   2
BRANCH   1  26
ATOM     26  C   UNL     1       6.013   1.247  -2.459  1.00  0.00     0.042 C 
BRANCH  26  27
ATOM     27  C   UNL     1       6.865   1.170  -3.715  1.00  0.00     0.118 C 
BRANCH  27  28
ATOM     28  N   UNL     1       7.725  -0.002  -3.719  1.00  0.00    -0.352 N 
ATOM     29  C   UNL     1       7.767  -1.058  -4.595  1.00  0.00     0.251 C 
ATOM     30  H   UNL     1       8.377  -0.045  -2.982  1.00  0.00     0.163 HD
ATOM     31  O   UNL     1       8.430  -2.054  -4.290  1.00  0.00    -0.269 OA
BRANCH  29  32
ATOM     32  C   UNL     1       7.020  -1.032  -5.876  1.00  0.00     0.039 A 
ATOM     33  C   UNL     1       6.466  -2.221  -6.360  1.00  0.00     0.014 A 
ATOM     34  C   UNL     1       6.894   0.139  -6.629  1.00  0.00     0.014 A 
ATOM     35  C   UNL     1       5.754  -2.225  -7.564  1.00  0.00     0.010 A 
ATOM     36  C   UNL     1       6.102   0.155  -7.775  1.00  0.00     0.010 A 
ATOM     37  C   UNL     1       5.542  -1.030  -8.270  1.00  0.00    -0.014 A 
BRANCH  37  38
ATOM     38  C   UNL     1       4.780  -1.006  -9.547  1.00  0.00     0.031 A 
ATOM     39  C   UNL     1       5.460  -0.566 -10.820  1.00  0.00     0.074 A 
ATOM     40  C   UNL     1       3.469  -1.320  -9.556  1.00  0.00     0.049 A 
ATOM     41  N   UNL     1       4.953  -0.401 -12.014  1.00  0.00    -0.248 NA
ATOM     42  C   UNL     1       6.893  -0.238 -10.730  1.00  0.00     0.031 C 
ATOM     43  C   UNL     1       2.684  -1.710  -8.383  1.00  0.00     0.029 A 
ATOM     44  N   UNL     1       2.562  -1.352 -10.585  1.00  0.00    -0.354 N 
ATOM     45  C   UNL     1       5.993   0.072 -12.807  1.00  0.00     0.074 A 
ATOM     46  C   UNL     1       7.146   0.218 -11.948  1.00  0.00     0.031 C 
ATOM     47  C   UNL     1       1.420  -1.961  -8.762  1.00  0.00     0.029 A 
ATOM     48  C   UNL     1       1.294  -1.716 -10.195  1.00  0.00     0.049 A 
ATOM     49  H   UNL     1       2.796  -1.133 -11.516  1.00  0.00     0.167 HD
ATOM     50  C   UNL     1       5.996   0.335 -14.136  1.00  0.00     0.037 A 
ATOM     51  C   UNL     1       0.157  -1.834 -10.910  1.00  0.00     0.037 A 
ATOM     52  C   UNL     1       4.858   0.143 -14.995  1.00  0.00     0.049 A 
ATOM     53  C   UNL     1       0.191  -1.561 -12.389  1.00  0.00     0.074 A 
ATOM     54  C   UNL     1       4.776   0.312 -16.366  1.00  0.00     0.029 A 
ATOM     55  N   UNL     1       3.603  -0.264 -14.567  1.00  0.00    -0.354 N 
ATOM     56  N   UNL     1       1.202  -1.177 -13.133  1.00  0.00    -0.248 NA
ATOM     57  C   UNL     1      -1.065  -1.744 -13.129  1.00  0.00     0.031 C 
ATOM     58  C   UNL     1       3.462   0.044 -16.762  1.00  0.00     0.029 A 
ATOM     59  C   UNL     1       2.736  -0.337 -15.645  1.00  0.00     0.049 A 
ATOM     60  H   UNL     1       3.364  -0.470 -13.635  1.00  0.00     0.167 HD
ATOM     61  C   UNL     1       0.710  -1.098 -14.431  1.00  0.00     0.074 A 
ATOM     62  C   UNL     1      -0.685  -1.486 -14.373  1.00  0.00     0.031 C 
ATOM     63  C   UNL     1       1.353  -0.736 -15.569  1.00  0.00     0.037 A 
BRANCH  50  64
ATOM     64  C   UNL     1       7.274   0.845 -14.746  1.00  0.00     0.058 A 
ATOM     65  C   UNL     1       8.402   0.021 -14.893  1.00  0.00     0.135 A 
ATOM     66  C   UNL     1       7.361   2.162 -15.226  1.00  0.00     0.135 A 
ATOM     67  F   UNL     1       8.380  -1.242 -14.439  1.00  0.00    -0.206 F 
ATOM     68  C   UNL     1       9.579   0.493 -15.465  1.00  0.00     0.059 A 
ATOM     69  C   UNL     1       8.519   2.647 -15.828  1.00  0.00     0.059 A 
ATOM     70  F   UNL     1       6.313   2.994 -15.111  1.00  0.00    -0.206 F 
ATOM     71  C   UNL     1       9.628   1.808 -15.930  1.00  0.00     0.060 A 
BRANCH  71  72
ATOM     72  S   UNL     1      11.159   2.402 -16.679  1.00  0.00     0.124 S 
ATOM     73  O   UNL     1      12.017   2.551 -15.506  1.00  0.00    -0.237 OA
ATOM     74  O   UNL     1      11.509   1.309 -17.582  1.00  0.00    -0.237 OA
ATOM     75  O   UNL     1      10.762   3.645 -17.328  1.00  0.00    -0.744 OA
ENDBRANCH  71  72
ENDBRANCH  50  64
BRANCH  51  76
ATOM     76  C   UNL     1      -1.103  -2.251 -10.239  1.00  0.00     0.058 A 
ATOM     77  C   UNL     1      -1.659  -3.519 -10.469  1.00  0.00     0.135 A 
ATOM     78  C   UNL     1      -1.770  -1.399  -9.345  1.00  0.00     0.135 A 
ATOM     79  F   UNL     1      -1.061  -4.368 -11.319  1.00  0.00    -0.206 F 
ATOM     80  C   UNL     1      -2.838  -3.921  -9.851  1.00  0.00     0.059 A 
ATOM     81  C   UNL     1      -2.938  -1.788  -8.696  1.00  0.00     0.059 A 
ATOM     82  F   UNL     1      -1.270  -0.183  -9.075  1.00  0.00    -0.206 F 
ATOM     83  C   UNL     1      -3.470  -3.049  -8.964  1.00  0.00     0.060 A 
BRANCH  83  84
ATOM     84  S   UNL     1      -4.972  -3.599  -8.125  1.00  0.00     0.124 S 
ATOM     85  O   UNL     1      -5.955  -3.517  -9.199  1.00  0.00    -0.237 OA
ATOM     86  O   UNL     1      -4.607  -4.946  -7.694  1.00  0.00    -0.237 OA
ATOM     87  O   UNL     1      -5.128  -2.627  -7.048  1.00  0.00    -0.744 OA
ENDBRANCH  83  84
ENDBRANCH  51  76
BRANCH  63  88
ATOM     88  C   UNL     1       0.569  -0.775 -16.850  1.00  0.00     0.058 A 
ATOM     89  C   UNL     1      -0.407   0.188 -17.147  1.00  0.00     0.135 A 
ATOM     90  C   UNL     1       0.839  -1.758 -17.817  1.00  0.00     0.135 A 
ATOM     91  F   UNL     1      -0.706   1.144 -16.254  1.00  0.00    -0.206 F 
ATOM     92  C   UNL     1      -1.105   0.166 -18.350  1.00  0.00     0.059 A 
ATOM     93  C   UNL     1       0.172  -1.783 -19.037  1.00  0.00     0.059 A 
ATOM     94  F   UNL     1       1.771  -2.696 -17.586  1.00  0.00    -0.206 F 
ATOM     95  C   UNL     1      -0.807  -0.823 -19.290  1.00  0.00     0.060 A 
BRANCH  95  96
ATOM     96  S   UNL     1      -1.695  -0.820 -20.861  1.00  0.00     0.124 S 
ATOM     97  O   UNL     1      -3.001  -1.333 -20.462  1.00  0.00    -0.237 OA
ATOM     98  O   UNL     1      -1.656   0.589 -21.240  1.00  0.00    -0.237 OA
ATOM     99  O   UNL     1      -0.900  -1.710 -21.702  1.00  0.00    -0.744 OA
ENDBRANCH  95  96
ENDBRANCH  63  88
ENDBRANCH  37  38
ENDBRANCH  29  32
ENDBRANCH  27  28
ENDBRANCH  26  27
ENDBRANCH   1  26
TORSDOF 17
