REMARK SMILES NS(=O)(=O)c1ccc(-n2nc(C(=O)NCCCCCCCCCCC(=O)NCCCNC(=O)c3ccc(-c4c5nc(c(-c6c(F)cc(S(=O)(=O)[O-])cc6F)c6ccc([nH]6)c(-c6c(F)cc(S(=O)(=O)[O-])cc6F)c6nc(c(-c7c(F)cc(S(=O)(=O)[O-])cc7F)c7ccc4[nH]7)C=C6)C=C5)cc3)cc2-c2ccccc2)cc1
REMARK SMILES IDX 21 1 20 2 19 3 18 4 17 5 16 6 15 7 14 8 12 9 13 10 11 12
REMARK SMILES IDX 9 13 10 14 101 15 100 16 8 17 5 18 6 19 109 20 7 21 108 22
REMARK SMILES IDX 2 23 3 24 4 25 1 26 102 29 103 30 107 31 104 32 106 33
REMARK SMILES IDX 105 34 22 35 23 36 24 37 25 38 26 39 27 40 28 42 29 43 30 44
REMARK SMILES IDX 31 45 32 46 33 48 34 49 35 50 99 51 36 52 98 53 37 54 38 55
REMARK SMILES IDX 39 56 92 57 40 58 97 59 91 60 93 61 41 62 96 63 90 64 89 65
REMARK SMILES IDX 42 67 76 68 55 69 75 70 56 71 59 72 74 73 94 74 57 75 58 76
REMARK SMILES IDX 73 78 95 79 60 80 43 81 44 82 53 83 45 84 46 85 52 86 54 87
REMARK SMILES IDX 47 88 48 89 49 90 50 91 51 92 77 93 78 94 87 95 79 96 80 97
REMARK SMILES IDX 86 98 88 99 81 100 82 101 83 102 84 103 85 104 61 105 62 106
REMARK SMILES IDX 71 107 63 108 64 109 70 110 72 111 65 112 66 113 67 114
REMARK SMILES IDX 68 115 69 116
REMARK H PARENT 14 11 1 27 1 28 27 41 31 47 93 66 59 77
REMARK Flexibility Score: inf
ROOT
ATOM      1  C   UNL     1       7.190  15.236  -1.228  1.00  0.00     0.000 C 
ENDROOT
BRANCH   1   2
ATOM      2  C   UNL     1       6.946  13.737  -1.246  1.00  0.00     0.000 C 
BRANCH   2   3
ATOM      3  C   UNL     1       6.379  13.216   0.075  1.00  0.00     0.000 C 
BRANCH   3   4
ATOM      4  C   UNL     1       5.035  13.845   0.470  1.00  0.00     0.000 C 
BRANCH   4   5
ATOM      5  C   UNL     1       3.891  13.550  -0.511  1.00  0.00     0.002 C 
BRANCH   5   6
ATOM      6  C   UNL     1       3.790  12.072  -0.903  1.00  0.00     0.021 C 
BRANCH   6   7
ATOM      7  C   UNL     1       3.688  11.170   0.326  1.00  0.00     0.116 C 
BRANCH   7   8
ATOM      8  N   UNL     1       2.309  10.891   0.627  1.00  0.00    -0.351 N 
ATOM      9  C   UNL     1       1.516   9.799   0.390  1.00  0.00     0.271 C 
ATOM     10  O   UNL     1       0.335   9.915   0.728  1.00  0.00    -0.267 OA
ATOM     11  H   UNL     1       1.847  11.626   1.091  1.00  0.00     0.163 HD
BRANCH   9  12
ATOM     12  C   UNL     1       2.058   8.545  -0.175  1.00  0.00     0.151 A 
ATOM     13  N   UNL     1       2.082   6.434  -0.564  1.00  0.00    -0.232 N 
ATOM     14  N   UNL     1       1.268   7.455  -0.237  1.00  0.00    -0.162 NA
ATOM     15  C   UNL     1       3.358   6.856  -0.878  1.00  0.00     0.075 A 
ATOM     16  C   UNL     1       3.323   8.223  -0.724  1.00  0.00     0.065 A 
BRANCH  13  17
ATOM     17  C   UNL     1       1.581   5.117  -0.616  1.00  0.00     0.065 A 
ATOM     18  C   UNL     1       0.775   2.515  -1.065  1.00  0.00     0.082 A 
ATOM     19  C   UNL     1       1.946   2.754  -0.340  1.00  0.00     0.024 A 
ATOM     20  C   UNL     1      -0.038   3.569  -1.499  1.00  0.00     0.024 A 
ATOM     21  C   UNL     1       2.356   4.063  -0.123  1.00  0.00     0.030 A 
ATOM     22  C   UNL     1       0.355   4.883  -1.252  1.00  0.00     0.030 A 
BRANCH  18  23
ATOM     23  S   UNL     1       0.324   0.860  -1.473  1.00  0.00     0.238 S 
ATOM     24  O   UNL     1       1.100   0.460  -2.638  1.00  0.00    -0.207 OA
ATOM     25  O   UNL     1      -1.099   0.720  -1.401  1.00  0.00    -0.207 OA
BRANCH  23  26
ATOM     26  N   UNL     1       0.934  -0.044  -0.193  1.00  0.00    -0.225 NA
ATOM     27  H   UNL     1       0.720  -1.030  -0.341  1.00  0.00     0.137 HD
ATOM     28  H   UNL     1       0.507   0.270   0.678  1.00  0.00     0.137 HD
ENDBRANCH  23  26
ENDBRANCH  18  23
ENDBRANCH  13  17
BRANCH  15  29
ATOM     29  C   UNL     1       4.448   6.045  -1.410  1.00  0.00     0.000 A 
ATOM     30  C   UNL     1       4.311   5.382  -2.635  1.00  0.00     0.010 A 
ATOM     31  C   UNL     1       5.662   5.963  -0.716  1.00  0.00     0.010 A 
ATOM     32  C   UNL     1       5.370   4.637  -3.154  1.00  0.00     0.001 A 
ATOM     33  C   UNL     1       6.721   5.216  -1.236  1.00  0.00     0.001 A 
ATOM     34  C   UNL     1       6.574   4.554  -2.455  1.00  0.00     0.000 A 
ENDBRANCH  15  29
ENDBRANCH   9  12
ENDBRANCH   7   8
ENDBRANCH   6   7
ENDBRANCH   5   6
ENDBRANCH   4   5
ENDBRANCH   3   4
ENDBRANCH   2   3
ENDBRANCH   1   2
BRANCH   1  35
ATOM     35  C   UNL     1       8.268  15.652  -0.221  1.00  0.00     0.001 C 
BRANCH  35  36
ATOM     36  C   UNL     1       9.524  16.209  -0.871  1.00  0.00     0.010 C 
BRANCH  36  37
ATOM     37  C   UNL     1       9.301  17.430  -1.762  1.00  0.00     0.100 C 
BRANCH  37  38
ATOM     38  C   UNL     1       9.066  18.712  -0.990  1.00  0.00     0.219 C 
ATOM     39  O   UNL     1      10.021  19.421  -0.670  1.00  0.00    -0.275 OA
ATOM     40  N   UNL     1       7.814  19.122  -0.634  1.00  0.00    -0.356 N 
ATOM     41  H   UNL     1       7.801  19.925  -0.064  1.00  0.00     0.163 HD
BRANCH  40  42
ATOM     42  C   UNL     1       6.492  18.588  -0.943  1.00  0.00     0.117 C 
BRANCH  42  43
ATOM     43  C   UNL     1       5.757  18.003   0.279  1.00  0.00     0.042 C 
BRANCH  43  44
ATOM     44  C   UNL     1       5.056  19.036   1.125  1.00  0.00     0.118 C 
BRANCH  44  45
ATOM     45  N   UNL     1       3.715  19.413   0.650  1.00  0.00    -0.352 N 
ATOM     46  C   UNL     1       2.800  20.254   1.290  1.00  0.00     0.251 C 
ATOM     47  H   UNL     1       3.432  19.030  -0.212  1.00  0.00     0.163 HD
ATOM     48  O   UNL     1       1.606  20.214   1.021  1.00  0.00    -0.269 OA
BRANCH  46  49
ATOM     49  C   UNL     1       3.327  21.195   2.300  1.00  0.00     0.039 A 
ATOM     50  C   UNL     1       2.717  21.532   3.510  1.00  0.00     0.014 A 
ATOM     51  C   UNL     1       4.604  21.635   2.040  1.00  0.00     0.014 A 
ATOM     52  C   UNL     1       3.470  22.270   4.429  1.00  0.00     0.010 A 
ATOM     53  C   UNL     1       5.410  21.775   3.115  1.00  0.00     0.010 A 
ATOM     54  C   UNL     1       4.845  22.398   4.196  1.00  0.00    -0.014 A 
BRANCH  54  55
ATOM     55  C   UNL     1       5.804  23.112   5.022  1.00  0.00     0.031 A 
ATOM     56  C   UNL     1       5.855  22.641   6.418  1.00  0.00     0.074 A 
ATOM     57  C   UNL     1       6.761  23.914   4.488  1.00  0.00     0.049 A 
ATOM     58  N   UNL     1       5.346  23.212   7.455  1.00  0.00    -0.248 NA
ATOM     59  C   UNL     1       6.353  21.279   6.666  1.00  0.00     0.031 C 
ATOM     60  C   UNL     1       7.067  24.201   3.073  1.00  0.00     0.029 A 
ATOM     61  N   UNL     1       7.748  24.593   5.129  1.00  0.00    -0.354 N 
ATOM     62  C   UNL     1       5.708  22.410   8.528  1.00  0.00     0.074 A 
ATOM     63  C   UNL     1       6.081  21.139   7.965  1.00  0.00     0.031 C 
ATOM     64  C   UNL     1       8.275  24.801   2.970  1.00  0.00     0.029 A 
ATOM     65  C   UNL     1       8.746  25.108   4.304  1.00  0.00     0.049 A 
ATOM     66  H   UNL     1       7.758  24.712   6.106  1.00  0.00     0.167 HD
ATOM     67  C   UNL     1       5.948  22.949   9.756  1.00  0.00     0.037 A 
ATOM     68  C   UNL     1       9.881  25.737   4.707  1.00  0.00     0.037 A 
ATOM     69  C   UNL     1       5.494  24.321   9.816  1.00  0.00     0.049 A 
ATOM     70  C   UNL     1       9.621  26.215   6.094  1.00  0.00     0.074 A 
ATOM     71  C   UNL     1       4.275  24.945   9.627  1.00  0.00     0.029 A 
ATOM     72  N   UNL     1       6.441  25.310   9.673  1.00  0.00    -0.354 N 
ATOM     73  N   UNL     1       8.717  27.115   6.387  1.00  0.00    -0.248 NA
ATOM     74  C   UNL     1       9.986  25.325   7.187  1.00  0.00     0.031 C 
ATOM     75  C   UNL     1       4.578  26.133   8.896  1.00  0.00     0.029 A 
ATOM     76  C   UNL     1       5.965  26.215   8.755  1.00  0.00     0.049 A 
ATOM     77  H   UNL     1       7.304  25.360  10.144  1.00  0.00     0.167 HD
ATOM     78  C   UNL     1       8.102  26.649   7.543  1.00  0.00     0.074 A 
ATOM     79  C   UNL     1       8.972  25.574   8.023  1.00  0.00     0.031 C 
ATOM     80  C   UNL     1       6.805  26.966   7.841  1.00  0.00     0.037 A 
BRANCH  67  81
ATOM     81  C   UNL     1       6.917  22.380  10.762  1.00  0.00     0.058 A 
ATOM     82  C   UNL     1       6.912  22.885  12.077  1.00  0.00     0.135 A 
ATOM     83  C   UNL     1       8.015  21.555  10.429  1.00  0.00     0.135 A 
ATOM     84  F   UNL     1       5.919  23.685  12.498  1.00  0.00    -0.206 F 
ATOM     85  C   UNL     1       7.955  22.645  12.972  1.00  0.00     0.059 A 
ATOM     86  C   UNL     1       9.035  21.255  11.323  1.00  0.00     0.059 A 
ATOM     87  F   UNL     1       8.208  21.078   9.194  1.00  0.00    -0.206 F 
ATOM     88  C   UNL     1       9.020  21.839  12.578  1.00  0.00     0.060 A 
BRANCH  88  89
ATOM     89  S   UNL     1      10.418  21.616  13.688  1.00  0.00     0.124 S 
ATOM     90  O   UNL     1      11.002  22.952  13.690  1.00  0.00    -0.237 OA
ATOM     91  O   UNL     1       9.759  21.202  14.923  1.00  0.00    -0.237 OA
ATOM     92  O   UNL     1      11.209  20.581  13.029  1.00  0.00    -0.744 OA
ENDBRANCH  88  89
ENDBRANCH  67  81
BRANCH  68  93
ATOM     93  C   UNL     1      11.251  25.576   4.139  1.00  0.00     0.058 A 
ATOM     94  C   UNL     1      12.304  26.439   4.495  1.00  0.00     0.135 A 
ATOM     95  C   UNL     1      11.622  24.401   3.453  1.00  0.00     0.135 A 
ATOM     96  F   UNL     1      12.049  27.571   5.168  1.00  0.00    -0.206 F 
ATOM     97  C   UNL     1      13.647  26.131   4.229  1.00  0.00     0.059 A 
ATOM     98  C   UNL     1      12.950  24.077   3.171  1.00  0.00     0.059 A 
ATOM     99  F   UNL     1      10.706  23.483   3.113  1.00  0.00    -0.206 F 
ATOM    100  C   UNL     1      13.962  24.935   3.585  1.00  0.00     0.060 A 
BRANCH 100 101
ATOM    101  S   UNL     1      15.696  24.449   3.397  1.00  0.00     0.124 S 
ATOM    102  O   UNL     1      16.175  25.412   2.411  1.00  0.00    -0.237 OA
ATOM    103  O   UNL     1      16.212  24.614   4.751  1.00  0.00    -0.237 OA
ATOM    104  O   UNL     1      15.614  23.067   2.930  1.00  0.00    -0.744 OA
ENDBRANCH 100 101
ENDBRANCH  68  93
BRANCH  80 105
ATOM    105  C   UNL     1       6.120  28.034   7.014  1.00  0.00     0.058 A 
ATOM    106  C   UNL     1       5.823  27.915   5.643  1.00  0.00     0.135 A 
ATOM    107  C   UNL     1       5.600  29.156   7.674  1.00  0.00     0.135 A 
ATOM    108  F   UNL     1       6.187  26.829   4.952  1.00  0.00    -0.206 F 
ATOM    109  C   UNL     1       5.083  28.881   4.954  1.00  0.00     0.059 A 
ATOM    110  C   UNL     1       4.836  30.119   7.016  1.00  0.00     0.059 A 
ATOM    111  F   UNL     1       5.788  29.302   8.996  1.00  0.00    -0.206 F 
ATOM    112  C   UNL     1       4.592  29.982   5.651  1.00  0.00     0.060 A 
BRANCH 112 113
ATOM    113  S   UNL     1       3.584  31.201   4.777  1.00  0.00     0.124 S 
ATOM    114  O   UNL     1       4.565  31.851   3.916  1.00  0.00    -0.237 OA
ATOM    115  O   UNL     1       2.596  30.368   4.097  1.00  0.00    -0.237 OA
ATOM    116  O   UNL     1       3.048  32.034   5.851  1.00  0.00    -0.744 OA
ENDBRANCH 112 113
ENDBRANCH  80 105
ENDBRANCH  54  55
ENDBRANCH  46  49
ENDBRANCH  44  45
ENDBRANCH  43  44
ENDBRANCH  42  43
ENDBRANCH  40  42
ENDBRANCH  37  38
ENDBRANCH  36  37
ENDBRANCH  35  36
ENDBRANCH   1  35
TORSDOF 28
