REMARK SMILES CNC(=O)c1cc(S(=O)(=O)N2CCC(C(=O)NCCCNC(=O)c3ccc(-c4c5nc(c(-c6c(F)cc(S(=O)(=O)[O-])cc6F)c6ccc([nH]6)c(-c6c(F)cc(S(=O)(=O)[O-])cc6F)c6nc(c(-c7c(F)cc(S(=O)(=O)[O-])cc7F)c7ccc4[nH]7)C=C6)C=C5)cc3)CC2)ccc1OC
REMARK SMILES IDX 19 1 18 2 17 3 15 4 16 5 14 7 11 8 12 9 91 10 13 11 90 12
REMARK SMILES IDX 8 13 9 14 10 15 7 16 5 17 6 18 94 19 93 20 92 21 3 22 1 23
REMARK SMILES IDX 2 24 4 26 95 27 96 28 20 29 21 30 22 31 23 33 24 34 25 35
REMARK SMILES IDX 89 36 26 37 88 38 27 39 28 40 29 41 82 42 30 43 87 44 81 45
REMARK SMILES IDX 83 46 31 47 86 48 80 49 79 50 32 52 66 53 45 54 65 55 46 56
REMARK SMILES IDX 49 57 64 58 84 59 47 60 48 61 63 63 85 64 50 65 33 66 34 67
REMARK SMILES IDX 43 68 35 69 36 70 42 71 44 72 37 73 38 74 39 75 40 76 41 77
REMARK SMILES IDX 67 78 68 79 77 80 69 81 70 82 76 83 78 84 71 85 72 86 73 87
REMARK SMILES IDX 74 88 75 89 51 90 52 91 61 92 53 93 54 94 60 95 62 96 55 97
REMARK SMILES IDX 56 98 57 99 58 100 59 101
REMARK H PARENT 17 6 2 25 21 32 83 51 49 62
REMARK Flexibility Score: inf
ROOT
ATOM      1  C   UNL     1      -4.180  -2.785  11.150  1.00  0.00     0.042 C 
ENDROOT
BRANCH   1   2
ATOM      2  C   UNL     1      -5.078  -2.318  10.015  1.00  0.00     0.117 C 
BRANCH   2   3
ATOM      3  N   UNL     1      -5.248  -0.872   9.999  1.00  0.00    -0.356 N 
ATOM      4  C   UNL     1      -4.809   0.076   9.131  1.00  0.00     0.223 C 
ATOM      5  O   UNL     1      -5.100   1.252   9.361  1.00  0.00    -0.275 OA
ATOM      6  H   UNL     1      -5.774  -0.519  10.752  1.00  0.00     0.163 HD
BRANCH   4   7
ATOM      7  C   UNL     1      -4.002  -0.279   7.896  1.00  0.00     0.081 C 
ATOM      8  N   UNL     1      -2.668  -2.100   6.114  1.00  0.00    -0.198 NA
ATOM      9  C   UNL     1      -1.861  -1.241   7.007  1.00  0.00     0.103 C 
ATOM     10  C   UNL     1      -4.012  -1.613   5.729  1.00  0.00     0.103 C 
ATOM     11  C   UNL     1      -2.649  -0.887   8.253  1.00  0.00     0.030 C 
ATOM     12  C   UNL     1      -4.819  -1.117   6.915  1.00  0.00     0.030 C 
BRANCH   8  13
ATOM     13  S   UNL     1      -1.813  -2.973   4.921  1.00  0.00     0.243 S 
ATOM     14  O   UNL     1      -2.741  -3.915   4.333  1.00  0.00    -0.207 OA
ATOM     15  O   UNL     1      -0.554  -3.401   5.490  1.00  0.00    -0.207 OA
BRANCH  13  16
ATOM     16  C   UNL     1      -1.399  -1.822   3.619  1.00  0.00     0.083 A 
ATOM     17  C   UNL     1      -0.509  -1.528   1.383  1.00  0.00     0.083 A 
ATOM     18  C   UNL     1      -0.812  -2.361   2.469  1.00  0.00     0.039 A 
ATOM     19  C   UNL     1      -0.862  -0.173   1.421  1.00  0.00     0.131 A 
ATOM     20  C   UNL     1      -1.395   0.367   2.589  1.00  0.00     0.048 A 
ATOM     21  C   UNL     1      -1.656  -0.452   3.687  1.00  0.00     0.025 A 
BRANCH  17  22
ATOM     22  C   UNL     1       0.169  -2.152   0.232  1.00  0.00     0.254 C 
ATOM     23  C   UNL     1       2.152  -0.573   0.335  1.00  0.00     0.143 C 
ATOM     24  N   UNL     1       1.371  -1.662  -0.208  1.00  0.00    -0.355 N 
ATOM     25  H   UNL     1       1.753  -2.111  -0.996  1.00  0.00     0.163 HD
ATOM     26  O   UNL     1      -0.347  -3.124  -0.313  1.00  0.00    -0.269 OA
ENDBRANCH  17  22
BRANCH  19  27
ATOM     27  O   UNL     1      -0.693   0.714   0.393  1.00  0.00    -0.496 OA
ATOM     28  C   UNL     1      -1.420   0.334  -0.777  1.00  0.00     0.278 C 
ENDBRANCH  19  27
ENDBRANCH  13  16
ENDBRANCH   8  13
ENDBRANCH   4   7
ENDBRANCH   2   3
ENDBRANCH   1   2
BRANCH   1  29
ATOM     29  C   UNL     1      -4.757  -2.520  12.530  1.00  0.00     0.118 C 
BRANCH  29  30
ATOM     30  N   UNL     1      -6.003  -3.238  12.758  1.00  0.00    -0.352 N 
ATOM     31  C   UNL     1      -6.289  -4.257  13.633  1.00  0.00     0.251 C 
ATOM     32  H   UNL     1      -6.759  -2.947  12.198  1.00  0.00     0.163 HD
ATOM     33  O   UNL     1      -7.346  -4.870  13.517  1.00  0.00    -0.269 OA
BRANCH  31  34
ATOM     34  C   UNL     1      -5.327  -4.624  14.694  1.00  0.00     0.039 A 
ATOM     35  C   UNL     1      -5.128  -5.975  14.991  1.00  0.00     0.014 A 
ATOM     36  C   UNL     1      -4.640  -3.642  15.412  1.00  0.00     0.014 A 
ATOM     37  C   UNL     1      -4.194  -6.340  15.963  1.00  0.00     0.010 A 
ATOM     38  C   UNL     1      -3.645  -4.008  16.311  1.00  0.00     0.010 A 
ATOM     39  C   UNL     1      -3.421  -5.360  16.607  1.00  0.00    -0.014 A 
BRANCH  39  40
ATOM     40  C   UNL     1      -2.389  -5.722  17.611  1.00  0.00     0.031 A 
ATOM     41  C   UNL     1      -2.532  -5.259  19.035  1.00  0.00     0.074 A 
ATOM     42  C   UNL     1      -1.295  -6.407  17.227  1.00  0.00     0.049 A 
ATOM     43  N   UNL     1      -1.706  -5.405  20.039  1.00  0.00    -0.248 NA
ATOM     44  C   UNL     1      -3.750  -4.503  19.367  1.00  0.00     0.031 C 
ATOM     45  C   UNL     1      -1.019  -6.870  15.865  1.00  0.00     0.029 A 
ATOM     46  N   UNL     1      -0.208  -6.831  17.948  1.00  0.00    -0.354 N 
ATOM     47  C   UNL     1      -2.292  -4.742  21.111  1.00  0.00     0.074 A 
ATOM     48  C   UNL     1      -3.516  -4.146  20.620  1.00  0.00     0.031 C 
ATOM     49  C   UNL     1       0.142  -7.544  15.857  1.00  0.00     0.029 A 
ATOM     50  C   UNL     1       0.709  -7.530  17.202  1.00  0.00     0.049 A 
ATOM     51  H   UNL     1      -0.096  -6.651  18.909  1.00  0.00     0.167 HD
ATOM     52  C   UNL     1      -1.865  -4.658  22.394  1.00  0.00     0.037 A 
ATOM     53  C   UNL     1       1.875  -8.100  17.562  1.00  0.00     0.037 A 
ATOM     54  C   UNL     1      -0.664  -5.281  22.884  1.00  0.00     0.049 A 
ATOM     55  C   UNL     1       2.323  -8.010  18.994  1.00  0.00     0.074 A 
ATOM     56  C   UNL     1      -0.170  -5.304  24.176  1.00  0.00     0.029 A 
ATOM     57  N   UNL     1       0.229  -5.997  22.101  1.00  0.00    -0.354 N 
ATOM     58  N   UNL     1       1.734  -7.418  20.006  1.00  0.00    -0.248 NA
ATOM     59  C   UNL     1       3.591  -8.668  19.334  1.00  0.00     0.031 C 
ATOM     60  C   UNL     1       1.039  -6.011  24.168  1.00  0.00     0.029 A 
ATOM     61  C   UNL     1       1.279  -6.457  22.878  1.00  0.00     0.049 A 
ATOM     62  H   UNL     1       0.132  -6.155  21.134  1.00  0.00     0.167 HD
ATOM     63  C   UNL     1       2.548  -7.651  21.108  1.00  0.00     0.074 A 
ATOM     64  C   UNL     1       3.667  -8.445  20.639  1.00  0.00     0.031 C 
ATOM     65  C   UNL     1       2.383  -7.247  22.392  1.00  0.00     0.037 A 
BRANCH  52  66
ATOM     66  C   UNL     1      -2.714  -3.863  23.347  1.00  0.00     0.058 A 
ATOM     67  C   UNL     1      -3.974  -4.321  23.767  1.00  0.00     0.135 A 
ATOM     68  C   UNL     1      -2.277  -2.619  23.829  1.00  0.00     0.135 A 
ATOM     69  F   UNL     1      -4.448  -5.496  23.323  1.00  0.00    -0.206 F 
ATOM     70  C   UNL     1      -4.792  -3.553  24.589  1.00  0.00     0.059 A 
ATOM     71  C   UNL     1      -3.067  -1.846  24.675  1.00  0.00     0.059 A 
ATOM     72  F   UNL     1      -1.080  -2.134  23.462  1.00  0.00    -0.206 F 
ATOM     73  C   UNL     1      -4.333  -2.310  25.029  1.00  0.00     0.060 A 
BRANCH  73  74
ATOM     74  S   UNL     1      -5.418  -1.302  26.061  1.00  0.00     0.124 S 
ATOM     75  O   UNL     1      -6.338  -0.757  25.067  1.00  0.00    -0.237 OA
ATOM     76  O   UNL     1      -5.987  -2.286  26.977  1.00  0.00    -0.237 OA
ATOM     77  O   UNL     1      -4.506  -0.339  26.669  1.00  0.00    -0.744 OA
ENDBRANCH  73  74
ENDBRANCH  52  66
BRANCH  53  78
ATOM     78  C   UNL     1       2.668  -8.851  16.556  1.00  0.00     0.058 A 
ATOM     79  C   UNL     1       2.696 -10.253  16.575  1.00  0.00     0.135 A 
ATOM     80  C   UNL     1       3.371  -8.194  15.536  1.00  0.00     0.135 A 
ATOM     81  F   UNL     1       2.042 -10.924  17.535  1.00  0.00    -0.206 F 
ATOM     82  C   UNL     1       3.398 -10.980  15.619  1.00  0.00     0.059 A 
ATOM     83  C   UNL     1       4.064  -8.899  14.557  1.00  0.00     0.059 A 
ATOM     84  F   UNL     1       3.359  -6.854  15.466  1.00  0.00    -0.206 F 
ATOM     85  C   UNL     1       4.075 -10.293  14.610  1.00  0.00     0.060 A 
BRANCH  85  86
ATOM     86  S   UNL     1       4.922 -11.249  13.333  1.00  0.00     0.124 S 
ATOM     87  O   UNL     1       6.101 -11.719  14.052  1.00  0.00    -0.237 OA
ATOM     88  O   UNL     1       3.929 -12.265  13.000  1.00  0.00    -0.237 OA
ATOM     89  O   UNL     1       5.172 -10.261  12.287  1.00  0.00    -0.744 OA
ENDBRANCH  85  86
ENDBRANCH  53  78
BRANCH  65  90
ATOM     90  C   UNL     1       3.425  -7.678  23.384  1.00  0.00     0.058 A 
ATOM     91  C   UNL     1       4.693  -7.080  23.425  1.00  0.00     0.135 A 
ATOM     92  C   UNL     1       3.136  -8.674  24.330  1.00  0.00     0.135 A 
ATOM     93  F   UNL     1       5.020  -6.127  22.537  1.00  0.00    -0.206 F 
ATOM     94  C   UNL     1       5.650  -7.471  24.356  1.00  0.00     0.059 A 
ATOM     95  C   UNL     1       4.069  -9.065  25.284  1.00  0.00     0.059 A 
ATOM     96  F   UNL     1       1.933  -9.271  24.338  1.00  0.00    -0.206 F 
ATOM     97  C   UNL     1       5.329  -8.466  25.281  1.00  0.00     0.060 A 
BRANCH  97  98
ATOM     98  S   UNL     1       6.566  -8.947  26.504  1.00  0.00     0.124 S 
ATOM     99  O   UNL     1       7.452  -9.791  25.708  1.00  0.00    -0.237 OA
ATOM    100  O   UNL     1       7.119  -7.660  26.917  1.00  0.00    -0.237 OA
ATOM    101  O   UNL     1       5.783  -9.641  27.523  1.00  0.00    -0.744 OA
ENDBRANCH  97  98
ENDBRANCH  65  90
ENDBRANCH  39  40
ENDBRANCH  31  34
ENDBRANCH  29  30
ENDBRANCH   1  29
TORSDOF 17
