REMARK SMILES CC1(C)CCN(C(=O)[C@@H]([NH3+])CC(=O)NCCCNC(=O)c2ccc(-c3c4nc(c(-c5c(F)cc(S(=O)(=O)[O-])cc5F)c5ccc([nH]5)c(-c5c(F)cc(S(=O)(=O)[O-])cc5F)c5nc(c(-c6c(F)cc(S(=O)(=O)[O-])cc6F)c6ccc3[nH]6)C=C5)C=C4)cc2)C1
REMARK SMILES IDX 16 1 15 2 14 3 12 4 13 5 11 7 9 8 7 9 8 10 6 11 1 12 2 13
REMARK SMILES IDX 3 14 4 15 87 16 5 17 10 18 17 22 18 23 19 24 20 26 21 27
REMARK SMILES IDX 22 28 86 29 23 30 85 31 24 32 25 33 26 34 79 35 27 36 84 37
REMARK SMILES IDX 78 38 80 39 28 40 83 41 77 42 76 43 29 45 63 46 42 47 62 48
REMARK SMILES IDX 43 49 46 50 61 51 81 52 44 53 45 54 60 56 82 57 47 58 30 59
REMARK SMILES IDX 31 60 40 61 32 62 33 63 39 64 41 65 34 66 35 67 36 68 37 69
REMARK SMILES IDX 38 70 64 71 65 72 74 73 66 74 67 75 73 76 75 77 68 78 69 79
REMARK SMILES IDX 70 80 71 81 72 82 48 83 49 84 58 85 50 86 51 87 57 88 59 89
REMARK SMILES IDX 52 90 53 91 54 92 55 93 56 94
REMARK H PARENT 14 6 10 19 10 20 10 21 18 25 80 44 46 55
REMARK Flexibility Score: inf
ROOT
ATOM      1  C   UNL     1       4.280   0.274   1.297  1.00  0.00     0.042 C 
ENDROOT
BRANCH   1   2
ATOM      2  C   UNL     1       3.335   1.010   2.238  1.00  0.00     0.117 C 
BRANCH   2   3
ATOM      3  N   UNL     1       3.741   2.394   2.380  1.00  0.00    -0.356 N 
ATOM      4  C   UNL     1       3.274   3.502   1.741  1.00  0.00     0.226 C 
ATOM      5  O   UNL     1       3.877   4.565   1.901  1.00  0.00    -0.275 OA
ATOM      6  H   UNL     1       4.460   2.557   3.033  1.00  0.00     0.163 HD
BRANCH   4   7
ATOM      7  C   UNL     1       2.007   3.442   0.912  1.00  0.00     0.175 C 
BRANCH   7   8
ATOM      8  C   UNL     1       2.243   3.035  -0.543  1.00  0.00     0.280 C 
BRANCH   8   9
ATOM      9  C   UNL     1       2.197   1.510  -0.829  1.00  0.00     0.281 C 
ATOM     10  O   UNL     1       3.145   0.994  -1.433  1.00  0.00    -0.268 OA
BRANCH   9  11
ATOM     11  N   UNL     1       1.126   0.740  -0.427  1.00  0.00    -0.337 N 
ATOM     12  C   UNL     1      -1.590  -0.050  -1.713  1.00  0.00     0.013 C 
ATOM     13  C   UNL     1      -1.113  -0.017  -0.253  1.00  0.00    -0.016 C 
ATOM     14  C   UNL     1      -2.316  -0.017   0.688  1.00  0.00     0.013 C 
ATOM     15  C   UNL     1      -0.161  -1.186   0.035  1.00  0.00     0.030 C 
ATOM     16  C   UNL     1      -0.194   1.190  -0.003  1.00  0.00     0.126 C 
ATOM     17  C   UNL     1       1.152  -0.713  -0.573  1.00  0.00     0.120 C 
ENDBRANCH   9  11
ENDBRANCH   8   9
BRANCH   8  18
ATOM     18  N   UNL     1       1.277   3.710  -1.450  1.00  0.00    -0.347 N 
ATOM     19  H   UNL     1       0.333   3.386  -1.242  1.00  0.00     0.345 HD
ATOM     20  H   UNL     1       1.507   3.487  -2.418  1.00  0.00     0.345 HD
ATOM     21  H   UNL     1       1.329   4.719  -1.312  1.00  0.00     0.345 HD
ENDBRANCH   8  18
ENDBRANCH   7   8
ENDBRANCH   4   7
ENDBRANCH   2   3
ENDBRANCH   1   2
BRANCH   1  22
ATOM     22  C   UNL     1       5.332  -0.561   2.001  1.00  0.00     0.118 C 
BRANCH  22  23
ATOM     23  N   UNL     1       4.750  -1.681   2.733  1.00  0.00    -0.352 N 
ATOM     24  C   UNL     1       4.893  -3.040   2.579  1.00  0.00     0.251 C 
ATOM     25  H   UNL     1       4.149  -1.417   3.467  1.00  0.00     0.163 HD
ATOM     26  O   UNL     1       4.141  -3.784   3.202  1.00  0.00    -0.269 OA
BRANCH  24  27
ATOM     27  C   UNL     1       5.910  -3.611   1.664  1.00  0.00     0.039 A 
ATOM     28  C   UNL     1       5.624  -4.809   1.001  1.00  0.00     0.014 A 
ATOM     29  C   UNL     1       7.149  -2.999   1.469  1.00  0.00     0.014 A 
ATOM     30  C   UNL     1       6.541  -5.340   0.089  1.00  0.00     0.010 A 
ATOM     31  C   UNL     1       8.007  -3.461   0.477  1.00  0.00     0.010 A 
ATOM     32  C   UNL     1       7.719  -4.642  -0.219  1.00  0.00    -0.014 A 
BRANCH  32  33
ATOM     33  C   UNL     1       8.666  -5.123  -1.259  1.00  0.00     0.031 A 
ATOM     34  C   UNL     1      10.094  -5.432  -0.894  1.00  0.00     0.074 A 
ATOM     35  C   UNL     1       8.261  -5.200  -2.542  1.00  0.00     0.049 A 
ATOM     36  N   UNL     1      11.093  -5.761  -1.672  1.00  0.00    -0.248 NA
ATOM     37  C   UNL     1      10.457  -5.324   0.529  1.00  0.00     0.031 C 
ATOM     38  C   UNL     1       6.917  -4.873  -3.027  1.00  0.00     0.029 A 
ATOM     39  N   UNL     1       8.941  -5.561  -3.678  1.00  0.00    -0.354 N 
ATOM     40  C   UNL     1      12.200  -5.880  -0.839  1.00  0.00     0.074 A 
ATOM     41  C   UNL     1      11.765  -5.530   0.494  1.00  0.00     0.031 C 
ATOM     42  C   UNL     1       6.865  -5.075  -4.353  1.00  0.00     0.029 A 
ATOM     43  C   UNL     1       8.181  -5.494  -4.823  1.00  0.00     0.049 A 
ATOM     44  H   UNL     1       9.884  -5.843  -3.675  1.00  0.00     0.167 HD
ATOM     45  C   UNL     1      13.458  -6.270  -1.154  1.00  0.00     0.037 A 
ATOM     46  C   UNL     1       8.510  -5.727  -6.109  1.00  0.00     0.037 A 
ATOM     47  C   UNL     1      13.873  -6.642  -2.481  1.00  0.00     0.049 A 
ATOM     48  C   UNL     1       9.917  -6.149  -6.435  1.00  0.00     0.074 A 
ATOM     49  C   UNL     1      15.106  -7.113  -2.896  1.00  0.00     0.029 A 
ATOM     50  N   UNL     1      13.068  -6.580  -3.610  1.00  0.00    -0.354 N 
ATOM     51  N   UNL     1      10.933  -6.325  -5.624  1.00  0.00    -0.248 NA
ATOM     52  C   UNL     1      10.223  -6.407  -7.848  1.00  0.00     0.031 C 
ATOM     53  C   UNL     1      15.063  -7.284  -4.283  1.00  0.00     0.029 A 
ATOM     54  C   UNL     1      13.786  -6.977  -4.726  1.00  0.00     0.049 A 
ATOM     55  H   UNL     1      12.126  -6.295  -3.617  1.00  0.00     0.167 HD
ATOM     56  C   UNL     1      11.992  -6.739  -6.425  1.00  0.00     0.074 A 
ATOM     57  C   UNL     1      11.488  -6.801  -7.781  1.00  0.00     0.031 C 
ATOM     58  C   UNL     1      13.266  -7.040  -6.069  1.00  0.00     0.037 A 
BRANCH  45  59
ATOM     59  C   UNL     1      14.475  -6.319  -0.044  1.00  0.00     0.058 A 
ATOM     60  C   UNL     1      14.397  -7.268   0.989  1.00  0.00     0.135 A 
ATOM     61  C   UNL     1      15.563  -5.431  -0.033  1.00  0.00     0.135 A 
ATOM     62  F   UNL     1      13.370  -8.132   1.039  1.00  0.00    -0.206 F 
ATOM     63  C   UNL     1      15.341  -7.313   2.010  1.00  0.00     0.059 A 
ATOM     64  C   UNL     1      16.538  -5.480   0.960  1.00  0.00     0.059 A 
ATOM     65  F   UNL     1      15.689  -4.504  -0.995  1.00  0.00    -0.206 F 
ATOM     66  C   UNL     1      16.410  -6.416   1.986  1.00  0.00     0.060 A 
BRANCH  66  67
ATOM     67  S   UNL     1      17.630  -6.496   3.313  1.00  0.00     0.124 S 
ATOM     68  O   UNL     1      16.867  -5.970   4.442  1.00  0.00    -0.237 OA
ATOM     69  O   UNL     1      17.938  -7.921   3.368  1.00  0.00    -0.237 OA
ATOM     70  O   UNL     1      18.712  -5.641   2.835  1.00  0.00    -0.744 OA
ENDBRANCH  66  67
ENDBRANCH  45  59
BRANCH  46  71
ATOM     71  C   UNL     1       7.485  -5.580  -7.178  1.00  0.00     0.058 A 
ATOM     72  C   UNL     1       6.992  -6.701  -7.863  1.00  0.00     0.135 A 
ATOM     73  C   UNL     1       6.964  -4.324  -7.525  1.00  0.00     0.135 A 
ATOM     74  F   UNL     1       7.462  -7.924  -7.573  1.00  0.00    -0.206 F 
ATOM     75  C   UNL     1       6.034  -6.581  -8.865  1.00  0.00     0.059 A 
ATOM     76  C   UNL     1       5.984  -4.181  -8.503  1.00  0.00     0.059 A 
ATOM     77  F   UNL     1       7.389  -3.220  -6.889  1.00  0.00    -0.206 F 
ATOM     78  C   UNL     1       5.533  -5.316  -9.175  1.00  0.00     0.060 A 
BRANCH  78  79
ATOM     79  S   UNL     1       4.256  -5.179 -10.445  1.00  0.00     0.124 S 
ATOM     80  O   UNL     1       5.017  -5.455 -11.658  1.00  0.00    -0.237 OA
ATOM     81  O   UNL     1       3.309  -6.212 -10.037  1.00  0.00    -0.237 OA
ATOM     82  O   UNL     1       3.779  -3.808 -10.296  1.00  0.00    -0.744 OA
ENDBRANCH  78  79
ENDBRANCH  46  71
BRANCH  58  83
ATOM     83  C   UNL     1      14.200  -7.496  -7.156  1.00  0.00     0.058 A 
ATOM     84  C   UNL     1      14.700  -6.608  -8.121  1.00  0.00     0.135 A 
ATOM     85  C   UNL     1      14.652  -8.826  -7.191  1.00  0.00     0.135 A 
ATOM     86  F   UNL     1      14.295  -5.329  -8.138  1.00  0.00    -0.206 F 
ATOM     87  C   UNL     1      15.601  -7.027  -9.095  1.00  0.00     0.059 A 
ATOM     88  C   UNL     1      15.577  -9.258  -8.136  1.00  0.00     0.059 A 
ATOM     89  F   UNL     1      14.213  -9.713  -6.285  1.00  0.00    -0.206 F 
ATOM     90  C   UNL     1      16.039  -8.353  -9.090  1.00  0.00     0.060 A 
BRANCH  90  91
ATOM     91  S   UNL     1      17.244  -8.870 -10.329  1.00  0.00     0.124 S 
ATOM     92  O   UNL     1      16.432  -8.887 -11.541  1.00  0.00    -0.237 OA
ATOM     93  O   UNL     1      18.245  -7.810 -10.251  1.00  0.00    -0.237 OA
ATOM     94  O   UNL     1      17.686 -10.177  -9.852  1.00  0.00    -0.744 OA
ENDBRANCH  90  91
ENDBRANCH  58  83
ENDBRANCH  32  33
ENDBRANCH  24  27
ENDBRANCH  22  23
ENDBRANCH   1  22
TORSDOF 17
