REMARK SMILES CS(=O)(=O)c1ccc(/C=C(/C(=O)NCCCNC(=O)c2ccc(-c3c4nc(c(-c5c(F)cc(S(=O)(=O)[O-])cc5F)c5ccc([nH]5)c(-c5c(F)cc(S(=O)(=O)[O-])cc5F)c5nc(c(-c6c(F)cc(S(=O)(=O)[O-])cc6F)c6ccc3[nH]6)C=C5)C=C4)cc2)c2ccccc2)cc1
REMARK SMILES IDX 15 1 14 2 13 3 11 4 12 5 10 7 9 8 8 9 5 10 6 11 93 12 7 13
REMARK SMILES IDX 92 14 2 15 1 16 3 17 4 18 86 19 87 20 91 21 88 22 90 23
REMARK SMILES IDX 89 24 16 25 17 26 18 27 19 29 20 30 21 31 85 32 22 33 84 34
REMARK SMILES IDX 23 35 24 36 25 37 78 38 26 39 83 40 77 41 79 42 27 43 82 44
REMARK SMILES IDX 76 45 75 46 28 48 62 49 41 50 61 51 42 52 45 53 60 54 80 55
REMARK SMILES IDX 43 56 44 57 59 59 81 60 46 61 29 62 30 63 39 64 31 65 32 66
REMARK SMILES IDX 38 67 40 68 33 69 34 70 35 71 36 72 37 73 63 74 64 75 73 76
REMARK SMILES IDX 65 77 66 78 72 79 74 80 67 81 68 82 69 83 70 84 71 85 47 86
REMARK SMILES IDX 48 87 57 88 49 89 50 90 56 91 58 92 51 93 52 94 53 95 54 96
REMARK SMILES IDX 55 97
REMARK H PARENT 13 6 17 28 79 47 45 58
REMARK Flexibility Score: inf
ROOT
ATOM      1  C   UNL     1       1.192   9.342  -2.252  1.00  0.00     0.042 C 
ENDROOT
BRANCH   1   2
ATOM      2  C   UNL     1       1.593   8.684  -3.574  1.00  0.00     0.118 C 
BRANCH   2   3
ATOM      3  N   UNL     1       3.037   8.659  -3.723  1.00  0.00    -0.352 N 
ATOM      4  C   UNL     1       3.988   7.699  -3.583  1.00  0.00     0.251 C 
ATOM      5  O   UNL     1       5.151   8.059  -3.786  1.00  0.00    -0.269 OA
ATOM      6  H   UNL     1       3.410   9.532  -3.985  1.00  0.00     0.163 HD
BRANCH   4   7
ATOM      7  C   UNL     1       3.678   6.249  -3.287  1.00  0.00     0.047 C 
ATOM      8  C   UNL     1       2.659   5.889  -2.473  1.00  0.00     0.022 C 
BRANCH   8   9
ATOM      9  C   UNL     1       2.136   4.542  -2.149  1.00  0.00    -0.025 A 
ATOM     10  C   UNL     1       0.991   2.017  -1.714  1.00  0.00     0.067 A 
ATOM     11  C   UNL     1       2.378   2.160  -1.715  1.00  0.00     0.021 A 
ATOM     12  C   UNL     1       0.164   3.124  -1.891  1.00  0.00     0.021 A 
ATOM     13  C   UNL     1       2.942   3.426  -1.895  1.00  0.00     0.009 A 
ATOM     14  C   UNL     1       0.740   4.380  -2.109  1.00  0.00     0.009 A 
BRANCH  10  15
ATOM     15  S   UNL     1       0.293   0.397  -1.512  1.00  0.00     0.175 S 
ATOM     16  C   UNL     1       0.802  -0.083   0.117  1.00  0.00     0.163 C 
ATOM     17  O   UNL     1       0.949  -0.469  -2.471  1.00  0.00    -0.224 OA
ATOM     18  O   UNL     1      -1.153   0.532  -1.501  1.00  0.00    -0.224 OA
ENDBRANCH  10  15
ENDBRANCH   8   9
BRANCH   7  19
ATOM     19  C   UNL     1       4.653   5.244  -3.785  1.00  0.00    -0.013 A 
ATOM     20  C   UNL     1       5.943   5.224  -3.226  1.00  0.00     0.009 A 
ATOM     21  C   UNL     1       4.308   4.263  -4.723  1.00  0.00     0.009 A 
ATOM     22  C   UNL     1       6.858   4.230  -3.571  1.00  0.00     0.001 A 
ATOM     23  C   UNL     1       5.222   3.258  -5.057  1.00  0.00     0.001 A 
ATOM     24  C   UNL     1       6.492   3.240  -4.478  1.00  0.00     0.000 A 
ENDBRANCH   7  19
ENDBRANCH   4   7
ENDBRANCH   2   3
ENDBRANCH   1   2
BRANCH   1  25
ATOM     25  C   UNL     1       1.492  10.842  -2.192  1.00  0.00     0.118 C 
BRANCH  25  26
ATOM     26  N   UNL     1       0.658  11.605  -3.110  1.00  0.00    -0.352 N 
ATOM     27  C   UNL     1      -0.221  12.630  -2.861  1.00  0.00     0.251 C 
ATOM     28  H   UNL     1       0.736  11.345  -4.056  1.00  0.00     0.163 HD
ATOM     29  O   UNL     1      -0.991  12.986  -3.750  1.00  0.00    -0.269 OA
BRANCH  27  30
ATOM     30  C   UNL     1      -0.256  13.301  -1.542  1.00  0.00     0.039 A 
ATOM     31  C   UNL     1      -1.497  13.643  -0.995  1.00  0.00     0.014 A 
ATOM     32  C   UNL     1       0.919  13.647  -0.868  1.00  0.00     0.014 A 
ATOM     33  C   UNL     1      -1.561  14.282   0.246  1.00  0.00     0.010 A 
ATOM     34  C   UNL     1       0.852  14.229   0.397  1.00  0.00     0.010 A 
ATOM     35  C   UNL     1      -0.388  14.557   0.967  1.00  0.00    -0.014 A 
BRANCH  35  36
ATOM     36  C   UNL     1      -0.441  15.177   2.317  1.00  0.00     0.031 A 
ATOM     37  C   UNL     1       0.151  16.541   2.553  1.00  0.00     0.074 A 
ATOM     38  C   UNL     1      -0.959  14.478   3.348  1.00  0.00     0.049 A 
ATOM     39  N   UNL     1       0.271  17.206   3.673  1.00  0.00    -0.248 NA
ATOM     40  C   UNL     1       0.706  17.238   1.381  1.00  0.00     0.031 C 
ATOM     41  C   UNL     1      -1.511  13.124   3.258  1.00  0.00     0.029 A 
ATOM     42  N   UNL     1      -1.087  14.799   4.676  1.00  0.00    -0.354 N 
ATOM     43  C   UNL     1       0.936  18.383   3.349  1.00  0.00     0.074 A 
ATOM     44  C   UNL     1       1.224  18.327   1.932  1.00  0.00     0.031 C 
ATOM     45  C   UNL     1      -1.922  12.734   4.475  1.00  0.00     0.029 A 
ATOM     46  C   UNL     1      -1.635  13.793   5.438  1.00  0.00     0.049 A 
ATOM     47  H   UNL     1      -0.813  15.668   5.049  1.00  0.00     0.167 HD
ATOM     48  C   UNL     1       1.263  19.421   4.156  1.00  0.00     0.037 A 
ATOM     49  C   UNL     1      -1.866  13.724   6.763  1.00  0.00     0.037 A 
ATOM     50  C   UNL     1       0.934  19.489   5.556  1.00  0.00     0.049 A 
ATOM     51  C   UNL     1      -1.529  14.906   7.630  1.00  0.00     0.074 A 
ATOM     52  C   UNL     1       1.141  20.537   6.438  1.00  0.00     0.029 A 
ATOM     53  N   UNL     1       0.331  18.472   6.281  1.00  0.00    -0.354 N 
ATOM     54  N   UNL     1      -0.976  16.046   7.289  1.00  0.00    -0.248 NA
ATOM     55  C   UNL     1      -1.857  14.801   9.059  1.00  0.00     0.031 C 
ATOM     56  C   UNL     1       0.701  20.137   7.704  1.00  0.00     0.029 A 
ATOM     57  C   UNL     1       0.178  18.858   7.602  1.00  0.00     0.049 A 
ATOM     58  H   UNL     1       0.053  17.603   5.910  1.00  0.00     0.167 HD
ATOM     59  C   UNL     1      -0.912  16.801   8.455  1.00  0.00     0.074 A 
ATOM     60  C   UNL     1      -1.495  15.995   9.508  1.00  0.00     0.031 C 
ATOM     61  C   UNL     1      -0.415  18.049   8.636  1.00  0.00     0.037 A 
BRANCH  48  62
ATOM     62  C   UNL     1       2.012  20.577   3.552  1.00  0.00     0.058 A 
ATOM     63  C   UNL     1       1.393  21.483   2.677  1.00  0.00     0.135 A 
ATOM     64  C   UNL     1       3.351  20.818   3.904  1.00  0.00     0.135 A 
ATOM     65  F   UNL     1       0.119  21.293   2.297  1.00  0.00    -0.206 F 
ATOM     66  C   UNL     1       2.078  22.577   2.158  1.00  0.00     0.059 A 
ATOM     67  C   UNL     1       4.048  21.920   3.417  1.00  0.00     0.059 A 
ATOM     68  F   UNL     1       3.992  19.983   4.737  1.00  0.00    -0.206 F 
ATOM     69  C   UNL     1       3.405  22.788   2.536  1.00  0.00     0.060 A 
BRANCH  69  70
ATOM     70  S   UNL     1       4.272  24.227   1.873  1.00  0.00     0.124 S 
ATOM     71  O   UNL     1       4.509  23.814   0.494  1.00  0.00    -0.237 OA
ATOM     72  O   UNL     1       3.293  25.294   2.056  1.00  0.00    -0.237 OA
ATOM     73  O   UNL     1       5.463  24.323   2.712  1.00  0.00    -0.744 OA
ENDBRANCH  69  70
ENDBRANCH  48  62
BRANCH  49  74
ATOM     74  C   UNL     1      -2.455  12.491   7.352  1.00  0.00     0.058 A 
ATOM     75  C   UNL     1      -3.770  12.477   7.838  1.00  0.00     0.135 A 
ATOM     76  C   UNL     1      -1.714  11.302   7.435  1.00  0.00     0.135 A 
ATOM     77  F   UNL     1      -4.517  13.591   7.785  1.00  0.00    -0.206 F 
ATOM     78  C   UNL     1      -4.325  11.335   8.407  1.00  0.00     0.059 A 
ATOM     79  C   UNL     1      -2.255  10.140   7.976  1.00  0.00     0.059 A 
ATOM     80  F   UNL     1      -0.458  11.257   6.965  1.00  0.00    -0.206 F 
ATOM     81  C   UNL     1      -3.558  10.171   8.472  1.00  0.00     0.060 A 
BRANCH  81  82
ATOM     82  S   UNL     1      -4.297   8.681   9.177  1.00  0.00     0.124 S 
ATOM     83  O   UNL     1      -4.261   8.983  10.603  1.00  0.00    -0.237 OA
ATOM     84  O   UNL     1      -5.619   8.670   8.558  1.00  0.00    -0.237 OA
ATOM     85  O   UNL     1      -3.398   7.620   8.732  1.00  0.00    -0.744 OA
ENDBRANCH  81  82
ENDBRANCH  49  74
BRANCH  61  86
ATOM     86  C   UNL     1      -0.510  18.639  10.016  1.00  0.00     0.058 A 
ATOM     87  C   UNL     1       0.320  18.207  11.061  1.00  0.00     0.135 A 
ATOM     88  C   UNL     1      -1.408  19.686  10.279  1.00  0.00     0.135 A 
ATOM     89  F   UNL     1       1.190  17.204  10.863  1.00  0.00    -0.206 F 
ATOM     90  C   UNL     1       0.249  18.780  12.327  1.00  0.00     0.059 A 
ATOM     91  C   UNL     1      -1.477  20.291  11.530  1.00  0.00     0.059 A 
ATOM     92  F   UNL     1      -2.217  20.143   9.310  1.00  0.00    -0.206 F 
ATOM     93  C   UNL     1      -0.652  19.823  12.551  1.00  0.00     0.060 A 
BRANCH  93  94
ATOM     94  S   UNL     1      -0.709  20.582  14.188  1.00  0.00     0.124 S 
ATOM     95  O   UNL     1      -1.426  19.570  14.956  1.00  0.00    -0.237 OA
ATOM     96  O   UNL     1       0.705  20.739  14.511  1.00  0.00    -0.237 OA
ATOM     97  O   UNL     1      -1.435  21.828  13.958  1.00  0.00    -0.744 OA
ENDBRANCH  93  94
ENDBRANCH  61  86
ENDBRANCH  35  36
ENDBRANCH  27  30
ENDBRANCH  25  26
ENDBRANCH   1  25
TORSDOF 16
