REMARK SMILES O=C(NCCCNC(=O)c1cccc([C@@H]2CCC[N@@H+](Cc3cccc(OCCO)c3)C2)c1)c1ccc(-c2c3nc(c(-c4c(F)cc(S(=O)(=O)[O-])cc4F)c4ccc([nH]4)c(-c4c(F)cc(S(=O)(=O)[O-])cc4F)c4nc(c(-c5c(F)cc(S(=O)(=O)[O-])cc5F)c5ccc2[nH]5)C=C4)C=C3)cc1
REMARK SMILES IDX 7 1 8 2 9 3 6 5 5 6 4 7 3 8 1 9 2 10 33 12 34 13 98 14 35 15
REMARK SMILES IDX 97 16 36 17 37 18 38 19 91 20 39 21 96 22 90 23 92 24 40 25
REMARK SMILES IDX 95 26 89 27 88 28 41 30 75 31 54 32 74 33 55 34 58 35 73 36
REMARK SMILES IDX 93 37 56 38 57 39 72 41 94 42 59 43 42 44 43 45 52 46 44 47
REMARK SMILES IDX 45 48 51 49 53 50 46 51 47 52 48 53 49 54 50 55 76 56 77 57
REMARK SMILES IDX 86 58 78 59 79 60 85 61 87 62 80 63 81 64 82 65 83 66 84 67
REMARK SMILES IDX 60 68 61 69 70 70 62 71 63 72 69 73 71 74 64 75 65 76 66 77
REMARK SMILES IDX 67 78 68 79 10 80 11 81 32 82 12 83 14 84 13 85 15 86 16 87
REMARK SMILES IDX 31 88 17 89 19 90 18 91 20 93 21 94 22 95 30 96 23 97 25 98
REMARK SMILES IDX 24 99 26 100 27 101 28 102 29 103
REMARK H PARENT 7 4 3 11 92 29 58 40 19 92 29 104
REMARK Flexibility Score: inf
ROOT
ATOM      1  N   UNL     1       5.275   3.126  -2.879  1.00  0.00    -0.352 N 
ATOM      2  C   UNL     1       6.213   3.820  -3.610  1.00  0.00     0.251 C 
ATOM      3  O   UNL     1       6.810   4.768  -3.110  1.00  0.00    -0.269 OA
ATOM      4  H   UNL     1       5.034   3.531  -2.015  1.00  0.00     0.163 HD
ENDROOT
BRANCH   1   5
ATOM      5  C   UNL     1       4.583   1.878  -3.196  1.00  0.00     0.118 C 
BRANCH   5   6
ATOM      6  C   UNL     1       4.955   0.745  -2.262  1.00  0.00     0.042 C 
BRANCH   6   7
ATOM      7  C   UNL     1       4.512   0.973  -0.832  1.00  0.00     0.118 C 
BRANCH   7   8
ATOM      8  N   UNL     1       3.071   0.836  -0.648  1.00  0.00    -0.352 N 
ATOM      9  O   UNL     1       1.139  -0.112   0.019  1.00  0.00    -0.269 OA
ATOM     10  C   UNL     1       2.359  -0.066   0.114  1.00  0.00     0.251 C 
ATOM     11  H   UNL     1       2.524   1.487  -1.144  1.00  0.00     0.163 HD
BRANCH  10  12
ATOM     12  C   UNL     1       3.076  -1.000   1.014  1.00  0.00     0.039 A 
ATOM     13  C   UNL     1       4.179  -0.567   1.746  1.00  0.00     0.014 A 
ATOM     14  C   UNL     1       2.659  -2.331   1.111  1.00  0.00     0.014 A 
ATOM     15  C   UNL     1       4.988  -1.495   2.384  1.00  0.00     0.010 A 
ATOM     16  C   UNL     1       3.400  -3.242   1.876  1.00  0.00     0.010 A 
ATOM     17  C   UNL     1       4.598  -2.841   2.484  1.00  0.00    -0.014 A 
BRANCH  17  18
ATOM     18  C   UNL     1       5.445  -3.758   3.293  1.00  0.00     0.031 A 
ATOM     19  C   UNL     1       6.120  -4.958   2.687  1.00  0.00     0.074 A 
ATOM     20  C   UNL     1       5.673  -3.432   4.582  1.00  0.00     0.049 A 
ATOM     21  N   UNL     1       6.956  -5.797   3.247  1.00  0.00    -0.248 NA
ATOM     22  C   UNL     1       5.816  -5.272   1.282  1.00  0.00     0.031 C 
ATOM     23  C   UNL     1       5.048  -2.307   5.287  1.00  0.00     0.029 A 
ATOM     24  N   UNL     1       6.519  -3.972   5.515  1.00  0.00    -0.354 N 
ATOM     25  C   UNL     1       7.263  -6.743   2.277  1.00  0.00     0.074 A 
ATOM     26  C   UNL     1       6.505  -6.391   1.095  1.00  0.00     0.031 C 
ATOM     27  C   UNL     1       5.593  -2.189   6.505  1.00  0.00     0.029 A 
ATOM     28  C   UNL     1       6.549  -3.271   6.698  1.00  0.00     0.049 A 
ATOM     29  H   UNL     1       7.054  -4.782   5.354  1.00  0.00     0.167 HD
ATOM     30  C   UNL     1       8.106  -7.802   2.363  1.00  0.00     0.037 A 
ATOM     31  C   UNL     1       7.258  -3.477   7.822  1.00  0.00     0.037 A 
ATOM     32  C   UNL     1       8.873  -8.133   3.538  1.00  0.00     0.049 A 
ATOM     33  C   UNL     1       8.207  -4.635   7.876  1.00  0.00     0.074 A 
ATOM     34  C   UNL     1       9.754  -9.186   3.725  1.00  0.00     0.029 A 
ATOM     35  N   UNL     1       8.861  -7.411   4.724  1.00  0.00    -0.354 N 
ATOM     36  N   UNL     1       8.476  -5.520   6.946  1.00  0.00    -0.248 NA
ATOM     37  C   UNL     1       8.944  -4.830   9.131  1.00  0.00     0.031 C 
ATOM     38  C   UNL     1      10.254  -9.115   5.031  1.00  0.00     0.029 A 
ATOM     39  C   UNL     1       9.714  -7.997   5.646  1.00  0.00     0.049 A 
ATOM     40  H   UNL     1       8.326  -6.601   4.886  1.00  0.00     0.167 HD
ATOM     41  C   UNL     1       9.404  -6.386   7.508  1.00  0.00     0.074 A 
ATOM     42  C   UNL     1       9.682  -5.892   8.842  1.00  0.00     0.031 C 
ATOM     43  C   UNL     1       9.964  -7.499   6.974  1.00  0.00     0.037 A 
BRANCH  30  44
ATOM     44  C   UNL     1       8.246  -8.689   1.156  1.00  0.00     0.058 A 
ATOM     45  C   UNL     1       8.973  -8.284   0.026  1.00  0.00     0.135 A 
ATOM     46  C   UNL     1       7.703  -9.985   1.153  1.00  0.00     0.135 A 
ATOM     47  F   UNL     1       9.500  -7.051  -0.032  1.00  0.00    -0.206 F 
ATOM     48  C   UNL     1       9.146  -9.125  -1.069  1.00  0.00     0.059 A 
ATOM     49  C   UNL     1       7.880 -10.851   0.077  1.00  0.00     0.059 A 
ATOM     50  F   UNL     1       6.998 -10.424   2.208  1.00  0.00    -0.206 F 
ATOM     51  C   UNL     1       8.596 -10.408  -1.034  1.00  0.00     0.060 A 
BRANCH  51  52
ATOM     52  S   UNL     1       8.847 -11.496  -2.454  1.00  0.00     0.124 S 
ATOM     53  O   UNL     1       7.934 -10.912  -3.432  1.00  0.00    -0.237 OA
ATOM     54  O   UNL     1      10.269 -11.323  -2.735  1.00  0.00    -0.237 OA
ATOM     55  O   UNL     1       8.467 -12.811  -1.947  1.00  0.00    -0.744 OA
ENDBRANCH  51  52
ENDBRANCH  30  44
BRANCH  31  56
ATOM     56  C   UNL     1       7.072  -2.573   8.987  1.00  0.00     0.058 A 
ATOM     57  C   UNL     1       8.076  -1.681   9.386  1.00  0.00     0.135 A 
ATOM     58  C   UNL     1       5.865  -2.567   9.704  1.00  0.00     0.135 A 
ATOM     59  F   UNL     1       9.247  -1.651   8.731  1.00  0.00    -0.206 F 
ATOM     60  C   UNL     1       7.898  -0.823  10.467  1.00  0.00     0.059 A 
ATOM     61  C   UNL     1       5.652  -1.700  10.769  1.00  0.00     0.059 A 
ATOM     62  F   UNL     1       4.865  -3.387   9.346  1.00  0.00    -0.206 F 
ATOM     63  C   UNL     1       6.681  -0.840  11.152  1.00  0.00     0.060 A 
BRANCH  63  64
ATOM     64  S   UNL     1       6.430   0.308  12.522  1.00  0.00     0.124 S 
ATOM     65  O   UNL     1       7.123  -0.377  13.606  1.00  0.00    -0.237 OA
ATOM     66  O   UNL     1       7.062   1.528  12.028  1.00  0.00    -0.237 OA
ATOM     67  O   UNL     1       4.976   0.371  12.639  1.00  0.00    -0.744 OA
ENDBRANCH  63  64
ENDBRANCH  31  56
BRANCH  43  68
ATOM     68  C   UNL     1      10.926  -8.250   7.848  1.00  0.00     0.058 A 
ATOM     69  C   UNL     1      10.476  -9.025   8.928  1.00  0.00     0.135 A 
ATOM     70  C   UNL     1      12.307  -8.191   7.608  1.00  0.00     0.135 A 
ATOM     71  F   UNL     1       9.164  -9.105   9.202  1.00  0.00    -0.206 F 
ATOM     72  C   UNL     1      11.366  -9.685   9.767  1.00  0.00     0.059 A 
ATOM     73  C   UNL     1      13.214  -8.863   8.421  1.00  0.00     0.059 A 
ATOM     74  F   UNL     1      12.785  -7.470   6.582  1.00  0.00    -0.206 F 
ATOM     75  C   UNL     1      12.735  -9.591   9.509  1.00  0.00     0.060 A 
BRANCH  75  76
ATOM     76  S   UNL     1      13.885 -10.446  10.606  1.00  0.00     0.124 S 
ATOM     77  O   UNL     1      13.924  -9.542  11.751  1.00  0.00    -0.237 OA
ATOM     78  O   UNL     1      13.218 -11.725  10.830  1.00  0.00    -0.237 OA
ATOM     79  O   UNL     1      15.112 -10.517   9.818  1.00  0.00    -0.744 OA
ENDBRANCH  75  76
ENDBRANCH  43  68
ENDBRANCH  17  18
ENDBRANCH  10  12
ENDBRANCH   7   8
ENDBRANCH   6   7
ENDBRANCH   5   6
ENDBRANCH   1   5
BRANCH   2  80
ATOM     80  C   UNL     1       6.502   3.418  -5.002  1.00  0.00     0.040 A 
ATOM     81  C   UNL     1       7.819   3.308  -5.442  1.00  0.00     0.014 A 
ATOM     82  C   UNL     1       5.446   3.110  -5.861  1.00  0.00     0.018 A 
ATOM     83  C   UNL     1       8.068   2.806  -6.719  1.00  0.00     0.001 A 
ATOM     84  C   UNL     1       5.675   2.525  -7.105  1.00  0.00    -0.039 A 
ATOM     85  C   UNL     1       7.006   2.393  -7.533  1.00  0.00     0.004 A 
BRANCH  84  86
ATOM     86  C   UNL     1       4.534   1.920  -7.906  1.00  0.00     0.074 C 
ATOM     87  C   UNL     1       3.418   2.902  -8.296  1.00  0.00     0.020 C 
ATOM     88  C   UNL     1       3.952   0.659  -7.217  1.00  0.00     0.270 C 
ATOM     89  C   UNL     1       2.336   3.083  -7.232  1.00  0.00     0.062 C 
ATOM     90  N   UNL     1       2.953   0.917  -6.163  1.00  0.00    -0.331 N 
ATOM     91  C   UNL     1       1.853   1.755  -6.652  1.00  0.00     0.262 C 
ATOM     92  H   UNL     1       3.429   1.446  -5.432  1.00  0.00     0.348 HD
BRANCH  90  93
ATOM     93  C   UNL     1       2.472  -0.329  -5.510  1.00  0.00     0.299 C 
BRANCH  93  94
ATOM     94  C   UNL     1       1.466  -1.146  -6.304  1.00  0.00     0.010 A 
ATOM     95  C   UNL     1       0.101  -1.101  -5.993  1.00  0.00     0.010 A 
ATOM     96  C   UNL     1       1.880  -1.877  -7.429  1.00  0.00     0.056 A 
ATOM     97  C   UNL     1      -0.829  -1.722  -6.826  1.00  0.00     0.004 A 
ATOM     98  C   UNL     1       0.952  -2.418  -8.316  1.00  0.00     0.119 A 
ATOM     99  C   UNL     1      -0.404  -2.357  -7.994  1.00  0.00     0.046 A 
BRANCH  98 100
ATOM    100  O   UNL     1       1.238  -2.974  -9.533  1.00  0.00    -0.491 OA
BRANCH 100 101
ATOM    101  C   UNL     1       2.539  -2.775 -10.102  1.00  0.00     0.257 C 
BRANCH 101 102
ATOM    102  C   UNL     1       2.605  -1.505 -10.957  1.00  0.00     0.197 C 
BRANCH 102 103
ATOM    103  O   UNL     1       2.435  -0.311 -10.201  1.00  0.00    -0.393 OA
ATOM    104  H   UNL     1       1.558  -0.312  -9.787  1.00  0.00     0.210 HD
ENDBRANCH 102 103
ENDBRANCH 101 102
ENDBRANCH 100 101
ENDBRANCH  98 100
ENDBRANCH  93  94
ENDBRANCH  90  93
ENDBRANCH  84  86
ENDBRANCH   2  80
TORSDOF 20
