REMARK SMILES O=C(NCCCNC(=O)c1cccc(N[C@H]2CCCC[C@@H]2O)c1)c1ccc(-c2c3nc(c(-c4c(F)cc(S(=O)(=O)[O-])cc4F)c4ccc([nH]4)c(-c4c(F)cc(S(=O)(=O)[O-])cc4F)c4nc(c(-c5c(F)cc(S(=O)(=O)[O-])cc5F)c5ccc2[nH]5)C=C4)C=C3)cc1
REMARK SMILES IDX 5 1 4 2 3 3 1 4 2 5 24 7 25 8 89 9 26 10 88 11 27 12 28 13
REMARK SMILES IDX 29 14 82 15 30 16 87 17 81 18 83 19 31 20 86 21 80 22 79 23
REMARK SMILES IDX 32 25 66 26 45 27 65 28 46 29 49 30 64 31 84 32 47 33 48 34
REMARK SMILES IDX 63 36 85 37 50 38 33 39 34 40 43 41 35 42 36 43 42 44 44 45
REMARK SMILES IDX 37 46 38 47 39 48 40 49 41 50 67 51 68 52 77 53 69 54 70 55
REMARK SMILES IDX 76 56 78 57 71 58 72 59 73 60 74 61 75 62 51 63 52 64 61 65
REMARK SMILES IDX 53 66 54 67 60 68 62 69 55 70 56 71 57 72 58 73 59 74 6 75
REMARK SMILES IDX 7 76 8 77 9 79 10 80 11 81 23 82 12 83 14 84 13 85 15 86
REMARK SMILES IDX 16 88 17 89 21 90 18 91 20 92 19 93 22 94
REMARK H PARENT 3 6 83 24 49 35 7 78 15 87 22 95
REMARK Flexibility Score: inf
ROOT
ATOM      1  C   UNL     1       4.887   2.170   1.041  1.00  0.00     0.042 C 
ENDROOT
BRANCH   1   2
ATOM      2  C   UNL     1       4.476   0.710   1.109  1.00  0.00     0.118 C 
BRANCH   2   3
ATOM      3  N   UNL     1       3.035   0.530   0.987  1.00  0.00    -0.352 N 
ATOM      4  O   UNL     1       1.091   0.048  -0.040  1.00  0.00    -0.269 OA
ATOM      5  C   UNL     1       2.313  -0.079  -0.009  1.00  0.00     0.251 C 
ATOM      6  H   UNL     1       2.501   0.901   1.726  1.00  0.00     0.163 HD
BRANCH   5   7
ATOM      7  C   UNL     1       3.009  -0.874  -1.043  1.00  0.00     0.039 A 
ATOM      8  C   UNL     1       4.055  -1.730  -0.691  1.00  0.00     0.014 A 
ATOM      9  C   UNL     1       2.595  -0.784  -2.374  1.00  0.00     0.014 A 
ATOM     10  C   UNL     1       4.776  -2.387  -1.677  1.00  0.00     0.010 A 
ATOM     11  C   UNL     1       3.254  -1.529  -3.356  1.00  0.00     0.010 A 
ATOM     12  C   UNL     1       4.357  -2.327  -3.015  1.00  0.00    -0.014 A 
BRANCH  12  13
ATOM     13  C   UNL     1       4.999  -3.221  -4.009  1.00  0.00     0.031 A 
ATOM     14  C   UNL     1       5.763  -2.672  -5.179  1.00  0.00     0.074 A 
ATOM     15  C   UNL     1       4.863  -4.552  -3.837  1.00  0.00     0.049 A 
ATOM     16  N   UNL     1       6.342  -3.325  -6.153  1.00  0.00    -0.248 NA
ATOM     17  C   UNL     1       5.892  -1.210  -5.277  1.00  0.00     0.031 C 
ATOM     18  C   UNL     1       4.120  -5.187  -2.741  1.00  0.00     0.029 A 
ATOM     19  N   UNL     1       5.333  -5.610  -4.569  1.00  0.00    -0.354 N 
ATOM     20  C   UNL     1       6.879  -2.358  -6.995  1.00  0.00     0.074 A 
ATOM     21  C   UNL     1       6.553  -1.071  -6.420  1.00  0.00     0.031 C 
ATOM     22  C   UNL     1       4.202  -6.518  -2.864  1.00  0.00     0.029 A 
ATOM     23  C   UNL     1       4.934  -6.833  -4.082  1.00  0.00     0.049 A 
ATOM     24  H   UNL     1       5.900  -5.505  -5.367  1.00  0.00     0.167 HD
ATOM     25  C   UNL     1       7.576  -2.541  -8.141  1.00  0.00     0.037 A 
ATOM     26  C   UNL     1       5.096  -8.071  -4.583  1.00  0.00     0.037 A 
ATOM     27  C   UNL     1       7.913  -3.835  -8.681  1.00  0.00     0.049 A 
ATOM     28  C   UNL     1       5.847  -8.235  -5.872  1.00  0.00     0.074 A 
ATOM     29  C   UNL     1       8.693  -4.125  -9.787  1.00  0.00     0.029 A 
ATOM     30  N   UNL     1       7.478  -5.050  -8.170  1.00  0.00    -0.354 N 
ATOM     31  N   UNL     1       6.419  -7.314  -6.611  1.00  0.00    -0.248 NA
ATOM     32  C   UNL     1       5.967  -9.597  -6.404  1.00  0.00     0.031 C 
ATOM     33  C   UNL     1       8.677  -5.510  -9.983  1.00  0.00     0.029 A 
ATOM     34  C   UNL     1       7.932  -6.088  -8.968  1.00  0.00     0.049 A 
ATOM     35  H   UNL     1       6.928  -5.157  -7.361  1.00  0.00     0.167 HD
ATOM     36  C   UNL     1       6.970  -7.987  -7.693  1.00  0.00     0.074 A 
ATOM     37  C   UNL     1       6.690  -9.394  -7.497  1.00  0.00     0.031 C 
ATOM     38  C   UNL     1       7.640  -7.483  -8.758  1.00  0.00     0.037 A 
BRANCH  25  39
ATOM     39  C   UNL     1       8.015  -1.331  -8.919  1.00  0.00     0.058 A 
ATOM     40  C   UNL     1       9.085  -0.526  -8.499  1.00  0.00     0.135 A 
ATOM     41  C   UNL     1       7.429  -1.045 -10.164  1.00  0.00     0.135 A 
ATOM     42  F   UNL     1       9.673  -0.747  -7.313  1.00  0.00    -0.206 F 
ATOM     43  C   UNL     1       9.559   0.520  -9.287  1.00  0.00     0.059 A 
ATOM     44  C   UNL     1       7.900  -0.018 -10.977  1.00  0.00     0.059 A 
ATOM     45  F   UNL     1       6.401  -1.783 -10.611  1.00  0.00    -0.206 F 
ATOM     46  C   UNL     1       8.966   0.760 -10.529  1.00  0.00     0.060 A 
BRANCH  46  47
ATOM     47  S   UNL     1       9.630   2.085 -11.561  1.00  0.00     0.124 S 
ATOM     48  O   UNL     1       9.198   3.270 -10.827  1.00  0.00    -0.237 OA
ATOM     49  O   UNL     1      11.064   1.811 -11.533  1.00  0.00    -0.237 OA
ATOM     50  O   UNL     1       8.979   1.873 -12.850  1.00  0.00    -0.744 OA
ENDBRANCH  46  47
ENDBRANCH  25  39
BRANCH  26  51
ATOM     51  C   UNL     1       4.481  -9.237  -3.896  1.00  0.00     0.058 A 
ATOM     52  C   UNL     1       5.269 -10.230  -3.299  1.00  0.00     0.135 A 
ATOM     53  C   UNL     1       3.085  -9.380  -3.828  1.00  0.00     0.135 A 
ATOM     54  F   UNL     1       6.607 -10.139  -3.338  1.00  0.00    -0.206 F 
ATOM     55  C   UNL     1       4.697 -11.339  -2.683  1.00  0.00     0.059 A 
ATOM     56  C   UNL     1       2.490 -10.462  -3.190  1.00  0.00     0.059 A 
ATOM     57  F   UNL     1       2.284  -8.446  -4.365  1.00  0.00    -0.206 F 
ATOM     58  C   UNL     1       3.306 -11.447  -2.638  1.00  0.00     0.060 A 
BRANCH  58  59
ATOM     59  S   UNL     1       2.571 -12.884  -1.830  1.00  0.00     0.124 S 
ATOM     60  O   UNL     1       2.815 -13.929  -2.818  1.00  0.00    -0.237 OA
ATOM     61  O   UNL     1       3.349 -12.976  -0.598  1.00  0.00    -0.237 OA
ATOM     62  O   UNL     1       1.176 -12.494  -1.654  1.00  0.00    -0.744 OA
ENDBRANCH  58  59
ENDBRANCH  26  51
BRANCH  38  63
ATOM     63  C   UNL     1       8.119  -8.461  -9.792  1.00  0.00     0.058 A 
ATOM     64  C   UNL     1       7.227  -9.073 -10.686  1.00  0.00     0.135 A 
ATOM     65  C   UNL     1       9.488  -8.739  -9.933  1.00  0.00     0.135 A 
ATOM     66  F   UNL     1       5.907  -8.851 -10.582  1.00  0.00    -0.206 F 
ATOM     67  C   UNL     1       7.675  -9.936 -11.679  1.00  0.00     0.059 A 
ATOM     68  C   UNL     1       9.961  -9.576 -10.938  1.00  0.00     0.059 A 
ATOM     69  F   UNL     1      10.382  -8.175  -9.105  1.00  0.00    -0.206 F 
ATOM     70  C   UNL     1       9.045 -10.175 -11.802  1.00  0.00     0.060 A 
BRANCH  70  71
ATOM     71  S   UNL     1       9.617 -11.249 -13.135  1.00  0.00     0.124 S 
ATOM     72  O   UNL     1       9.194 -12.562 -12.657  1.00  0.00    -0.237 OA
ATOM     73  O   UNL     1       8.888 -10.729 -14.288  1.00  0.00    -0.237 OA
ATOM     74  O   UNL     1      11.059 -11.024 -13.159  1.00  0.00    -0.744 OA
ENDBRANCH  70  71
ENDBRANCH  38  63
ENDBRANCH  12  13
ENDBRANCH   5   7
ENDBRANCH   2   3
ENDBRANCH   1   2
BRANCH   1  75
ATOM     75  C   UNL     1       4.343   3.009   2.183  1.00  0.00     0.118 C 
BRANCH  75  76
ATOM     76  N   UNL     1       4.819   2.557   3.485  1.00  0.00    -0.352 N 
ATOM     77  C   UNL     1       5.661   3.178   4.373  1.00  0.00     0.251 C 
ATOM     78  H   UNL     1       4.486   1.675   3.769  1.00  0.00     0.163 HD
ATOM     79  O   UNL     1       6.108   2.561   5.336  1.00  0.00    -0.269 OA
BRANCH  77  80
ATOM     80  C   UNL     1       6.035   4.589   4.166  1.00  0.00     0.041 A 
ATOM     81  C   UNL     1       7.369   4.964   4.292  1.00  0.00     0.014 A 
ATOM     82  C   UNL     1       5.058   5.541   3.846  1.00  0.00     0.039 A 
ATOM     83  C   UNL     1       7.720   6.284   4.043  1.00  0.00     0.003 A 
ATOM     84  C   UNL     1       5.397   6.854   3.508  1.00  0.00     0.035 A 
ATOM     85  C   UNL     1       6.743   7.210   3.645  1.00  0.00     0.026 A 
BRANCH  84  86
ATOM     86  N   UNL     1       4.390   7.681   3.055  1.00  0.00    -0.380 N 
ATOM     87  H   UNL     1       3.495   7.273   3.010  1.00  0.00     0.160 HD
BRANCH  86  88
ATOM     88  C   UNL     1       4.466   9.080   2.633  1.00  0.00     0.107 C 
ATOM     89  C   UNL     1       4.791   9.990   3.823  1.00  0.00     0.027 C 
ATOM     90  C   UNL     1       5.361   9.291   1.383  1.00  0.00     0.136 C 
ATOM     91  C   UNL     1       4.954  11.445   3.402  1.00  0.00     0.002 C 
ATOM     92  C   UNL     1       5.526  10.774   1.053  1.00  0.00     0.034 C 
ATOM     93  C   UNL     1       5.960  11.583   2.266  1.00  0.00     0.003 C 
BRANCH  90  94
ATOM     94  O   UNL     1       4.820   8.663   0.213  1.00  0.00    -0.391 OA
ATOM     95  H   UNL     1       3.966   9.069  -0.007  1.00  0.00     0.211 HD
ENDBRANCH  90  94
ENDBRANCH  86  88
ENDBRANCH  84  86
ENDBRANCH  77  80
ENDBRANCH  75  76
ENDBRANCH   1  75
TORSDOF 16
