REMARK SMILES C[NH+]1CCC(NC(=O)N[C@@H]2C=C[C@H](C(=O)NCCCNC(=O)c3ccc(-c4c5nc(c(-c6c(F)cc(S(=O)(=O)[O-])cc6F)c6ccc([nH]6)c(-c6c(F)cc(S(=O)(=O)[O-])cc6F)c6nc(c(-c7c(F)cc(S(=O)(=O)[O-])cc7F)c7ccc4[nH]7)C=C6)C=C5)cc3)C2)CC1
REMARK SMILES IDX 18 1 17 2 16 3 14 4 15 5 13 7 10 8 11 9 89 10 12 11 9 12
REMARK SMILES IDX 6 13 7 14 8 16 5 18 1 19 2 20 3 21 91 22 4 24 90 25 19 26
REMARK SMILES IDX 20 27 21 28 22 30 23 31 24 32 88 33 25 34 87 35 26 36 27 37
REMARK SMILES IDX 28 38 81 39 29 40 86 41 80 42 82 43 30 44 85 45 79 46 78 47
REMARK SMILES IDX 31 49 65 50 44 51 64 52 45 53 48 54 63 55 83 56 46 57 47 58
REMARK SMILES IDX 62 60 84 61 49 62 32 63 33 64 42 65 34 66 35 67 41 68 43 69
REMARK SMILES IDX 36 70 37 71 38 72 39 73 40 74 66 75 67 76 76 77 68 78 69 79
REMARK SMILES IDX 75 80 77 81 70 82 71 83 72 84 73 85 74 86 50 87 51 88 60 89
REMARK SMILES IDX 52 90 53 91 59 92 61 93 54 94 55 95 56 96 57 97 58 98
REMARK H PARENT 16 6 6 15 9 17 2 23 20 29 82 48 48 59
REMARK Flexibility Score: inf
ROOT
ATOM      1  C   UNL     1      -2.676   2.189   0.083  1.00  0.00     0.042 C 
ENDROOT
BRANCH   1   2
ATOM      2  C   UNL     1      -2.361   0.804  -0.469  1.00  0.00     0.117 C 
BRANCH   2   3
ATOM      3  N   UNL     1      -2.124   0.839  -1.901  1.00  0.00    -0.356 N 
ATOM      4  C   UNL     1      -0.934   0.913  -2.567  1.00  0.00     0.227 C 
ATOM      5  O   UNL     1      -0.948   0.970  -3.796  1.00  0.00    -0.274 OA
ATOM      6  H   UNL     1      -2.928   0.804  -2.467  1.00  0.00     0.163 HD
BRANCH   4   7
ATOM      7  C   UNL     1       0.350   0.854  -1.752  1.00  0.00     0.103 C 
ATOM      8  C   UNL     1       2.597   0.463  -2.684  1.00  0.00     0.107 C 
ATOM      9  C   UNL     1       1.966  -0.794  -2.180  1.00  0.00    -0.006 C 
ATOM     10  C   UNL     1       1.525   1.535  -2.469  1.00  0.00     0.047 C 
ATOM     11  C   UNL     1       0.762  -0.583  -1.649  1.00  0.00    -0.016 C 
BRANCH   8  12
ATOM     12  N   UNL     1       2.980   0.265  -4.061  1.00  0.00    -0.332 N 
ATOM     13  N   UNL     1       5.171  -0.642  -3.967  1.00  0.00    -0.335 N 
ATOM     14  C   UNL     1       4.098  -0.196  -4.650  1.00  0.00     0.315 C 
ATOM     15  H   UNL     1       5.913  -0.944  -4.539  1.00  0.00     0.165 HD
ATOM     16  O   UNL     1       4.147  -0.224  -5.882  1.00  0.00    -0.249 OA
ATOM     17  H   UNL     1       2.278   0.520  -4.702  1.00  0.00     0.165 HD
BRANCH  13  18
ATOM     18  C   UNL     1       5.436  -0.759  -2.548  1.00  0.00     0.095 C 
ATOM     19  C   UNL     1       6.624  -0.976   1.471  1.00  0.00     0.332 C 
ATOM     20  N   UNL     1       6.764  -0.914   0.012  1.00  0.00    -0.337 N 
ATOM     21  C   UNL     1       6.209   0.361  -0.474  1.00  0.00     0.264 C 
ATOM     22  C   UNL     1       6.138  -2.096  -0.604  1.00  0.00     0.264 C 
ATOM     23  H   UNL     1       7.747  -0.937  -0.258  1.00  0.00     0.347 HD
ATOM     24  C   UNL     1       6.190   0.447  -1.999  1.00  0.00     0.086 C 
ATOM     25  C   UNL     1       6.161  -2.033  -2.138  1.00  0.00     0.086 C 
ENDBRANCH  13  18
ENDBRANCH   8  12
ENDBRANCH   4   7
ENDBRANCH   2   3
ENDBRANCH   1   2
BRANCH   1  26
ATOM     26  C   UNL     1      -3.925   2.818  -0.529  1.00  0.00     0.118 C 
BRANCH  26  27
ATOM     27  N   UNL     1      -5.109   1.989  -0.349  1.00  0.00    -0.352 N 
ATOM     28  C   UNL     1      -6.303   2.271   0.265  1.00  0.00     0.251 C 
ATOM     29  H   UNL     1      -5.042   1.083  -0.729  1.00  0.00     0.163 HD
ATOM     30  O   UNL     1      -7.091   1.361   0.496  1.00  0.00    -0.269 OA
BRANCH  28  31
ATOM     31  C   UNL     1      -6.628   3.658   0.655  1.00  0.00     0.039 A 
ATOM     32  C   UNL     1      -7.250   3.886   1.885  1.00  0.00     0.014 A 
ATOM     33  C   UNL     1      -6.342   4.729  -0.196  1.00  0.00     0.014 A 
ATOM     34  C   UNL     1      -7.527   5.193   2.287  1.00  0.00     0.010 A 
ATOM     35  C   UNL     1      -6.541   6.034   0.242  1.00  0.00     0.010 A 
ATOM     36  C   UNL     1      -7.142   6.280   1.485  1.00  0.00    -0.014 A 
BRANCH  36  37
ATOM     37  C   UNL     1      -7.359   7.680   1.928  1.00  0.00     0.031 A 
ATOM     38  C   UNL     1      -8.259   8.593   1.141  1.00  0.00     0.074 A 
ATOM     39  C   UNL     1      -6.694   8.146   3.003  1.00  0.00     0.049 A 
ATOM     40  N   UNL     1      -8.526   9.859   1.335  1.00  0.00    -0.248 NA
ATOM     41  C   UNL     1      -8.927   8.013  -0.035  1.00  0.00     0.031 C 
ATOM     42  C   UNL     1      -5.760   7.370   3.821  1.00  0.00     0.029 A 
ATOM     43  N   UNL     1      -6.694   9.387   3.589  1.00  0.00    -0.354 N 
ATOM     44  C   UNL     1      -9.380  10.229   0.303  1.00  0.00     0.074 A 
ATOM     45  C   UNL     1      -9.536   9.071  -0.550  1.00  0.00     0.031 C 
ATOM     46  C   UNL     1      -5.303   8.141   4.820  1.00  0.00     0.029 A 
ATOM     47  C   UNL     1      -5.874   9.478   4.688  1.00  0.00     0.049 A 
ATOM     48  H   UNL     1      -7.231  10.141   3.254  1.00  0.00     0.167 HD
ATOM     49  C   UNL     1      -9.998  11.417   0.099  1.00  0.00     0.037 A 
ATOM     50  C   UNL     1      -5.606  10.523   5.496  1.00  0.00     0.037 A 
ATOM     51  C   UNL     1      -9.843  12.561   0.959  1.00  0.00     0.049 A 
ATOM     52  C   UNL     1      -6.284  11.840   5.237  1.00  0.00     0.074 A 
ATOM     53  C   UNL     1     -10.461  13.796   0.869  1.00  0.00     0.029 A 
ATOM     54  N   UNL     1      -9.003  12.615   2.063  1.00  0.00    -0.354 N 
ATOM     55  N   UNL     1      -7.138  12.156   4.293  1.00  0.00    -0.248 NA
ATOM     56  C   UNL     1      -5.966  12.941   6.155  1.00  0.00     0.031 C 
ATOM     57  C   UNL     1      -9.953  14.614   1.885  1.00  0.00     0.029 A 
ATOM     58  C   UNL     1      -9.066  13.870   2.647  1.00  0.00     0.049 A 
ATOM     59  H   UNL     1      -8.445  11.871   2.385  1.00  0.00     0.167 HD
ATOM     60  C   UNL     1      -7.483  13.484   4.520  1.00  0.00     0.074 A 
ATOM     61  C   UNL     1      -6.751  13.907   5.698  1.00  0.00     0.031 C 
ATOM     62  C   UNL     1      -8.332  14.278   3.821  1.00  0.00     0.037 A 
BRANCH  49  63
ATOM     63  C   UNL     1     -10.891  11.535  -1.109  1.00  0.00     0.058 A 
ATOM     64  C   UNL     1     -12.094  10.816  -1.213  1.00  0.00     0.135 A 
ATOM     65  C   UNL     1     -10.543  12.379  -2.176  1.00  0.00     0.135 A 
ATOM     66  F   UNL     1     -12.473   9.984  -0.230  1.00  0.00    -0.206 F 
ATOM     67  C   UNL     1     -12.893  10.892  -2.349  1.00  0.00     0.059 A 
ATOM     68  C   UNL     1     -11.345  12.497  -3.308  1.00  0.00     0.059 A 
ATOM     69  F   UNL     1      -9.408  13.093  -2.132  1.00  0.00    -0.206 F 
ATOM     70  C   UNL     1     -12.507  11.732  -3.394  1.00  0.00     0.060 A 
BRANCH  70  71
ATOM     71  S   UNL     1     -13.542  11.799  -4.872  1.00  0.00     0.124 S 
ATOM     72  O   UNL     1     -13.263  10.501  -5.480  1.00  0.00    -0.237 OA
ATOM     73  O   UNL     1     -14.879  11.961  -4.310  1.00  0.00    -0.237 OA
ATOM     74  O   UNL     1     -13.025  12.955  -5.598  1.00  0.00    -0.744 OA
ENDBRANCH  70  71
ENDBRANCH  49  63
BRANCH  50  75
ATOM     75  C   UNL     1      -4.679  10.347   6.646  1.00  0.00     0.058 A 
ATOM     76  C   UNL     1      -5.160  10.347   7.963  1.00  0.00     0.135 A 
ATOM     77  C   UNL     1      -3.305  10.136   6.452  1.00  0.00     0.135 A 
ATOM     78  F   UNL     1      -6.465  10.552   8.200  1.00  0.00    -0.206 F 
ATOM     79  C   UNL     1      -4.313  10.151   9.049  1.00  0.00     0.059 A 
ATOM     80  C   UNL     1      -2.442   9.911   7.520  1.00  0.00     0.059 A 
ATOM     81  F   UNL     1      -2.796  10.110   5.210  1.00  0.00    -0.206 F 
ATOM     82  C   UNL     1      -2.955   9.925   8.816  1.00  0.00     0.060 A 
BRANCH  82  83
ATOM     83  S   UNL     1      -1.879   9.598  10.229  1.00  0.00     0.124 S 
ATOM     84  O   UNL     1      -1.819  10.910  10.864  1.00  0.00    -0.237 OA
ATOM     85  O   UNL     1      -2.627   8.572  10.950  1.00  0.00    -0.237 OA
ATOM     86  O   UNL     1      -0.640   9.140   9.608  1.00  0.00    -0.744 OA
ENDBRANCH  82  83
ENDBRANCH  50  75
BRANCH  62  87
ATOM     87  C   UNL     1      -8.547  15.679   4.328  1.00  0.00     0.058 A 
ATOM     88  C   UNL     1      -7.554  16.666   4.226  1.00  0.00     0.135 A 
ATOM     89  C   UNL     1      -9.786  16.052   4.876  1.00  0.00     0.135 A 
ATOM     90  F   UNL     1      -6.349  16.363   3.717  1.00  0.00    -0.206 F 
ATOM     91  C   UNL     1      -7.773  17.966   4.671  1.00  0.00     0.059 A 
ATOM     92  C   UNL     1     -10.037  17.353   5.298  1.00  0.00     0.059 A 
ATOM     93  F   UNL     1     -10.774  15.150   4.988  1.00  0.00    -0.206 F 
ATOM     94  C   UNL     1      -9.020  18.301   5.202  1.00  0.00     0.060 A 
BRANCH  94  95
ATOM     95  S   UNL     1      -9.302  20.000   5.743  1.00  0.00     0.124 S 
ATOM     96  O   UNL     1      -8.501  20.058   6.962  1.00  0.00    -0.237 OA
ATOM     97  O   UNL     1      -8.795  20.774   4.614  1.00  0.00    -0.237 OA
ATOM     98  O   UNL     1     -10.747  20.060   5.938  1.00  0.00    -0.744 OA
ENDBRANCH  94  95
ENDBRANCH  62  87
ENDBRANCH  36  37
ENDBRANCH  28  31
ENDBRANCH  26  27
ENDBRANCH   1  26
TORSDOF 15
