REMARK SMILES Nc1ccc(-c2cc(O)ccc2Cl)c(C(=O)NCCCNC(=O)c2ccc(-c3c4nc(c(-c5c(F)cc(S(=O)(=O)[O-])cc5F)c5ccc([nH]5)c(-c5c(F)cc(S(=O)(=O)[O-])cc5F)c5nc(c(-c6c(F)cc(S(=O)(=O)[O-])cc6F)c6ccc3[nH]6)C=C5)C=C4)cc2)n1
REMARK SMILES IDX 19 1 18 2 17 3 15 4 16 5 14 7 2 8 3 9 90 10 4 11 5 12 1 13
REMARK SMILES IDX 6 16 7 17 12 18 8 19 11 20 13 21 10 22 9 23 20 25 21 26
REMARK SMILES IDX 22 27 23 29 24 30 25 31 89 32 26 33 88 34 27 35 28 36 29 37
REMARK SMILES IDX 82 38 30 39 87 40 81 41 83 42 31 43 86 44 80 45 79 46 32 48
REMARK SMILES IDX 66 49 45 50 65 51 46 52 49 53 64 54 84 55 47 56 48 57 63 59
REMARK SMILES IDX 85 60 50 61 33 62 34 63 43 64 35 65 36 66 42 67 44 68 37 69
REMARK SMILES IDX 38 70 39 71 40 72 41 73 67 74 68 75 77 76 69 77 70 78 76 79
REMARK SMILES IDX 78 80 71 81 72 82 73 83 74 84 75 85 51 86 52 87 61 88 53 89
REMARK SMILES IDX 54 90 60 91 62 92 55 93 56 94 57 95 58 96 59 97
REMARK H PARENT 17 6 1 14 1 15 9 24 21 28 83 47 49 58
REMARK Flexibility Score: inf
ROOT
ATOM      1  C   UNL     1      -4.648   2.539   2.156  1.00  0.00     0.042 C 
ENDROOT
BRANCH   1   2
ATOM      2  C   UNL     1      -3.782   1.882   1.101  1.00  0.00     0.118 C 
BRANCH   2   3
ATOM      3  N   UNL     1      -2.785   2.701   0.461  1.00  0.00    -0.351 N 
ATOM      4  C   UNL     1      -1.657   2.312  -0.236  1.00  0.00     0.270 C 
ATOM      5  O   UNL     1      -1.042   3.204  -0.829  1.00  0.00    -0.267 OA
ATOM      6  H   UNL     1      -2.927   3.672   0.529  1.00  0.00     0.163 HD
BRANCH   4   7
ATOM      7  C   UNL     1      -1.094   0.906  -0.230  1.00  0.00     0.138 A 
ATOM      8  C   UNL     1       0.944  -0.211   0.033  1.00  0.00     0.124 A 
ATOM      9  C   UNL     1       0.339  -1.435  -0.158  1.00  0.00     0.047 A 
ATOM     10  N   UNL     1       0.254   0.934   0.026  1.00  0.00    -0.225 NA
ATOM     11  C   UNL     1      -1.026  -1.473  -0.426  1.00  0.00     0.015 A 
ATOM     12  C   UNL     1      -1.789  -0.291  -0.491  1.00  0.00     0.015 A 
BRANCH   8  13
ATOM     13  N   UNL     1       2.295  -0.120   0.298  1.00  0.00    -0.384 N 
ATOM     14  H   UNL     1       2.849  -0.933   0.315  1.00  0.00     0.158 HD
ATOM     15  H   UNL     1       2.705   0.759   0.470  1.00  0.00     0.158 HD
ENDBRANCH   8  13
BRANCH  12  16
ATOM     16  C   UNL     1      -3.226  -0.431  -0.793  1.00  0.00     0.006 A 
ATOM     17  C   UNL     1      -4.046  -1.103   0.149  1.00  0.00     0.056 A 
ATOM     18  C   UNL     1      -3.845   0.108  -1.938  1.00  0.00     0.049 A 
ATOM     19  C   UNL     1      -5.431  -1.117   0.005  1.00  0.00     0.116 A 
ATOM     20  C   UNL     1      -5.238   0.059  -2.084  1.00  0.00     0.025 A 
ATOM     21  Cl  UNL     1      -2.935   0.863  -3.198  1.00  0.00    -0.084 Cl
ATOM     22  C   UNL     1      -6.031  -0.534  -1.101  1.00  0.00     0.048 A 
BRANCH  19  23
ATOM     23  O   UNL     1      -6.241  -1.647   0.961  1.00  0.00    -0.508 OA
ATOM     24  H   UNL     1      -5.868  -2.049   1.721  1.00  0.00     0.293 HD
ENDBRANCH  19  23
ENDBRANCH  12  16
ENDBRANCH   4   7
ENDBRANCH   2   3
ENDBRANCH   1   2
BRANCH   1  25
ATOM     25  C   UNL     1      -5.539   3.662   1.638  1.00  0.00     0.118 C 
BRANCH  25  26
ATOM     26  N   UNL     1      -6.487   3.268   0.597  1.00  0.00    -0.352 N 
ATOM     27  C   UNL     1      -7.817   2.917   0.591  1.00  0.00     0.251 C 
ATOM     28  H   UNL     1      -6.082   3.250  -0.301  1.00  0.00     0.163 HD
ATOM     29  O   UNL     1      -8.318   2.571  -0.482  1.00  0.00    -0.269 OA
BRANCH  27  30
ATOM     30  C   UNL     1      -8.651   2.889   1.819  1.00  0.00     0.039 A 
ATOM     31  C   UNL     1      -9.693   1.956   1.911  1.00  0.00     0.014 A 
ATOM     32  C   UNL     1      -8.455   3.770   2.876  1.00  0.00     0.014 A 
ATOM     33  C   UNL     1     -10.445   1.843   3.089  1.00  0.00     0.010 A 
ATOM     34  C   UNL     1      -9.100   3.565   4.093  1.00  0.00     0.010 A 
ATOM     35  C   UNL     1     -10.108   2.601   4.220  1.00  0.00    -0.014 A 
BRANCH  35  36
ATOM     36  C   UNL     1     -10.778   2.423   5.540  1.00  0.00     0.031 A 
ATOM     37  C   UNL     1     -11.389   3.611   6.246  1.00  0.00     0.074 A 
ATOM     38  C   UNL     1     -10.732   1.228   6.164  1.00  0.00     0.049 A 
ATOM     39  N   UNL     1     -11.835   3.707   7.473  1.00  0.00    -0.248 NA
ATOM     40  C   UNL     1     -11.456   4.873   5.489  1.00  0.00     0.031 C 
ATOM     41  C   UNL     1     -10.114   0.011   5.629  1.00  0.00     0.029 A 
ATOM     42  N   UNL     1     -11.196   0.842   7.399  1.00  0.00    -0.354 N 
ATOM     43  C   UNL     1     -12.184   5.043   7.648  1.00  0.00     0.074 A 
ATOM     44  C   UNL     1     -11.848   5.730   6.421  1.00  0.00     0.031 C 
ATOM     45  C   UNL     1     -10.260  -0.987   6.515  1.00  0.00     0.029 A 
ATOM     46  C   UNL     1     -10.936  -0.475   7.702  1.00  0.00     0.049 A 
ATOM     47  H   UNL     1     -11.670   1.450   8.010  1.00  0.00     0.167 HD
ATOM     48  C   UNL     1     -12.757   5.640   8.720  1.00  0.00     0.037 A 
ATOM     49  C   UNL     1     -11.197  -1.190   8.813  1.00  0.00     0.037 A 
ATOM     50  C   UNL     1     -13.162   4.937   9.909  1.00  0.00     0.049 A 
ATOM     51  C   UNL     1     -11.895  -0.523   9.967  1.00  0.00     0.074 A 
ATOM     52  C   UNL     1     -13.837   5.429  11.012  1.00  0.00     0.029 A 
ATOM     53  N   UNL     1     -12.945   3.587  10.143  1.00  0.00    -0.354 N 
ATOM     54  N   UNL     1     -12.265   0.729  10.091  1.00  0.00    -0.248 NA
ATOM     55  C   UNL     1     -12.216  -1.365  11.127  1.00  0.00     0.031 C 
ATOM     56  C   UNL     1     -14.001   4.384  11.928  1.00  0.00     0.029 A 
ATOM     57  C   UNL     1     -13.464   3.231  11.377  1.00  0.00     0.049 A 
ATOM     58  H   UNL     1     -12.488   2.973   9.524  1.00  0.00     0.167 HD
ATOM     59  C   UNL     1     -12.884   0.820  11.333  1.00  0.00     0.074 A 
ATOM     60  C   UNL     1     -12.850  -0.506  11.915  1.00  0.00     0.031 C 
ATOM     61  C   UNL     1     -13.431   1.904  11.936  1.00  0.00     0.037 A 
BRANCH  48  62
ATOM     62  C   UNL     1     -13.002   7.124   8.650  1.00  0.00     0.058 A 
ATOM     63  C   UNL     1     -13.969   7.674   7.794  1.00  0.00     0.135 A 
ATOM     64  C   UNL     1     -12.284   8.006   9.475  1.00  0.00     0.135 A 
ATOM     65  F   UNL     1     -14.676   6.880   6.973  1.00  0.00    -0.206 F 
ATOM     66  C   UNL     1     -14.191   9.045   7.729  1.00  0.00     0.059 A 
ATOM     67  C   UNL     1     -12.511   9.379   9.450  1.00  0.00     0.059 A 
ATOM     68  F   UNL     1     -11.349   7.536  10.316  1.00  0.00    -0.206 F 
ATOM     69  C   UNL     1     -13.455   9.891   8.561  1.00  0.00     0.060 A 
BRANCH  69  70
ATOM     70  S   UNL     1     -13.759  11.668   8.469  1.00  0.00     0.124 S 
ATOM     71  O   UNL     1     -13.106  12.009   7.208  1.00  0.00    -0.237 OA
ATOM     72  O   UNL     1     -15.216  11.737   8.466  1.00  0.00    -0.237 OA
ATOM     73  O   UNL     1     -13.112  12.186   9.671  1.00  0.00    -0.744 OA
ENDBRANCH  69  70
ENDBRANCH  48  62
BRANCH  49  74
ATOM     74  C   UNL     1     -10.823  -2.629   8.874  1.00  0.00     0.058 A 
ATOM     75  C   UNL     1     -11.805  -3.629   8.811  1.00  0.00     0.135 A 
ATOM     76  C   UNL     1      -9.483  -3.035   8.968  1.00  0.00     0.135 A 
ATOM     77  F   UNL     1     -13.101  -3.291   8.727  1.00  0.00    -0.206 F 
ATOM     78  C   UNL     1     -11.475  -4.980   8.851  1.00  0.00     0.059 A 
ATOM     79  C   UNL     1      -9.126  -4.380   8.985  1.00  0.00     0.059 A 
ATOM     80  F   UNL     1      -8.504  -2.118   9.011  1.00  0.00    -0.206 F 
ATOM     81  C   UNL     1     -10.131  -5.346   8.934  1.00  0.00     0.060 A 
BRANCH  81  82
ATOM     82  S   UNL     1      -9.707  -7.101   8.920  1.00  0.00     0.124 S 
ATOM     83  O   UNL     1     -10.095  -7.508  10.265  1.00  0.00    -0.237 OA
ATOM     84  O   UNL     1     -10.539  -7.610   7.833  1.00  0.00    -0.237 OA
ATOM     85  O   UNL     1      -8.273  -7.097   8.649  1.00  0.00    -0.744 OA
ENDBRANCH  81  82
ENDBRANCH  49  74
BRANCH  61  86
ATOM     86  C   UNL     1     -14.071   1.699  13.280  1.00  0.00     0.058 A 
ATOM     87  C   UNL     1     -13.304   1.504  14.439  1.00  0.00     0.135 A 
ATOM     88  C   UNL     1     -15.467   1.756  13.417  1.00  0.00     0.135 A 
ATOM     89  F   UNL     1     -11.966   1.436  14.360  1.00  0.00    -0.206 F 
ATOM     90  C   UNL     1     -13.901   1.353  15.686  1.00  0.00     0.059 A 
ATOM     91  C   UNL     1     -16.084   1.633  14.657  1.00  0.00     0.059 A 
ATOM     92  F   UNL     1     -16.245   1.950  12.340  1.00  0.00    -0.206 F 
ATOM     93  C   UNL     1     -15.292   1.421  15.785  1.00  0.00     0.060 A 
BRANCH  93  94
ATOM     94  S   UNL     1     -16.053   1.259  17.414  1.00  0.00     0.124 S 
ATOM     95  O   UNL     1     -15.925  -0.173  17.657  1.00  0.00    -0.237 OA
ATOM     96  O   UNL     1     -15.211   2.120  18.240  1.00  0.00    -0.237 OA
ATOM     97  O   UNL     1     -17.414   1.742  17.202  1.00  0.00    -0.744 OA
ENDBRANCH  93  94
ENDBRANCH  61  86
ENDBRANCH  35  36
ENDBRANCH  27  30
ENDBRANCH  25  26
ENDBRANCH   1  25
TORSDOF 16
