REMARK SMILES C[C@H]1[C@H](C(=O)NCCCNC(=O)c2ccc(-c3c4nc(c(-c5c(F)cc(S(=O)(=O)[O-])cc5F)c5ccc([nH]5)c(-c5c(F)cc(S(=O)(=O)[O-])cc5F)c5nc(c(-c6c(F)cc(S(=O)(=O)[O-])cc6F)c6ccc3[nH]6)C=C5)C=C4)cc2)CCN1C(=O)N(C)CCS(C)(=O)=O
REMARK SMILES IDX 7 1 6 2 4 3 5 4 3 6 1 7 2 8 81 9 79 10 80 11 82 12 83 13
REMARK SMILES IDX 84 14 85 15 86 16 87 17 88 18 89 19 90 20 91 21 8 22 9 23
REMARK SMILES IDX 10 24 11 25 12 27 13 28 14 29 78 30 15 31 77 32 16 33 17 34
REMARK SMILES IDX 18 35 71 36 19 37 76 38 70 39 72 40 20 41 75 42 69 43 68 44
REMARK SMILES IDX 21 46 55 47 34 48 54 49 35 50 38 51 53 52 73 53 36 54 37 55
REMARK SMILES IDX 52 57 74 58 39 59 22 60 23 61 32 62 24 63 25 64 31 65 33 66
REMARK SMILES IDX 26 67 27 68 28 69 29 70 30 71 56 72 57 73 66 74 58 75 59 76
REMARK SMILES IDX 65 77 67 78 60 79 61 80 62 81 63 82 64 83 40 84 41 85 50 86
REMARK SMILES IDX 42 87 43 88 49 89 51 90 44 91 45 92 46 93 47 94 48 95
REMARK H PARENT 6 5 10 26 72 45 38 56
REMARK Flexibility Score: inf
ROOT
ATOM      1  C   UNL     1      -1.123   0.564   2.846  1.00  0.00     0.117 C 
ENDROOT
BRANCH   1   2
ATOM      2  N   UNL     1      -0.669   1.864   2.370  1.00  0.00    -0.356 N 
ATOM      3  C   UNL     1      -0.239   2.273   1.147  1.00  0.00     0.225 C 
ATOM      4  O   UNL     1       0.074   3.461   1.023  1.00  0.00    -0.275 OA
ATOM      5  H   UNL     1      -0.676   2.571   3.055  1.00  0.00     0.163 HD
BRANCH   3   6
ATOM      6  C   UNL     1      -0.103   1.328  -0.036  1.00  0.00     0.102 C 
ATOM      7  C   UNL     1       2.119   0.382  -0.747  1.00  0.00     0.032 C 
ATOM      8  C   UNL     1       0.948   0.237   0.228  1.00  0.00     0.096 C 
ATOM      9  N   UNL     1       0.272  -1.037   0.018  1.00  0.00    -0.321 N 
ATOM     10  C   UNL     1      -1.393   0.624  -0.433  1.00  0.00     0.037 C 
ATOM     11  C   UNL     1      -1.000  -0.824  -0.661  1.00  0.00     0.122 C 
BRANCH   9  12
ATOM     12  C   UNL     1       0.650  -2.337   0.222  1.00  0.00     0.320 C 
ATOM     13  O   UNL     1       0.045  -3.220  -0.403  1.00  0.00    -0.248 OA
BRANCH  12  14
ATOM     14  N   UNL     1       1.621  -2.715   1.125  1.00  0.00    -0.327 N 
ATOM     15  C   UNL     1       2.630  -1.932   1.827  1.00  0.00     0.148 C 
BRANCH  14  16
ATOM     16  C   UNL     1       1.670  -4.154   1.453  1.00  0.00     0.137 C 
BRANCH  16  17
ATOM     17  C   UNL     1       0.780  -4.581   2.616  1.00  0.00     0.158 C 
BRANCH  17  18
ATOM     18  S   UNL     1      -0.960  -4.777   2.276  1.00  0.00     0.149 S 
ATOM     19  C   UNL     1      -1.079  -5.826   0.837  1.00  0.00     0.158 C 
ATOM     20  O   UNL     1      -1.513  -5.550   3.379  1.00  0.00    -0.229 OA
ATOM     21  O   UNL     1      -1.538  -3.479   1.987  1.00  0.00    -0.229 OA
ENDBRANCH  17  18
ENDBRANCH  16  17
ENDBRANCH  14  16
ENDBRANCH  12  14
ENDBRANCH   9  12
ENDBRANCH   3   6
ENDBRANCH   1   2
BRANCH   1  22
ATOM     22  C   UNL     1      -0.197  -0.036   3.895  1.00  0.00     0.042 C 
BRANCH  22  23
ATOM     23  C   UNL     1      -0.119   0.757   5.192  1.00  0.00     0.118 C 
BRANCH  23  24
ATOM     24  N   UNL     1      -1.400   0.854   5.875  1.00  0.00    -0.352 N 
ATOM     25  C   UNL     1      -1.778   0.426   7.124  1.00  0.00     0.251 C 
ATOM     26  H   UNL     1      -2.111   1.298   5.359  1.00  0.00     0.163 HD
ATOM     27  O   UNL     1      -2.967   0.457   7.433  1.00  0.00    -0.269 OA
BRANCH  25  28
ATOM     28  C   UNL     1      -0.777  -0.081   8.088  1.00  0.00     0.039 A 
ATOM     29  C   UNL     1      -1.105  -1.187   8.877  1.00  0.00     0.014 A 
ATOM     30  C   UNL     1       0.466   0.538   8.243  1.00  0.00     0.014 A 
ATOM     31  C   UNL     1      -0.167  -1.704   9.773  1.00  0.00     0.010 A 
ATOM     32  C   UNL     1       1.432  -0.032   9.069  1.00  0.00     0.010 A 
ATOM     33  C   UNL     1       1.124  -1.156   9.849  1.00  0.00    -0.014 A 
BRANCH  33  34
ATOM     34  C   UNL     1       2.158  -1.753  10.735  1.00  0.00     0.031 A 
ATOM     35  C   UNL     1       2.755  -0.953  11.862  1.00  0.00     0.074 A 
ATOM     36  C   UNL     1       2.595  -3.005  10.492  1.00  0.00     0.049 A 
ATOM     37  N   UNL     1       3.689  -1.294  12.713  1.00  0.00    -0.248 NA
ATOM     38  C   UNL     1       2.257   0.421  12.042  1.00  0.00     0.031 C 
ATOM     39  C   UNL     1       2.137  -3.862   9.395  1.00  0.00     0.029 A 
ATOM     40  N   UNL     1       3.525  -3.775  11.145  1.00  0.00    -0.354 N 
ATOM     41  C   UNL     1       3.892  -0.183  13.523  1.00  0.00     0.074 A 
ATOM     42  C   UNL     1       3.032   0.866  13.020  1.00  0.00     0.031 C 
ATOM     43  C   UNL     1       2.765  -5.045   9.468  1.00  0.00     0.029 A 
ATOM     44  C   UNL     1       3.701  -5.020  10.588  1.00  0.00     0.049 A 
ATOM     45  H   UNL     1       4.020  -3.464  11.938  1.00  0.00     0.167 HD
ATOM     46  C   UNL     1       4.698  -0.056  14.605  1.00  0.00     0.037 A 
ATOM     47  C   UNL     1       4.526  -6.027  10.934  1.00  0.00     0.037 A 
ATOM     48  C   UNL     1       5.543  -1.109  15.108  1.00  0.00     0.049 A 
ATOM     49  C   UNL     1       5.416  -5.862  12.135  1.00  0.00     0.074 A 
ATOM     50  C   UNL     1       6.363  -1.097  16.223  1.00  0.00     0.029 A 
ATOM     51  N   UNL     1       5.682  -2.362  14.526  1.00  0.00    -0.354 N 
ATOM     52  N   UNL     1       5.548  -4.825  12.928  1.00  0.00    -0.248 NA
ATOM     53  C   UNL     1       6.262  -7.008  12.497  1.00  0.00     0.031 C 
ATOM     54  C   UNL     1       7.036  -2.322  16.285  1.00  0.00     0.029 A 
ATOM     55  C   UNL     1       6.592  -3.122  15.245  1.00  0.00     0.049 A 
ATOM     56  H   UNL     1       5.205  -2.666  13.721  1.00  0.00     0.167 HD
ATOM     57  C   UNL     1       6.474  -5.201  13.895  1.00  0.00     0.074 A 
ATOM     58  C   UNL     1       6.853  -6.567  13.599  1.00  0.00     0.031 C 
ATOM     59  C   UNL     1       6.966  -4.480  14.934  1.00  0.00     0.037 A 
BRANCH  46  60
ATOM     60  C   UNL     1       4.700   1.269  15.322  1.00  0.00     0.058 A 
ATOM     61  C   UNL     1       3.582   1.721  16.042  1.00  0.00     0.135 A 
ATOM     62  C   UNL     1       5.844   2.085  15.316  1.00  0.00     0.135 A 
ATOM     63  F   UNL     1       2.456   0.990  16.071  1.00  0.00    -0.206 F 
ATOM     64  C   UNL     1       3.584   2.947  16.700  1.00  0.00     0.059 A 
ATOM     65  C   UNL     1       5.879   3.301  15.995  1.00  0.00     0.059 A 
ATOM     66  F   UNL     1       6.943   1.706  14.646  1.00  0.00    -0.206 F 
ATOM     67  C   UNL     1       4.738   3.730  16.671  1.00  0.00     0.060 A 
BRANCH  67  68
ATOM     68  S   UNL     1       4.723   5.317  17.531  1.00  0.00     0.124 S 
ATOM     69  O   UNL     1       3.847   6.106  16.671  1.00  0.00    -0.237 OA
ATOM     70  O   UNL     1       4.175   4.959  18.835  1.00  0.00    -0.237 OA
ATOM     71  O   UNL     1       6.127   5.717  17.533  1.00  0.00    -0.744 OA
ENDBRANCH  67  68
ENDBRANCH  46  60
BRANCH  47  72
ATOM     72  C   UNL     1       4.536  -7.282  10.135  1.00  0.00     0.058 A 
ATOM     73  C   UNL     1       4.035  -8.483  10.659  1.00  0.00     0.135 A 
ATOM     74  C   UNL     1       5.027  -7.299   8.820  1.00  0.00     0.135 A 
ATOM     75  F   UNL     1       3.561  -8.521  11.914  1.00  0.00    -0.206 F 
ATOM     76  C   UNL     1       4.033  -9.659   9.915  1.00  0.00     0.059 A 
ATOM     77  C   UNL     1       5.009  -8.454   8.047  1.00  0.00     0.059 A 
ATOM     78  F   UNL     1       5.499  -6.173   8.263  1.00  0.00    -0.206 F 
ATOM     79  C   UNL     1       4.519  -9.633   8.607  1.00  0.00     0.060 A 
BRANCH  79  80
ATOM     80  S   UNL     1       4.461 -11.149   7.627  1.00  0.00     0.124 S 
ATOM     81  O   UNL     1       5.518 -11.940   8.247  1.00  0.00    -0.237 OA
ATOM     82  O   UNL     1       3.096 -11.611   7.858  1.00  0.00    -0.237 OA
ATOM     83  O   UNL     1       4.735 -10.681   6.271  1.00  0.00    -0.744 OA
ENDBRANCH  79  80
ENDBRANCH  47  72
BRANCH  59  84
ATOM     84  C   UNL     1       7.952  -5.165  15.842  1.00  0.00     0.058 A 
ATOM     85  C   UNL     1       9.254  -5.480  15.419  1.00  0.00     0.135 A 
ATOM     86  C   UNL     1       7.598  -5.487  17.163  1.00  0.00     0.135 A 
ATOM     87  F   UNL     1       9.644  -5.199  14.166  1.00  0.00    -0.206 F 
ATOM     88  C   UNL     1      10.156  -6.123  16.261  1.00  0.00     0.059 A 
ATOM     89  C   UNL     1       8.496  -6.100  18.032  1.00  0.00     0.059 A 
ATOM     90  F   UNL     1       6.371  -5.198  17.625  1.00  0.00    -0.206 F 
ATOM     91  C   UNL     1       9.767  -6.430  17.566  1.00  0.00     0.060 A 
BRANCH  91  92
ATOM     92  S   UNL     1      10.951  -7.256  18.649  1.00  0.00     0.124 S 
ATOM     93  O   UNL     1      10.971  -8.603  18.090  1.00  0.00    -0.237 OA
ATOM     94  O   UNL     1      12.163  -6.467  18.445  1.00  0.00    -0.237 OA
ATOM     95  O   UNL     1      10.346  -7.133  19.972  1.00  0.00    -0.744 OA
ENDBRANCH  91  92
ENDBRANCH  59  84
ENDBRANCH  33  34
ENDBRANCH  25  28
ENDBRANCH  23  24
ENDBRANCH  22  23
ENDBRANCH   1  22
TORSDOF 18
