REMARK SMILES CC[C@@](C)(NC(=O)Nc1ccccc1C#N)C(=O)NCCCNC(=O)c1ccc(-c2c3nc(c(-c4c(F)cc(S(=O)(=O)[O-])cc4F)c4ccc([nH]4)c(-c4c(F)cc(S(=O)(=O)[O-])cc4F)c4nc(c(-c5c(F)cc(S(=O)(=O)[O-])cc5F)c5ccc2[nH]5)C=C4)C=C3)cc1
REMARK SMILES IDX 21 1 20 2 19 3 17 4 18 5 3 7 4 8 2 9 1 10 5 11 6 12 7 14
REMARK SMILES IDX 8 15 9 17 10 18 14 19 11 20 13 21 12 22 15 23 16 24 22 25
REMARK SMILES IDX 23 26 24 27 25 29 26 30 27 31 91 32 28 33 90 34 29 35 30 36
REMARK SMILES IDX 31 37 84 38 32 39 89 40 83 41 85 42 33 43 88 44 82 45 81 46
REMARK SMILES IDX 34 48 68 49 47 50 67 51 48 52 51 53 66 54 86 55 49 56 50 57
REMARK SMILES IDX 65 59 87 60 52 61 35 62 36 63 45 64 37 65 38 66 44 67 46 68
REMARK SMILES IDX 39 69 40 70 41 71 42 72 43 73 69 74 70 75 79 76 71 77 72 78
REMARK SMILES IDX 78 79 80 80 73 81 74 82 75 83 76 84 77 85 53 86 54 87 63 88
REMARK SMILES IDX 55 89 56 90 62 91 64 92 57 93 58 94 59 95 60 96 61 97
REMARK H PARENT 19 6 5 13 8 16 23 28 85 47 51 58
REMARK Flexibility Score: inf
ROOT
ATOM      1  C   UNL     1       2.292   5.740  -3.418  1.00  0.00     0.042 C 
ENDROOT
BRANCH   1   2
ATOM      2  C   UNL     1       1.474   4.451  -3.688  1.00  0.00     0.117 C 
BRANCH   2   3
ATOM      3  N   UNL     1       1.978   3.295  -2.960  1.00  0.00    -0.354 N 
ATOM      4  C   UNL     1       1.345   2.195  -2.394  1.00  0.00     0.245 C 
ATOM      5  O   UNL     1       1.427   1.068  -2.874  1.00  0.00    -0.272 OA
ATOM      6  H   UNL     1       2.956   3.292  -2.847  1.00  0.00     0.163 HD
BRANCH   4   7
ATOM      7  C   UNL     1       0.529   2.506  -1.125  1.00  0.00     0.117 C 
ATOM      8  C   UNL     1      -0.896   2.545  -1.755  1.00  0.00     0.045 C 
BRANCH   7   9
ATOM      9  C   UNL     1       0.430   1.601   0.125  1.00  0.00     0.035 C 
ATOM     10  C   UNL     1       0.745   0.129   0.008  1.00  0.00     0.007 C 
ENDBRANCH   7   9
BRANCH   7  11
ATOM     11  N   UNL     1       1.008   3.813  -0.643  1.00  0.00    -0.324 N 
ATOM     12  C   UNL     1       2.202   4.277  -0.237  1.00  0.00     0.320 C 
ATOM     13  H   UNL     1       0.299   4.495  -0.611  1.00  0.00     0.166 HD
ATOM     14  O   UNL     1       2.179   5.386   0.312  1.00  0.00    -0.248 OA
ATOM     15  N   UNL     1       3.444   3.765  -0.477  1.00  0.00    -0.307 N 
ATOM     16  H   UNL     1       4.097   4.495  -0.585  1.00  0.00     0.171 HD
BRANCH  15  17
ATOM     17  C   UNL     1       4.096   2.490  -0.622  1.00  0.00     0.060 A 
ATOM     18  C   UNL     1       4.882   2.147   0.495  1.00  0.00     0.027 A 
ATOM     19  C   UNL     1       4.347   1.701  -1.781  1.00  0.00     0.076 A 
ATOM     20  C   UNL     1       5.654   0.978   0.544  1.00  0.00     0.002 A 
ATOM     21  C   UNL     1       4.982   0.446  -1.673  1.00  0.00     0.021 A 
ATOM     22  C   UNL     1       5.634   0.082  -0.511  1.00  0.00     0.002 A 
BRANCH  19  23
ATOM     23  C   UNL     1       4.317   2.119  -3.159  1.00  0.00     0.101 C 
ATOM     24  N   UNL     1       4.390   2.384  -4.294  1.00  0.00    -0.192 NA
ENDBRANCH  19  23
ENDBRANCH  15  17
ENDBRANCH   7  11
ENDBRANCH   4   7
ENDBRANCH   2   3
ENDBRANCH   1   2
BRANCH   1  25
ATOM     25  C   UNL     1       3.826   5.678  -3.405  1.00  0.00     0.118 C 
BRANCH  25  26
ATOM     26  N   UNL     1       4.432   5.273  -4.656  1.00  0.00    -0.352 N 
ATOM     27  C   UNL     1       5.279   5.948  -5.500  1.00  0.00     0.251 C 
ATOM     28  H   UNL     1       4.197   4.364  -4.951  1.00  0.00     0.163 HD
ATOM     29  O   UNL     1       5.643   5.433  -6.554  1.00  0.00    -0.269 OA
BRANCH  27  30
ATOM     30  C   UNL     1       5.734   7.320  -5.179  1.00  0.00     0.039 A 
ATOM     31  C   UNL     1       5.626   8.296  -6.173  1.00  0.00     0.014 A 
ATOM     32  C   UNL     1       6.299   7.647  -3.943  1.00  0.00     0.014 A 
ATOM     33  C   UNL     1       6.022   9.610  -5.909  1.00  0.00     0.010 A 
ATOM     34  C   UNL     1       6.625   8.976  -3.657  1.00  0.00     0.010 A 
ATOM     35  C   UNL     1       6.492   9.975  -4.637  1.00  0.00    -0.014 A 
BRANCH  35  36
ATOM     36  C   UNL     1       6.848  11.392  -4.334  1.00  0.00     0.031 A 
ATOM     37  C   UNL     1       8.258  11.763  -3.953  1.00  0.00     0.074 A 
ATOM     38  C   UNL     1       5.894  12.346  -4.373  1.00  0.00     0.049 A 
ATOM     39  N   UNL     1       8.746  12.934  -3.626  1.00  0.00    -0.248 NA
ATOM     40  C   UNL     1       9.245  10.673  -3.909  1.00  0.00     0.031 C 
ATOM     41  C   UNL     1       4.483  12.118  -4.690  1.00  0.00     0.029 A 
ATOM     42  N   UNL     1       5.963  13.700  -4.143  1.00  0.00    -0.354 N 
ATOM     43  C   UNL     1      10.088  12.719  -3.330  1.00  0.00     0.074 A 
ATOM     44  C   UNL     1      10.322  11.297  -3.455  1.00  0.00     0.031 C 
ATOM     45  C   UNL     1       3.828  13.290  -4.663  1.00  0.00     0.029 A 
ATOM     46  C   UNL     1       4.758  14.350  -4.283  1.00  0.00     0.049 A 
ATOM     47  H   UNL     1       6.798  14.162  -3.899  1.00  0.00     0.167 HD
ATOM     48  C   UNL     1      11.044  13.625  -3.009  1.00  0.00     0.037 A 
ATOM     49  C   UNL     1       4.433  15.648  -4.118  1.00  0.00     0.037 A 
ATOM     50  C   UNL     1      10.811  15.043  -2.902  1.00  0.00     0.049 A 
ATOM     51  C   UNL     1       5.508  16.632  -3.740  1.00  0.00     0.074 A 
ATOM     52  C   UNL     1      11.725  16.046  -2.630  1.00  0.00     0.029 A 
ATOM     53  N   UNL     1       9.577  15.660  -3.056  1.00  0.00    -0.354 N 
ATOM     54  N   UNL     1       6.785  16.418  -3.524  1.00  0.00    -0.248 NA
ATOM     55  C   UNL     1       5.103  18.037  -3.590  1.00  0.00     0.031 C 
ATOM     56  C   UNL     1      11.035  17.260  -2.557  1.00  0.00     0.029 A 
ATOM     57  C   UNL     1       9.703  17.026  -2.857  1.00  0.00     0.049 A 
ATOM     58  H   UNL     1       8.737  15.196  -3.274  1.00  0.00     0.167 HD
ATOM     59  C   UNL     1       7.340  17.665  -3.250  1.00  0.00     0.074 A 
ATOM     60  C   UNL     1       6.263  18.628  -3.339  1.00  0.00     0.031 C 
ATOM     61  C   UNL     1       8.626  17.981  -2.957  1.00  0.00     0.037 A 
BRANCH  48  62
ATOM     62  C   UNL     1      12.437  13.111  -2.745  1.00  0.00     0.058 A 
ATOM     63  C   UNL     1      13.230  12.560  -3.765  1.00  0.00     0.135 A 
ATOM     64  C   UNL     1      13.003  13.206  -1.462  1.00  0.00     0.135 A 
ATOM     65  F   UNL     1      12.740  12.431  -5.009  1.00  0.00    -0.206 F 
ATOM     66  C   UNL     1      14.516  12.090  -3.517  1.00  0.00     0.059 A 
ATOM     67  C   UNL     1      14.300  12.776  -1.199  1.00  0.00     0.059 A 
ATOM     68  F   UNL     1      12.294  13.727  -0.448  1.00  0.00    -0.206 F 
ATOM     69  C   UNL     1      15.043  12.204  -2.230  1.00  0.00     0.060 A 
BRANCH  69  70
ATOM     70  S   UNL     1      16.715  11.594  -1.927  1.00  0.00     0.124 S 
ATOM     71  O   UNL     1      16.522  10.151  -2.033  1.00  0.00    -0.237 OA
ATOM     72  O   UNL     1      17.472  12.213  -3.010  1.00  0.00    -0.237 OA
ATOM     73  O   UNL     1      17.022  12.087  -0.589  1.00  0.00    -0.744 OA
ENDBRANCH  69  70
ENDBRANCH  48  62
BRANCH  49  74
ATOM     74  C   UNL     1       3.027  16.099  -4.325  1.00  0.00     0.058 A 
ATOM     75  C   UNL     1       2.684  16.939  -5.396  1.00  0.00     0.135 A 
ATOM     76  C   UNL     1       1.999  15.702  -3.456  1.00  0.00     0.135 A 
ATOM     77  F   UNL     1       3.630  17.356  -6.251  1.00  0.00    -0.206 F 
ATOM     78  C   UNL     1       1.379  17.385  -5.587  1.00  0.00     0.059 A 
ATOM     79  C   UNL     1       0.681  16.109  -3.644  1.00  0.00     0.059 A 
ATOM     80  F   UNL     1       2.268  14.889  -2.422  1.00  0.00    -0.206 F 
ATOM     81  C   UNL     1       0.383  16.960  -4.707  1.00  0.00     0.060 A 
BRANCH  81  82
ATOM     82  S   UNL     1      -1.314  17.509  -4.989  1.00  0.00     0.124 S 
ATOM     83  O   UNL     1      -1.227  18.924  -4.648  1.00  0.00    -0.237 OA
ATOM     84  O   UNL     1      -1.501  17.203  -6.404  1.00  0.00    -0.237 OA
ATOM     85  O   UNL     1      -2.092  16.685  -4.069  1.00  0.00    -0.744 OA
ENDBRANCH  81  82
ENDBRANCH  49  74
BRANCH  61  86
ATOM     86  C   UNL     1       8.960  19.437  -2.760  1.00  0.00     0.058 A 
ATOM     87  C   UNL     1       8.518  20.160  -1.641  1.00  0.00     0.135 A 
ATOM     88  C   UNL     1       9.782  20.104  -3.685  1.00  0.00     0.135 A 
ATOM     89  F   UNL     1       7.726  19.576  -0.728  1.00  0.00    -0.206 F 
ATOM     90  C   UNL     1       8.853  21.500  -1.462  1.00  0.00     0.059 A 
ATOM     91  C   UNL     1      10.159  21.431  -3.507  1.00  0.00     0.059 A 
ATOM     92  F   UNL     1      10.244  19.459  -4.768  1.00  0.00    -0.206 F 
ATOM     93  C   UNL     1       9.678  22.125  -2.398  1.00  0.00     0.060 A 
BRANCH  93  94
ATOM     94  S   UNL     1      10.129  23.853  -2.135  1.00  0.00     0.124 S 
ATOM     95  O   UNL     1       8.866  24.532  -2.403  1.00  0.00    -0.237 OA
ATOM     96  O   UNL     1      10.565  23.852  -0.743  1.00  0.00    -0.237 OA
ATOM     97  O   UNL     1      11.185  24.083  -3.117  1.00  0.00    -0.744 OA
ENDBRANCH  93  94
ENDBRANCH  61  86
ENDBRANCH  35  36
ENDBRANCH  27  30
ENDBRANCH  25  26
ENDBRANCH   1  25
TORSDOF 17
