REMARK SMILES Cc1cc(C)cc(C(=O)N2CC[C@H](C(=O)NCCCNC(=O)c3ccc(-c4c5nc(c(-c6c(F)cc(S(=O)(=O)[O-])cc6F)c6ccc([nH]6)c(-c6c(F)cc(S(=O)(=O)[O-])cc6F)c6nc(c(-c7c(F)cc(S(=O)(=O)[O-])cc7F)c7ccc4[nH]7)C=C6)C=C5)cc3)[C@@H]2C)c1
REMARK SMILES IDX 18 1 17 2 16 3 14 4 15 5 13 7 10 8 11 9 89 10 12 11 90 12
REMARK SMILES IDX 8 13 9 14 7 15 1 16 2 17 3 18 91 19 4 20 5 21 6 22 19 23
REMARK SMILES IDX 20 24 21 25 22 27 23 28 24 29 88 30 25 31 87 32 26 33 27 34
REMARK SMILES IDX 28 35 81 36 29 37 86 38 80 39 82 40 30 41 85 42 79 43 78 44
REMARK SMILES IDX 31 46 65 47 44 48 64 49 45 50 48 51 63 52 83 53 46 54 47 55
REMARK SMILES IDX 62 57 84 58 49 59 32 60 33 61 42 62 34 63 35 64 41 65 43 66
REMARK SMILES IDX 36 67 37 68 38 69 39 70 40 71 66 72 67 73 76 74 68 75 69 76
REMARK SMILES IDX 75 77 77 78 70 79 71 80 72 81 73 82 74 83 50 84 51 85 60 86
REMARK SMILES IDX 52 87 53 88 59 89 61 90 54 91 55 92 56 93 57 94 58 95
REMARK H PARENT 16 6 20 26 82 45 48 56
REMARK Flexibility Score: inf
ROOT
ATOM      1  C   UNL     1       5.824  -4.621   3.642  1.00  0.00     0.042 C 
ENDROOT
BRANCH   1   2
ATOM      2  C   UNL     1       5.867  -5.093   2.193  1.00  0.00     0.117 C 
BRANCH   2   3
ATOM      3  N   UNL     1       4.854  -6.092   1.903  1.00  0.00    -0.356 N 
ATOM      4  C   UNL     1       3.772  -6.056   1.079  1.00  0.00     0.225 C 
ATOM      5  O   UNL     1       3.103  -7.085   0.971  1.00  0.00    -0.275 OA
ATOM      6  H   UNL     1       4.970  -6.941   2.387  1.00  0.00     0.163 HD
BRANCH   4   7
ATOM      7  C   UNL     1       3.422  -4.787   0.320  1.00  0.00     0.102 C 
ATOM      8  N   UNL     1       1.219  -4.005  -0.160  1.00  0.00    -0.335 N 
ATOM      9  C   UNL     1       1.460  -5.135  -1.029  1.00  0.00     0.121 C 
ATOM     10  C   UNL     1       2.241  -3.963   0.900  1.00  0.00     0.094 C 
ATOM     11  C   UNL     1       2.972  -5.156  -1.107  1.00  0.00     0.037 C 
ATOM     12  C   UNL     1       1.667  -4.472   2.223  1.00  0.00     0.032 C 
BRANCH   8  13
ATOM     13  C   UNL     1       0.107  -3.213  -0.385  1.00  0.00     0.254 C 
ATOM     14  O   UNL     1      -0.880  -3.651  -0.981  1.00  0.00    -0.269 OA
BRANCH  13  15
ATOM     15  C   UNL     1       0.117  -1.761  -0.051  1.00  0.00     0.040 A 
ATOM     16  C   UNL     1       2.499   1.217  -0.032  1.00  0.00     0.044 C 
ATOM     17  C   UNL     1       1.244   0.398   0.034  1.00  0.00    -0.050 A 
ATOM     18  C   UNL     1       0.003   1.031   0.178  1.00  0.00     0.006 A 
ATOM     19  C   UNL     1       1.287  -0.995  -0.120  1.00  0.00     0.017 A 
ATOM     20  C   UNL     1      -1.184   0.288   0.191  1.00  0.00    -0.050 A 
ATOM     21  C   UNL     1      -2.507   0.996   0.222  1.00  0.00     0.044 C 
ATOM     22  C   UNL     1      -1.116  -1.108   0.096  1.00  0.00     0.017 A 
ENDBRANCH  13  15
ENDBRANCH   8  13
ENDBRANCH   4   7
ENDBRANCH   2   3
ENDBRANCH   1   2
BRANCH   1  23
ATOM     23  C   UNL     1       6.044  -5.717   4.683  1.00  0.00     0.118 C 
BRANCH  23  24
ATOM     24  N   UNL     1       7.324  -6.392   4.542  1.00  0.00    -0.352 N 
ATOM     25  C   UNL     1       8.325  -6.622   5.454  1.00  0.00     0.251 C 
ATOM     26  H   UNL     1       7.504  -6.744   3.640  1.00  0.00     0.163 HD
ATOM     27  O   UNL     1       9.387  -7.096   5.051  1.00  0.00    -0.269 OA
BRANCH  25  28
ATOM     28  C   UNL     1       8.165  -6.292   6.890  1.00  0.00     0.039 A 
ATOM     29  C   UNL     1       9.275  -5.800   7.583  1.00  0.00     0.014 A 
ATOM     30  C   UNL     1       6.966  -6.506   7.577  1.00  0.00     0.014 A 
ATOM     31  C   UNL     1       9.170  -5.473   8.937  1.00  0.00     0.010 A 
ATOM     32  C   UNL     1       6.840  -6.110   8.910  1.00  0.00     0.010 A 
ATOM     33  C   UNL     1       7.942  -5.594   9.607  1.00  0.00    -0.014 A 
BRANCH  33  34
ATOM     34  C   UNL     1       7.811  -5.173  11.028  1.00  0.00     0.031 A 
ATOM     35  C   UNL     1       7.499  -6.176  12.107  1.00  0.00     0.074 A 
ATOM     36  C   UNL     1       7.949  -3.869  11.344  1.00  0.00     0.049 A 
ATOM     37  N   UNL     1       7.371  -5.987  13.396  1.00  0.00    -0.248 NA
ATOM     38  C   UNL     1       7.277  -7.566  11.682  1.00  0.00     0.031 C 
ATOM     39  C   UNL     1       8.187  -2.788  10.385  1.00  0.00     0.029 A 
ATOM     40  N   UNL     1       7.910  -3.231  12.558  1.00  0.00    -0.354 N 
ATOM     41  C   UNL     1       7.048  -7.227  13.934  1.00  0.00     0.074 A 
ATOM     42  C   UNL     1       6.947  -8.151  12.825  1.00  0.00     0.031 C 
ATOM     43  C   UNL     1       8.308  -1.628  11.050  1.00  0.00     0.029 A 
ATOM     44  C   UNL     1       8.130  -1.876  12.477  1.00  0.00     0.049 A 
ATOM     45  H   UNL     1       7.742  -3.699  13.408  1.00  0.00     0.167 HD
ATOM     46  C   UNL     1       6.875  -7.572  15.234  1.00  0.00     0.037 A 
ATOM     47  C   UNL     1       8.191  -0.938  13.442  1.00  0.00     0.037 A 
ATOM     48  C   UNL     1       7.000  -6.655  16.339  1.00  0.00     0.049 A 
ATOM     49  C   UNL     1       8.033  -1.351  14.879  1.00  0.00     0.074 A 
ATOM     50  C   UNL     1       6.903  -6.921  17.694  1.00  0.00     0.029 A 
ATOM     51  N   UNL     1       7.251  -5.296  16.218  1.00  0.00    -0.354 N 
ATOM     52  N   UNL     1       7.799  -2.543  15.373  1.00  0.00    -0.248 NA
ATOM     53  C   UNL     1       8.162  -0.293  15.890  1.00  0.00     0.031 C 
ATOM     54  C   UNL     1       7.060  -5.717  18.390  1.00  0.00     0.029 A 
ATOM     55  C   UNL     1       7.297  -4.708  17.471  1.00  0.00     0.049 A 
ATOM     56  H   UNL     1       7.377  -4.820  15.365  1.00  0.00     0.167 HD
ATOM     57  C   UNL     1       7.774  -2.382  16.754  1.00  0.00     0.074 A 
ATOM     58  C   UNL     1       8.036  -0.982  17.016  1.00  0.00     0.031 C 
ATOM     59  C   UNL     1       7.554  -3.311  17.718  1.00  0.00     0.037 A 
BRANCH  46  60
ATOM     60  C   UNL     1       6.542  -9.008  15.534  1.00  0.00     0.058 A 
ATOM     61  C   UNL     1       7.492 -10.031  15.381  1.00  0.00     0.135 A 
ATOM     62  C   UNL     1       5.271  -9.364  16.012  1.00  0.00     0.135 A 
ATOM     63  F   UNL     1       8.719  -9.749  14.914  1.00  0.00    -0.206 F 
ATOM     64  C   UNL     1       7.186 -11.358  15.662  1.00  0.00     0.059 A 
ATOM     65  C   UNL     1       4.950 -10.683  16.325  1.00  0.00     0.059 A 
ATOM     66  F   UNL     1       4.324  -8.427  16.179  1.00  0.00    -0.206 F 
ATOM     67  C   UNL     1       5.910 -11.675  16.131  1.00  0.00     0.060 A 
BRANCH  67  68
ATOM     68  S   UNL     1       5.525 -13.402  16.494  1.00  0.00     0.124 S 
ATOM     69  O   UNL     1       5.384 -13.955  15.149  1.00  0.00    -0.237 OA
ATOM     70  O   UNL     1       6.709 -13.837  17.234  1.00  0.00    -0.237 OA
ATOM     71  O   UNL     1       4.298 -13.321  17.273  1.00  0.00    -0.744 OA
ENDBRANCH  67  68
ENDBRANCH  46  60
BRANCH  47  72
ATOM     72  C   UNL     1       8.457   0.479  13.080  1.00  0.00     0.058 A 
ATOM     73  C   UNL     1       9.694   1.076  13.363  1.00  0.00     0.135 A 
ATOM     74  C   UNL     1       7.488   1.258  12.429  1.00  0.00     0.135 A 
ATOM     75  F   UNL     1      10.650   0.372  13.989  1.00  0.00    -0.206 F 
ATOM     76  C   UNL     1       9.959   2.399  13.027  1.00  0.00     0.059 A 
ATOM     77  C   UNL     1       7.737   2.576  12.061  1.00  0.00     0.059 A 
ATOM     78  F   UNL     1       6.295   0.726  12.119  1.00  0.00    -0.206 F 
ATOM     79  C   UNL     1       8.974   3.141  12.373  1.00  0.00     0.060 A 
BRANCH  79  80
ATOM     80  S   UNL     1       9.345   4.840  11.887  1.00  0.00     0.124 S 
ATOM     81  O   UNL     1       9.250   5.538  13.164  1.00  0.00    -0.237 OA
ATOM     82  O   UNL     1      10.687   4.714  11.325  1.00  0.00    -0.237 OA
ATOM     83  O   UNL     1       8.297   5.147  10.918  1.00  0.00    -0.744 OA
ENDBRANCH  79  80
ENDBRANCH  47  72
BRANCH  59  84
ATOM     84  C   UNL     1       7.613  -2.841  19.145  1.00  0.00     0.058 A 
ATOM     85  C   UNL     1       6.601  -2.042  19.700  1.00  0.00     0.135 A 
ATOM     86  C   UNL     1       8.690  -3.203  19.970  1.00  0.00     0.135 A 
ATOM     87  F   UNL     1       5.552  -1.665  18.953  1.00  0.00    -0.206 F 
ATOM     88  C   UNL     1       6.675  -1.583  21.012  1.00  0.00     0.059 A 
ATOM     89  C   UNL     1       8.772  -2.777  21.292  1.00  0.00     0.059 A 
ATOM     90  F   UNL     1       9.678  -3.976  19.493  1.00  0.00    -0.206 F 
ATOM     91  C   UNL     1       7.769  -1.950  21.798  1.00  0.00     0.060 A 
BRANCH  91  92
ATOM     92  S   UNL     1       7.860  -1.346  23.497  1.00  0.00     0.124 S 
ATOM     93  O   UNL     1       8.293   0.033  23.293  1.00  0.00    -0.237 OA
ATOM     94  O   UNL     1       6.489  -1.517  23.966  1.00  0.00    -0.237 OA
ATOM     95  O   UNL     1       8.843  -2.229  24.117  1.00  0.00    -0.744 OA
ENDBRANCH  91  92
ENDBRANCH  59  84
ENDBRANCH  33  34
ENDBRANCH  25  28
ENDBRANCH  23  24
ENDBRANCH   1  23
TORSDOF 15
