REMARK SMILES COC(=O)[C@H]1Sc2nnc(CCC(=O)NCCCNC(=O)c3ccc(-c4c5nc(c(-c6c(F)cc(S(=O)(=O)[O-])cc6F)c6ccc([nH]6)c(-c6c(F)cc(S(=O)(=O)[O-])cc6F)c6nc(c(-c7c(F)cc(S(=O)(=O)[O-])cc7F)c7ccc4[nH]7)C=C6)C=C5)cc3)c(=O)n2N=C1C
REMARK SMILES IDX 16 1 15 2 13 3 14 4 12 6 11 7 10 8 5 9 6 10 92 11 7 12 91 13
REMARK SMILES IDX 93 14 8 15 90 16 9 17 88 18 89 19 3 20 4 21 2 22 1 23 17 24
REMARK SMILES IDX 18 25 19 26 20 27 21 29 22 30 23 31 87 32 24 33 86 34 25 35
REMARK SMILES IDX 26 36 27 37 80 38 28 39 85 40 79 41 81 42 29 43 84 44 78 45
REMARK SMILES IDX 77 46 30 48 64 49 43 50 63 51 44 52 47 53 62 54 82 55 45 56
REMARK SMILES IDX 46 57 61 59 83 60 48 61 31 62 32 63 41 64 33 65 34 66 40 67
REMARK SMILES IDX 42 68 35 69 36 70 37 71 38 72 39 73 65 74 66 75 75 76 67 77
REMARK SMILES IDX 68 78 74 79 76 80 69 81 70 82 71 83 72 84 73 85 49 86 50 87
REMARK SMILES IDX 59 88 51 89 52 90 58 91 60 92 53 93 54 94 55 95 56 96 57 97
REMARK H PARENT 15 5 19 28 81 47 47 58
REMARK Flexibility Score: inf
ROOT
ATOM      1  C   UNL     1      -1.183  -4.229  -6.795  1.00  0.00     0.117 C 
ENDROOT
BRANCH   1   2
ATOM      2  N   UNL     1      -1.771  -5.431  -6.205  1.00  0.00    -0.356 N 
ATOM      3  C   UNL     1      -3.034  -5.746  -5.791  1.00  0.00     0.220 C 
ATOM      4  O   UNL     1      -3.200  -6.863  -5.293  1.00  0.00    -0.275 OA
ATOM      5  H   UNL     1      -1.124  -6.162  -6.080  1.00  0.00     0.163 HD
BRANCH   3   6
ATOM      6  C   UNL     1      -4.225  -4.814  -5.989  1.00  0.00     0.106 C 
BRANCH   6   7
ATOM      7  C   UNL     1      -4.997  -4.513  -4.696  1.00  0.00     0.074 C 
BRANCH   7   8
ATOM      8  C   UNL     1      -4.531  -3.216  -4.083  1.00  0.00     0.131 A 
ATOM      9  C   UNL     1      -0.413  -0.662  -3.173  1.00  0.00     0.210 C 
ATOM     10  S   UNL     1      -2.015   0.153  -2.706  1.00  0.00    -0.063 SA
ATOM     11  C   UNL     1      -0.503  -2.131  -2.732  1.00  0.00     0.061 C 
ATOM     12  C   UNL     1      -3.058  -1.129  -3.297  1.00  0.00     0.214 A 
ATOM     13  N   UNL     1      -1.565  -2.803  -2.449  1.00  0.00    -0.171 NA
ATOM     14  C   UNL     1       0.664  -3.045  -2.523  1.00  0.00     0.065 C 
ATOM     15  N   UNL     1      -4.051  -0.918  -4.103  1.00  0.00    -0.123 NA
ATOM     16  N   UNL     1      -2.767  -2.363  -2.801  1.00  0.00    -0.169 N 
ATOM     17  N   UNL     1      -4.708  -2.063  -4.657  1.00  0.00    -0.147 NA
ATOM     18  C   UNL     1      -3.709  -3.356  -2.844  1.00  0.00     0.296 A 
ATOM     19  O   UNL     1      -3.834  -4.313  -2.121  1.00  0.00    -0.265 OA
BRANCH   9  20
ATOM     20  C   UNL     1      -0.226  -0.259  -4.646  1.00  0.00     0.325 C 
ATOM     21  O   UNL     1      -1.031  -0.454  -5.546  1.00  0.00    -0.250 OA
BRANCH  20  22
ATOM     22  O   UNL     1       0.950   0.405  -4.860  1.00  0.00    -0.468 OA
ATOM     23  C   UNL     1       1.240   0.943  -6.177  1.00  0.00     0.282 C 
ENDBRANCH  20  22
ENDBRANCH   9  20
ENDBRANCH   7   8
ENDBRANCH   6   7
ENDBRANCH   3   6
ENDBRANCH   1   2
BRANCH   1  24
ATOM     24  C   UNL     1      -0.215  -3.517  -5.830  1.00  0.00     0.042 C 
BRANCH  24  25
ATOM     25  C   UNL     1       1.317  -3.451  -6.123  1.00  0.00     0.118 C 
BRANCH  25  26
ATOM     26  N   UNL     1       1.962  -2.265  -5.475  1.00  0.00    -0.352 N 
ATOM     27  C   UNL     1       3.242  -2.197  -4.918  1.00  0.00     0.251 C 
ATOM     28  H   UNL     1       1.424  -1.441  -5.436  1.00  0.00     0.163 HD
ATOM     29  O   UNL     1       4.156  -2.926  -5.279  1.00  0.00    -0.269 OA
BRANCH  27  30
ATOM     30  C   UNL     1       3.393  -1.366  -3.643  1.00  0.00     0.039 A 
ATOM     31  C   UNL     1       3.423   0.028  -3.506  1.00  0.00     0.014 A 
ATOM     32  C   UNL     1       3.417  -2.108  -2.459  1.00  0.00     0.014 A 
ATOM     33  C   UNL     1       3.356   0.650  -2.217  1.00  0.00     0.010 A 
ATOM     34  C   UNL     1       3.234  -1.501  -1.202  1.00  0.00     0.010 A 
ATOM     35  C   UNL     1       3.226  -0.109  -1.041  1.00  0.00    -0.014 A 
BRANCH  35  36
ATOM     36  C   UNL     1       3.301   0.436   0.368  1.00  0.00     0.031 A 
ATOM     37  C   UNL     1       4.501   0.026   1.212  1.00  0.00     0.074 A 
ATOM     38  C   UNL     1       2.322   1.150   0.978  1.00  0.00     0.049 A 
ATOM     39  N   UNL     1       4.757   0.245   2.477  1.00  0.00    -0.248 NA
ATOM     40  C   UNL     1       5.519  -0.799   0.538  1.00  0.00     0.031 C 
ATOM     41  C   UNL     1       1.054   1.561   0.379  1.00  0.00     0.029 A 
ATOM     42  N   UNL     1       2.233   1.631   2.274  1.00  0.00    -0.354 N 
ATOM     43  C   UNL     1       5.947  -0.429   2.742  1.00  0.00     0.074 A 
ATOM     44  C   UNL     1       6.297  -1.154   1.544  1.00  0.00     0.031 C 
ATOM     45  C   UNL     1       0.320   2.225   1.296  1.00  0.00     0.029 A 
ATOM     46  C   UNL     1       1.058   2.298   2.559  1.00  0.00     0.049 A 
ATOM     47  H   UNL     1       2.950   1.508   2.937  1.00  0.00     0.167 HD
ATOM     48  C   UNL     1       6.728  -0.411   3.849  1.00  0.00     0.037 A 
ATOM     49  C   UNL     1       0.628   2.907   3.691  1.00  0.00     0.037 A 
ATOM     50  C   UNL     1       6.432   0.340   5.035  1.00  0.00     0.049 A 
ATOM     51  C   UNL     1       1.513   2.943   4.920  1.00  0.00     0.074 A 
ATOM     52  C   UNL     1       7.212   0.501   6.167  1.00  0.00     0.029 A 
ATOM     53  N   UNL     1       5.266   1.056   5.244  1.00  0.00    -0.354 N 
ATOM     54  N   UNL     1       2.698   2.409   5.098  1.00  0.00    -0.248 NA
ATOM     55  C   UNL     1       1.013   3.679   6.096  1.00  0.00     0.031 C 
ATOM     56  C   UNL     1       6.502   1.291   7.075  1.00  0.00     0.029 A 
ATOM     57  C   UNL     1       5.298   1.651   6.492  1.00  0.00     0.049 A 
ATOM     58  H   UNL     1       4.525   1.131   4.600  1.00  0.00     0.167 HD
ATOM     59  C   UNL     1       3.095   2.771   6.385  1.00  0.00     0.074 A 
ATOM     60  C   UNL     1       2.029   3.571   6.945  1.00  0.00     0.031 C 
ATOM     61  C   UNL     1       4.244   2.467   7.038  1.00  0.00     0.037 A 
BRANCH  48  62
ATOM     62  C   UNL     1       8.021  -1.181   3.793  1.00  0.00     0.058 A 
ATOM     63  C   UNL     1       9.068  -0.774   2.948  1.00  0.00     0.135 A 
ATOM     64  C   UNL     1       8.227  -2.316   4.591  1.00  0.00     0.135 A 
ATOM     65  F   UNL     1       8.918   0.296   2.151  1.00  0.00    -0.206 F 
ATOM     66  C   UNL     1      10.255  -1.489   2.865  1.00  0.00     0.059 A 
ATOM     67  C   UNL     1       9.424  -3.028   4.550  1.00  0.00     0.059 A 
ATOM     68  F   UNL     1       7.262  -2.748   5.418  1.00  0.00    -0.206 F 
ATOM     69  C   UNL     1      10.425  -2.616   3.670  1.00  0.00     0.060 A 
BRANCH  69  70
ATOM     70  S   UNL     1      11.979  -3.524   3.548  1.00  0.00     0.124 S 
ATOM     71  O   UNL     1      11.844  -4.156   2.239  1.00  0.00    -0.237 OA
ATOM     72  O   UNL     1      12.969  -2.455   3.635  1.00  0.00    -0.237 OA
ATOM     73  O   UNL     1      11.934  -4.431   4.690  1.00  0.00    -0.744 OA
ENDBRANCH  69  70
ENDBRANCH  48  62
BRANCH  49  74
ATOM     74  C   UNL     1      -0.687   3.622   3.716  1.00  0.00     0.058 A 
ATOM     75  C   UNL     1      -0.735   5.026   3.699  1.00  0.00     0.135 A 
ATOM     76  C   UNL     1      -1.910   2.936   3.768  1.00  0.00     0.135 A 
ATOM     77  F   UNL     1       0.406   5.733   3.683  1.00  0.00    -0.206 F 
ATOM     78  C   UNL     1      -1.940   5.723   3.724  1.00  0.00     0.059 A 
ATOM     79  C   UNL     1      -3.133   3.611   3.776  1.00  0.00     0.059 A 
ATOM     80  F   UNL     1      -1.927   1.595   3.799  1.00  0.00    -0.206 F 
ATOM     81  C   UNL     1      -3.137   5.006   3.750  1.00  0.00     0.060 A 
BRANCH  81  82
ATOM     82  S   UNL     1      -4.692   5.928   3.690  1.00  0.00     0.124 S 
ATOM     83  O   UNL     1      -4.709   6.570   5.000  1.00  0.00    -0.237 OA
ATOM     84  O   UNL     1      -4.474   6.813   2.550  1.00  0.00    -0.237 OA
ATOM     85  O   UNL     1      -5.694   4.886   3.485  1.00  0.00    -0.744 OA
ENDBRANCH  81  82
ENDBRANCH  49  74
BRANCH  61  86
ATOM     86  C   UNL     1       4.453   3.008   8.427  1.00  0.00     0.058 A 
ATOM     87  C   UNL     1       3.821   2.431   9.538  1.00  0.00     0.135 A 
ATOM     88  C   UNL     1       5.408   4.012   8.662  1.00  0.00     0.135 A 
ATOM     89  F   UNL     1       2.901   1.469   9.368  1.00  0.00    -0.206 F 
ATOM     90  C   UNL     1       4.136   2.824  10.836  1.00  0.00     0.059 A 
ATOM     91  C   UNL     1       5.752   4.406   9.952  1.00  0.00     0.059 A 
ATOM     92  F   UNL     1       6.051   4.586   7.633  1.00  0.00    -0.206 F 
ATOM     93  C   UNL     1       5.112   3.803  11.034  1.00  0.00     0.060 A 
BRANCH  93  94
ATOM     94  S   UNL     1       5.575   4.233  12.726  1.00  0.00     0.124 S 
ATOM     95  O   UNL     1       4.397   4.966  13.177  1.00  0.00    -0.237 OA
ATOM     96  O   UNL     1       5.778   2.922  13.336  1.00  0.00    -0.237 OA
ATOM     97  O   UNL     1       6.784   5.033  12.557  1.00  0.00    -0.744 OA
ENDBRANCH  93  94
ENDBRANCH  61  86
ENDBRANCH  35  36
ENDBRANCH  27  30
ENDBRANCH  25  26
ENDBRANCH  24  25
ENDBRANCH   1  24
TORSDOF 17
