REMARK SMILES CC[C@@](O)(C(=O)NCCCNC(=O)c1ccc(-c2c3nc(c(-c4c(F)cc(S(=O)(=O)[O-])cc4F)c4ccc([nH]4)c(-c4c(F)cc(S(=O)(=O)[O-])cc4F)c4nc(c(-c5c(F)cc(S(=O)(=O)[O-])cc5F)c5ccc2[nH]5)C=C4)C=C3)cc1)[C@H]1CCc2ccc(OC)cc21
REMARK SMILES IDX 9 1 8 2 7 3 5 4 6 5 3 7 2 8 1 9 4 10 80 12 81 13 90 14 82 15
REMARK SMILES IDX 83 16 89 17 84 18 86 19 85 20 87 21 88 22 10 23 11 24 12 25
REMARK SMILES IDX 13 27 14 28 15 29 79 30 16 31 78 32 17 33 18 34 19 35 72 36
REMARK SMILES IDX 20 37 77 38 71 39 73 40 21 41 76 42 70 43 69 44 22 46 56 47
REMARK SMILES IDX 35 48 55 49 36 50 39 51 54 52 74 53 37 54 38 55 53 57 75 58
REMARK SMILES IDX 40 59 23 60 24 61 33 62 25 63 26 64 32 65 34 66 27 67 28 68
REMARK SMILES IDX 29 69 30 70 31 71 57 72 58 73 67 74 59 75 60 76 66 77 68 78
REMARK SMILES IDX 61 79 62 80 63 81 64 82 65 83 41 84 42 85 51 86 43 87 44 88
REMARK SMILES IDX 50 89 52 90 45 91 46 92 47 93 48 94 49 95
REMARK H PARENT 7 6 4 11 11 26 73 45 39 56
REMARK Flexibility Score: inf
ROOT
ATOM      1  C   UNL     1      -2.971   1.822   2.312  1.00  0.00     0.042 C 
ENDROOT
BRANCH   1   2
ATOM      2  C   UNL     1      -1.972   2.948   2.046  1.00  0.00     0.117 C 
BRANCH   2   3
ATOM      3  N   UNL     1      -0.798   2.788   2.882  1.00  0.00    -0.354 N 
ATOM      4  C   UNL     1       0.385   2.149   2.644  1.00  0.00     0.252 C 
ATOM      5  O   UNL     1       1.137   2.035   3.618  1.00  0.00    -0.272 OA
ATOM      6  H   UNL     1      -0.866   3.211   3.769  1.00  0.00     0.163 HD
BRANCH   4   7
ATOM      7  C   UNL     1       0.777   1.619   1.221  1.00  0.00     0.149 C 
BRANCH   7   8
ATOM      8  C   UNL     1      -0.224   0.533   0.735  1.00  0.00     0.043 C 
ATOM      9  C   UNL     1       0.046  -0.137  -0.607  1.00  0.00     0.007 C 
ENDBRANCH   7   8
BRANCH   7  10
ATOM     10  O   UNL     1       0.664   2.775   0.363  1.00  0.00    -0.379 OA
ATOM     11  H   UNL     1      -0.264   3.052   0.314  1.00  0.00     0.212 HD
ENDBRANCH   7  10
BRANCH   7  12
ATOM     12  C   UNL     1       2.283   1.168   1.300  1.00  0.00     0.061 C 
ATOM     13  C   UNL     1       2.480  -0.229   1.959  1.00  0.00     0.017 C 
ATOM     14  C   UNL     1       3.014   1.000  -0.010  1.00  0.00    -0.035 A 
ATOM     15  C   UNL     1       3.606  -0.959   1.217  1.00  0.00     0.036 C 
ATOM     16  C   UNL     1       3.652  -0.238  -0.088  1.00  0.00    -0.044 A 
ATOM     17  C   UNL     1       3.146   1.927  -1.037  1.00  0.00     0.050 A 
ATOM     18  C   UNL     1       4.284  -0.636  -1.253  1.00  0.00     0.008 A 
ATOM     19  C   UNL     1       3.802   1.552  -2.208  1.00  0.00     0.119 A 
ATOM     20  C   UNL     1       4.324   0.256  -2.329  1.00  0.00     0.047 A 
BRANCH  19  21
ATOM     21  O   UNL     1       3.973   2.359  -3.302  1.00  0.00    -0.497 OA
ATOM     22  C   UNL     1       3.901   3.760  -3.050  1.00  0.00     0.278 C 
ENDBRANCH  19  21
ENDBRANCH   7  12
ENDBRANCH   4   7
ENDBRANCH   2   3
ENDBRANCH   1   2
BRANCH   1  23
ATOM     23  C   UNL     1      -3.723   1.992   3.623  1.00  0.00     0.118 C 
BRANCH  23  24
ATOM     24  N   UNL     1      -4.724   3.039   3.527  1.00  0.00    -0.352 N 
ATOM     25  C   UNL     1      -6.078   2.970   3.733  1.00  0.00     0.251 C 
ATOM     26  H   UNL     1      -4.381   3.928   3.277  1.00  0.00     0.163 HD
ATOM     27  O   UNL     1      -6.787   3.896   3.346  1.00  0.00    -0.269 OA
BRANCH  25  28
ATOM     28  C   UNL     1      -6.686   1.800   4.410  1.00  0.00     0.039 A 
ATOM     29  C   UNL     1      -7.955   1.377   4.002  1.00  0.00     0.014 A 
ATOM     30  C   UNL     1      -6.057   1.168   5.487  1.00  0.00     0.014 A 
ATOM     31  C   UNL     1      -8.585   0.324   4.666  1.00  0.00     0.010 A 
ATOM     32  C   UNL     1      -6.650   0.064   6.095  1.00  0.00     0.010 A 
ATOM     33  C   UNL     1      -7.936  -0.344   5.716  1.00  0.00    -0.014 A 
BRANCH  33  34
ATOM     34  C   UNL     1      -8.624  -1.416   6.481  1.00  0.00     0.031 A 
ATOM     35  C   UNL     1      -8.948  -1.205   7.937  1.00  0.00     0.074 A 
ATOM     36  C   UNL     1      -8.929  -2.582   5.880  1.00  0.00     0.049 A 
ATOM     37  N   UNL     1      -9.508  -2.026   8.789  1.00  0.00    -0.248 NA
ATOM     38  C   UNL     1      -8.566   0.092   8.521  1.00  0.00     0.031 C 
ATOM     39  C   UNL     1      -8.622  -2.922   4.489  1.00  0.00     0.029 A 
ATOM     40  N   UNL     1      -9.561  -3.699   6.364  1.00  0.00    -0.354 N 
ATOM     41  C   UNL     1      -9.530  -1.353  10.006  1.00  0.00     0.074 A 
ATOM     42  C   UNL     1      -8.873  -0.082   9.798  1.00  0.00     0.031 C 
ATOM     43  C   UNL     1      -9.084  -4.156   4.227  1.00  0.00     0.029 A 
ATOM     44  C   UNL     1      -9.696  -4.702   5.435  1.00  0.00     0.049 A 
ATOM     45  H   UNL     1      -9.887  -3.774   7.290  1.00  0.00     0.167 HD
ATOM     46  C   UNL     1     -10.073  -1.744  11.183  1.00  0.00     0.037 A 
ATOM     47  C   UNL     1     -10.252  -5.924   5.545  1.00  0.00     0.037 A 
ATOM     48  C   UNL     1     -10.754  -2.998  11.375  1.00  0.00     0.049 A 
ATOM     49  C   UNL     1     -10.886  -6.324   6.850  1.00  0.00     0.074 A 
ATOM     50  C   UNL     1     -11.371  -3.480  12.515  1.00  0.00     0.029 A 
ATOM     51  N   UNL     1     -10.916  -3.966  10.393  1.00  0.00    -0.354 N 
ATOM     52  N   UNL     1     -10.935  -5.658   7.980  1.00  0.00    -0.248 NA
ATOM     53  C   UNL     1     -11.557  -7.629   6.891  1.00  0.00     0.031 C 
ATOM     54  C   UNL     1     -11.883  -4.752  12.231  1.00  0.00     0.029 A 
ATOM     55  C   UNL     1     -11.623  -5.042  10.901  1.00  0.00     0.049 A 
ATOM     56  H   UNL     1     -10.577  -3.897   9.472  1.00  0.00     0.167 HD
ATOM     57  C   UNL     1     -11.671  -6.449   8.856  1.00  0.00     0.074 A 
ATOM     58  C   UNL     1     -12.052  -7.638   8.121  1.00  0.00     0.031 C 
ATOM     59  C   UNL     1     -12.005  -6.211  10.149  1.00  0.00     0.037 A 
BRANCH  46  60
ATOM     60  C   UNL     1      -9.960  -0.797  12.348  1.00  0.00     0.058 A 
ATOM     61  C   UNL     1     -10.670   0.414  12.383  1.00  0.00     0.135 A 
ATOM     62  C   UNL     1      -9.140  -1.105  13.445  1.00  0.00     0.135 A 
ATOM     63  F   UNL     1     -11.456   0.767  11.353  1.00  0.00    -0.206 F 
ATOM     64  C   UNL     1     -10.542   1.304  13.444  1.00  0.00     0.059 A 
ATOM     65  C   UNL     1      -9.020  -0.243  14.532  1.00  0.00     0.059 A 
ATOM     66  F   UNL     1      -8.439  -2.249  13.467  1.00  0.00    -0.206 F 
ATOM     67  C   UNL     1      -9.710   0.969  14.513  1.00  0.00     0.060 A 
BRANCH  67  68
ATOM     68  S   UNL     1      -9.545   2.138  15.878  1.00  0.00     0.124 S 
ATOM     69  O   UNL     1      -8.691   3.161  15.282  1.00  0.00    -0.237 OA
ATOM     70  O   UNL     1     -10.928   2.533  16.123  1.00  0.00    -0.237 OA
ATOM     71  O   UNL     1      -8.928   1.342  16.934  1.00  0.00    -0.744 OA
ENDBRANCH  67  68
ENDBRANCH  46  60
BRANCH  47  72
ATOM     72  C   UNL     1     -10.271  -6.835   4.371  1.00  0.00     0.058 A 
ATOM     73  C   UNL     1     -11.462  -7.096   3.677  1.00  0.00     0.135 A 
ATOM     74  C   UNL     1      -9.095  -7.441   3.902  1.00  0.00     0.135 A 
ATOM     75  F   UNL     1     -12.613  -6.542   4.088  1.00  0.00    -0.206 F 
ATOM     76  C   UNL     1     -11.491  -7.937   2.569  1.00  0.00     0.059 A 
ATOM     77  C   UNL     1      -9.094  -8.266   2.782  1.00  0.00     0.059 A 
ATOM     78  F   UNL     1      -7.926  -7.207   4.519  1.00  0.00    -0.206 F 
ATOM     79  C   UNL     1     -10.300  -8.516   2.127  1.00  0.00     0.060 A 
BRANCH  79  80
ATOM     80  S   UNL     1     -10.338  -9.560   0.654  1.00  0.00     0.124 S 
ATOM     81  O   UNL     1     -10.957 -10.774   1.171  1.00  0.00    -0.237 OA
ATOM     82  O   UNL     1     -11.151  -8.768  -0.263  1.00  0.00    -0.237 OA
ATOM     83  O   UNL     1      -8.928  -9.674   0.290  1.00  0.00    -0.744 OA
ENDBRANCH  79  80
ENDBRANCH  47  72
BRANCH  59  84
ATOM     84  C   UNL     1     -12.867  -7.232  10.836  1.00  0.00     0.058 A 
ATOM     85  C   UNL     1     -12.366  -8.482  11.230  1.00  0.00     0.135 A 
ATOM     86  C   UNL     1     -14.207  -6.938  11.136  1.00  0.00     0.135 A 
ATOM     87  F   UNL     1     -11.093  -8.814  10.965  1.00  0.00    -0.206 F 
ATOM     88  C   UNL     1     -13.173  -9.419  11.868  1.00  0.00     0.059 A 
ATOM     89  C   UNL     1     -15.025  -7.848  11.796  1.00  0.00     0.059 A 
ATOM     90  F   UNL     1     -14.732  -5.750  10.792  1.00  0.00    -0.206 F 
ATOM     91  C   UNL     1     -14.503  -9.094  12.144  1.00  0.00     0.060 A 
BRANCH  91  92
ATOM     92  S   UNL     1     -15.538 -10.311  12.983  1.00  0.00     0.124 S 
ATOM     93  O   UNL     1     -15.825 -11.247  11.901  1.00  0.00    -0.237 OA
ATOM     94  O   UNL     1     -14.653 -10.806  14.033  1.00  0.00    -0.237 OA
ATOM     95  O   UNL     1     -16.675  -9.523  13.451  1.00  0.00    -0.744 OA
ENDBRANCH  91  92
ENDBRANCH  59  84
ENDBRANCH  33  34
ENDBRANCH  25  28
ENDBRANCH  23  24
ENDBRANCH   1  23
TORSDOF 17
