REMARK SMILES COc1cc2nc(SCC(=O)NCCCNC(=O)c3ccc(-c4c5nc(c(-c6c(F)cc(S(=O)(=O)[O-])cc6F)c6ccc([nH]6)c(-c6c(F)cc(S(=O)(=O)[O-])cc6F)c6nc(c(-c7c(F)cc(S(=O)(=O)[O-])cc7F)c7ccc4[nH]7)C=C6)C=C5)cc3)nc(O)c2cc1OC
REMARK SMILES IDX 14 1 13 2 12 3 10 4 11 5 9 7 8 8 7 9 3 10 4 11 90 12 5 13
REMARK SMILES IDX 89 14 6 15 88 16 86 17 85 18 2 19 1 20 91 21 92 22 87 23
REMARK SMILES IDX 15 25 16 26 17 27 18 29 19 30 20 31 84 32 21 33 83 34 22 35
REMARK SMILES IDX 23 36 24 37 77 38 25 39 82 40 76 41 78 42 26 43 81 44 75 45
REMARK SMILES IDX 74 46 27 48 61 49 40 50 60 51 41 52 44 53 59 54 79 55 42 56
REMARK SMILES IDX 43 57 58 59 80 60 45 61 28 62 29 63 38 64 30 65 31 66 37 67
REMARK SMILES IDX 39 68 32 69 33 70 34 71 35 72 36 73 62 74 63 75 72 76 64 77
REMARK SMILES IDX 65 78 71 79 73 80 66 81 67 82 68 83 69 84 70 85 46 86 47 87
REMARK SMILES IDX 56 88 48 89 49 90 55 91 57 92 50 93 51 94 52 95 53 96 54 97
REMARK H PARENT 12 6 87 24 16 28 78 47 44 58
REMARK Flexibility Score: inf
ROOT
ATOM      1  C   UNL     1      -3.625   7.561  -2.712  1.00  0.00     0.042 C 
ENDROOT
BRANCH   1   2
ATOM      2  C   UNL     1      -3.277   8.438  -3.911  1.00  0.00     0.117 C 
BRANCH   2   3
ATOM      3  N   UNL     1      -1.843   8.582  -4.095  1.00  0.00    -0.355 N 
ATOM      4  C   UNL     1      -1.014   8.009  -5.016  1.00  0.00     0.230 C 
ATOM      5  O   UNL     1       0.179   8.331  -4.989  1.00  0.00    -0.274 OA
ATOM      6  H   UNL     1      -1.400   9.187  -3.457  1.00  0.00     0.163 HD
BRANCH   4   7
ATOM      7  C   UNL     1      -1.563   7.097  -6.101  1.00  0.00     0.178 C 
BRANCH   7   8
ATOM      8  S   UNL     1      -2.206   5.513  -5.492  1.00  0.00    -0.076 SA
BRANCH   8   9
ATOM      9  C   UNL     1      -0.763   4.793  -4.753  1.00  0.00     0.192 A 
ATOM     10  C   UNL     1       1.051   1.267  -2.169  1.00  0.00     0.162 A 
ATOM     11  C   UNL     1      -0.029   1.877  -2.818  1.00  0.00     0.079 A 
ATOM     12  C   UNL     1       2.330   1.837  -2.215  1.00  0.00     0.161 A 
ATOM     13  C   UNL     1       0.115   3.075  -3.501  1.00  0.00     0.083 A 
ATOM     14  C   UNL     1       2.489   3.039  -2.902  1.00  0.00     0.066 A 
ATOM     15  N   UNL     1      -0.949   3.640  -4.093  1.00  0.00    -0.222 NA
ATOM     16  C   UNL     1       1.383   3.651  -3.543  1.00  0.00     0.066 A 
ATOM     17  C   UNL     1       1.434   4.838  -4.257  1.00  0.00     0.223 A 
ATOM     18  N   UNL     1       0.407   5.419  -4.878  1.00  0.00    -0.187 NA
BRANCH  10  19
ATOM     19  O   UNL     1       0.778   0.060  -1.573  1.00  0.00    -0.493 OA
ATOM     20  C   UNL     1       1.026   0.075  -0.167  1.00  0.00     0.278 C 
ENDBRANCH  10  19
BRANCH  12  21
ATOM     21  O   UNL     1       3.344   1.147  -1.610  1.00  0.00    -0.493 OA
ATOM     22  C   UNL     1       4.609   1.786  -1.512  1.00  0.00     0.278 C 
ENDBRANCH  12  21
BRANCH  17  23
ATOM     23  O   UNL     1       2.586   5.553  -4.370  1.00  0.00    -0.493 OA
ATOM     24  H   UNL     1       2.595   6.353  -4.858  1.00  0.00     0.295 HD
ENDBRANCH  17  23
ENDBRANCH   8   9
ENDBRANCH   7   8
ENDBRANCH   4   7
ENDBRANCH   2   3
ENDBRANCH   1   2
BRANCH   1  25
ATOM     25  C   UNL     1      -3.150   8.104  -1.368  1.00  0.00     0.118 C 
BRANCH  25  26
ATOM     26  N   UNL     1      -3.844   9.318  -0.956  1.00  0.00    -0.352 N 
ATOM     27  C   UNL     1      -4.511   9.597   0.215  1.00  0.00     0.251 C 
ATOM     28  H   UNL     1      -3.834  10.048  -1.616  1.00  0.00     0.163 HD
ATOM     29  O   UNL     1      -5.142  10.646   0.315  1.00  0.00    -0.269 OA
BRANCH  27  30
ATOM     30  C   UNL     1      -4.504   8.628   1.336  1.00  0.00     0.039 A 
ATOM     31  C   UNL     1      -3.329   7.982   1.725  1.00  0.00     0.014 A 
ATOM     32  C   UNL     1      -5.702   8.357   2.006  1.00  0.00     0.014 A 
ATOM     33  C   UNL     1      -3.385   6.947   2.655  1.00  0.00     0.010 A 
ATOM     34  C   UNL     1      -5.740   7.370   2.997  1.00  0.00     0.010 A 
ATOM     35  C   UNL     1      -4.593   6.617   3.290  1.00  0.00    -0.014 A 
BRANCH  35  36
ATOM     36  C   UNL     1      -4.637   5.462   4.227  1.00  0.00     0.031 A 
ATOM     37  C   UNL     1      -5.427   4.226   3.883  1.00  0.00     0.074 A 
ATOM     38  C   UNL     1      -3.901   5.493   5.355  1.00  0.00     0.049 A 
ATOM     39  N   UNL     1      -5.538   3.105   4.551  1.00  0.00    -0.248 NA
ATOM     40  C   UNL     1      -6.193   4.250   2.627  1.00  0.00     0.031 C 
ATOM     41  C   UNL     1      -3.079   6.622   5.793  1.00  0.00     0.029 A 
ATOM     42  N   UNL     1      -3.696   4.538   6.320  1.00  0.00    -0.354 N 
ATOM     43  C   UNL     1      -6.388   2.297   3.804  1.00  0.00     0.074 A 
ATOM     44  C   UNL     1      -6.795   3.069   2.650  1.00  0.00     0.031 C 
ATOM     45  C   UNL     1      -2.408   6.273   6.901  1.00  0.00     0.029 A 
ATOM     46  C   UNL     1      -2.791   4.917   7.283  1.00  0.00     0.049 A 
ATOM     47  H   UNL     1      -4.153   3.666   6.322  1.00  0.00     0.167 HD
ATOM     48  C   UNL     1      -6.780   1.022   4.045  1.00  0.00     0.037 A 
ATOM     49  C   UNL     1      -2.320   4.249   8.354  1.00  0.00     0.037 A 
ATOM     50  C   UNL     1      -6.364   0.246   5.184  1.00  0.00     0.049 A 
ATOM     51  C   UNL     1      -2.808   2.856   8.629  1.00  0.00     0.074 A 
ATOM     52  C   UNL     1      -6.708  -1.054   5.513  1.00  0.00     0.029 A 
ATOM     53  N   UNL     1      -5.509   0.696   6.179  1.00  0.00    -0.354 N 
ATOM     54  N   UNL     1      -3.625   2.116   7.920  1.00  0.00    -0.248 NA
ATOM     55  C   UNL     1      -2.323   2.214   9.858  1.00  0.00     0.031 C 
ATOM     56  C   UNL     1      -6.086  -1.379   6.723  1.00  0.00     0.029 A 
ATOM     57  C   UNL     1      -5.326  -0.295   7.130  1.00  0.00     0.049 A 
ATOM     58  H   UNL     1      -5.093   1.588   6.205  1.00  0.00     0.167 HD
ATOM     59  C   UNL     1      -3.750   0.918   8.613  1.00  0.00     0.074 A 
ATOM     60  C   UNL     1      -2.910   1.026   9.789  1.00  0.00     0.031 C 
ATOM     61  C   UNL     1      -4.496  -0.170   8.303  1.00  0.00     0.037 A 
BRANCH  48  62
ATOM     62  C   UNL     1      -7.716   0.388   3.053  1.00  0.00     0.058 A 
ATOM     63  C   UNL     1      -7.272  -0.026   1.787  1.00  0.00     0.135 A 
ATOM     64  C   UNL     1      -9.065   0.174   3.377  1.00  0.00     0.135 A 
ATOM     65  F   UNL     1      -5.995   0.168   1.421  1.00  0.00    -0.206 F 
ATOM     66  C   UNL     1      -8.141  -0.602   0.865  1.00  0.00     0.059 A 
ATOM     67  C   UNL     1      -9.947  -0.419   2.478  1.00  0.00     0.059 A 
ATOM     68  F   UNL     1      -9.541   0.550   4.574  1.00  0.00    -0.206 F 
ATOM     69  C   UNL     1      -9.479  -0.788   1.217  1.00  0.00     0.060 A 
BRANCH  69  70
ATOM     70  S   UNL     1     -10.598  -1.518   0.003  1.00  0.00     0.124 S 
ATOM     71  O   UNL     1     -10.780  -0.407  -0.927  1.00  0.00    -0.237 OA
ATOM     72  O   UNL     1      -9.822  -2.645  -0.503  1.00  0.00    -0.237 OA
ATOM     73  O   UNL     1     -11.773  -1.872   0.793  1.00  0.00    -0.744 OA
ENDBRANCH  69  70
ENDBRANCH  48  62
BRANCH  49  74
ATOM     74  C   UNL     1      -1.309   4.895   9.229  1.00  0.00     0.058 A 
ATOM     75  C   UNL     1       0.031   4.484   9.200  1.00  0.00     0.135 A 
ATOM     76  C   UNL     1      -1.648   5.971  10.065  1.00  0.00     0.135 A 
ATOM     77  F   UNL     1       0.399   3.454   8.422  1.00  0.00    -0.206 F 
ATOM     78  C   UNL     1       1.004   5.124   9.959  1.00  0.00     0.059 A 
ATOM     79  C   UNL     1      -0.689   6.639  10.818  1.00  0.00     0.059 A 
ATOM     80  F   UNL     1      -2.916   6.407  10.118  1.00  0.00    -0.206 F 
ATOM     81  C   UNL     1       0.635   6.208  10.758  1.00  0.00     0.060 A 
BRANCH  81  82
ATOM     82  S   UNL     1       1.923   7.090  11.668  1.00  0.00     0.124 S 
ATOM     83  O   UNL     1       2.226   6.146  12.737  1.00  0.00    -0.237 OA
ATOM     84  O   UNL     1       2.956   7.256  10.650  1.00  0.00    -0.237 OA
ATOM     85  O   UNL     1       1.258   8.322  12.080  1.00  0.00    -0.744 OA
ENDBRANCH  81  82
ENDBRANCH  49  74
BRANCH  61  86
ATOM     86  C   UNL     1      -4.445  -1.335   9.249  1.00  0.00     0.058 A 
ATOM     87  C   UNL     1      -5.135  -1.313  10.470  1.00  0.00     0.135 A 
ATOM     88  C   UNL     1      -3.751  -2.506   8.906  1.00  0.00     0.135 A 
ATOM     89  F   UNL     1      -5.807  -0.213  10.847  1.00  0.00    -0.206 F 
ATOM     90  C   UNL     1      -5.132  -2.410  11.325  1.00  0.00     0.059 A 
ATOM     91  C   UNL     1      -3.750  -3.622   9.737  1.00  0.00     0.059 A 
ATOM     92  F   UNL     1      -3.080  -2.579   7.745  1.00  0.00    -0.206 F 
ATOM     93  C   UNL     1      -4.438  -3.562  10.949  1.00  0.00     0.060 A 
BRANCH  93  94
ATOM     94  S   UNL     1      -4.478  -4.993  12.048  1.00  0.00     0.124 S 
ATOM     95  O   UNL     1      -3.584  -4.566  13.119  1.00  0.00    -0.237 OA
ATOM     96  O   UNL     1      -5.893  -5.078  12.399  1.00  0.00    -0.237 OA
ATOM     97  O   UNL     1      -3.981  -6.080  11.210  1.00  0.00    -0.744 OA
ENDBRANCH  93  94
ENDBRANCH  61  86
ENDBRANCH  35  36
ENDBRANCH  27  30
ENDBRANCH  25  26
ENDBRANCH   1  25
TORSDOF 18
