REMARK SMILES CN1C(=O)N(CC(=O)NCCCNC(=O)c2ccc(-c3c4nc(c(-c5c(F)cc(S(=O)(=O)[O-])cc5F)c5ccc([nH]5)c(-c5c(F)cc(S(=O)(=O)[O-])cc5F)c5nc(c(-c6c(F)cc(S(=O)(=O)[O-])cc6F)c6ccc3[nH]6)C=C5)C=C4)cc2)C(=O)C12CCCCC2
REMARK SMILES IDX 12 1 11 2 10 3 9 4 7 5 8 6 6 8 5 9 1 10 2 11 3 12 84 13 4 14
REMARK SMILES IDX 82 15 85 16 89 17 83 18 86 19 88 20 87 21 13 22 14 23 15 25
REMARK SMILES IDX 16 26 17 27 81 28 18 29 80 30 19 31 20 32 21 33 74 34 22 35
REMARK SMILES IDX 79 36 73 37 75 38 23 39 78 40 72 41 71 42 24 44 58 45 37 46
REMARK SMILES IDX 57 47 38 48 41 49 56 50 76 51 39 52 40 53 55 55 77 56 42 57
REMARK SMILES IDX 25 58 26 59 35 60 27 61 28 62 34 63 36 64 29 65 30 66 31 67
REMARK SMILES IDX 32 68 33 69 59 70 60 71 69 72 61 73 62 74 68 75 70 76 63 77
REMARK SMILES IDX 64 78 65 79 66 80 67 81 43 82 44 83 53 84 45 85 46 86 52 87
REMARK SMILES IDX 54 88 47 89 48 90 49 91 50 92 51 93
REMARK H PARENT 9 7 13 24 75 43 41 54
REMARK Flexibility Score: inf
ROOT
ATOM      1  C   UNL     1      -0.484  -3.514   3.754  1.00  0.00     0.118 C 
ENDROOT
BRANCH   1   2
ATOM      2  C   UNL     1      -0.238  -3.608   2.253  1.00  0.00     0.042 C 
BRANCH   2   3
ATOM      3  C   UNL     1      -1.344  -4.284   1.448  1.00  0.00     0.117 C 
BRANCH   3   4
ATOM      4  N   UNL     1      -2.523  -3.446   1.320  1.00  0.00    -0.354 N 
ATOM      5  C   UNL     1      -3.075  -2.840   0.230  1.00  0.00     0.240 C 
ATOM      6  O   UNL     1      -4.230  -2.417   0.363  1.00  0.00    -0.273 OA
ATOM      7  H   UNL     1      -3.006  -3.289   2.163  1.00  0.00     0.163 HD
BRANCH   5   8
ATOM      8  C   UNL     1      -2.409  -2.841  -1.151  1.00  0.00     0.230 C 
BRANCH   8   9
ATOM      9  N   UNL     1      -1.033  -2.397  -1.165  1.00  0.00    -0.253 N 
ATOM     10  C   UNL     1       1.462   0.093  -0.480  1.00  0.00     0.150 C 
ATOM     11  N   UNL     1       0.715  -1.026  -1.014  1.00  0.00    -0.313 N 
ATOM     12  C   UNL     1      -0.654  -1.136  -0.815  1.00  0.00     0.327 C 
ATOM     13  C   UNL     1       1.323  -2.280  -1.472  1.00  0.00     0.124 C 
ATOM     14  O   UNL     1      -1.382  -0.266  -0.379  1.00  0.00    -0.248 OA
ATOM     15  C   UNL     1       0.012  -3.067  -1.732  1.00  0.00     0.257 C 
ATOM     16  C   UNL     1       2.186  -2.115  -2.728  1.00  0.00     0.039 C 
ATOM     17  C   UNL     1       2.106  -2.956  -0.343  1.00  0.00     0.039 C 
ATOM     18  O   UNL     1      -0.075  -4.150  -2.296  1.00  0.00    -0.272 OA
ATOM     19  C   UNL     1       2.946  -3.388  -3.123  1.00  0.00     0.003 C 
ATOM     20  C   UNL     1       2.752  -4.268  -0.767  1.00  0.00     0.003 C 
ATOM     21  C   UNL     1       3.677  -4.040  -1.951  1.00  0.00     0.000 C 
ENDBRANCH   8   9
ENDBRANCH   5   8
ENDBRANCH   3   4
ENDBRANCH   2   3
ENDBRANCH   1   2
BRANCH   1  22
ATOM     22  N   UNL     1      -0.106  -4.738   4.446  1.00  0.00    -0.352 N 
ATOM     23  C   UNL     1       1.063  -5.150   5.043  1.00  0.00     0.251 C 
ATOM     24  H   UNL     1      -0.831  -5.403   4.496  1.00  0.00     0.163 HD
ATOM     25  O   UNL     1       1.156  -6.343   5.336  1.00  0.00    -0.269 OA
BRANCH  23  26
ATOM     26  C   UNL     1       2.210  -4.244   5.336  1.00  0.00     0.039 A 
ATOM     27  C   UNL     1       3.497  -4.803   5.388  1.00  0.00     0.014 A 
ATOM     28  C   UNL     1       2.060  -2.900   5.677  1.00  0.00     0.014 A 
ATOM     29  C   UNL     1       4.608  -4.024   5.745  1.00  0.00     0.010 A 
ATOM     30  C   UNL     1       3.178  -2.099   5.941  1.00  0.00     0.010 A 
ATOM     31  C   UNL     1       4.465  -2.653   6.005  1.00  0.00    -0.014 A 
BRANCH  31  32
ATOM     32  C   UNL     1       5.627  -1.799   6.394  1.00  0.00     0.031 A 
ATOM     33  C   UNL     1       5.641  -1.092   7.729  1.00  0.00     0.074 A 
ATOM     34  C   UNL     1       6.648  -1.605   5.534  1.00  0.00     0.049 A 
ATOM     35  N   UNL     1       6.502  -0.224   8.200  1.00  0.00    -0.248 NA
ATOM     36  C   UNL     1       4.524  -1.377   8.643  1.00  0.00     0.031 C 
ATOM     37  C   UNL     1       6.757  -2.198   4.200  1.00  0.00     0.029 A 
ATOM     38  N   UNL     1       7.786  -0.843   5.650  1.00  0.00    -0.354 N 
ATOM     39  C   UNL     1       6.015   0.162   9.445  1.00  0.00     0.074 A 
ATOM     40  C   UNL     1       4.759  -0.531   9.635  1.00  0.00     0.031 C 
ATOM     41  C   UNL     1       7.905  -1.795   3.631  1.00  0.00     0.029 A 
ATOM     42  C   UNL     1       8.595  -0.882   4.538  1.00  0.00     0.049 A 
ATOM     43  H   UNL     1       8.003  -0.318   6.454  1.00  0.00     0.167 HD
ATOM     44  C   UNL     1       6.568   0.998  10.359  1.00  0.00     0.037 A 
ATOM     45  C   UNL     1       9.756  -0.251   4.270  1.00  0.00     0.037 A 
ATOM     46  C   UNL     1       7.840   1.653  10.193  1.00  0.00     0.049 A 
ATOM     47  C   UNL     1      10.360   0.662   5.302  1.00  0.00     0.074 A 
ATOM     48  C   UNL     1       8.509   2.472  11.087  1.00  0.00     0.029 A 
ATOM     49  N   UNL     1       8.638   1.561   9.063  1.00  0.00    -0.354 N 
ATOM     50  N   UNL     1       9.901   0.984   6.487  1.00  0.00    -0.248 NA
ATOM     51  C   UNL     1      11.644   1.294   4.963  1.00  0.00     0.031 C 
ATOM     52  C   UNL     1       9.696   2.903  10.483  1.00  0.00     0.029 A 
ATOM     53  C   UNL     1       9.787   2.317   9.231  1.00  0.00     0.049 A 
ATOM     54  H   UNL     1       8.421   1.035   8.259  1.00  0.00     0.167 HD
ATOM     55  C   UNL     1      10.853   1.830   7.047  1.00  0.00     0.074 A 
ATOM     56  C   UNL     1      11.916   1.966   6.073  1.00  0.00     0.031 C 
ATOM     57  C   UNL     1      10.846   2.437   8.260  1.00  0.00     0.037 A 
BRANCH  44  58
ATOM     58  C   UNL     1       5.798   1.250  11.629  1.00  0.00     0.058 A 
ATOM     59  C   UNL     1       5.642   0.256  12.609  1.00  0.00     0.135 A 
ATOM     60  C   UNL     1       5.226   2.509  11.880  1.00  0.00     0.135 A 
ATOM     61  F   UNL     1       6.158  -0.969  12.417  1.00  0.00    -0.206 F 
ATOM     62  C   UNL     1       4.914   0.487  13.771  1.00  0.00     0.059 A 
ATOM     63  C   UNL     1       4.519   2.771  13.050  1.00  0.00     0.059 A 
ATOM     64  F   UNL     1       5.349   3.498  10.981  1.00  0.00    -0.206 F 
ATOM     65  C   UNL     1       4.351   1.747  13.980  1.00  0.00     0.060 A 
BRANCH  65  66
ATOM     66  S   UNL     1       3.395   2.026  15.486  1.00  0.00     0.124 S 
ATOM     67  O   UNL     1       2.159   1.310  15.181  1.00  0.00    -0.237 OA
ATOM     68  O   UNL     1       4.239   1.422  16.511  1.00  0.00    -0.237 OA
ATOM     69  O   UNL     1       3.279   3.479  15.550  1.00  0.00    -0.744 OA
ENDBRANCH  65  66
ENDBRANCH  44  58
BRANCH  45  70
ATOM     70  C   UNL     1      10.439  -0.483   2.969  1.00  0.00     0.058 A 
ATOM     71  C   UNL     1      11.619  -1.238   2.902  1.00  0.00     0.135 A 
ATOM     72  C   UNL     1       9.916   0.021   1.768  1.00  0.00     0.135 A 
ATOM     73  F   UNL     1      12.163  -1.734   4.024  1.00  0.00    -0.206 F 
ATOM     74  C   UNL     1      12.263  -1.480   1.693  1.00  0.00     0.059 A 
ATOM     75  C   UNL     1      10.528  -0.227   0.544  1.00  0.00     0.059 A 
ATOM     76  F   UNL     1       8.780   0.736   1.777  1.00  0.00    -0.206 F 
ATOM     77  C   UNL     1      11.706  -0.974   0.517  1.00  0.00     0.060 A 
BRANCH  77  78
ATOM     78  S   UNL     1      12.509  -1.351  -1.056  1.00  0.00     0.124 S 
ATOM     79  O   UNL     1      13.675  -0.476  -1.008  1.00  0.00    -0.237 OA
ATOM     80  O   UNL     1      12.777  -2.781  -0.928  1.00  0.00    -0.237 OA
ATOM     81  O   UNL     1      11.493  -0.998  -2.043  1.00  0.00    -0.744 OA
ENDBRANCH  77  78
ENDBRANCH  45  70
BRANCH  57  82
ATOM     82  C   UNL     1      12.042   3.272   8.626  1.00  0.00     0.058 A 
ATOM     83  C   UNL     1      12.267   4.532   8.053  1.00  0.00     0.135 A 
ATOM     84  C   UNL     1      12.946   2.825   9.604  1.00  0.00     0.135 A 
ATOM     85  F   UNL     1      11.437   5.004   7.109  1.00  0.00    -0.206 F 
ATOM     86  C   UNL     1      13.360   5.312   8.420  1.00  0.00     0.059 A 
ATOM     87  C   UNL     1      14.031   3.598  10.004  1.00  0.00     0.059 A 
ATOM     88  F   UNL     1      12.770   1.630  10.191  1.00  0.00    -0.206 F 
ATOM     89  C   UNL     1      14.236   4.836   9.397  1.00  0.00     0.060 A 
BRANCH  89  90
ATOM     90  S   UNL     1      15.632   5.871   9.890  1.00  0.00     0.124 S 
ATOM     91  O   UNL     1      16.533   5.708   8.754  1.00  0.00    -0.237 OA
ATOM     92  O   UNL     1      15.014   7.187  10.026  1.00  0.00    -0.237 OA
ATOM     93  O   UNL     1      16.080   5.264  11.139  1.00  0.00    -0.744 OA
ENDBRANCH  89  90
ENDBRANCH  57  82
ENDBRANCH  31  32
ENDBRANCH  23  26
ENDBRANCH   1  22
TORSDOF 14
