REMARK SMILES Cn1cc(-c2cc(C(F)(F)F)c3c(C4CC4)nn(CC(=O)NCCCNC(=O)c4ccc(-c5c6nc(c(-c7c(F)cc(S(=O)(=O)[O-])cc7F)c7ccc([nH]7)c(-c7c(F)cc(S(=O)(=O)[O-])cc7F)c7nc(c(-c8c(F)cc(S(=O)(=O)[O-])cc8F)c8ccc5[nH]8)C=C7)C=C6)cc4)c3n2)cn1
REMARK SMILES IDX 24 1 23 2 22 3 20 4 21 5 19 7 18 8 5 9 6 10 96 11 7 12 95 13
REMARK SMILES IDX 12 14 13 15 17 16 4 17 1 18 2 19 3 20 98 21 97 22 8 23 9 24
REMARK SMILES IDX 10 25 11 26 14 27 15 28 16 29 25 30 26 31 27 32 28 34 29 35
REMARK SMILES IDX 30 36 94 37 31 38 93 39 32 40 33 41 34 42 87 43 35 44 92 45
REMARK SMILES IDX 86 46 88 47 36 48 91 49 85 50 84 51 37 53 71 54 50 55 70 56
REMARK SMILES IDX 51 57 54 58 69 59 89 60 52 61 53 62 68 64 90 65 55 66 38 67
REMARK SMILES IDX 39 68 48 69 40 70 41 71 47 72 49 73 42 74 43 75 44 76 45 77
REMARK SMILES IDX 46 78 72 79 73 80 82 81 74 82 75 83 81 84 83 85 76 86 77 87
REMARK SMILES IDX 78 88 79 89 80 90 56 91 57 92 66 93 58 94 59 95 65 96 67 97
REMARK SMILES IDX 60 98 61 99 62 100 63 101 64 102
REMARK H PARENT 22 6 26 33 88 52 54 63
REMARK Flexibility Score: inf
ROOT
ATOM      1  C   UNL     1      -2.162  -3.166  -3.587  1.00  0.00     0.042 C 
ENDROOT
BRANCH   1   2
ATOM      2  C   UNL     1      -2.340  -1.666  -3.829  1.00  0.00     0.117 C 
BRANCH   2   3
ATOM      3  N   UNL     1      -3.363  -1.066  -2.990  1.00  0.00    -0.354 N 
ATOM      4  C   UNL     1      -3.186  -0.464  -1.775  1.00  0.00     0.241 C 
ATOM      5  O   UNL     1      -4.136   0.093  -1.224  1.00  0.00    -0.273 OA
ATOM      6  H   UNL     1      -4.285  -1.096  -3.333  1.00  0.00     0.163 HD
BRANCH   4   7
ATOM      7  C   UNL     1      -1.805  -0.413  -1.200  1.00  0.00     0.246 C 
BRANCH   7   8
ATOM      8  N   UNL     1      -1.293  -1.712  -0.813  1.00  0.00    -0.237 N 
ATOM      9  C   UNL     1       2.003  -1.289  -0.288  1.00  0.00     0.077 A 
ATOM     10  C   UNL     1       2.425  -2.556   0.101  1.00  0.00     0.043 A 
ATOM     11  N   UNL     1       1.015  -1.186  -1.204  1.00  0.00    -0.228 NA
ATOM     12  C   UNL     1       1.542  -3.651  -0.079  1.00  0.00     0.071 A 
ATOM     13  C   UNL     1       0.028  -2.034  -0.862  1.00  0.00     0.159 A 
ATOM     14  C   UNL     1       0.201  -3.236  -0.193  1.00  0.00     0.055 A 
ATOM     15  C   UNL     1      -1.082  -3.462   0.380  1.00  0.00     0.076 A 
ATOM     16  N   UNL     1      -2.002  -2.587  -0.066  1.00  0.00    -0.175 NA
BRANCH   9  17
ATOM     17  C   UNL     1       1.763  -0.223   0.719  1.00  0.00     0.038 A 
ATOM     18  C   UNL     1      -1.278   0.883   2.219  1.00  0.00     0.173 C 
ATOM     19  N   UNL     1       0.110   0.766   1.812  1.00  0.00    -0.275 N 
ATOM     20  C   UNL     1       0.812  -0.409   1.721  1.00  0.00     0.118 A 
ATOM     21  N   UNL     1       0.714   1.780   1.165  1.00  0.00    -0.181 NA
ATOM     22  C   UNL     1       1.662   1.167   0.444  1.00  0.00     0.145 A 
ENDBRANCH   9  17
BRANCH  12  23
ATOM     23  C   UNL     1       2.043  -5.031  -0.400  1.00  0.00     0.417 C 
ATOM     24  F   UNL     1       1.655  -6.014   0.444  1.00  0.00    -0.166 F 
ATOM     25  F   UNL     1       1.639  -5.431  -1.641  1.00  0.00    -0.166 F 
ATOM     26  F   UNL     1       3.406  -5.099  -0.431  1.00  0.00    -0.166 F 
ENDBRANCH  12  23
BRANCH  15  27
ATOM     27  C   UNL     1      -1.463  -4.304   1.598  1.00  0.00     0.041 C 
ATOM     28  C   UNL     1      -0.588  -5.322   2.275  1.00  0.00     0.011 C 
ATOM     29  C   UNL     1      -0.764  -3.991   2.916  1.00  0.00     0.011 C 
ENDBRANCH  15  27
ENDBRANCH   7   8
ENDBRANCH   4   7
ENDBRANCH   2   3
ENDBRANCH   1   2
BRANCH   1  30
ATOM     30  C   UNL     1      -3.282  -3.959  -4.214  1.00  0.00     0.118 C 
BRANCH  30  31
ATOM     31  N   UNL     1      -3.273  -3.821  -5.666  1.00  0.00    -0.352 N 
ATOM     32  C   UNL     1      -4.104  -4.419  -6.589  1.00  0.00     0.251 C 
ATOM     33  H   UNL     1      -2.583  -3.224  -6.035  1.00  0.00     0.163 HD
ATOM     34  O   UNL     1      -3.810  -4.442  -7.766  1.00  0.00    -0.269 OA
BRANCH  32  35
ATOM     35  C   UNL     1      -5.347  -5.029  -6.093  1.00  0.00     0.039 A 
ATOM     36  C   UNL     1      -5.770  -6.267  -6.576  1.00  0.00     0.014 A 
ATOM     37  C   UNL     1      -6.060  -4.356  -5.101  1.00  0.00     0.014 A 
ATOM     38  C   UNL     1      -6.900  -6.841  -6.012  1.00  0.00     0.010 A 
ATOM     39  C   UNL     1      -7.056  -5.001  -4.424  1.00  0.00     0.010 A 
ATOM     40  C   UNL     1      -7.527  -6.202  -4.931  1.00  0.00    -0.014 A 
BRANCH  40  41
ATOM     41  C   UNL     1      -8.672  -6.802  -4.274  1.00  0.00     0.031 A 
ATOM     42  C   UNL     1      -8.402  -8.133  -3.691  1.00  0.00     0.074 A 
ATOM     43  C   UNL     1      -9.823  -6.130  -4.065  1.00  0.00     0.049 A 
ATOM     44  N   UNL     1      -8.698  -9.279  -4.205  1.00  0.00    -0.248 NA
ATOM     45  C   UNL     1      -7.554  -8.219  -2.491  1.00  0.00     0.031 C 
ATOM     46  C   UNL     1     -10.091  -4.701  -4.287  1.00  0.00     0.029 A 
ATOM     47  N   UNL     1     -10.989  -6.574  -3.525  1.00  0.00    -0.354 N 
ATOM     48  C   UNL     1      -8.338 -10.213  -3.243  1.00  0.00     0.074 A 
ATOM     49  C   UNL     1      -7.434  -9.543  -2.345  1.00  0.00     0.031 C 
ATOM     50  C   UNL     1     -11.249  -4.356  -3.683  1.00  0.00     0.029 A 
ATOM     51  C   UNL     1     -11.895  -5.567  -3.218  1.00  0.00     0.049 A 
ATOM     52  H   UNL     1     -11.175  -7.528  -3.364  1.00  0.00     0.167 HD
ATOM     53  C   UNL     1      -9.070 -11.350  -3.080  1.00  0.00     0.037 A 
ATOM     54  C   UNL     1     -13.114  -5.723  -2.652  1.00  0.00     0.037 A 
ATOM     55  C   UNL     1     -10.042 -11.492  -4.134  1.00  0.00     0.049 A 
ATOM     56  C   UNL     1     -13.553  -7.106  -2.959  1.00  0.00     0.074 A 
ATOM     57  C   UNL     1     -10.050 -11.925  -5.441  1.00  0.00     0.029 A 
ATOM     58  N   UNL     1     -11.172 -10.737  -3.947  1.00  0.00    -0.354 N 
ATOM     59  N   UNL     1     -13.778  -7.535  -4.173  1.00  0.00    -0.248 NA
ATOM     60  C   UNL     1     -13.403  -8.147  -1.947  1.00  0.00     0.031 C 
ATOM     61  C   UNL     1     -11.160 -11.286  -6.072  1.00  0.00     0.029 A 
ATOM     62  C   UNL     1     -11.828 -10.509  -5.130  1.00  0.00     0.049 A 
ATOM     63  H   UNL     1     -11.475 -10.401  -3.073  1.00  0.00     0.167 HD
ATOM     64  C   UNL     1     -13.380  -8.856  -4.147  1.00  0.00     0.074 A 
ATOM     65  C   UNL     1     -13.329  -9.221  -2.738  1.00  0.00     0.031 C 
ATOM     66  C   UNL     1     -12.808  -9.448  -5.234  1.00  0.00     0.037 A 
BRANCH  53  67
ATOM     67  C   UNL     1      -9.241 -12.081  -1.773  1.00  0.00     0.058 A 
ATOM     68  C   UNL     1      -9.731 -13.401  -1.771  1.00  0.00     0.135 A 
ATOM     69  C   UNL     1      -9.186 -11.445  -0.513  1.00  0.00     0.135 A 
ATOM     70  F   UNL     1      -9.862 -14.081  -2.922  1.00  0.00    -0.206 F 
ATOM     71  C   UNL     1     -10.147 -14.040  -0.601  1.00  0.00     0.059 A 
ATOM     72  C   UNL     1      -9.542 -12.081   0.671  1.00  0.00     0.059 A 
ATOM     73  F   UNL     1      -8.875 -10.149  -0.388  1.00  0.00    -0.206 F 
ATOM     74  C   UNL     1     -10.046 -13.370   0.616  1.00  0.00     0.060 A 
BRANCH  74  75
ATOM     75  S   UNL     1     -10.612 -14.181   2.122  1.00  0.00     0.124 S 
ATOM     76  O   UNL     1     -12.052 -14.242   1.902  1.00  0.00    -0.237 OA
ATOM     77  O   UNL     1      -9.902 -15.455   2.064  1.00  0.00    -0.237 OA
ATOM     78  O   UNL     1     -10.171 -13.275   3.178  1.00  0.00    -0.744 OA
ENDBRANCH  74  75
ENDBRANCH  53  67
BRANCH  54  79
ATOM     79  C   UNL     1     -13.741  -4.902  -1.588  1.00  0.00     0.058 A 
ATOM     80  C   UNL     1     -15.090  -5.100  -1.246  1.00  0.00     0.135 A 
ATOM     81  C   UNL     1     -12.961  -4.166  -0.674  1.00  0.00     0.135 A 
ATOM     82  F   UNL     1     -15.900  -5.785  -2.067  1.00  0.00    -0.206 F 
ATOM     83  C   UNL     1     -15.613  -4.684  -0.020  1.00  0.00     0.059 A 
ATOM     84  C   UNL     1     -13.464  -3.735   0.553  1.00  0.00     0.059 A 
ATOM     85  F   UNL     1     -11.660  -3.937  -0.905  1.00  0.00    -0.206 F 
ATOM     86  C   UNL     1     -14.780  -4.035   0.889  1.00  0.00     0.060 A 
BRANCH  86  87
ATOM     87  S   UNL     1     -15.392  -3.715   2.561  1.00  0.00     0.124 S 
ATOM     88  O   UNL     1     -16.422  -2.711   2.317  1.00  0.00    -0.237 OA
ATOM     89  O   UNL     1     -15.870  -5.033   2.966  1.00  0.00    -0.237 OA
ATOM     90  O   UNL     1     -14.208  -3.238   3.270  1.00  0.00    -0.744 OA
ENDBRANCH  86  87
ENDBRANCH  54  79
BRANCH  66  91
ATOM     91  C   UNL     1     -13.129  -8.890  -6.588  1.00  0.00     0.058 A 
ATOM     92  C   UNL     1     -12.680  -7.656  -7.088  1.00  0.00     0.135 A 
ATOM     93  C   UNL     1     -13.879  -9.699  -7.454  1.00  0.00     0.135 A 
ATOM     94  F   UNL     1     -11.906  -6.852  -6.345  1.00  0.00    -0.206 F 
ATOM     95  C   UNL     1     -12.984  -7.240  -8.388  1.00  0.00     0.059 A 
ATOM     96  C   UNL     1     -14.171  -9.318  -8.758  1.00  0.00     0.059 A 
ATOM     97  F   UNL     1     -14.307 -10.905  -7.043  1.00  0.00    -0.206 F 
ATOM     98  C   UNL     1     -13.728  -8.081  -9.217  1.00  0.00     0.060 A 
BRANCH  98  99
ATOM     99  S   UNL     1     -14.070  -7.575 -10.917  1.00  0.00     0.124 S 
ATOM    100  O   UNL     1     -14.970  -6.442 -10.727  1.00  0.00    -0.237 OA
ATOM    101  O   UNL     1     -12.739  -7.251 -11.423  1.00  0.00    -0.237 OA
ATOM    102  O   UNL     1     -14.681  -8.761 -11.511  1.00  0.00    -0.744 OA
ENDBRANCH  98  99
ENDBRANCH  66  91
ENDBRANCH  40  41
ENDBRANCH  32  35
ENDBRANCH  30  31
ENDBRANCH   1  30
TORSDOF 17
