REMARK SMILES CCCS[C@@H]1CC[C@@]([NH2+]CC)(C(=O)NCCCNC(=O)c2ccc(-c3c4nc(c(-c5c(F)cc(S(=O)(=O)[O-])cc5F)c5ccc([nH]5)c(-c5c(F)cc(S(=O)(=O)[O-])cc5F)c5nc(c(-c6c(F)cc(S(=O)(=O)[O-])cc6F)c6ccc3[nH]6)C=C5)C=C4)cc2)C1
REMARK SMILES IDX 16 1 15 2 14 3 12 4 13 5 8 7 5 8 6 9 87 10 7 11 4 12 3 13
REMARK SMILES IDX 2 14 1 15 9 16 10 19 11 20 17 21 18 22 19 23 20 25 21 26
REMARK SMILES IDX 22 27 86 28 23 29 85 30 24 31 25 32 26 33 79 34 27 35 84 36
REMARK SMILES IDX 78 37 80 38 28 39 83 40 77 41 76 42 29 44 63 45 42 46 62 47
REMARK SMILES IDX 43 48 46 49 61 50 81 51 44 52 45 53 60 55 82 56 47 57 30 58
REMARK SMILES IDX 31 59 40 60 32 61 33 62 39 63 41 64 34 65 35 66 36 67 37 68
REMARK SMILES IDX 38 69 64 70 65 71 74 72 66 73 67 74 73 75 75 76 68 77 69 78
REMARK SMILES IDX 70 79 71 80 72 81 48 82 49 83 58 84 50 85 51 86 57 87 59 88
REMARK SMILES IDX 52 89 53 90 54 91 55 92 56 93
REMARK H PARENT 14 6 9 17 9 18 18 24 80 43 46 54
REMARK Flexibility Score: inf
ROOT
ATOM      1  C   UNL     1       2.267   4.902   3.787  1.00  0.00     0.042 C 
ENDROOT
BRANCH   1   2
ATOM      2  C   UNL     1       3.238   3.962   3.086  1.00  0.00     0.118 C 
BRANCH   2   3
ATOM      3  N   UNL     1       3.524   2.776   3.882  1.00  0.00    -0.351 N 
ATOM      4  C   UNL     1       3.241   1.461   3.626  1.00  0.00     0.281 C 
ATOM      5  O   UNL     1       3.582   0.628   4.469  1.00  0.00    -0.268 OA
ATOM      6  H   UNL     1       3.991   2.946   4.732  1.00  0.00     0.163 HD
BRANCH   4   7
ATOM      7  C   UNL     1       2.523   1.058   2.305  1.00  0.00     0.176 C 
ATOM      8  C   UNL     1       0.926  -0.770   2.672  1.00  0.00     0.053 C 
ATOM      9  C   UNL     1       0.095   0.478   2.428  1.00  0.00     0.022 C 
ATOM     10  C   UNL     1       2.326  -0.463   2.174  1.00  0.00     0.093 C 
ATOM     11  C   UNL     1       1.084   1.636   2.327  1.00  0.00     0.080 C 
BRANCH   8  12
ATOM     12  S   UNL     1       0.109  -2.268   1.988  1.00  0.00    -0.158 SA
BRANCH  12  13
ATOM     13  C   UNL     1       0.784  -2.473   0.292  1.00  0.00     0.069 C 
BRANCH  13  14
ATOM     14  C   UNL     1       0.186  -1.595  -0.812  1.00  0.00     0.007 C 
ATOM     15  C   UNL     1       0.878  -0.263  -1.048  1.00  0.00     0.005 C 
ENDBRANCH  13  14
ENDBRANCH  12  13
ENDBRANCH   8  12
BRANCH   7  16
ATOM     16  N   UNL     1       3.277   1.582   1.131  1.00  0.00    -0.334 N 
ATOM     17  H   UNL     1       3.205   2.600   1.151  1.00  0.00     0.347 HD
ATOM     18  H   UNL     1       2.848   1.132   0.323  1.00  0.00     0.347 HD
BRANCH  16  19
ATOM     19  C   UNL     1       4.698   1.244   1.039  1.00  0.00     0.257 C 
ATOM     20  C   UNL     1       5.005  -0.148   0.505  1.00  0.00     0.071 C 
ENDBRANCH  16  19
ENDBRANCH   7  16
ENDBRANCH   4   7
ENDBRANCH   2   3
ENDBRANCH   1   2
BRANCH   1  21
ATOM     21  C   UNL     1       2.782   5.444   5.111  1.00  0.00     0.118 C 
BRANCH  21  22
ATOM     22  N   UNL     1       3.976   6.262   4.954  1.00  0.00    -0.352 N 
ATOM     23  C   UNL     1       4.205   7.557   5.340  1.00  0.00     0.251 C 
ATOM     24  H   UNL     1       4.730   5.819   4.502  1.00  0.00     0.163 HD
ATOM     25  O   UNL     1       5.217   8.135   4.946  1.00  0.00    -0.269 OA
BRANCH  23  26
ATOM     26  C   UNL     1       3.233   8.264   6.202  1.00  0.00     0.039 A 
ATOM     27  C   UNL     1       2.935   9.599   5.923  1.00  0.00     0.014 A 
ATOM     28  C   UNL     1       2.620   7.621   7.282  1.00  0.00     0.014 A 
ATOM     29  C   UNL     1       1.977  10.267   6.689  1.00  0.00     0.010 A 
ATOM     30  C   UNL     1       1.601   8.259   7.984  1.00  0.00     0.010 A 
ATOM     31  C   UNL     1       1.273   9.592   7.700  1.00  0.00    -0.014 A 
BRANCH  31  32
ATOM     32  C   UNL     1       0.188  10.269   8.455  1.00  0.00     0.031 A 
ATOM     33  C   UNL     1       0.303  10.475   9.942  1.00  0.00     0.074 A 
ATOM     34  C   UNL     1      -0.925  10.663   7.803  1.00  0.00     0.049 A 
ATOM     35  N   UNL     1      -0.546  11.036  10.765  1.00  0.00    -0.248 NA
ATOM     36  C   UNL     1       1.518   9.961  10.595  1.00  0.00     0.031 C 
ATOM     37  C   UNL     1      -1.180  10.465   6.373  1.00  0.00     0.029 A 
ATOM     38  N   UNL     1      -2.049  11.309   8.252  1.00  0.00    -0.354 N 
ATOM     39  C   UNL     1       0.026  10.938  12.028  1.00  0.00     0.074 A 
ATOM     40  C   UNL     1       1.266  10.209  11.873  1.00  0.00     0.031 C 
ATOM     41  C   UNL     1      -2.365  11.010   6.058  1.00  0.00     0.029 A 
ATOM     42  C   UNL     1      -2.973  11.559   7.265  1.00  0.00     0.049 A 
ATOM     43  H   UNL     1      -2.181  11.569   9.192  1.00  0.00     0.167 HD
ATOM     44  C   UNL     1      -0.426  11.433  13.205  1.00  0.00     0.037 A 
ATOM     45  C   UNL     1      -4.178  12.160   7.325  1.00  0.00     0.037 A 
ATOM     46  C   UNL     1      -1.655  12.171  13.349  1.00  0.00     0.049 A 
ATOM     47  C   UNL     1      -4.660  12.699   8.644  1.00  0.00     0.074 A 
ATOM     48  C   UNL     1      -2.174  12.765  14.486  1.00  0.00     0.029 A 
ATOM     49  N   UNL     1      -2.562  12.409  12.326  1.00  0.00    -0.354 N 
ATOM     50  N   UNL     1      -4.069  12.665   9.815  1.00  0.00    -0.248 NA
ATOM     51  C   UNL     1      -5.968  13.366   8.649  1.00  0.00     0.031 C 
ATOM     52  C   UNL     1      -3.420  13.314  14.164  1.00  0.00     0.029 A 
ATOM     53  C   UNL     1      -3.651  13.117  12.812  1.00  0.00     0.049 A 
ATOM     54  H   UNL     1      -2.450  12.118  11.392  1.00  0.00     0.167 HD
ATOM     55  C   UNL     1      -4.923  13.325  10.691  1.00  0.00     0.074 A 
ATOM     56  C   UNL     1      -6.059  13.767   9.909  1.00  0.00     0.031 C 
ATOM     57  C   UNL     1      -4.780  13.545  12.023  1.00  0.00     0.037 A 
BRANCH  44  58
ATOM     58  C   UNL     1       0.414  11.195  14.433  1.00  0.00     0.058 A 
ATOM     59  C   UNL     1       1.663  11.816  14.606  1.00  0.00     0.135 A 
ATOM     60  C   UNL     1      -0.050  10.366  15.467  1.00  0.00     0.135 A 
ATOM     61  F   UNL     1       2.164  12.607  13.644  1.00  0.00    -0.206 F 
ATOM     62  C   UNL     1       2.433  11.598  15.744  1.00  0.00     0.059 A 
ATOM     63  C   UNL     1       0.690  10.160  16.628  1.00  0.00     0.059 A 
ATOM     64  F   UNL     1      -1.236   9.747  15.357  1.00  0.00    -0.206 F 
ATOM     65  C   UNL     1       1.937  10.769  16.751  1.00  0.00     0.060 A 
BRANCH  65  66
ATOM     66  S   UNL     1       2.948  10.505  18.223  1.00  0.00     0.124 S 
ATOM     67  O   UNL     1       4.019   9.665  17.694  1.00  0.00    -0.237 OA
ATOM     68  O   UNL     1       3.330  11.865  18.586  1.00  0.00    -0.237 OA
ATOM     69  O   UNL     1       2.034   9.844  19.150  1.00  0.00    -0.744 OA
ENDBRANCH  65  66
ENDBRANCH  44  58
BRANCH  45  70
ATOM     70  C   UNL     1      -4.998  12.304   6.092  1.00  0.00     0.058 A 
ATOM     71  C   UNL     1      -5.214  13.562   5.509  1.00  0.00     0.135 A 
ATOM     72  C   UNL     1      -5.569  11.187   5.463  1.00  0.00     0.135 A 
ATOM     73  F   UNL     1      -4.695  14.662   6.075  1.00  0.00    -0.206 F 
ATOM     74  C   UNL     1      -5.981  13.710   4.357  1.00  0.00     0.059 A 
ATOM     75  C   UNL     1      -6.315  11.306   4.295  1.00  0.00     0.059 A 
ATOM     76  F   UNL     1      -5.378   9.959   5.970  1.00  0.00    -0.206 F 
ATOM     77  C   UNL     1      -6.524  12.574   3.755  1.00  0.00     0.060 A 
BRANCH  77  78
ATOM     78  S   UNL     1      -7.473  12.772   2.232  1.00  0.00     0.124 S 
ATOM     79  O   UNL     1      -8.697  13.393   2.726  1.00  0.00    -0.237 OA
ATOM     80  O   UNL     1      -6.599  13.628   1.436  1.00  0.00    -0.237 OA
ATOM     81  O   UNL     1      -7.612  11.404   1.742  1.00  0.00    -0.744 OA
ENDBRANCH  77  78
ENDBRANCH  45  70
BRANCH  57  82
ATOM     82  C   UNL     1      -5.871  14.319  12.713  1.00  0.00     0.058 A 
ATOM     83  C   UNL     1      -7.149  13.775  12.919  1.00  0.00     0.135 A 
ATOM     84  C   UNL     1      -5.627  15.615  13.197  1.00  0.00     0.135 A 
ATOM     85  F   UNL     1      -7.438  12.542  12.473  1.00  0.00    -0.206 F 
ATOM     86  C   UNL     1      -8.157  14.501  13.545  1.00  0.00     0.059 A 
ATOM     87  C   UNL     1      -6.610  16.347  13.856  1.00  0.00     0.059 A 
ATOM     88  F   UNL     1      -4.420  16.181  13.039  1.00  0.00    -0.206 F 
ATOM     89  C   UNL     1      -7.878  15.788  14.009  1.00  0.00     0.060 A 
BRANCH  89  90
ATOM     90  S   UNL     1      -9.192  16.716  14.826  1.00  0.00     0.124 S 
ATOM     91  O   UNL     1     -10.052  17.063  13.699  1.00  0.00    -0.237 OA
ATOM     92  O   UNL     1      -9.735  15.733  15.759  1.00  0.00    -0.237 OA
ATOM     93  O   UNL     1      -8.486  17.834  15.444  1.00  0.00    -0.744 OA
ENDBRANCH  89  90
ENDBRANCH  57  82
ENDBRANCH  31  32
ENDBRANCH  23  26
ENDBRANCH  21  22
ENDBRANCH   1  21
TORSDOF 18
