REMARK SMILES CC[C@@](C)([NH3+])C(=O)N1CC[NH+]([C@H](C)C(=O)NCCCNC(=O)c2ccc(-c3c4nc(c(-c5c(F)cc(S(=O)(=O)[O-])cc5F)c5ccc([nH]5)c(-c5c(F)cc(S(=O)(=O)[O-])cc5F)c5nc(c(-c6c(F)cc(S(=O)(=O)[O-])cc6F)c6ccc3[nH]6)C=C5)C=C4)cc2)CC1
REMARK SMILES IDX 18 1 17 2 16 3 14 4 15 5 12 7 13 8 11 9 6 10 7 11 8 12 9 13
REMARK SMILES IDX 90 14 10 15 89 16 3 18 4 19 2 20 1 21 5 22 19 26 20 27 21 28
REMARK SMILES IDX 22 30 23 31 24 32 88 33 25 34 87 35 26 36 27 37 28 38 81 39
REMARK SMILES IDX 29 40 86 41 80 42 82 43 30 44 85 45 79 46 78 47 31 49 65 50
REMARK SMILES IDX 44 51 64 52 45 53 48 54 63 55 83 56 46 57 47 58 62 60 84 61
REMARK SMILES IDX 49 62 32 63 33 64 42 65 34 66 35 67 41 68 43 69 36 70 37 71
REMARK SMILES IDX 38 72 39 73 40 74 66 75 67 76 76 77 68 78 69 79 75 80 77 81
REMARK SMILES IDX 70 82 71 83 72 84 73 85 74 86 50 87 51 88 60 89 52 90 53 91
REMARK SMILES IDX 59 92 61 93 54 94 55 95 56 96 57 97 58 98
REMARK H PARENT 16 6 11 17 5 23 5 24 5 25 20 29 82 48 48 59
REMARK Flexibility Score: inf
ROOT
ATOM      1  C   UNL     1       5.642  -5.060  -0.069  1.00  0.00     0.042 C 
ENDROOT
BRANCH   1   2
ATOM      2  C   UNL     1       5.957  -4.386  -1.381  1.00  0.00     0.118 C 
BRANCH   2   3
ATOM      3  N   UNL     1       6.511  -5.262  -2.393  1.00  0.00    -0.351 N 
ATOM      4  C   UNL     1       6.279  -5.302  -3.741  1.00  0.00     0.278 C 
ATOM      5  O   UNL     1       7.049  -5.992  -4.418  1.00  0.00    -0.268 OA
ATOM      6  H   UNL     1       7.153  -5.931  -2.061  1.00  0.00     0.163 HD
BRANCH   4   7
ATOM      7  C   UNL     1       5.085  -4.569  -4.401  1.00  0.00     0.271 C 
ATOM      8  C   UNL     1       3.747  -5.032  -3.795  1.00  0.00     0.086 C 
BRANCH   7   9
ATOM      9  N   UNL     1       5.332  -3.120  -4.679  1.00  0.00    -0.322 N 
ATOM     10  C   UNL     1       4.151   0.591  -3.469  1.00  0.00     0.283 C 
ATOM     11  O   UNL     1       4.841   1.326  -2.749  1.00  0.00    -0.268 OA
ATOM     12  N   UNL     1       4.796  -0.290  -4.323  1.00  0.00    -0.326 N 
ATOM     13  C   UNL     1       6.091  -0.815  -3.911  1.00  0.00     0.181 C 
ATOM     14  C   UNL     1       4.326  -0.944  -5.539  1.00  0.00     0.181 C 
ATOM     15  C   UNL     1       5.896  -2.308  -3.588  1.00  0.00     0.284 C 
ATOM     16  C   UNL     1       4.176  -2.466  -5.332  1.00  0.00     0.284 C 
ATOM     17  H   UNL     1       6.103  -3.154  -5.346  1.00  0.00     0.348 HD
BRANCH  10  18
ATOM     18  C   UNL     1       2.590   0.525  -3.234  1.00  0.00     0.171 C 
ATOM     19  C   UNL     1       2.234  -0.785  -2.513  1.00  0.00     0.090 C 
BRANCH  18  20
ATOM     20  C   UNL     1       2.119   1.747  -2.385  1.00  0.00     0.075 C 
ATOM     21  C   UNL     1       2.482   1.723  -0.899  1.00  0.00     0.011 C 
ENDBRANCH  18  20
BRANCH  18  22
ATOM     22  N   UNL     1       1.842   0.591  -4.516  1.00  0.00    -0.345 N 
ATOM     23  H   UNL     1       0.840   0.546  -4.328  1.00  0.00     0.345 HD
ATOM     24  H   UNL     1       2.112  -0.194  -5.108  1.00  0.00     0.345 HD
ATOM     25  H   UNL     1       2.059   1.467  -4.992  1.00  0.00     0.345 HD
ENDBRANCH  18  22
ENDBRANCH  10  18
ENDBRANCH   7   9
ENDBRANCH   4   7
ENDBRANCH   2   3
ENDBRANCH   1   2
BRANCH   1  26
ATOM     26  C   UNL     1       6.879  -5.517   0.675  1.00  0.00     0.118 C 
BRANCH  26  27
ATOM     27  N   UNL     1       7.776  -4.421   1.029  1.00  0.00    -0.352 N 
ATOM     28  C   UNL     1       8.098  -3.878   2.253  1.00  0.00     0.251 C 
ATOM     29  H   UNL     1       8.228  -3.998   0.263  1.00  0.00     0.163 HD
ATOM     30  O   UNL     1       8.745  -2.841   2.304  1.00  0.00    -0.269 OA
BRANCH  28  31
ATOM     31  C   UNL     1       7.641  -4.537   3.496  1.00  0.00     0.039 A 
ATOM     32  C   UNL     1       7.250  -3.758   4.588  1.00  0.00     0.014 A 
ATOM     33  C   UNL     1       7.593  -5.927   3.584  1.00  0.00     0.014 A 
ATOM     34  C   UNL     1       6.751  -4.383   5.734  1.00  0.00     0.010 A 
ATOM     35  C   UNL     1       6.945  -6.532   4.646  1.00  0.00     0.010 A 
ATOM     36  C   UNL     1       6.560  -5.775   5.757  1.00  0.00    -0.014 A 
BRANCH  36  37
ATOM     37  C   UNL     1       6.035  -6.476   6.955  1.00  0.00     0.031 A 
ATOM     38  C   UNL     1       6.865  -7.554   7.609  1.00  0.00     0.074 A 
ATOM     39  C   UNL     1       4.801  -6.191   7.414  1.00  0.00     0.049 A 
ATOM     40  N   UNL     1       6.569  -8.325   8.623  1.00  0.00    -0.248 NA
ATOM     41  C   UNL     1       8.186  -7.836   7.018  1.00  0.00     0.031 C 
ATOM     42  C   UNL     1       3.874  -5.224   6.819  1.00  0.00     0.029 A 
ATOM     43  N   UNL     1       4.111  -6.688   8.490  1.00  0.00    -0.354 N 
ATOM     44  C   UNL     1       7.649  -9.190   8.768  1.00  0.00     0.074 A 
ATOM     45  C   UNL     1       8.566  -8.911   7.689  1.00  0.00     0.031 C 
ATOM     46  C   UNL     1       2.758  -5.167   7.564  1.00  0.00     0.029 A 
ATOM     47  C   UNL     1       2.873  -6.117   8.665  1.00  0.00     0.049 A 
ATOM     48  H   UNL     1       4.470  -7.389   9.082  1.00  0.00     0.167 HD
ATOM     49  C   UNL     1       7.881 -10.104   9.739  1.00  0.00     0.037 A 
ATOM     50  C   UNL     1       1.942  -6.331   9.614  1.00  0.00     0.037 A 
ATOM     51  C   UNL     1       6.985 -10.338  10.839  1.00  0.00     0.049 A 
ATOM     52  C   UNL     1       2.238  -7.323  10.707  1.00  0.00     0.074 A 
ATOM     53  C   UNL     1       7.147 -11.191  11.915  1.00  0.00     0.029 A 
ATOM     54  N   UNL     1       5.761  -9.706  11.006  1.00  0.00    -0.354 N 
ATOM     55  N   UNL     1       3.296  -8.084  10.868  1.00  0.00    -0.248 NA
ATOM     56  C   UNL     1       1.224  -7.471  11.758  1.00  0.00     0.031 C 
ATOM     57  C   UNL     1       5.999 -11.108  12.711  1.00  0.00     0.029 A 
ATOM     58  C   UNL     1       5.150 -10.160  12.162  1.00  0.00     0.049 A 
ATOM     59  H   UNL     1       5.384  -9.034  10.394  1.00  0.00     0.167 HD
ATOM     60  C   UNL     1       3.089  -8.776  12.056  1.00  0.00     0.074 A 
ATOM     61  C   UNL     1       1.812  -8.330  12.578  1.00  0.00     0.031 C 
ATOM     62  C   UNL     1       3.881  -9.696  12.664  1.00  0.00     0.037 A 
BRANCH  49  63
ATOM     63  C   UNL     1       9.158 -10.898   9.659  1.00  0.00     0.058 A 
ATOM     64  C   UNL     1      10.416 -10.297   9.838  1.00  0.00     0.135 A 
ATOM     65  C   UNL     1       9.126 -12.280   9.418  1.00  0.00     0.135 A 
ATOM     66  F   UNL     1      10.511  -8.975  10.051  1.00  0.00    -0.206 F 
ATOM     67  C   UNL     1      11.595 -11.030   9.745  1.00  0.00     0.059 A 
ATOM     68  C   UNL     1      10.291 -13.040   9.355  1.00  0.00     0.059 A 
ATOM     69  F   UNL     1       7.953 -12.908   9.234  1.00  0.00    -0.206 F 
ATOM     70  C   UNL     1      11.521 -12.402   9.504  1.00  0.00     0.060 A 
BRANCH  70  71
ATOM     71  S   UNL     1      13.060 -13.340   9.397  1.00  0.00     0.124 S 
ATOM     72  O   UNL     1      13.585 -12.892   8.111  1.00  0.00    -0.237 OA
ATOM     73  O   UNL     1      13.788 -12.878  10.574  1.00  0.00    -0.237 OA
ATOM     74  O   UNL     1      12.615 -14.729   9.444  1.00  0.00    -0.744 OA
ENDBRANCH  70  71
ENDBRANCH  49  63
BRANCH  50  75
ATOM     75  C   UNL     1       0.669  -5.560   9.599  1.00  0.00     0.058 A 
ATOM     76  C   UNL     1       0.402  -4.586  10.573  1.00  0.00     0.135 A 
ATOM     77  C   UNL     1      -0.300  -5.771   8.606  1.00  0.00     0.135 A 
ATOM     78  F   UNL     1       1.296  -4.347  11.545  1.00  0.00    -0.206 F 
ATOM     79  C   UNL     1      -0.789  -3.867  10.581  1.00  0.00     0.059 A 
ATOM     80  C   UNL     1      -1.486  -5.044   8.575  1.00  0.00     0.059 A 
ATOM     81  F   UNL     1      -0.085  -6.674   7.637  1.00  0.00    -0.206 F 
ATOM     82  C   UNL     1      -1.727  -4.103   9.575  1.00  0.00     0.060 A 
BRANCH  82  83
ATOM     83  S   UNL     1      -3.252  -3.135   9.569  1.00  0.00     0.124 S 
ATOM     84  O   UNL     1      -3.970  -3.709  10.701  1.00  0.00    -0.237 OA
ATOM     85  O   UNL     1      -2.753  -1.776   9.750  1.00  0.00    -0.237 OA
ATOM     86  O   UNL     1      -3.821  -3.414   8.253  1.00  0.00    -0.744 OA
ENDBRANCH  82  83
ENDBRANCH  50  75
BRANCH  62  87
ATOM     87  C   UNL     1       3.410 -10.241  13.984  1.00  0.00     0.058 A 
ATOM     88  C   UNL     1       2.305 -11.101  14.081  1.00  0.00     0.135 A 
ATOM     89  C   UNL     1       4.090  -9.910  15.167  1.00  0.00     0.135 A 
ATOM     90  F   UNL     1       1.620 -11.449  12.980  1.00  0.00    -0.206 F 
ATOM     91  C   UNL     1       1.861 -11.575  15.311  1.00  0.00     0.059 A 
ATOM     92  C   UNL     1       3.686 -10.400  16.403  1.00  0.00     0.059 A 
ATOM     93  F   UNL     1       5.165  -9.106  15.128  1.00  0.00    -0.206 F 
ATOM     94  C   UNL     1       2.555 -11.214  16.467  1.00  0.00     0.060 A 
BRANCH  94  95
ATOM     95  S   UNL     1       1.965 -11.827  18.058  1.00  0.00     0.124 S 
ATOM     96  O   UNL     1       0.780 -11.002  18.267  1.00  0.00    -0.237 OA
ATOM     97  O   UNL     1       1.715 -13.237  17.777  1.00  0.00    -0.237 OA
ATOM     98  O   UNL     1       3.082 -11.562  18.960  1.00  0.00    -0.744 OA
ENDBRANCH  94  95
ENDBRANCH  62  87
ENDBRANCH  36  37
ENDBRANCH  28  31
ENDBRANCH  26  27
ENDBRANCH   1  26
TORSDOF 17
