REMARK SMILES COCC[C@]1(C(=O)NCCCNC(=O)c2ccc(-c3c4nc(c(-c5c(F)cc(S(=O)(=O)[O-])cc5F)c5ccc([nH]5)c(-c5c(F)cc(S(=O)(=O)[O-])cc5F)c5nc(c(-c6c(F)cc(S(=O)(=O)[O-])cc6F)c6ccc3[nH]6)C=C5)C=C4)cc2)CCC[N@@H+](Cc2ccc(C(F)(F)F)nc2)C1
REMARK SMILES IDX 10 1 9 2 8 3 6 4 7 5 5 7 81 8 96 9 82 10 84 11 83 12 4 14
REMARK SMILES IDX 3 15 2 16 1 17 85 18 86 19 87 20 95 21 88 22 94 23 89 24
REMARK SMILES IDX 90 25 91 26 92 27 93 28 11 29 12 30 13 31 14 33 15 34 16 35
REMARK SMILES IDX 80 36 17 37 79 38 18 39 19 40 20 41 73 42 21 43 78 44 72 45
REMARK SMILES IDX 74 46 22 47 77 48 71 49 70 50 23 52 57 53 36 54 56 55 37 56
REMARK SMILES IDX 40 57 55 58 75 59 38 60 39 61 54 63 76 64 41 65 24 66 25 67
REMARK SMILES IDX 34 68 26 69 27 70 33 71 35 72 28 73 29 74 30 75 31 76 32 77
REMARK SMILES IDX 58 78 59 79 68 80 60 81 61 82 67 83 69 84 62 85 63 86 64 87
REMARK SMILES IDX 65 88 66 89 42 90 43 91 52 92 44 93 45 94 51 95 53 96 46 97
REMARK SMILES IDX 47 98 48 99 49 100 50 101
REMARK H PARENT 8 6 84 13 12 32 74 51 40 62
REMARK Flexibility Score: inf
ROOT
ATOM      1  C   UNL     1       1.926  -4.241   2.958  1.00  0.00     0.042 C 
ENDROOT
BRANCH   1   2
ATOM      2  C   UNL     1       2.543  -2.964   2.384  1.00  0.00     0.117 C 
BRANCH   2   3
ATOM      3  N   UNL     1       1.670  -2.261   1.460  1.00  0.00    -0.355 N 
ATOM      4  C   UNL     1       0.737  -1.286   1.562  1.00  0.00     0.232 C 
ATOM      5  O   UNL     1      -0.033  -1.261   0.594  1.00  0.00    -0.274 OA
ATOM      6  H   UNL     1       1.785  -2.571   0.532  1.00  0.00     0.163 HD
BRANCH   4   7
ATOM      7  C   UNL     1       0.523  -0.357   2.782  1.00  0.00     0.100 C 
ATOM      8  C   UNL     1      -0.186  -1.247   3.852  1.00  0.00     0.029 C 
ATOM      9  C   UNL     1       1.799   0.295   3.373  1.00  0.00     0.279 C 
ATOM     10  C   UNL     1      -0.106  -0.784   5.311  1.00  0.00     0.063 C 
ATOM     11  N   UNL     1       1.439   0.908   4.655  1.00  0.00    -0.330 N 
ATOM     12  C   UNL     1       1.211  -0.107   5.670  1.00  0.00     0.262 C 
ATOM     13  H   UNL     1       0.547   1.361   4.457  1.00  0.00     0.348 HD
BRANCH   7  14
ATOM     14  C   UNL     1      -0.462   0.808   2.363  1.00  0.00     0.051 C 
BRANCH  14  15
ATOM     15  C   UNL     1       0.062   1.877   1.374  1.00  0.00     0.161 C 
BRANCH  15  16
ATOM     16  O   UNL     1       0.018   1.444   0.020  1.00  0.00    -0.385 OA
ATOM     17  C   UNL     1       1.285   1.167  -0.556  1.00  0.00     0.194 C 
ENDBRANCH  15  16
ENDBRANCH  14  15
ENDBRANCH   7  14
BRANCH  11  18
ATOM     18  C   UNL     1       2.090   2.130   5.084  1.00  0.00     0.300 C 
BRANCH  18  19
ATOM     19  C   UNL     1       3.581   2.090   5.215  1.00  0.00     0.025 A 
ATOM     20  C   UNL     1       4.401   2.464   4.149  1.00  0.00     0.013 A 
ATOM     21  C   UNL     1       4.199   1.718   6.400  1.00  0.00     0.121 A 
ATOM     22  C   UNL     1       5.783   2.433   4.295  1.00  0.00     0.034 A 
ATOM     23  N   UNL     1       5.540   1.682   6.572  1.00  0.00    -0.251 NA
ATOM     24  C   UNL     1       6.328   2.022   5.511  1.00  0.00     0.144 A 
BRANCH  24  25
ATOM     25  C   UNL     1       7.842   1.964   5.667  1.00  0.00     0.433 C 
ATOM     26  F   UNL     1       8.341   2.995   6.408  1.00  0.00    -0.165 F 
ATOM     27  F   UNL     1       8.287   0.820   6.258  1.00  0.00    -0.165 F 
ATOM     28  F   UNL     1       8.502   2.031   4.470  1.00  0.00    -0.165 F 
ENDBRANCH  24  25
ENDBRANCH  18  19
ENDBRANCH  11  18
ENDBRANCH   4   7
ENDBRANCH   2   3
ENDBRANCH   1   2
BRANCH   1  29
ATOM     29  C   UNL     1       1.372  -5.217   1.926  1.00  0.00     0.118 C 
BRANCH  29  30
ATOM     30  N   UNL     1       2.424  -5.990   1.291  1.00  0.00    -0.352 N 
ATOM     31  C   UNL     1       2.792  -7.299   1.487  1.00  0.00     0.251 C 
ATOM     32  H   UNL     1       2.952  -5.503   0.618  1.00  0.00     0.163 HD
ATOM     33  O   UNL     1       3.879  -7.678   1.054  1.00  0.00    -0.269 OA
BRANCH  31  34
ATOM     34  C   UNL     1       1.914  -8.254   2.209  1.00  0.00     0.039 A 
ATOM     35  C   UNL     1       2.506  -9.225   3.026  1.00  0.00     0.014 A 
ATOM     36  C   UNL     1       0.528  -8.268   2.024  1.00  0.00     0.014 A 
ATOM     37  C   UNL     1       1.713 -10.184   3.668  1.00  0.00     0.010 A 
ATOM     38  C   UNL     1      -0.268  -9.173   2.728  1.00  0.00     0.010 A 
ATOM     39  C   UNL     1       0.316 -10.162   3.533  1.00  0.00    -0.014 A 
BRANCH  39  40
ATOM     40  C   UNL     1      -0.540 -11.204   4.164  1.00  0.00     0.031 A 
ATOM     41  C   UNL     1      -1.346 -12.139   3.295  1.00  0.00     0.074 A 
ATOM     42  C   UNL     1      -0.630 -11.290   5.507  1.00  0.00     0.049 A 
ATOM     43  N   UNL     1      -2.211 -13.057   3.645  1.00  0.00    -0.248 NA
ATOM     44  C   UNL     1      -1.178 -12.005   1.838  1.00  0.00     0.031 C 
ATOM     45  C   UNL     1       0.064 -10.422   6.460  1.00  0.00     0.029 A 
ATOM     46  N   UNL     1      -1.354 -12.143   6.304  1.00  0.00    -0.354 N 
ATOM     47  C   UNL     1      -2.709 -13.585   2.458  1.00  0.00     0.074 A 
ATOM     48  C   UNL     1      -2.082 -12.857   1.377  1.00  0.00     0.031 C 
ATOM     49  C   UNL     1      -0.257 -10.796   7.711  1.00  0.00     0.029 A 
ATOM     50  C   UNL     1      -1.202 -11.907   7.651  1.00  0.00     0.049 A 
ATOM     51  H   UNL     1      -1.929 -12.856   5.944  1.00  0.00     0.167 HD
ATOM     52  C   UNL     1      -3.589 -14.599   2.281  1.00  0.00     0.037 A 
ATOM     53  C   UNL     1      -1.764 -12.513   8.715  1.00  0.00     0.037 A 
ATOM     54  C   UNL     1      -4.169 -15.359   3.357  1.00  0.00     0.049 A 
ATOM     55  C   UNL     1      -2.708 -13.666   8.492  1.00  0.00     0.074 A 
ATOM     56  C   UNL     1      -5.024 -16.446   3.280  1.00  0.00     0.029 A 
ATOM     57  N   UNL     1      -3.944 -15.123   4.705  1.00  0.00    -0.354 N 
ATOM     58  N   UNL     1      -3.127 -14.181   7.361  1.00  0.00    -0.248 NA
ATOM     59  C   UNL     1      -3.247 -14.328   9.689  1.00  0.00     0.031 C 
ATOM     60  C   UNL     1      -5.338 -16.849   4.582  1.00  0.00     0.029 A 
ATOM     61  C   UNL     1      -4.646 -16.041   5.468  1.00  0.00     0.049 A 
ATOM     62  H   UNL     1      -3.369 -14.410   5.065  1.00  0.00     0.167 HD
ATOM     63  C   UNL     1      -3.946 -15.250   7.711  1.00  0.00     0.074 A 
ATOM     64  C   UNL     1      -3.959 -15.311   9.157  1.00  0.00     0.031 C 
ATOM     65  C   UNL     1      -4.625 -16.105   6.907  1.00  0.00     0.037 A 
BRANCH  52  66
ATOM     66  C   UNL     1      -3.973 -14.963   0.873  1.00  0.00     0.058 A 
ATOM     67  C   UNL     1      -3.078 -15.615   0.010  1.00  0.00     0.135 A 
ATOM     68  C   UNL     1      -5.273 -14.714   0.401  1.00  0.00     0.135 A 
ATOM     69  F   UNL     1      -1.819 -15.863   0.404  1.00  0.00    -0.206 F 
ATOM     70  C   UNL     1      -3.450 -15.991  -1.276  1.00  0.00     0.059 A 
ATOM     71  C   UNL     1      -5.675 -15.106  -0.874  1.00  0.00     0.059 A 
ATOM     72  F   UNL     1      -6.169 -14.093   1.183  1.00  0.00    -0.206 F 
ATOM     73  C   UNL     1      -4.753 -15.736  -1.708  1.00  0.00     0.060 A 
BRANCH  73  74
ATOM     74  S   UNL     1      -5.232 -16.258  -3.368  1.00  0.00     0.124 S 
ATOM     75  O   UNL     1      -4.538 -15.273  -4.195  1.00  0.00    -0.237 OA
ATOM     76  O   UNL     1      -4.701 -17.619  -3.432  1.00  0.00    -0.237 OA
ATOM     77  O   UNL     1      -6.683 -16.156  -3.354  1.00  0.00    -0.744 OA
ENDBRANCH  73  74
ENDBRANCH  52  66
BRANCH  53  78
ATOM     78  C   UNL     1      -1.436 -12.062  10.095  1.00  0.00     0.058 A 
ATOM     79  C   UNL     1      -0.669 -12.863  10.955  1.00  0.00     0.135 A 
ATOM     80  C   UNL     1      -1.899 -10.832  10.588  1.00  0.00     0.135 A 
ATOM     81  F   UNL     1      -0.208 -14.049  10.531  1.00  0.00    -0.206 F 
ATOM     82  C   UNL     1      -0.397 -12.476  12.263  1.00  0.00     0.059 A 
ATOM     83  C   UNL     1      -1.618 -10.412  11.884  1.00  0.00     0.059 A 
ATOM     84  F   UNL     1      -2.620 -10.020   9.800  1.00  0.00    -0.206 F 
ATOM     85  C   UNL     1      -0.880 -11.249  12.720  1.00  0.00     0.060 A 
BRANCH  85  86
ATOM     86  S   UNL     1      -0.506 -10.744  14.414  1.00  0.00     0.124 S 
ATOM     87  O   UNL     1      -1.428 -11.577  15.178  1.00  0.00    -0.237 OA
ATOM     88  O   UNL     1       0.909 -11.082  14.531  1.00  0.00    -0.237 OA
ATOM     89  O   UNL     1      -0.802  -9.314  14.408  1.00  0.00    -0.744 OA
ENDBRANCH  85  86
ENDBRANCH  53  78
BRANCH  65  90
ATOM     90  C   UNL     1      -5.389 -17.218   7.566  1.00  0.00     0.058 A 
ATOM     91  C   UNL     1      -6.592 -16.988   8.250  1.00  0.00     0.135 A 
ATOM     92  C   UNL     1      -4.933 -18.543   7.466  1.00  0.00     0.135 A 
ATOM     93  F   UNL     1      -7.069 -15.739   8.376  1.00  0.00    -0.206 F 
ATOM     94  C   UNL     1      -7.304 -18.030   8.835  1.00  0.00     0.059 A 
ATOM     95  C   UNL     1      -5.641 -19.603   8.022  1.00  0.00     0.059 A 
ATOM     96  F   UNL     1      -3.793 -18.818   6.812  1.00  0.00    -0.206 F 
ATOM     97  C   UNL     1      -6.820 -19.334   8.717  1.00  0.00     0.060 A 
BRANCH  97  98
ATOM     98  S   UNL     1      -7.765 -20.682   9.457  1.00  0.00     0.124 S 
ATOM     99  O   UNL     1      -7.443 -20.524  10.872  1.00  0.00    -0.237 OA
ATOM    100  O   UNL     1      -9.135 -20.351   9.078  1.00  0.00    -0.237 OA
ATOM    101  O   UNL     1      -7.215 -21.874   8.817  1.00  0.00    -0.744 OA
ENDBRANCH  97  98
ENDBRANCH  65  90
ENDBRANCH  39  40
ENDBRANCH  31  34
ENDBRANCH  29  30
ENDBRANCH   1  29
TORSDOF 19
