REMARK SMILES Cc1ccc(O)c(C(=O)CCCC(=O)NCCCNC(=O)c2ccc(-c3c4nc(c(-c5c(F)cc(S(=O)(=O)[O-])cc5F)c5ccc([nH]5)c(-c5c(F)cc(S(=O)(=O)[O-])cc5F)c5nc(c(-c6c(F)cc(S(=O)(=O)[O-])cc6F)c6ccc3[nH]6)C=C5)C=C4)cc2)c1
REMARK SMILES IDX 16 1 15 2 13 3 14 4 12 6 11 7 10 8 8 9 9 10 7 11 1 12 2 13
REMARK SMILES IDX 3 14 88 15 4 16 5 17 6 18 17 20 18 21 19 22 20 23 21 25
REMARK SMILES IDX 22 26 23 27 87 28 24 29 86 30 25 31 26 32 27 33 80 34 28 35
REMARK SMILES IDX 85 36 79 37 81 38 29 39 84 40 78 41 77 42 30 44 64 45 43 46
REMARK SMILES IDX 63 47 44 48 47 49 62 50 82 51 45 52 46 53 61 55 83 56 48 57
REMARK SMILES IDX 31 58 32 59 41 60 33 61 34 62 40 63 42 64 35 65 36 66 37 67
REMARK SMILES IDX 38 68 39 69 65 70 66 71 75 72 67 73 68 74 74 75 76 76 69 77
REMARK SMILES IDX 70 78 71 79 72 80 73 81 49 82 50 83 59 84 51 85 52 86 58 87
REMARK SMILES IDX 60 88 53 89 54 90 55 91 56 92 57 93
REMARK H PARENT 15 5 6 19 19 24 81 43 47 54
REMARK Flexibility Score: inf
ROOT
ATOM      1  C   UNL     1       0.998  -2.951   1.673  1.00  0.00     0.117 C 
ENDROOT
BRANCH   1   2
ATOM      2  N   UNL     1       2.136  -3.607   1.067  1.00  0.00    -0.356 N 
ATOM      3  C   UNL     1       2.498  -3.917  -0.198  1.00  0.00     0.220 C 
ATOM      4  O   UNL     1       3.603  -4.467  -0.302  1.00  0.00    -0.275 OA
ATOM      5  H   UNL     1       2.803  -3.896   1.732  1.00  0.00     0.163 HD
BRANCH   3   6
ATOM      6  C   UNL     1       1.762  -3.529  -1.479  1.00  0.00     0.100 C 
BRANCH   6   7
ATOM      7  C   UNL     1       0.300  -3.845  -1.795  1.00  0.00     0.018 C 
BRANCH   7   8
ATOM      8  C   UNL     1      -0.900  -3.357  -0.991  1.00  0.00     0.082 C 
BRANCH   8   9
ATOM      9  C   UNL     1      -1.542  -1.962  -1.088  1.00  0.00     0.166 C 
ATOM     10  O   UNL     1      -2.752  -1.897  -1.347  1.00  0.00    -0.294 OA
BRANCH   9  11
ATOM     11  C   UNL     1      -0.884  -0.656  -0.726  1.00  0.00     0.060 A 
ATOM     12  C   UNL     1       2.590   0.781  -0.029  1.00  0.00     0.044 C 
ATOM     13  C   UNL     1       1.100   0.707  -0.207  1.00  0.00    -0.050 A 
ATOM     14  C   UNL     1       0.297   1.827  -0.022  1.00  0.00     0.007 A 
ATOM     15  C   UNL     1       0.493  -0.502  -0.581  1.00  0.00     0.019 A 
ATOM     16  C   UNL     1      -1.085   1.713  -0.158  1.00  0.00     0.047 A 
ATOM     17  C   UNL     1      -1.667   0.486  -0.492  1.00  0.00     0.126 A 
BRANCH  17  18
ATOM     18  O   UNL     1      -3.037   0.484  -0.545  1.00  0.00    -0.507 OA
ATOM     19  H   UNL     1      -3.513   1.275  -0.380  1.00  0.00     0.293 HD
ENDBRANCH  17  18
ENDBRANCH   9  11
ENDBRANCH   8   9
ENDBRANCH   7   8
ENDBRANCH   6   7
ENDBRANCH   3   6
ENDBRANCH   1   2
BRANCH   1  20
ATOM     20  C   UNL     1       0.056  -3.936   2.346  1.00  0.00     0.042 C 
BRANCH  20  21
ATOM     21  C   UNL     1       0.395  -4.157   3.804  1.00  0.00     0.118 C 
BRANCH  21  22
ATOM     22  N   UNL     1       0.006  -3.026   4.638  1.00  0.00    -0.352 N 
ATOM     23  C   UNL     1      -0.732  -3.016   5.799  1.00  0.00     0.251 C 
ATOM     24  H   UNL     1       0.315  -2.144   4.326  1.00  0.00     0.163 HD
ATOM     25  O   UNL     1      -1.094  -1.944   6.278  1.00  0.00    -0.269 OA
BRANCH  23  26
ATOM     26  C   UNL     1      -1.109  -4.293   6.445  1.00  0.00     0.039 A 
ATOM     27  C   UNL     1      -2.375  -4.423   7.021  1.00  0.00     0.014 A 
ATOM     28  C   UNL     1      -0.221  -5.369   6.467  1.00  0.00     0.014 A 
ATOM     29  C   UNL     1      -2.760  -5.647   7.572  1.00  0.00     0.010 A 
ATOM     30  C   UNL     1      -0.653  -6.617   6.889  1.00  0.00     0.010 A 
ATOM     31  C   UNL     1      -1.911  -6.763   7.485  1.00  0.00    -0.014 A 
BRANCH  31  32
ATOM     32  C   UNL     1      -2.276  -8.073   8.080  1.00  0.00     0.031 A 
ATOM     33  C   UNL     1      -1.400  -8.668   9.155  1.00  0.00     0.074 A 
ATOM     34  C   UNL     1      -3.347  -8.749   7.620  1.00  0.00     0.049 A 
ATOM     35  N   UNL     1      -1.495  -9.827   9.754  1.00  0.00    -0.248 NA
ATOM     36  C   UNL     1      -0.234  -7.874   9.581  1.00  0.00     0.031 C 
ATOM     37  C   UNL     1      -4.229  -8.310   6.536  1.00  0.00     0.029 A 
ATOM     38  N   UNL     1      -3.875  -9.954   8.006  1.00  0.00    -0.354 N 
ATOM     39  C   UNL     1      -0.392  -9.907  10.598  1.00  0.00     0.074 A 
ATOM     40  C   UNL     1       0.400  -8.720  10.376  1.00  0.00     0.031 C 
ATOM     41  C   UNL     1      -5.209  -9.213   6.372  1.00  0.00     0.029 A 
ATOM     42  C   UNL     1      -5.008 -10.309   7.314  1.00  0.00     0.049 A 
ATOM     43  H   UNL     1      -3.479 -10.514   8.714  1.00  0.00     0.167 HD
ATOM     44  C   UNL     1      -0.086 -10.862  11.507  1.00  0.00     0.037 A 
ATOM     45  C   UNL     1      -5.798 -11.393   7.434  1.00  0.00     0.037 A 
ATOM     46  C   UNL     1      -0.911 -12.012  11.761  1.00  0.00     0.049 A 
ATOM     47  C   UNL     1      -5.468 -12.417   8.487  1.00  0.00     0.074 A 
ATOM     48  C   UNL     1      -0.735 -13.010  12.701  1.00  0.00     0.029 A 
ATOM     49  N   UNL     1      -2.080 -12.309  11.074  1.00  0.00    -0.354 N 
ATOM     50  N   UNL     1      -4.453 -12.448   9.319  1.00  0.00    -0.248 NA
ATOM     51  C   UNL     1      -6.399 -13.544   8.630  1.00  0.00     0.031 C 
ATOM     52  C   UNL     1      -1.780 -13.930  12.561  1.00  0.00     0.029 A 
ATOM     53  C   UNL     1      -2.633 -13.478  11.566  1.00  0.00     0.049 A 
ATOM     54  H   UNL     1      -2.460 -11.767  10.345  1.00  0.00     0.167 HD
ATOM     55  C   UNL     1      -4.641 -13.579  10.106  1.00  0.00     0.074 A 
ATOM     56  C   UNL     1      -5.874 -14.195   9.658  1.00  0.00     0.031 C 
ATOM     57  C   UNL     1      -3.866 -14.066  11.108  1.00  0.00     0.037 A 
BRANCH  44  58
ATOM     58  C   UNL     1       1.180 -10.685  12.303  1.00  0.00     0.058 A 
ATOM     59  C   UNL     1       1.320  -9.658  13.252  1.00  0.00     0.135 A 
ATOM     60  C   UNL     1       2.266 -11.557  12.122  1.00  0.00     0.135 A 
ATOM     61  F   UNL     1       0.322  -8.782  13.452  1.00  0.00    -0.206 F 
ATOM     62  C   UNL     1       2.501  -9.478  13.964  1.00  0.00     0.059 A 
ATOM     63  C   UNL     1       3.446 -11.416  12.848  1.00  0.00     0.059 A 
ATOM     64  F   UNL     1       2.191 -12.555  11.228  1.00  0.00    -0.206 F 
ATOM     65  C   UNL     1       3.560 -10.362  13.754  1.00  0.00     0.060 A 
BRANCH  65  66
ATOM     66  S   UNL     1       5.085 -10.116  14.687  1.00  0.00     0.124 S 
ATOM     67  O   UNL     1       5.644  -8.941  14.025  1.00  0.00    -0.237 OA
ATOM     68  O   UNL     1       4.590  -9.902  16.044  1.00  0.00    -0.237 OA
ATOM     69  O   UNL     1       5.816 -11.361  14.479  1.00  0.00    -0.744 OA
ENDBRANCH  65  66
ENDBRANCH  44  58
BRANCH  45  70
ATOM     70  C   UNL     1      -7.003 -11.539   6.573  1.00  0.00     0.058 A 
ATOM     71  C   UNL     1      -8.293 -11.407   7.109  1.00  0.00     0.135 A 
ATOM     72  C   UNL     1      -6.892 -11.799   5.198  1.00  0.00     0.135 A 
ATOM     73  F   UNL     1      -8.452 -11.160   8.418  1.00  0.00    -0.206 F 
ATOM     74  C   UNL     1      -9.430 -11.552   6.321  1.00  0.00     0.059 A 
ATOM     75  C   UNL     1      -8.014 -11.922   4.384  1.00  0.00     0.059 A 
ATOM     76  F   UNL     1      -5.681 -11.913   4.631  1.00  0.00    -0.206 F 
ATOM     77  C   UNL     1      -9.280 -11.808   4.958  1.00  0.00     0.060 A 
BRANCH  77  78
ATOM     78  S   UNL     1     -10.762 -11.953   3.936  1.00  0.00     0.124 S 
ATOM     79  O   UNL     1     -11.276 -13.255   4.346  1.00  0.00    -0.237 OA
ATOM     80  O   UNL     1     -11.542 -10.795   4.361  1.00  0.00    -0.237 OA
ATOM     81  O   UNL     1     -10.239 -11.881   2.575  1.00  0.00    -0.744 OA
ENDBRANCH  77  78
ENDBRANCH  45  70
BRANCH  57  82
ATOM     82  C   UNL     1      -4.357 -15.299  11.815  1.00  0.00     0.058 A 
ATOM     83  C   UNL     1      -4.350 -16.559  11.198  1.00  0.00     0.135 A 
ATOM     84  C   UNL     1      -4.821 -15.216  13.138  1.00  0.00     0.135 A 
ATOM     85  F   UNL     1      -3.918 -16.691   9.934  1.00  0.00    -0.206 F 
ATOM     86  C   UNL     1      -4.828 -17.689  11.853  1.00  0.00     0.059 A 
ATOM     87  C   UNL     1      -5.273 -16.338  13.823  1.00  0.00     0.059 A 
ATOM     88  F   UNL     1      -4.832 -14.037  13.780  1.00  0.00    -0.206 F 
ATOM     89  C   UNL     1      -5.293 -17.567  13.164  1.00  0.00     0.060 A 
BRANCH  89  90
ATOM     90  S   UNL     1      -5.913 -19.039  14.004  1.00  0.00     0.124 S 
ATOM     91  O   UNL     1      -7.217 -19.208  13.371  1.00  0.00    -0.237 OA
ATOM     92  O   UNL     1      -4.908 -20.041  13.665  1.00  0.00    -0.237 OA
ATOM     93  O   UNL     1      -5.943 -18.641  15.408  1.00  0.00    -0.744 OA
ENDBRANCH  89  90
ENDBRANCH  57  82
ENDBRANCH  31  32
ENDBRANCH  23  26
ENDBRANCH  21  22
ENDBRANCH  20  21
ENDBRANCH   1  20
TORSDOF 18
