REMARK SMILES CC1(C)S[C@@H](c2ccsc2)[NH2+][C@@H]1C(=O)NCCCNC(=O)c1ccc(-c2c3nc(c(-c4c(F)cc(S(=O)(=O)[O-])cc4F)c4ccc([nH]4)c(-c4c(F)cc(S(=O)(=O)[O-])cc4F)c4nc(c(-c5c(F)cc(S(=O)(=O)[O-])cc5F)c5ccc2[nH]5)C=C4)C=C3)cc1
REMARK SMILES IDX 18 1 17 2 16 3 15 4 13 5 14 6 12 8 1 9 2 10 3 11 4 12 5 13
REMARK SMILES IDX 11 14 6 17 7 18 10 19 8 20 9 21 19 22 20 23 21 25 22 26
REMARK SMILES IDX 23 27 87 28 24 29 86 30 25 31 26 32 27 33 80 34 28 35 85 36
REMARK SMILES IDX 79 37 81 38 29 39 84 40 78 41 77 42 30 44 64 45 43 46 63 47
REMARK SMILES IDX 44 48 47 49 62 50 82 51 45 52 46 53 61 55 83 56 48 57 31 58
REMARK SMILES IDX 32 59 41 60 33 61 34 62 40 63 42 64 35 65 36 66 37 67 38 68
REMARK SMILES IDX 39 69 65 70 66 71 75 72 67 73 68 74 74 75 76 76 69 77 70 78
REMARK SMILES IDX 71 79 72 80 73 81 49 82 50 83 59 84 51 85 52 86 58 87 60 88
REMARK SMILES IDX 53 89 54 90 55 91 56 92 57 93
REMARK H PARENT 15 7 11 15 11 16 19 24 81 43 47 54
REMARK Flexibility Score: inf
ROOT
ATOM      1  C   UNL     1      -3.420   3.341  -4.037  1.00  0.00     0.118 C 
ENDROOT
BRANCH   1   2
ATOM      2  C   UNL     1      -3.171   3.357  -2.539  1.00  0.00     0.042 C 
BRANCH   2   3
ATOM      3  C   UNL     1      -2.746   2.018  -1.959  1.00  0.00     0.118 C 
BRANCH   3   4
ATOM      4  N   UNL     1      -1.505   1.531  -2.543  1.00  0.00    -0.351 N 
ATOM      5  C   UNL     1      -0.311   1.161  -2.001  1.00  0.00     0.279 C 
ATOM      6  O   UNL     1       0.573   0.900  -2.823  1.00  0.00    -0.268 OA
ATOM      7  H   UNL     1      -1.535   1.452  -3.524  1.00  0.00     0.163 HD
BRANCH   5   8
ATOM      8  C   UNL     1      -0.031   1.180  -0.470  1.00  0.00     0.289 C 
ATOM      9  C   UNL     1       1.568   0.584   1.428  1.00  0.00     0.030 C 
ATOM     10  C   UNL     1       1.000   0.140   0.064  1.00  0.00     0.077 C 
ATOM     11  C   UNL     1       2.177  -0.209  -0.848  1.00  0.00     0.030 C 
ATOM     12  S   UNL     1      -0.018  -1.357   0.376  1.00  0.00    -0.081 SA
ATOM     13  C   UNL     1      -1.577  -0.458   0.262  1.00  0.00     0.275 C 
ATOM     14  N   UNL     1      -1.265   0.967   0.327  1.00  0.00    -0.320 N 
ATOM     15  H   UNL     1      -1.109   1.247   1.295  1.00  0.00     0.348 HD
ATOM     16  H   UNL     1      -2.036   1.525  -0.041  1.00  0.00     0.348 HD
BRANCH  13  17
ATOM     17  C   UNL     1      -2.551  -0.770   1.361  1.00  0.00     0.031 A 
ATOM     18  C   UNL     1      -2.301  -0.647   2.775  1.00  0.00     0.022 A 
ATOM     19  C   UNL     1      -3.859  -1.172   1.144  1.00  0.00     0.075 A 
ATOM     20  C   UNL     1      -3.405  -0.941   3.543  1.00  0.00     0.065 A 
ATOM     21  S   UNL     1      -4.746  -1.391   2.589  1.00  0.00    -0.152 S 
ENDBRANCH  13  17
ENDBRANCH   5   8
ENDBRANCH   3   4
ENDBRANCH   2   3
ENDBRANCH   1   2
BRANCH   1  22
ATOM     22  N   UNL     1      -4.507   2.452  -4.424  1.00  0.00    -0.352 N 
ATOM     23  C   UNL     1      -5.725   2.743  -4.990  1.00  0.00     0.251 C 
ATOM     24  H   UNL     1      -4.345   1.496  -4.253  1.00  0.00     0.163 HD
ATOM     25  O   UNL     1      -6.582   1.866  -5.070  1.00  0.00    -0.269 OA
BRANCH  23  26
ATOM     26  C   UNL     1      -6.011   4.110  -5.476  1.00  0.00     0.039 A 
ATOM     27  C   UNL     1      -7.262   4.675  -5.220  1.00  0.00     0.014 A 
ATOM     28  C   UNL     1      -5.046   4.840  -6.175  1.00  0.00     0.014 A 
ATOM     29  C   UNL     1      -7.514   5.997  -5.596  1.00  0.00     0.010 A 
ATOM     30  C   UNL     1      -5.260   6.185  -6.452  1.00  0.00     0.010 A 
ATOM     31  C   UNL     1      -6.499   6.778  -6.173  1.00  0.00    -0.014 A 
BRANCH  31  32
ATOM     32  C   UNL     1      -6.713   8.212  -6.498  1.00  0.00     0.031 A 
ATOM     33  C   UNL     1      -6.590   8.691  -7.920  1.00  0.00     0.074 A 
ATOM     34  C   UNL     1      -6.956   9.092  -5.505  1.00  0.00     0.049 A 
ATOM     35  N   UNL     1      -6.676   9.909  -8.392  1.00  0.00    -0.248 NA
ATOM     36  C   UNL     1      -6.302   7.673  -8.944  1.00  0.00     0.031 C 
ATOM     37  C   UNL     1      -7.046   8.758  -4.081  1.00  0.00     0.029 A 
ATOM     38  N   UNL     1      -7.165  10.448  -5.539  1.00  0.00    -0.354 N 
ATOM     39  C   UNL     1      -6.444   9.803  -9.759  1.00  0.00     0.074 A 
ATOM     40  C   UNL     1      -6.148   8.415 -10.031  1.00  0.00     0.031 C 
ATOM     41  C   UNL     1      -7.325   9.871  -3.384  1.00  0.00     0.029 A 
ATOM     42  C   UNL     1      -7.388  11.005  -4.301  1.00  0.00     0.049 A 
ATOM     43  H   UNL     1      -7.156  10.973  -6.372  1.00  0.00     0.167 HD
ATOM     44  C   UNL     1      -6.503  10.770 -10.706  1.00  0.00     0.037 A 
ATOM     45  C   UNL     1      -7.611  12.284  -3.944  1.00  0.00     0.037 A 
ATOM     46  C   UNL     1      -6.820  12.147 -10.429  1.00  0.00     0.049 A 
ATOM     47  C   UNL     1      -7.657  13.343  -5.012  1.00  0.00     0.074 A 
ATOM     48  C   UNL     1      -6.954  13.194 -11.323  1.00  0.00     0.029 A 
ATOM     49  N   UNL     1      -7.050  12.669  -9.164  1.00  0.00    -0.354 N 
ATOM     50  N   UNL     1      -7.496  13.215  -6.308  1.00  0.00    -0.248 NA
ATOM     51  C   UNL     1      -7.919  14.720  -4.572  1.00  0.00     0.031 C 
ATOM     52  C   UNL     1      -7.214  14.360 -10.595  1.00  0.00     0.029 A 
ATOM     53  C   UNL     1      -7.302  14.028  -9.252  1.00  0.00     0.049 A 
ATOM     54  H   UNL     1      -7.036  12.150  -8.328  1.00  0.00     0.167 HD
ATOM     55  C   UNL     1      -7.669  14.488  -6.841  1.00  0.00     0.074 A 
ATOM     56  C   UNL     1      -7.960  15.368  -5.728  1.00  0.00     0.031 C 
ATOM     57  C   UNL     1      -7.596  14.891  -8.134  1.00  0.00     0.037 A 
BRANCH  44  58
ATOM     58  C   UNL     1      -6.225  10.370 -12.130  1.00  0.00     0.058 A 
ATOM     59  C   UNL     1      -7.109   9.550 -12.852  1.00  0.00     0.135 A 
ATOM     60  C   UNL     1      -5.081  10.840 -12.796  1.00  0.00     0.135 A 
ATOM     61  F   UNL     1      -8.210   9.059 -12.263  1.00  0.00    -0.206 F 
ATOM     62  C   UNL     1      -6.854   9.186 -14.170  1.00  0.00     0.059 A 
ATOM     63  C   UNL     1      -4.822  10.515 -14.125  1.00  0.00     0.059 A 
ATOM     64  F   UNL     1      -4.201  11.625 -12.155  1.00  0.00    -0.206 F 
ATOM     65  C   UNL     1      -5.707   9.675 -14.799  1.00  0.00     0.060 A 
BRANCH  65  66
ATOM     66  S   UNL     1      -5.398   9.200 -16.512  1.00  0.00     0.124 S 
ATOM     67  O   UNL     1      -5.039   7.793 -16.364  1.00  0.00    -0.237 OA
ATOM     68  O   UNL     1      -6.687   9.461 -17.145  1.00  0.00    -0.237 OA
ATOM     69  O   UNL     1      -4.311  10.085 -16.921  1.00  0.00    -0.744 OA
ENDBRANCH  65  66
ENDBRANCH  44  58
BRANCH  45  70
ATOM     70  C   UNL     1      -7.832  12.631  -2.514  1.00  0.00     0.058 A 
ATOM     71  C   UNL     1      -9.091  13.055  -2.060  1.00  0.00     0.135 A 
ATOM     72  C   UNL     1      -6.797  12.538  -1.570  1.00  0.00     0.135 A 
ATOM     73  F   UNL     1     -10.111  13.167  -2.924  1.00  0.00    -0.206 F 
ATOM     74  C   UNL     1      -9.312  13.392  -0.729  1.00  0.00     0.059 A 
ATOM     75  C   UNL     1      -7.001  12.841  -0.227  1.00  0.00     0.059 A 
ATOM     76  F   UNL     1      -5.578  12.121  -1.947  1.00  0.00    -0.206 F 
ATOM     77  C   UNL     1      -8.260  13.278   0.182  1.00  0.00     0.060 A 
BRANCH  77  78
ATOM     78  S   UNL     1      -8.570  13.675   1.916  1.00  0.00     0.124 S 
ATOM     79  O   UNL     1      -8.702  15.126   1.867  1.00  0.00    -0.237 OA
ATOM     80  O   UNL     1      -9.796  12.930   2.185  1.00  0.00    -0.237 OA
ATOM     81  O   UNL     1      -7.379  13.171   2.594  1.00  0.00    -0.744 OA
ENDBRANCH  77  78
ENDBRANCH  45  70
BRANCH  57  82
ATOM     82  C   UNL     1      -7.871  16.342  -8.424  1.00  0.00     0.058 A 
ATOM     83  C   UNL     1      -6.969  17.354  -8.062  1.00  0.00     0.135 A 
ATOM     84  C   UNL     1      -9.032  16.718  -9.119  1.00  0.00     0.135 A 
ATOM     85  F   UNL     1      -5.846  17.051  -7.391  1.00  0.00    -0.206 F 
ATOM     86  C   UNL     1      -7.222  18.691  -8.353  1.00  0.00     0.059 A 
ATOM     87  C   UNL     1      -9.290  18.044  -9.449  1.00  0.00     0.059 A 
ATOM     88  F   UNL     1      -9.924  15.789  -9.500  1.00  0.00    -0.206 F 
ATOM     89  C   UNL     1      -8.384  19.026  -9.049  1.00  0.00     0.060 A 
BRANCH  89  90
ATOM     90  S   UNL     1      -8.685  20.761  -9.446  1.00  0.00     0.124 S 
ATOM     91  O   UNL     1      -9.029  21.306  -8.137  1.00  0.00    -0.237 OA
ATOM     92  O   UNL     1      -7.398  21.183  -9.990  1.00  0.00    -0.237 OA
ATOM     93  O   UNL     1      -9.779  20.705 -10.411  1.00  0.00    -0.744 OA
ENDBRANCH  89  90
ENDBRANCH  57  82
ENDBRANCH  31  32
ENDBRANCH  23  26
ENDBRANCH   1  22
TORSDOF 14
