REMARK SMILES O=C(COc1cc(C(F)(F)F)nc(Nc2ccc3c(c2)CCC3)n1)NCCCNC(=O)c1ccc(-c2c3nc(c(-c4c(F)cc(S(=O)(=O)[O-])cc4F)c4ccc([nH]4)c(-c4c(F)cc(S(=O)(=O)[O-])cc4F)c4nc(c(-c5c(F)cc(S(=O)(=O)[O-])cc5F)c5ccc2[nH]5)C=C4)C=C3)cc1
REMARK SMILES IDX 26 1 25 2 1 3 2 4 3 6 4 7 5 8 6 9 24 10 7 11 13 12 12 13
REMARK SMILES IDX 8 14 9 15 10 16 11 17 14 18 15 20 16 21 20 22 17 23 19 24
REMARK SMILES IDX 18 25 21 26 23 27 22 28 27 29 28 30 29 31 30 32 31 34 32 35
REMARK SMILES IDX 33 36 97 37 34 38 96 39 35 40 36 41 37 42 90 43 38 44 95 45
REMARK SMILES IDX 89 46 91 47 39 48 94 49 88 50 87 51 40 53 74 54 53 55 73 56
REMARK SMILES IDX 54 57 57 58 72 59 92 60 55 61 56 62 71 64 93 65 58 66 41 67
REMARK SMILES IDX 42 68 51 69 43 70 44 71 50 72 52 73 45 74 46 75 47 76 48 77
REMARK SMILES IDX 49 78 75 79 76 80 85 81 77 82 78 83 84 84 86 85 79 86 80 87
REMARK SMILES IDX 81 88 82 89 83 90 59 91 60 92 69 93 61 94 62 95 68 96 70 97
REMARK SMILES IDX 63 98 64 99 65 100 66 101 67 102
REMARK H PARENT 25 5 14 19 29 33 91 52 57 63
REMARK Flexibility Score: inf
ROOT
ATOM      1  C   UNL     1       2.114   2.413   0.631  1.00  0.00     0.117 C 
ENDROOT
BRANCH   1   2
ATOM      2  N   UNL     1       2.793   1.161   0.369  1.00  0.00    -0.353 N 
ATOM      3  O   UNL     1       0.957  -0.207   0.624  1.00  0.00    -0.271 OA
ATOM      4  C   UNL     1       2.124  -0.046   0.287  1.00  0.00     0.258 C 
ATOM      5  H   UNL     1       3.770   1.169   0.244  1.00  0.00     0.163 HD
BRANCH   4   6
ATOM      6  C   UNL     1       2.954  -1.156  -0.357  1.00  0.00     0.331 C 
BRANCH   6   7
ATOM      7  O   UNL     1       3.758  -0.672  -1.433  1.00  0.00    -0.467 OA
BRANCH   7   8
ATOM      8  C   UNL     1       3.061  -0.550  -2.610  1.00  0.00     0.219 A 
ATOM      9  C   UNL     1       2.112   0.424  -2.785  1.00  0.00     0.102 A 
ATOM     10  N   UNL     1       3.502  -1.324  -3.604  1.00  0.00    -0.177 NA
ATOM     11  C   UNL     1       1.595   0.560  -4.055  1.00  0.00     0.153 A 
ATOM     12  C   UNL     1       2.994  -1.112  -4.826  1.00  0.00     0.231 A 
ATOM     13  N   UNL     1       2.049  -0.196  -5.086  1.00  0.00    -0.208 NA
BRANCH  11  14
ATOM     14  C   UNL     1       0.520   1.603  -4.311  1.00  0.00     0.433 C 
ATOM     15  F   UNL     1       0.901   2.547  -5.218  1.00  0.00    -0.165 F 
ATOM     16  F   UNL     1      -0.640   1.067  -4.783  1.00  0.00    -0.165 F 
ATOM     17  F   UNL     1       0.170   2.300  -3.189  1.00  0.00    -0.165 F 
ENDBRANCH  11  14
BRANCH  12  18
ATOM     18  N   UNL     1       3.517  -1.770  -5.932  1.00  0.00    -0.324 N 
ATOM     19  H   UNL     1       3.183  -1.461  -6.805  1.00  0.00     0.170 HD
BRANCH  18  20
ATOM     20  C   UNL     1       4.450  -2.810  -5.982  1.00  0.00     0.041 A 
ATOM     21  C   UNL     1       4.353  -3.921  -5.120  1.00  0.00     0.026 A 
ATOM     22  C   UNL     1       5.562  -2.696  -6.827  1.00  0.00     0.030 A 
ATOM     23  C   UNL     1       5.323  -4.926  -5.110  1.00  0.00     0.006 A 
ATOM     24  C   UNL     1       6.535  -3.683  -6.793  1.00  0.00    -0.043 A 
ATOM     25  C   UNL     1       6.411  -4.791  -5.951  1.00  0.00    -0.045 A 
ATOM     26  C   UNL     1       7.851  -3.702  -7.504  1.00  0.00     0.036 C 
ATOM     27  C   UNL     1       7.615  -5.673  -6.045  1.00  0.00     0.036 C 
ATOM     28  C   UNL     1       8.250  -5.177  -7.352  1.00  0.00     0.010 C 
ENDBRANCH  18  20
ENDBRANCH  12  18
ENDBRANCH   7   8
ENDBRANCH   6   7
ENDBRANCH   4   6
ENDBRANCH   1   2
BRANCH   1  29
ATOM     29  C   UNL     1       2.443   3.001   1.991  1.00  0.00     0.042 C 
BRANCH  29  30
ATOM     30  C   UNL     1       3.920   3.318   2.197  1.00  0.00     0.118 C 
BRANCH  30  31
ATOM     31  N   UNL     1       4.424   4.345   1.295  1.00  0.00    -0.352 N 
ATOM     32  C   UNL     1       5.100   5.509   1.573  1.00  0.00     0.251 C 
ATOM     33  H   UNL     1       4.255   4.180   0.340  1.00  0.00     0.163 HD
ATOM     34  O   UNL     1       5.322   6.304   0.662  1.00  0.00    -0.269 OA
BRANCH  32  35
ATOM     35  C   UNL     1       5.533   5.824   2.954  1.00  0.00     0.039 A 
ATOM     36  C   UNL     1       5.388   7.133   3.421  1.00  0.00     0.014 A 
ATOM     37  C   UNL     1       6.088   4.848   3.786  1.00  0.00     0.014 A 
ATOM     38  C   UNL     1       5.734   7.444   4.739  1.00  0.00     0.010 A 
ATOM     39  C   UNL     1       6.349   5.139   5.123  1.00  0.00     0.010 A 
ATOM     40  C   UNL     1       6.181   6.442   5.615  1.00  0.00    -0.014 A 
BRANCH  40  41
ATOM     41  C   UNL     1       6.473   6.741   7.043  1.00  0.00     0.031 A 
ATOM     42  C   UNL     1       7.863   6.554   7.593  1.00  0.00     0.074 A 
ATOM     43  C   UNL     1       5.474   7.134   7.860  1.00  0.00     0.049 A 
ATOM     44  N   UNL     1       8.298   6.723   8.816  1.00  0.00    -0.248 NA
ATOM     45  C   UNL     1       8.895   6.091   6.651  1.00  0.00     0.031 C 
ATOM     46  C   UNL     1       4.074   7.303   7.463  1.00  0.00     0.029 A 
ATOM     47  N   UNL     1       5.479   7.456   9.194  1.00  0.00    -0.354 N 
ATOM     48  C   UNL     1       9.645   6.380   8.792  1.00  0.00     0.074 A 
ATOM     49  C   UNL     1       9.942   5.936   7.448  1.00  0.00     0.031 C 
ATOM     50  C   UNL     1       3.364   7.724   8.521  1.00  0.00     0.029 A 
ATOM     51  C   UNL     1       4.244   7.816   9.682  1.00  0.00     0.049 A 
ATOM     52  H   UNL     1       6.291   7.431   9.751  1.00  0.00     0.167 HD
ATOM     53  C   UNL     1      10.558   6.453   9.791  1.00  0.00     0.037 A 
ATOM     54  C   UNL     1       3.861   8.174  10.923  1.00  0.00     0.037 A 
ATOM     55  C   UNL     1      10.260   6.913  11.124  1.00  0.00     0.049 A 
ATOM     56  C   UNL     1       4.892   8.241  12.018  1.00  0.00     0.074 A 
ATOM     57  C   UNL     1      11.126   7.072  12.192  1.00  0.00     0.029 A 
ATOM     58  N   UNL     1       9.001   7.283  11.574  1.00  0.00    -0.354 N 
ATOM     59  N   UNL     1       6.176   7.975  11.961  1.00  0.00    -0.248 NA
ATOM     60  C   UNL     1       4.425   8.668  13.344  1.00  0.00     0.031 C 
ATOM     61  C   UNL     1      10.382   7.487  13.301  1.00  0.00     0.029 A 
ATOM     62  C   UNL     1       9.063   7.648  12.909  1.00  0.00     0.049 A 
ATOM     63  H   UNL     1       8.183   7.285  11.025  1.00  0.00     0.167 HD
ATOM     64  C   UNL     1       6.675   8.233  13.233  1.00  0.00     0.074 A 
ATOM     65  C   UNL     1       5.557   8.690  14.033  1.00  0.00     0.031 C 
ATOM     66  C   UNL     1       7.944   8.106  13.696  1.00  0.00     0.037 A 
BRANCH  53  67
ATOM     67  C   UNL     1      11.969   6.026   9.482  1.00  0.00     0.058 A 
ATOM     68  C   UNL     1      12.795   6.769   8.622  1.00  0.00     0.135 A 
ATOM     69  C   UNL     1      12.518   4.881  10.083  1.00  0.00     0.135 A 
ATOM     70  F   UNL     1      12.320   7.865   8.007  1.00  0.00    -0.206 F 
ATOM     71  C   UNL     1      14.100   6.376   8.345  1.00  0.00     0.059 A 
ATOM     72  C   UNL     1      13.832   4.487   9.845  1.00  0.00     0.059 A 
ATOM     73  F   UNL     1      11.776   4.132  10.914  1.00  0.00    -0.206 F 
ATOM     74  C   UNL     1      14.610   5.234   8.962  1.00  0.00     0.060 A 
BRANCH  74  75
ATOM     75  S   UNL     1      16.308   4.742   8.595  1.00  0.00     0.124 S 
ATOM     76  O   UNL     1      16.181   4.265   7.221  1.00  0.00    -0.237 OA
ATOM     77  O   UNL     1      17.038   5.994   8.766  1.00  0.00    -0.237 OA
ATOM     78  O   UNL     1      16.588   3.714   9.592  1.00  0.00    -0.744 OA
ENDBRANCH  74  75
ENDBRANCH  53  67
BRANCH  54  79
ATOM     79  C   UNL     1       2.438   8.519  11.193  1.00  0.00     0.058 A 
ATOM     80  C   UNL     1       2.057   9.835  11.492  1.00  0.00     0.135 A 
ATOM     81  C   UNL     1       1.431   7.542  11.152  1.00  0.00     0.135 A 
ATOM     82  F   UNL     1       2.983  10.805  11.550  1.00  0.00    -0.206 F 
ATOM     83  C   UNL     1       0.733  10.169  11.760  1.00  0.00     0.059 A 
ATOM     84  C   UNL     1       0.096   7.856  11.387  1.00  0.00     0.059 A 
ATOM     85  F   UNL     1       1.739   6.270  10.854  1.00  0.00    -0.206 F 
ATOM     86  C   UNL     1      -0.241   9.171  11.703  1.00  0.00     0.060 A 
BRANCH  86  87
ATOM     87  S   UNL     1      -1.962   9.624  12.009  1.00  0.00     0.124 S 
ATOM     88  O   UNL     1      -1.950   9.872  13.446  1.00  0.00    -0.237 OA
ATOM     89  O   UNL     1      -2.125  10.799  11.159  1.00  0.00    -0.237 OA
ATOM     90  O   UNL     1      -2.702   8.441  11.579  1.00  0.00    -0.744 OA
ENDBRANCH  86  87
ENDBRANCH  54  79
BRANCH  66  91
ATOM     91  C   UNL     1       8.203   8.509  15.123  1.00  0.00     0.058 A 
ATOM     92  C   UNL     1       7.720   7.760  16.208  1.00  0.00     0.135 A 
ATOM     93  C   UNL     1       8.975   9.649  15.408  1.00  0.00     0.135 A 
ATOM     94  F   UNL     1       6.974   6.664  15.994  1.00  0.00    -0.206 F 
ATOM     95  C   UNL     1       7.960   8.146  17.523  1.00  0.00     0.059 A 
ATOM     96  C   UNL     1       9.255  10.034  16.715  1.00  0.00     0.059 A 
ATOM     97  F   UNL     1       9.474  10.395  14.410  1.00  0.00    -0.206 F 
ATOM     98  C   UNL     1       8.729   9.287  17.767  1.00  0.00     0.060 A 
BRANCH  98  99
ATOM     99  S   UNL     1       9.042   9.770  19.477  1.00  0.00     0.124 S 
ATOM    100  O   UNL     1       7.738  10.287  19.880  1.00  0.00    -0.237 OA
ATOM    101  O   UNL     1       9.441   8.508  20.090  1.00  0.00    -0.237 OA
ATOM    102  O   UNL     1      10.103  10.767  19.360  1.00  0.00    -0.744 OA
ENDBRANCH  98  99
ENDBRANCH  66  91
ENDBRANCH  40  41
ENDBRANCH  32  35
ENDBRANCH  30  31
ENDBRANCH  29  30
ENDBRANCH   1  29
TORSDOF 18
