REMARK SMILES O=C(Cn1cccc1C(=O)NCCC(=O)NC1CC1)NCCCNC(=O)c1ccc(-c2c3nc(c(-c4c(F)cc(S(=O)(=O)[O-])cc4F)c4ccc([nH]4)c(-c4c(F)cc(S(=O)(=O)[O-])cc4F)c4nc(c(-c5c(F)cc(S(=O)(=O)[O-])cc5F)c5ccc2[nH]5)C=C4)C=C3)cc1
REMARK SMILES IDX 1 1 2 2 20 3 3 5 4 6 5 7 8 8 6 9 7 10 9 11 10 12 11 13 12 15
REMARK SMILES IDX 13 16 14 17 15 18 16 19 17 21 18 22 19 23 21 24 22 25 23 26
REMARK SMILES IDX 24 27 25 28 26 30 27 31 28 32 92 33 29 34 91 35 30 36 31 37
REMARK SMILES IDX 32 38 85 39 33 40 90 41 84 42 86 43 34 44 89 45 83 46 82 47
REMARK SMILES IDX 35 49 69 50 48 51 68 52 49 53 52 54 67 55 87 56 50 57 51 58
REMARK SMILES IDX 66 60 88 61 53 62 36 63 37 64 46 65 38 66 39 67 45 68 47 69
REMARK SMILES IDX 40 70 41 71 42 72 43 73 44 74 70 75 71 76 80 77 72 78 73 79
REMARK SMILES IDX 79 80 81 81 74 82 75 83 76 84 77 85 78 86 54 87 55 88 64 89
REMARK SMILES IDX 56 90 57 91 63 92 65 93 58 94 59 95 60 96 61 97 62 98
REMARK H PARENT 20 4 11 14 16 20 24 29 86 48 52 59
REMARK Flexibility Score: inf
ROOT
ATOM      1  O   UNL     1       0.950   0.188  -0.960  1.00  0.00    -0.273 OA
ATOM      2  C   UNL     1       2.119   0.320  -0.606  1.00  0.00     0.239 C 
ATOM      3  N   UNL     1       2.690   1.539  -0.324  1.00  0.00    -0.354 N 
ATOM      4  H   UNL     1       3.649   1.573  -0.104  1.00  0.00     0.163 HD
ENDROOT
BRANCH   2   5
ATOM      5  C   UNL     1       3.014  -0.862  -0.324  1.00  0.00     0.222 C 
BRANCH   5   6
ATOM      6  N   UNL     1       3.893  -1.303  -1.388  1.00  0.00    -0.334 N 
ATOM      7  C   UNL     1       4.487  -0.432  -2.276  1.00  0.00     0.087 A 
ATOM      8  C   UNL     1       4.314  -2.606  -1.636  1.00  0.00     0.107 A 
ATOM      9  C   UNL     1       5.236  -1.151  -3.167  1.00  0.00     0.020 A 
ATOM     10  C   UNL     1       5.112  -2.496  -2.784  1.00  0.00     0.033 A 
BRANCH   8  11
ATOM     11  C   UNL     1       4.120  -3.910  -1.001  1.00  0.00     0.267 C 
ATOM     12  O   UNL     1       4.525  -4.933  -1.573  1.00  0.00    -0.268 OA
ATOM     13  N   UNL     1       3.548  -4.214   0.201  1.00  0.00    -0.350 N 
ATOM     14  H   UNL     1       3.733  -5.154   0.427  1.00  0.00     0.163 HD
BRANCH  13  15
ATOM     15  C   UNL     1       2.756  -3.605   1.256  1.00  0.00     0.126 C 
BRANCH  15  16
ATOM     16  C   UNL     1       1.269  -3.499   0.911  1.00  0.00     0.121 C 
BRANCH  16  17
ATOM     17  C   UNL     1       0.437  -4.672   1.379  1.00  0.00     0.221 C 
ATOM     18  O   UNL     1      -0.227  -4.612   2.415  1.00  0.00    -0.275 OA
ATOM     19  N   UNL     1       0.394  -5.809   0.620  1.00  0.00    -0.353 N 
ATOM     20  H   UNL     1      -0.222  -6.512   0.929  1.00  0.00     0.163 HD
BRANCH  19  21
ATOM     21  C   UNL     1       1.133  -6.100  -0.561  1.00  0.00     0.082 C 
ATOM     22  C   UNL     1       0.506  -6.870  -1.690  1.00  0.00     0.027 C 
ATOM     23  C   UNL     1       0.846  -5.423  -1.872  1.00  0.00     0.027 C 
ENDBRANCH  19  21
ENDBRANCH  16  17
ENDBRANCH  15  16
ENDBRANCH  13  15
ENDBRANCH   8  11
ENDBRANCH   5   6
ENDBRANCH   2   5
BRANCH   3  24
ATOM     24  C   UNL     1       1.937   2.774  -0.338  1.00  0.00     0.117 C 
BRANCH  24  25
ATOM     25  C   UNL     1       2.227   3.616   0.905  1.00  0.00     0.042 C 
BRANCH  25  26
ATOM     26  C   UNL     1       3.684   4.073   1.001  1.00  0.00     0.118 C 
BRANCH  26  27
ATOM     27  N   UNL     1       4.034   4.926  -0.120  1.00  0.00    -0.352 N 
ATOM     28  C   UNL     1       5.182   5.620  -0.402  1.00  0.00     0.251 C 
ATOM     29  H   UNL     1       3.324   5.023  -0.795  1.00  0.00     0.163 HD
ATOM     30  O   UNL     1       5.114   6.536  -1.213  1.00  0.00    -0.269 OA
BRANCH  28  31
ATOM     31  C   UNL     1       6.479   5.312   0.242  1.00  0.00     0.039 A 
ATOM     32  C   UNL     1       7.355   6.387   0.458  1.00  0.00     0.014 A 
ATOM     33  C   UNL     1       6.891   4.008   0.532  1.00  0.00     0.014 A 
ATOM     34  C   UNL     1       8.611   6.168   1.015  1.00  0.00     0.010 A 
ATOM     35  C   UNL     1       8.143   3.784   1.101  1.00  0.00     0.010 A 
ATOM     36  C   UNL     1       8.990   4.868   1.365  1.00  0.00    -0.014 A 
BRANCH  36  37
ATOM     37  C   UNL     1      10.182   4.673   2.221  1.00  0.00     0.031 A 
ATOM     38  C   UNL     1       9.828   4.877   3.724  1.00  0.00     0.074 A 
ATOM     39  C   UNL     1      11.348   4.340   1.582  1.00  0.00     0.049 A 
ATOM     40  N   UNL     1      10.593   5.092   4.750  1.00  0.00    -0.248 NA
ATOM     41  C   UNL     1       8.392   4.891   4.141  1.00  0.00     0.031 C 
ATOM     42  C   UNL     1      11.492   4.168   0.116  1.00  0.00     0.029 A 
ATOM     43  N   UNL     1      12.636   4.069   2.004  1.00  0.00    -0.354 N 
ATOM     44  C   UNL     1       9.788   5.016   5.916  1.00  0.00     0.074 A 
ATOM     45  C   UNL     1       8.432   5.010   5.470  1.00  0.00     0.031 C 
ATOM     46  C   UNL     1      12.775   3.911  -0.224  1.00  0.00     0.029 A 
ATOM     47  C   UNL     1      13.595   3.848   0.970  1.00  0.00     0.049 A 
ATOM     48  H   UNL     1      12.877   4.030   2.958  1.00  0.00     0.167 HD
ATOM     49  C   UNL     1      10.295   4.825   7.172  1.00  0.00     0.037 A 
ATOM     50  C   UNL     1      14.950   3.655   1.075  1.00  0.00     0.037 A 
ATOM     51  C   UNL     1      11.715   4.792   7.106  1.00  0.00     0.049 A 
ATOM     52  C   UNL     1      15.185   3.465   2.511  1.00  0.00     0.074 A 
ATOM     53  C   UNL     1      12.639   5.775   6.873  1.00  0.00     0.029 A 
ATOM     54  N   UNL     1      12.294   3.560   6.919  1.00  0.00    -0.354 N 
ATOM     55  N   UNL     1      14.847   2.402   3.176  1.00  0.00    -0.248 NA
ATOM     56  C   UNL     1      15.777   4.566   3.280  1.00  0.00     0.031 C 
ATOM     57  C   UNL     1      13.591   5.125   6.067  1.00  0.00     0.029 A 
ATOM     58  C   UNL     1      13.346   3.745   6.059  1.00  0.00     0.049 A 
ATOM     59  H   UNL     1      12.009   2.709   7.324  1.00  0.00     0.167 HD
ATOM     60  C   UNL     1      14.864   2.855   4.469  1.00  0.00     0.074 A 
ATOM     61  C   UNL     1      15.722   4.022   4.492  1.00  0.00     0.031 C 
ATOM     62  C   UNL     1      13.787   2.625   5.262  1.00  0.00     0.037 A 
BRANCH  49  63
ATOM     63  C   UNL     1       9.681   4.427   8.490  1.00  0.00     0.058 A 
ATOM     64  C   UNL     1      10.436   4.664   9.669  1.00  0.00     0.135 A 
ATOM     65  C   UNL     1       8.617   3.523   8.613  1.00  0.00     0.135 A 
ATOM     66  F   UNL     1      11.429   5.570   9.679  1.00  0.00    -0.206 F 
ATOM     67  C   UNL     1      10.259   3.930  10.836  1.00  0.00     0.059 A 
ATOM     68  C   UNL     1       8.392   2.805   9.794  1.00  0.00     0.059 A 
ATOM     69  F   UNL     1       7.823   3.249   7.569  1.00  0.00    -0.206 F 
ATOM     70  C   UNL     1       9.257   2.970  10.876  1.00  0.00     0.060 A 
BRANCH  70  71
ATOM     71  S   UNL     1       9.143   1.919  12.340  1.00  0.00     0.124 S 
ATOM     72  O   UNL     1      10.306   1.055  12.177  1.00  0.00    -0.237 OA
ATOM     73  O   UNL     1       9.226   2.892  13.426  1.00  0.00    -0.237 OA
ATOM     74  O   UNL     1       7.844   1.272  12.187  1.00  0.00    -0.744 OA
ENDBRANCH  70  71
ENDBRANCH  49  63
BRANCH  50  75
ATOM     75  C   UNL     1      16.205   3.664   0.213  1.00  0.00     0.058 A 
ATOM     76  C   UNL     1      16.269   3.926  -1.160  1.00  0.00     0.135 A 
ATOM     77  C   UNL     1      17.485   3.598   0.847  1.00  0.00     0.135 A 
ATOM     78  F   UNL     1      15.171   3.877  -1.923  1.00  0.00    -0.206 F 
ATOM     79  C   UNL     1      17.475   4.280  -1.803  1.00  0.00     0.059 A 
ATOM     80  C   UNL     1      18.675   4.005   0.253  1.00  0.00     0.059 A 
ATOM     81  F   UNL     1      17.626   3.180   2.114  1.00  0.00    -0.206 F 
ATOM     82  C   UNL     1      18.657   4.389  -1.071  1.00  0.00     0.060 A 
BRANCH  82  83
ATOM     83  S   UNL     1      20.127   5.172  -1.775  1.00  0.00     0.124 S 
ATOM     84  O   UNL     1      20.776   4.056  -2.452  1.00  0.00    -0.237 OA
ATOM     85  O   UNL     1      19.552   6.197  -2.642  1.00  0.00    -0.237 OA
ATOM     86  O   UNL     1      20.824   5.689  -0.599  1.00  0.00    -0.744 OA
ENDBRANCH  82  83
ENDBRANCH  50  75
BRANCH  62  87
ATOM     87  C   UNL     1      12.985   1.381   4.913  1.00  0.00     0.058 A 
ATOM     88  C   UNL     1      13.597   0.117   4.970  1.00  0.00     0.135 A 
ATOM     89  C   UNL     1      11.659   1.392   4.445  1.00  0.00     0.135 A 
ATOM     90  F   UNL     1      14.861   0.008   5.410  1.00  0.00    -0.206 F 
ATOM     91  C   UNL     1      12.937  -1.057   4.592  1.00  0.00     0.059 A 
ATOM     92  C   UNL     1      10.970   0.234   4.067  1.00  0.00     0.059 A 
ATOM     93  F   UNL     1      10.986   2.537   4.337  1.00  0.00    -0.206 F 
ATOM     94  C   UNL     1      11.618  -0.991   4.146  1.00  0.00     0.060 A 
BRANCH  94  95
ATOM     95  S   UNL     1      10.761  -2.521   3.703  1.00  0.00     0.124 S 
ATOM     96  O   UNL     1      11.585  -3.039   2.616  1.00  0.00    -0.237 OA
ATOM     97  O   UNL     1      10.816  -3.274   4.952  1.00  0.00    -0.237 OA
ATOM     98  O   UNL     1       9.428  -2.070   3.308  1.00  0.00    -0.744 OA
ENDBRANCH  94  95
ENDBRANCH  62  87
ENDBRANCH  36  37
ENDBRANCH  28  31
ENDBRANCH  26  27
ENDBRANCH  25  26
ENDBRANCH  24  25
ENDBRANCH   3  24
TORSDOF 19
