REMARK SMILES O=C(NCCCNC(=O)c1ccc(N2C(=O)/C(=C/c3ccco3)SC2=S)cc1)c1ccc(-c2c3nc(c(-c4c(F)cc(S(=O)(=O)[O-])cc4F)c4ccc([nH]4)c(-c4c(F)cc(S(=O)(=O)[O-])cc4F)c4nc(c(-c5c(F)cc(S(=O)(=O)[O-])cc5F)c5ccc2[nH]5)C=C4)C=C3)cc1
REMARK SMILES IDX 4 1 3 2 1 3 2 4 29 6 30 7 94 8 31 9 93 10 32 11 33 12 34 13
REMARK SMILES IDX 87 14 35 15 92 16 86 17 88 18 36 19 91 20 85 21 84 22 37 24
REMARK SMILES IDX 71 25 50 26 70 27 51 28 54 29 69 30 89 31 52 32 53 33 68 35
REMARK SMILES IDX 90 36 55 37 38 38 39 39 48 40 40 41 41 42 47 43 49 44 42 45
REMARK SMILES IDX 43 46 44 47 45 48 46 49 72 50 73 51 82 52 74 53 75 54 81 55
REMARK SMILES IDX 83 56 76 57 77 58 78 59 79 60 80 61 56 62 57 63 66 64 58 65
REMARK SMILES IDX 59 66 65 67 67 68 60 69 61 70 62 71 63 72 64 73 5 74 6 75
REMARK SMILES IDX 7 76 8 77 9 79 10 80 11 81 28 82 12 83 27 84 13 85 14 86
REMARK SMILES IDX 15 87 25 88 16 89 17 90 24 91 26 92 18 93 19 94 20 95 23 96
REMARK SMILES IDX 21 97 22 98
REMARK H PARENT 3 5 88 23 54 34 7 78
REMARK Flexibility Score: inf
ROOT
ATOM      1  C   UNL     1       4.591   0.916  -1.164  1.00  0.00     0.118 C 
ENDROOT
BRANCH   1   2
ATOM      2  N   UNL     1       3.171   0.827  -0.837  1.00  0.00    -0.352 N 
ATOM      3  O   UNL     1       1.280  -0.034   0.025  1.00  0.00    -0.269 OA
ATOM      4  C   UNL     1       2.509  -0.001   0.039  1.00  0.00     0.251 C 
ATOM      5  H   UNL     1       2.595   1.461  -1.322  1.00  0.00     0.163 HD
BRANCH   4   6
ATOM      6  C   UNL     1       3.265  -0.859   0.977  1.00  0.00     0.039 A 
ATOM      7  C   UNL     1       4.409  -0.378   1.609  1.00  0.00     0.014 A 
ATOM      8  C   UNL     1       2.819  -2.159   1.242  1.00  0.00     0.014 A 
ATOM      9  C   UNL     1       5.208  -1.243   2.343  1.00  0.00     0.010 A 
ATOM     10  C   UNL     1       3.562  -2.994   2.085  1.00  0.00     0.010 A 
ATOM     11  C   UNL     1       4.784  -2.555   2.614  1.00  0.00    -0.014 A 
BRANCH  11  12
ATOM     12  C   UNL     1       5.622  -3.391   3.514  1.00  0.00     0.031 A 
ATOM     13  C   UNL     1       6.273  -4.660   3.036  1.00  0.00     0.074 A 
ATOM     14  C   UNL     1       5.859  -2.934   4.761  1.00  0.00     0.049 A 
ATOM     15  N   UNL     1       7.107  -5.442   3.673  1.00  0.00    -0.248 NA
ATOM     16  C   UNL     1       5.944  -5.120   1.678  1.00  0.00     0.031 C 
ATOM     17  C   UNL     1       5.254  -1.731   5.344  1.00  0.00     0.029 A 
ATOM     18  N   UNL     1       6.697  -3.390   5.745  1.00  0.00    -0.354 N 
ATOM     19  C   UNL     1       7.395  -6.488   2.804  1.00  0.00     0.074 A 
ATOM     20  C   UNL     1       6.622  -6.258   1.603  1.00  0.00     0.031 C 
ATOM     21  C   UNL     1       5.795  -1.503   6.548  1.00  0.00     0.029 A 
ATOM     22  C   UNL     1       6.733  -2.576   6.853  1.00  0.00     0.049 A 
ATOM     23  H   UNL     1       7.222  -4.219   5.666  1.00  0.00     0.167 HD
ATOM     24  C   UNL     1       8.235  -7.536   2.990  1.00  0.00     0.037 A 
ATOM     25  C   UNL     1       7.436  -2.681   7.995  1.00  0.00     0.037 A 
ATOM     26  C   UNL     1       9.011  -7.749   4.187  1.00  0.00     0.049 A 
ATOM     27  C   UNL     1       8.375  -3.838   8.163  1.00  0.00     0.074 A 
ATOM     28  C   UNL     1       9.892  -8.779   4.472  1.00  0.00     0.029 A 
ATOM     29  N   UNL     1       9.007  -6.914   5.295  1.00  0.00    -0.354 N 
ATOM     30  N   UNL     1       8.636  -4.812   7.324  1.00  0.00    -0.248 NA
ATOM     31  C   UNL     1       9.113  -3.914   9.429  1.00  0.00     0.031 C 
ATOM     32  C   UNL     1      10.398  -8.582   5.762  1.00  0.00     0.029 A 
ATOM     33  C   UNL     1       9.863  -7.409   6.267  1.00  0.00     0.049 A 
ATOM     34  H   UNL     1       8.474  -6.090   5.379  1.00  0.00     0.167 HD
ATOM     35  C   UNL     1       9.564  -5.622   7.964  1.00  0.00     0.074 A 
ATOM     36  C   UNL     1       9.848  -5.001   9.243  1.00  0.00     0.031 C 
ATOM     37  C   UNL     1      10.121  -6.783   7.539  1.00  0.00     0.037 A 
BRANCH  24  38
ATOM     38  C   UNL     1       8.363  -8.539   1.876  1.00  0.00     0.058 A 
ATOM     39  C   UNL     1       9.067  -8.243   0.698  1.00  0.00     0.135 A 
ATOM     40  C   UNL     1       7.831  -9.832   2.012  1.00  0.00     0.135 A 
ATOM     41  F   UNL     1       9.583  -7.019   0.509  1.00  0.00    -0.206 F 
ATOM     42  C   UNL     1       9.226  -9.188  -0.312  1.00  0.00     0.059 A 
ATOM     43  C   UNL     1       7.996 -10.800   1.024  1.00  0.00     0.059 A 
ATOM     44  F   UNL     1       7.148 -10.169   3.117  1.00  0.00    -0.206 F 
ATOM     45  C   UNL     1       8.688 -10.464  -0.139  1.00  0.00     0.060 A 
BRANCH  45  46
ATOM     46  S   UNL     1       8.921 -11.684  -1.450  1.00  0.00     0.124 S 
ATOM     47  O   UNL     1       7.995 -11.197  -2.469  1.00  0.00    -0.237 OA
ATOM     48  O   UNL     1      10.339 -11.540  -1.764  1.00  0.00    -0.237 OA
ATOM     49  O   UNL     1       8.548 -12.944  -0.814  1.00  0.00    -0.744 OA
ENDBRANCH  45  46
ENDBRANCH  24  38
BRANCH  25  50
ATOM     50  C   UNL     1       7.255  -1.669   9.068  1.00  0.00     0.058 A 
ATOM     51  C   UNL     1       8.270  -0.758   9.392  1.00  0.00     0.135 A 
ATOM     52  C   UNL     1       6.044  -1.579   9.773  1.00  0.00     0.135 A 
ATOM     53  F   UNL     1       9.445  -0.805   8.747  1.00  0.00    -0.206 F 
ATOM     54  C   UNL     1       8.099   0.196  10.390  1.00  0.00     0.059 A 
ATOM     55  C   UNL     1       5.838  -0.615  10.753  1.00  0.00     0.059 A 
ATOM     56  F   UNL     1       5.033  -2.413   9.483  1.00  0.00    -0.206 F 
ATOM     57  C   UNL     1       6.878   0.259  11.065  1.00  0.00     0.060 A 
BRANCH  57  58
ATOM     58  S   UNL     1       6.640   1.528  12.327  1.00  0.00     0.124 S 
ATOM     59  O   UNL     1       7.348   0.946  13.461  1.00  0.00    -0.237 OA
ATOM     60  O   UNL     1       7.264   2.697  11.715  1.00  0.00    -0.237 OA
ATOM     61  O   UNL     1       5.188   1.600  12.457  1.00  0.00    -0.744 OA
ENDBRANCH  57  58
ENDBRANCH  25  50
BRANCH  37  62
ATOM     62  C   UNL     1      11.090  -7.446   8.475  1.00  0.00     0.058 A 
ATOM     63  C   UNL     1      10.653  -8.098   9.638  1.00  0.00     0.135 A 
ATOM     64  C   UNL     1      12.468  -7.427   8.208  1.00  0.00     0.135 A 
ATOM     65  F   UNL     1       9.345  -8.136   9.941  1.00  0.00    -0.206 F 
ATOM     66  C   UNL     1      11.552  -8.676  10.527  1.00  0.00     0.059 A 
ATOM     67  C   UNL     1      13.383  -8.021   9.071  1.00  0.00     0.059 A 
ATOM     68  F   UNL     1      12.935  -6.824   7.104  1.00  0.00    -0.206 F 
ATOM     69  C   UNL     1      12.917  -8.626  10.238  1.00  0.00     0.060 A 
BRANCH  69  70
ATOM     70  S   UNL     1      14.078  -9.374  11.400  1.00  0.00     0.124 S 
ATOM     71  O   UNL     1      14.127  -8.365  12.454  1.00  0.00    -0.237 OA
ATOM     72  O   UNL     1      13.412 -10.625  11.751  1.00  0.00    -0.237 OA
ATOM     73  O   UNL     1      15.297  -9.520  10.612  1.00  0.00    -0.744 OA
ENDBRANCH  69  70
ENDBRANCH  37  62
ENDBRANCH  11  12
ENDBRANCH   4   6
ENDBRANCH   1   2
BRANCH   1  74
ATOM     74  C   UNL     1       4.895   0.489  -2.592  1.00  0.00     0.042 C 
BRANCH  74  75
ATOM     75  C   UNL     1       4.280   1.403  -3.640  1.00  0.00     0.118 C 
BRANCH  75  76
ATOM     76  N   UNL     1       4.824   2.754  -3.576  1.00  0.00    -0.352 N 
ATOM     77  C   UNL     1       5.791   3.341  -4.351  1.00  0.00     0.251 C 
ATOM     78  H   UNL     1       4.441   3.328  -2.875  1.00  0.00     0.163 HD
ATOM     79  O   UNL     1       6.291   4.412  -4.020  1.00  0.00    -0.269 OA
BRANCH  77  80
ATOM     80  C   UNL     1       6.232   2.683  -5.595  1.00  0.00     0.039 A 
ATOM     81  C   UNL     1       7.595   2.505  -5.828  1.00  0.00     0.016 A 
ATOM     82  C   UNL     1       5.300   2.270  -6.546  1.00  0.00     0.016 A 
ATOM     83  C   UNL     1       8.017   1.861  -6.995  1.00  0.00     0.027 A 
ATOM     84  C   UNL     1       5.726   1.608  -7.698  1.00  0.00     0.027 A 
ATOM     85  C   UNL     1       7.091   1.405  -7.950  1.00  0.00     0.051 A 
BRANCH  85  86
ATOM     86  N   UNL     1       7.532   0.737  -9.138  1.00  0.00    -0.261 N 
ATOM     87  C   UNL     1       8.592  -0.170  -9.069  1.00  0.00     0.270 C 
ATOM     88  C   UNL     1       6.987   0.939 -10.403  1.00  0.00     0.152 C 
ATOM     89  O   UNL     1       9.230  -0.507  -8.080  1.00  0.00    -0.268 OA
ATOM     90  C   UNL     1       8.880  -0.733 -10.414  1.00  0.00     0.084 C 
ATOM     91  S   UNL     1       7.771  -0.121 -11.569  1.00  0.00    -0.054 SA
ATOM     92  S   UNL     1       5.865   2.059 -10.946  1.00  0.00    -0.051 S 
ATOM     93  C   UNL     1       9.878  -1.604 -10.611  1.00  0.00     0.068 C 
BRANCH  93  94
ATOM     94  C   UNL     1      10.209  -2.113 -11.894  1.00  0.00     0.127 A 
ATOM     95  C   UNL     1      10.648  -1.438 -13.027  1.00  0.00     0.050 A 
ATOM     96  O   UNL     1      10.146  -3.450 -12.205  1.00  0.00    -0.465 OA
ATOM     97  C   UNL     1      10.814  -2.388 -14.061  1.00  0.00     0.042 A 
ATOM     98  C   UNL     1      10.489  -3.600 -13.507  1.00  0.00     0.195 A 
ENDBRANCH  93  94
ENDBRANCH  85  86
ENDBRANCH  77  80
ENDBRANCH  75  76
ENDBRANCH  74  75
ENDBRANCH   1  74
TORSDOF 15
