REMARK SMILES CSCC[C@H](C(=O)NCCCNC(=O)c1ccc(-c2c3nc(c(-c4c(F)cc(S(=O)(=O)[O-])cc4F)c4ccc([nH]4)c(-c4c(F)cc(S(=O)(=O)[O-])cc4F)c4nc(c(-c5c(F)cc(S(=O)(=O)[O-])cc5F)c5ccc2[nH]5)C=C4)C=C3)cc1)N1C(=O)/C(=C/c2cn(C)c3ccccc23)SC1=S
REMARK SMILES IDX 10 1 9 2 8 3 6 4 7 5 5 7 4 8 3 9 2 10 1 11 81 12 82 13 97 14
REMARK SMILES IDX 83 15 84 16 96 17 98 18 85 19 86 20 87 21 95 22 88 23 90 24
REMARK SMILES IDX 94 25 89 26 91 27 93 28 92 29 11 30 12 31 13 32 14 34 15 35
REMARK SMILES IDX 16 36 80 37 17 38 79 39 18 40 19 41 20 42 73 43 21 44 78 45
REMARK SMILES IDX 72 46 74 47 22 48 77 49 71 50 70 51 23 53 57 54 36 55 56 56
REMARK SMILES IDX 37 57 40 58 55 59 75 60 38 61 39 62 54 64 76 65 41 66 24 67
REMARK SMILES IDX 25 68 34 69 26 70 27 71 33 72 35 73 28 74 29 75 30 76 31 77
REMARK SMILES IDX 32 78 58 79 59 80 68 81 60 82 61 83 67 84 69 85 62 86 63 87
REMARK SMILES IDX 64 88 65 89 66 90 42 91 43 92 52 93 44 94 45 95 51 96 53 97
REMARK SMILES IDX 46 98 47 99 48 100 49 101 50 102
REMARK H PARENT 8 6 12 33 74 52 40 63
REMARK Flexibility Score: inf
ROOT
ATOM      1  C   UNL     1       3.330  -3.449   0.921  1.00  0.00     0.042 C 
ENDROOT
BRANCH   1   2
ATOM      2  C   UNL     1       2.953  -4.064  -0.433  1.00  0.00     0.117 C 
BRANCH   2   3
ATOM      3  N   UNL     1       1.512  -4.039  -0.699  1.00  0.00    -0.354 N 
ATOM      4  C   UNL     1       0.652  -3.270  -1.436  1.00  0.00     0.243 C 
ATOM      5  O   UNL     1      -0.499  -3.728  -1.532  1.00  0.00    -0.273 OA
ATOM      6  H   UNL     1       1.040  -4.762  -0.226  1.00  0.00     0.163 HD
BRANCH   4   7
ATOM      7  C   UNL     1       0.981  -1.897  -2.162  1.00  0.00     0.182 C 
BRANCH   7   8
ATOM      8  C   UNL     1       2.107  -1.083  -1.396  1.00  0.00     0.046 C 
BRANCH   8   9
ATOM      9  C   UNL     1       1.738  -0.291  -0.118  1.00  0.00     0.072 C 
BRANCH   9  10
ATOM     10  S   UNL     1       0.002  -0.025   0.344  1.00  0.00    -0.165 SA
ATOM     11  C   UNL     1      -0.336  -1.544   1.271  1.00  0.00     0.085 C 
ENDBRANCH   9  10
ENDBRANCH   8   9
ENDBRANCH   7   8
BRANCH   7  12
ATOM     12  N   UNL     1       0.887  -1.865  -3.954  1.00  0.00    -0.280 N 
ATOM     13  C   UNL     1       0.950  -3.149  -4.184  1.00  0.00     0.266 C 
ATOM     14  C   UNL     1       1.253  -0.377  -5.258  1.00  0.00     0.149 C 
ATOM     15  O   UNL     1       1.324  -4.195  -3.746  1.00  0.00    -0.268 OA
ATOM     16  C   UNL     1       0.401  -2.609  -5.315  1.00  0.00     0.081 C 
ATOM     17  S   UNL     1       1.078  -0.659  -6.711  1.00  0.00    -0.054 SA
ATOM     18  S   UNL     1       1.949   1.474  -5.261  1.00  0.00    -0.052 S 
ATOM     19  C   UNL     1      -0.100  -3.814  -5.915  1.00  0.00     0.031 C 
BRANCH  19  20
ATOM     20  C   UNL     1      -0.096  -3.660  -7.306  1.00  0.00     0.001 A 
ATOM     21  C   UNL     1      -1.152  -3.080  -8.028  1.00  0.00     0.094 A 
ATOM     22  C   UNL     1       0.790  -2.588  -7.075  1.00  0.00     0.007 A 
ATOM     23  N   UNL     1      -1.620  -1.898  -7.431  1.00  0.00    -0.350 N 
ATOM     24  C   UNL     1      -0.773  -1.595  -6.374  1.00  0.00     0.048 A 
ATOM     25  C   UNL     1       2.340  -2.255  -5.852  1.00  0.00     0.011 A 
ATOM     26  C   UNL     1      -2.442  -0.908  -8.094  1.00  0.00     0.149 C 
ATOM     27  C   UNL     1      -0.628  -0.550  -4.742  1.00  0.00     0.027 A 
ATOM     28  C   UNL     1       2.539  -1.112  -4.259  1.00  0.00     0.001 A 
ATOM     29  C   UNL     1       0.910  -0.127  -3.588  1.00  0.00     0.002 A 
ENDBRANCH  19  20
ENDBRANCH   7  12
ENDBRANCH   4   7
ENDBRANCH   2   3
ENDBRANCH   1   2
BRANCH   1  30
ATOM     30  C   UNL     1       3.036  -4.312   2.149  1.00  0.00     0.118 C 
BRANCH  30  31
ATOM     31  N   UNL     1       4.070  -5.306   2.374  1.00  0.00    -0.352 N 
ATOM     32  C   UNL     1       4.969  -5.449   3.405  1.00  0.00     0.251 C 
ATOM     33  H   UNL     1       4.139  -5.992   1.671  1.00  0.00     0.163 HD
ATOM     34  O   UNL     1       5.927  -6.202   3.234  1.00  0.00    -0.269 OA
BRANCH  32  35
ATOM     35  C   UNL     1       4.822  -4.740   4.704  1.00  0.00     0.039 A 
ATOM     36  C   UNL     1       5.985  -4.393   5.405  1.00  0.00     0.014 A 
ATOM     37  C   UNL     1       3.578  -4.512   5.302  1.00  0.00     0.014 A 
ATOM     38  C   UNL     1       5.901  -3.817   6.678  1.00  0.00     0.010 A 
ATOM     39  C   UNL     1       3.494  -3.870   6.543  1.00  0.00     0.010 A 
ATOM     40  C   UNL     1       4.654  -3.539   7.260  1.00  0.00    -0.014 A 
BRANCH  40  41
ATOM     41  C   UNL     1       4.570  -2.943   8.624  1.00  0.00     0.031 A 
ATOM     42  C   UNL     1       3.962  -3.719   9.768  1.00  0.00     0.074 A 
ATOM     43  C   UNL     1       5.035  -1.696   8.837  1.00  0.00     0.049 A 
ATOM     44  N   UNL     1       3.834  -3.376  11.025  1.00  0.00    -0.248 NA
ATOM     45  C   UNL     1       3.400  -5.042   9.453  1.00  0.00     0.031 C 
ATOM     46  C   UNL     1       5.592  -0.816   7.807  1.00  0.00     0.029 A 
ATOM     47  N   UNL     1       5.123  -0.952   9.988  1.00  0.00    -0.354 N 
ATOM     48  C   UNL     1       3.171  -4.431  11.646  1.00  0.00     0.074 A 
ATOM     49  C   UNL     1       2.873  -5.401  10.614  1.00  0.00     0.031 C 
ATOM     50  C   UNL     1       5.995   0.331   8.377  1.00  0.00     0.029 A 
ATOM     51  C   UNL     1       5.707   0.281   9.807  1.00  0.00     0.049 A 
ATOM     52  H   UNL     1       4.798  -1.270  10.861  1.00  0.00     0.167 HD
ATOM     53  C   UNL     1       2.862  -4.593  12.956  1.00  0.00     0.037 A 
ATOM     54  C   UNL     1       5.991   1.255  10.693  1.00  0.00     0.037 A 
ATOM     55  C   UNL     1       3.188  -3.638  13.986  1.00  0.00     0.049 A 
ATOM     56  C   UNL     1       5.682   1.035  12.149  1.00  0.00     0.074 A 
ATOM     57  C   UNL     1       2.968  -3.730  15.350  1.00  0.00     0.029 A 
ATOM     58  N   UNL     1       3.808  -2.417  13.765  1.00  0.00    -0.354 N 
ATOM     59  N   UNL     1       5.112   0.002  12.724  1.00  0.00    -0.248 NA
ATOM     60  C   UNL     1       6.072   2.103  13.079  1.00  0.00     0.031 C 
ATOM     61  C   UNL     1       3.424  -2.550  15.949  1.00  0.00     0.029 A 
ATOM     62  C   UNL     1       3.970  -1.742  14.964  1.00  0.00     0.049 A 
ATOM     63  H   UNL     1       4.092  -2.079  12.885  1.00  0.00     0.167 HD
ATOM     64  C   UNL     1       5.097   0.286  14.085  1.00  0.00     0.074 A 
ATOM     65  C   UNL     1       5.733   1.578  14.248  1.00  0.00     0.031 C 
ATOM     66  C   UNL     1       4.602  -0.454  15.108  1.00  0.00     0.037 A 
BRANCH  53  67
ATOM     67  C   UNL     1       2.142  -5.855  13.355  1.00  0.00     0.058 A 
ATOM     68  C   UNL     1       2.779  -7.107  13.328  1.00  0.00     0.135 A 
ATOM     69  C   UNL     1       0.810  -5.813  13.798  1.00  0.00     0.135 A 
ATOM     70  F   UNL     1       4.048  -7.211  12.901  1.00  0.00    -0.206 F 
ATOM     71  C   UNL     1       2.113  -8.273  13.692  1.00  0.00     0.059 A 
ATOM     72  C   UNL     1       0.133  -6.963  14.195  1.00  0.00     0.059 A 
ATOM     73  F   UNL     1       0.151  -4.644  13.848  1.00  0.00    -0.206 F 
ATOM     74  C   UNL     1       0.788  -8.192  14.122  1.00  0.00     0.060 A 
BRANCH  74  75
ATOM     75  S   UNL     1      -0.063  -9.714  14.590  1.00  0.00     0.124 S 
ATOM     76  O   UNL     1      -0.303 -10.325  13.286  1.00  0.00    -0.237 OA
ATOM     77  O   UNL     1       0.927 -10.382  15.429  1.00  0.00    -0.237 OA
ATOM     78  O   UNL     1      -1.253  -9.238  15.288  1.00  0.00    -0.744 OA
ENDBRANCH  74  75
ENDBRANCH  53  67
BRANCH  54  79
ATOM     79  C   UNL     1       6.649   2.508  10.232  1.00  0.00     0.058 A 
ATOM     80  C   UNL     1       7.990   2.778  10.547  1.00  0.00     0.135 A 
ATOM     81  C   UNL     1       5.960   3.448   9.451  1.00  0.00     0.135 A 
ATOM     82  F   UNL     1       8.690   1.912  11.296  1.00  0.00    -0.206 F 
ATOM     83  C   UNL     1       8.620   3.942  10.119  1.00  0.00     0.059 A 
ATOM     84  C   UNL     1       6.576   4.607   8.989  1.00  0.00     0.059 A 
ATOM     85  F   UNL     1       4.682   3.228   9.106  1.00  0.00    -0.206 F 
ATOM     86  C   UNL     1       7.904   4.850   9.336  1.00  0.00     0.060 A 
BRANCH  86  87
ATOM     87  S   UNL     1       8.747   6.330   8.734  1.00  0.00     0.124 S 
ATOM     88  O   UNL     1       8.809   7.144   9.942  1.00  0.00    -0.237 OA
ATOM     89  O   UNL     1      10.018   5.788   8.262  1.00  0.00    -0.237 OA
ATOM     90  O   UNL     1       7.856   6.818   7.686  1.00  0.00    -0.744 OA
ENDBRANCH  86  87
ENDBRANCH  54  79
BRANCH  66  91
ATOM     91  C   UNL     1       4.758   0.107  16.495  1.00  0.00     0.058 A 
ATOM     92  C   UNL     1       4.010   1.212  16.932  1.00  0.00     0.135 A 
ATOM     93  C   UNL     1       5.664  -0.470  17.398  1.00  0.00     0.135 A 
ATOM     94  F   UNL     1       3.131   1.803  16.107  1.00  0.00    -0.206 F 
ATOM     95  C   UNL     1       4.190   1.754  18.201  1.00  0.00     0.059 A 
ATOM     96  C   UNL     1       5.839   0.037  18.681  1.00  0.00     0.059 A 
ATOM     97  F   UNL     1       6.393  -1.538  17.036  1.00  0.00    -0.206 F 
ATOM     98  C   UNL     1       5.114   1.164  19.066  1.00  0.00     0.060 A 
BRANCH  98  99
ATOM     99  S   UNL     1       5.351   1.882  20.705  1.00  0.00     0.124 S 
ATOM    100  O   UNL     1       6.166   3.052  20.396  1.00  0.00    -0.237 OA
ATOM    101  O   UNL     1       3.981   2.158  21.130  1.00  0.00    -0.237 OA
ATOM    102  O   UNL     1       6.028   0.821  21.444  1.00  0.00    -0.744 OA
ENDBRANCH  98  99
ENDBRANCH  66  91
ENDBRANCH  40  41
ENDBRANCH  32  35
ENDBRANCH  30  31
ENDBRANCH   1  30
TORSDOF 18
