REMARK SMILES C[C@H](NC(=O)CCN1C(=O)/C(=C/c2ccc([N+](=O)[O-])cc2)SC1=S)C(=O)NCCCNC(=O)c1ccc(-c2c3nc(c(-c4c(F)cc(S(=O)(=O)[O-])cc4F)c4ccc([nH]4)c(-c4c(F)cc(S(=O)(=O)[O-])cc4F)c4nc(c(-c5c(F)cc(S(=O)(=O)[O-])cc5F)c5ccc2[nH]5)C=C4)C=C3)cc1
REMARK SMILES IDX 25 1 26 2 27 3 2 5 1 6 3 7 4 8 5 10 6 11 7 12 8 13 9 14
REMARK SMILES IDX 23 15 10 16 11 17 22 18 24 19 12 20 13 21 14 22 21 23 15 24
REMARK SMILES IDX 20 25 16 26 17 27 18 28 19 29 28 30 29 31 30 32 31 33 32 34
REMARK SMILES IDX 33 36 34 37 35 38 99 39 36 40 98 41 37 42 38 43 39 44 92 45
REMARK SMILES IDX 40 46 97 47 91 48 93 49 41 50 96 51 90 52 89 53 42 55 76 56
REMARK SMILES IDX 55 57 75 58 56 59 59 60 74 61 94 62 57 63 58 64 73 66 95 67
REMARK SMILES IDX 60 68 43 69 44 70 53 71 45 72 46 73 52 74 54 75 47 76 48 77
REMARK SMILES IDX 49 78 50 79 51 80 77 81 78 82 87 83 79 84 80 85 86 86 88 87
REMARK SMILES IDX 81 88 82 89 83 90 84 91 85 92 61 93 62 94 71 95 63 96 64 97
REMARK SMILES IDX 70 98 72 99 65 100 66 101 67 102 68 103 69 104
REMARK H PARENT 27 4 3 9 31 35 93 54 59 65
REMARK Flexibility Score: inf
ROOT
ATOM      1  C   UNL     1      -1.327   0.067  -0.419  1.00  0.00     0.242 C 
ATOM      2  O   UNL     1      -2.060   0.522  -1.301  1.00  0.00    -0.273 OA
ATOM      3  N   UNL     1      -1.926  -0.378   0.725  1.00  0.00    -0.354 N 
ATOM      4  H   UNL     1      -2.910  -0.373   0.696  1.00  0.00     0.163 HD
ENDROOT
BRANCH   1   5
ATOM      5  C   UNL     1       0.142  -0.289  -0.721  1.00  0.00     0.168 C 
ATOM      6  C   UNL     1       0.069  -1.756  -1.098  1.00  0.00     0.041 C 
BRANCH   5   7
ATOM      7  N   UNL     1       1.047   0.025   0.391  1.00  0.00    -0.345 N 
ATOM      8  C   UNL     1       2.280  -0.403   0.760  1.00  0.00     0.222 C 
ATOM      9  H   UNL     1       0.676   0.696   1.007  1.00  0.00     0.164 HD
ATOM     10  O   UNL     1       2.769   0.084   1.782  1.00  0.00    -0.275 OA
BRANCH   8  11
ATOM     11  C   UNL     1       3.054  -1.440  -0.022  1.00  0.00     0.122 C 
BRANCH  11  12
ATOM     12  C   UNL     1       3.088  -2.822   0.662  1.00  0.00     0.137 C 
BRANCH  12  13
ATOM     13  N   UNL     1       2.235  -3.845   0.024  1.00  0.00    -0.292 N 
ATOM     14  C   UNL     1       1.167  -4.378   0.736  1.00  0.00     0.266 C 
ATOM     15  C   UNL     1       2.419  -4.357  -1.244  1.00  0.00     0.148 C 
ATOM     16  O   UNL     1       0.941  -4.226   1.921  1.00  0.00    -0.268 OA
ATOM     17  C   UNL     1       0.238  -5.088  -0.204  1.00  0.00     0.081 C 
ATOM     18  S   UNL     1       1.034  -5.355  -1.693  1.00  0.00    -0.054 SA
ATOM     19  S   UNL     1       3.693  -4.095  -2.290  1.00  0.00    -0.052 S 
ATOM     20  C   UNL     1      -1.054  -5.195   0.147  1.00  0.00     0.029 C 
BRANCH  20  21
ATOM     21  C   UNL     1      -2.304  -5.488  -0.594  1.00  0.00    -0.024 A 
ATOM     22  C   UNL     1      -3.505  -5.425   0.143  1.00  0.00     0.015 A 
ATOM     23  C   UNL     1      -2.400  -5.694  -1.976  1.00  0.00     0.015 A 
ATOM     24  C   UNL     1      -4.758  -5.529  -0.475  1.00  0.00     0.086 A 
ATOM     25  C   UNL     1      -3.650  -5.803  -2.609  1.00  0.00     0.086 A 
ATOM     26  C   UNL     1      -4.825  -5.707  -1.857  1.00  0.00     0.269 A 
BRANCH  26  27
ATOM     27  N   UNL     1      -6.133  -5.778  -2.522  1.00  0.00     0.062 N 
ATOM     28  O   UNL     1      -7.145  -5.773  -1.807  1.00  0.00    -0.258 OA
ATOM     29  O   UNL     1      -6.146  -5.843  -3.760  1.00  0.00    -0.258 OA
ENDBRANCH  26  27
ENDBRANCH  20  21
ENDBRANCH  12  13
ENDBRANCH  11  12
ENDBRANCH   8  11
ENDBRANCH   5   7
ENDBRANCH   1   5
BRANCH   3  30
ATOM     30  C   UNL     1      -1.365  -0.858   1.980  1.00  0.00     0.117 C 
BRANCH  30  31
ATOM     31  C   UNL     1      -1.531   0.204   3.059  1.00  0.00     0.042 C 
BRANCH  31  32
ATOM     32  C   UNL     1      -2.993   0.457   3.402  1.00  0.00     0.118 C 
BRANCH  32  33
ATOM     33  N   UNL     1      -3.628  -0.695   4.030  1.00  0.00    -0.352 N 
ATOM     34  C   UNL     1      -4.426  -0.718   5.149  1.00  0.00     0.251 C 
ATOM     35  H   UNL     1      -3.465  -1.565   3.599  1.00  0.00     0.163 HD
ATOM     36  O   UNL     1      -4.755  -1.784   5.655  1.00  0.00    -0.269 OA
BRANCH  34  37
ATOM     37  C   UNL     1      -4.849   0.567   5.736  1.00  0.00     0.039 A 
ATOM     38  C   UNL     1      -4.650   0.792   7.098  1.00  0.00     0.014 A 
ATOM     39  C   UNL     1      -5.365   1.572   4.912  1.00  0.00     0.014 A 
ATOM     40  C   UNL     1      -4.917   2.056   7.624  1.00  0.00     0.010 A 
ATOM     41  C   UNL     1      -5.535   2.853   5.419  1.00  0.00     0.010 A 
ATOM     42  C   UNL     1      -5.326   3.106   6.782  1.00  0.00    -0.014 A 
BRANCH  42  43
ATOM     43  C   UNL     1      -5.554   4.471   7.317  1.00  0.00     0.031 A 
ATOM     44  C   UNL     1      -6.922   5.092   7.229  1.00  0.00     0.074 A 
ATOM     45  C   UNL     1      -4.519   5.166   7.829  1.00  0.00     0.049 A 
ATOM     46  N   UNL     1      -7.317   6.276   7.618  1.00  0.00    -0.248 NA
ATOM     47  C   UNL     1      -7.978   4.294   6.582  1.00  0.00     0.031 C 
ATOM     48  C   UNL     1      -3.131   4.700   7.888  1.00  0.00     0.029 A 
ATOM     49  N   UNL     1      -4.473   6.412   8.399  1.00  0.00    -0.354 N 
ATOM     50  C   UNL     1      -8.654   6.369   7.248  1.00  0.00     0.074 A 
ATOM     51  C   UNL     1      -8.985   5.152   6.542  1.00  0.00     0.031 C 
ATOM     52  C   UNL     1      -2.380   5.630   8.500  1.00  0.00     0.029 A 
ATOM     53  C   UNL     1      -3.224   6.766   8.853  1.00  0.00     0.049 A 
ATOM     54  H   UNL     1      -5.260   6.999   8.476  1.00  0.00     0.167 HD
ATOM     55  C   UNL     1      -9.537   7.363   7.505  1.00  0.00     0.037 A 
ATOM     56  C   UNL     1      -2.813   7.877   9.495  1.00  0.00     0.037 A 
ATOM     57  C   UNL     1      -9.209   8.551   8.248  1.00  0.00     0.049 A 
ATOM     58  C   UNL     1      -3.826   8.939   9.825  1.00  0.00     0.074 A 
ATOM     59  C   UNL     1     -10.040   9.590   8.625  1.00  0.00     0.029 A 
ATOM     60  N   UNL     1      -7.946   8.850   8.738  1.00  0.00    -0.354 N 
ATOM     61  N   UNL     1      -5.104   8.979   9.531  1.00  0.00    -0.248 NA
ATOM     62  C   UNL     1      -3.345  10.097  10.590  1.00  0.00     0.031 C 
ATOM     63  C   UNL     1      -9.272  10.533   9.317  1.00  0.00     0.029 A 
ATOM     64  C   UNL     1      -7.972  10.061   9.408  1.00  0.00     0.049 A 
ATOM     65  H   UNL     1      -7.148   8.285   8.625  1.00  0.00     0.167 HD
ATOM     66  C   UNL     1      -5.587  10.154  10.096  1.00  0.00     0.074 A 
ATOM     67  C   UNL     1      -4.465  10.785  10.764  1.00  0.00     0.031 C 
ATOM     68  C   UNL     1      -6.842  10.667  10.066  1.00  0.00     0.037 A 
BRANCH  55  69
ATOM     69  C   UNL     1     -10.942   7.192   6.995  1.00  0.00     0.058 A 
ATOM     70  C   UNL     1     -11.810   6.231   7.539  1.00  0.00     0.135 A 
ATOM     71  C   UNL     1     -11.433   8.005   5.961  1.00  0.00     0.135 A 
ATOM     72  F   UNL     1     -11.387   5.413   8.516  1.00  0.00    -0.206 F 
ATOM     73  C   UNL     1     -13.102   6.058   7.053  1.00  0.00     0.059 A 
ATOM     74  C   UNL     1     -12.733   7.869   5.480  1.00  0.00     0.059 A 
ATOM     75  F   UNL     1     -10.647   8.938   5.402  1.00  0.00    -0.206 F 
ATOM     76  C   UNL     1     -13.554   6.881   6.022  1.00  0.00     0.060 A 
BRANCH  76  77
ATOM     77  S   UNL     1     -15.234   6.646   5.405  1.00  0.00     0.124 S 
ATOM     78  O   UNL     1     -15.089   5.420   4.627  1.00  0.00    -0.237 OA
ATOM     79  O   UNL     1     -16.006   6.526   6.638  1.00  0.00    -0.237 OA
ATOM     80  O   UNL     1     -15.483   7.857   4.630  1.00  0.00    -0.744 OA
ENDBRANCH  76  77
ENDBRANCH  55  69
BRANCH  56  81
ATOM     81  C   UNL     1      -1.393   8.011   9.915  1.00  0.00     0.058 A 
ATOM     82  C   UNL     1      -1.031   7.913  11.268  1.00  0.00     0.135 A 
ATOM     83  C   UNL     1      -0.370   8.218   8.979  1.00  0.00     0.135 A 
ATOM     84  F   UNL     1      -1.974   7.717  12.201  1.00  0.00    -0.206 F 
ATOM     85  C   UNL     1       0.292   8.036  11.680  1.00  0.00     0.059 A 
ATOM     86  C   UNL     1       0.964   8.320   9.363  1.00  0.00     0.059 A 
ATOM     87  F   UNL     1      -0.661   8.297   7.671  1.00  0.00    -0.206 F 
ATOM     88  C   UNL     1       1.284   8.238  10.718  1.00  0.00     0.060 A 
BRANCH  88  89
ATOM     89  S   UNL     1       3.005   8.345  11.257  1.00  0.00     0.124 S 
ATOM     90  O   UNL     1       3.047   9.680  11.841  1.00  0.00    -0.237 OA
ATOM     91  O   UNL     1       3.102   7.233  12.198  1.00  0.00    -0.237 OA
ATOM     92  O   UNL     1       3.754   8.173  10.017  1.00  0.00    -0.744 OA
ENDBRANCH  88  89
ENDBRANCH  56  81
BRANCH  68  93
ATOM     93  C   UNL     1      -7.069  11.956  10.803  1.00  0.00     0.058 A 
ATOM     94  C   UNL     1      -6.577  13.178  10.319  1.00  0.00     0.135 A 
ATOM     95  C   UNL     1      -7.805  11.970  11.998  1.00  0.00     0.135 A 
ATOM     96  F   UNL     1      -5.865  13.217   9.182  1.00  0.00    -0.206 F 
ATOM     97  C   UNL     1      -6.771  14.365  11.017  1.00  0.00     0.059 A 
ATOM     98  C   UNL     1      -8.036  13.149  12.698  1.00  0.00     0.059 A 
ATOM     99  F   UNL     1      -8.310  10.829  12.495  1.00  0.00    -0.206 F 
ATOM    100  C   UNL     1      -7.497  14.339  12.209  1.00  0.00     0.060 A 
BRANCH 100 101
ATOM    101  S   UNL     1      -7.744  15.884  13.109  1.00  0.00     0.124 S 
ATOM    102  O   UNL     1      -6.440  16.065  13.739  1.00  0.00    -0.237 OA
ATOM    103  O   UNL     1      -8.067  16.823  12.040  1.00  0.00    -0.237 OA
ATOM    104  O   UNL     1      -8.844  15.575  14.017  1.00  0.00    -0.744 OA
ENDBRANCH 100 101
ENDBRANCH  68  93
ENDBRANCH  42  43
ENDBRANCH  34  37
ENDBRANCH  32  33
ENDBRANCH  31  32
ENDBRANCH  30  31
ENDBRANCH   3  30
TORSDOF 19
