REMARK SMILES CCn1nc(C(C)C)cc1C(=O)N[C@@H](CC(N)=O)C(=O)NCCCNC(=O)c1ccc(-c2c3nc(c(-c4c(F)cc(S(=O)(=O)[O-])cc4F)c4ccc([nH]4)c(-c4c(F)cc(S(=O)(=O)[O-])cc4F)c4nc(c(-c5c(F)cc(S(=O)(=O)[O-])cc5F)c5ccc2[nH]5)C=C4)C=C3)cc1
REMARK SMILES IDX 23 1 22 2 21 3 19 4 20 5 14 7 13 8 11 9 12 10 10 12 3 13
REMARK SMILES IDX 4 14 5 15 9 16 2 17 1 18 6 19 7 20 8 21 15 22 16 23 17 24
REMARK SMILES IDX 18 25 24 28 25 29 26 30 27 32 28 33 29 34 93 35 30 36 92 37
REMARK SMILES IDX 31 38 32 39 33 40 86 41 34 42 91 43 85 44 87 45 35 46 90 47
REMARK SMILES IDX 84 48 83 49 36 51 70 52 49 53 69 54 50 55 53 56 68 57 88 58
REMARK SMILES IDX 51 59 52 60 67 62 89 63 54 64 37 65 38 66 47 67 39 68 40 69
REMARK SMILES IDX 46 70 48 71 41 72 42 73 43 74 44 75 45 76 71 77 72 78 81 79
REMARK SMILES IDX 73 80 74 81 80 82 82 83 75 84 76 85 77 86 78 87 79 88 55 89
REMARK SMILES IDX 56 90 65 91 57 92 58 93 64 94 66 95 59 96 60 97 61 98 62 99
REMARK SMILES IDX 63 100
REMARK H PARENT 21 6 13 11 17 26 17 27 25 31 87 50 53 61
REMARK Flexibility Score: inf
ROOT
ATOM      1  C   UNL     1       3.157  -2.260  -5.816  1.00  0.00     0.042 C 
ENDROOT
BRANCH   1   2
ATOM      2  C   UNL     1       3.728  -0.872  -6.075  1.00  0.00     0.117 C 
BRANCH   2   3
ATOM      3  N   UNL     1       2.752   0.166  -6.357  1.00  0.00    -0.354 N 
ATOM      4  C   UNL     1       2.675   1.440  -5.867  1.00  0.00     0.243 C 
ATOM      5  O   UNL     1       2.110   2.284  -6.571  1.00  0.00    -0.273 OA
ATOM      6  H   UNL     1       2.044  -0.083  -6.994  1.00  0.00     0.163 HD
BRANCH   4   7
ATOM      7  C   UNL     1       3.360   1.879  -4.556  1.00  0.00     0.181 C 
BRANCH   7   8
ATOM      8  N   UNL     1       3.118   0.935  -3.467  1.00  0.00    -0.338 N 
ATOM      9  C   UNL     1       2.249   0.911  -2.401  1.00  0.00     0.270 C 
ATOM     10  O   UNL     1       2.196  -0.192  -1.858  1.00  0.00    -0.268 OA
ATOM     11  H   UNL     1       3.702   0.144  -3.506  1.00  0.00     0.164 HD
BRANCH   9  12
ATOM     12  C   UNL     1       1.566   2.091  -1.904  1.00  0.00     0.126 A 
ATOM     13  N   UNL     1       1.048   2.283  -0.626  1.00  0.00    -0.260 N 
ATOM     14  N   UNL     1       0.881   3.603  -0.336  1.00  0.00    -0.177 NA
ATOM     15  C   UNL     1       0.960   4.217  -1.512  1.00  0.00     0.066 A 
ATOM     16  C   UNL     1       1.245   3.290  -2.531  1.00  0.00     0.059 A 
BRANCH  13  17
ATOM     17  C   UNL     1       0.554   1.399   0.415  1.00  0.00     0.142 C 
ATOM     18  C   UNL     1       0.803  -0.093   0.429  1.00  0.00     0.029 C 
ENDBRANCH  13  17
BRANCH  15  19
ATOM     19  C   UNL     1       0.788   5.702  -1.655  1.00  0.00     0.034 C 
ATOM     20  C   UNL     1      -0.682   6.111  -1.625  1.00  0.00     0.014 C 
ATOM     21  C   UNL     1       1.593   6.486  -0.614  1.00  0.00     0.014 C 
ENDBRANCH  15  19
ENDBRANCH   9  12
ENDBRANCH   7   8
BRANCH   7  22
ATOM     22  C   UNL     1       4.801   2.364  -4.715  1.00  0.00     0.134 C 
BRANCH  22  23
ATOM     23  C   UNL     1       5.785   1.365  -5.253  1.00  0.00     0.220 C 
ATOM     24  N   UNL     1       6.016   1.423  -6.595  1.00  0.00    -0.370 N 
ATOM     25  O   UNL     1       6.341   0.525  -4.554  1.00  0.00    -0.275 OA
ATOM     26  H   UNL     1       5.563   2.103  -7.144  1.00  0.00     0.159 HD
ATOM     27  H   UNL     1       6.637   0.785  -7.015  1.00  0.00     0.159 HD
ENDBRANCH  22  23
ENDBRANCH   7  22
ENDBRANCH   4   7
ENDBRANCH   2   3
ENDBRANCH   1   2
BRANCH   1  28
ATOM     28  C   UNL     1       2.743  -2.987  -7.083  1.00  0.00     0.118 C 
BRANCH  28  29
ATOM     29  N   UNL     1       3.850  -3.191  -8.023  1.00  0.00    -0.352 N 
ATOM     30  C   UNL     1       3.782  -3.608  -9.342  1.00  0.00     0.251 C 
ATOM     31  H   UNL     1       4.752  -3.009  -7.673  1.00  0.00     0.163 HD
ATOM     32  O   UNL     1       4.775  -3.975  -9.944  1.00  0.00    -0.269 OA
BRANCH  30  33
ATOM     33  C   UNL     1       2.452  -3.625  -9.976  1.00  0.00     0.039 A 
ATOM     34  C   UNL     1       1.928  -4.815 -10.480  1.00  0.00     0.014 A 
ATOM     35  C   UNL     1       1.669  -2.482  -9.861  1.00  0.00     0.014 A 
ATOM     36  C   UNL     1       0.561  -4.885 -10.739  1.00  0.00     0.010 A 
ATOM     37  C   UNL     1       0.300  -2.604  -9.973  1.00  0.00     0.010 A 
ATOM     38  C   UNL     1      -0.270  -3.793 -10.429  1.00  0.00    -0.014 A 
BRANCH  38  39
ATOM     39  C   UNL     1      -1.731  -3.955 -10.465  1.00  0.00     0.031 A 
ATOM     40  C   UNL     1      -2.269  -5.187  -9.814  1.00  0.00     0.074 A 
ATOM     41  C   UNL     1      -2.605  -3.001 -10.854  1.00  0.00     0.049 A 
ATOM     42  N   UNL     1      -2.811  -6.213 -10.385  1.00  0.00    -0.248 NA
ATOM     43  C   UNL     1      -2.107  -5.340  -8.358  1.00  0.00     0.031 C 
ATOM     44  C   UNL     1      -2.316  -1.602 -11.194  1.00  0.00     0.029 A 
ATOM     45  N   UNL     1      -3.970  -3.052 -10.926  1.00  0.00    -0.354 N 
ATOM     46  C   UNL     1      -3.280  -7.024  -9.353  1.00  0.00     0.074 A 
ATOM     47  C   UNL     1      -2.660  -6.538  -8.148  1.00  0.00     0.031 C 
ATOM     48  C   UNL     1      -3.459  -0.887 -11.178  1.00  0.00     0.029 A 
ATOM     49  C   UNL     1      -4.570  -1.810 -11.059  1.00  0.00     0.049 A 
ATOM     50  H   UNL     1      -4.479  -3.894 -10.886  1.00  0.00     0.167 HD
ATOM     51  C   UNL     1      -4.349  -7.850  -9.536  1.00  0.00     0.037 A 
ATOM     52  C   UNL     1      -5.888  -1.517 -11.114  1.00  0.00     0.037 A 
ATOM     53  C   UNL     1      -4.708  -7.938 -10.927  1.00  0.00     0.049 A 
ATOM     54  C   UNL     1      -6.606  -2.713 -11.608  1.00  0.00     0.074 A 
ATOM     55  C   UNL     1      -4.269  -8.600 -12.050  1.00  0.00     0.029 A 
ATOM     56  N   UNL     1      -5.546  -6.939 -11.342  1.00  0.00    -0.354 N 
ATOM     57  N   UNL     1      -6.412  -3.231 -12.793  1.00  0.00    -0.248 NA
ATOM     58  C   UNL     1      -7.347  -3.553 -10.676  1.00  0.00     0.031 C 
ATOM     59  C   UNL     1      -4.745  -7.851 -13.169  1.00  0.00     0.029 A 
ATOM     60  C   UNL     1      -5.477  -6.764 -12.699  1.00  0.00     0.049 A 
ATOM     61  H   UNL     1      -6.125  -6.415 -10.743  1.00  0.00     0.167 HD
ATOM     62  C   UNL     1      -6.622  -4.582 -12.614  1.00  0.00     0.074 A 
ATOM     63  C   UNL     1      -7.363  -4.697 -11.366  1.00  0.00     0.031 C 
ATOM     64  C   UNL     1      -5.890  -5.509 -13.293  1.00  0.00     0.037 A 
BRANCH  51  65
ATOM     65  C   UNL     1      -5.372  -8.222  -8.477  1.00  0.00     0.058 A 
ATOM     66  C   UNL     1      -6.325  -9.226  -8.761  1.00  0.00     0.135 A 
ATOM     67  C   UNL     1      -5.652  -7.426  -7.345  1.00  0.00     0.135 A 
ATOM     68  F   UNL     1      -6.167 -10.040  -9.817  1.00  0.00    -0.206 F 
ATOM     69  C   UNL     1      -7.500  -9.379  -8.019  1.00  0.00     0.059 A 
ATOM     70  C   UNL     1      -6.790  -7.596  -6.561  1.00  0.00     0.059 A 
ATOM     71  F   UNL     1      -4.890  -6.379  -7.008  1.00  0.00    -0.206 F 
ATOM     72  C   UNL     1      -7.731  -8.545  -6.930  1.00  0.00     0.060 A 
BRANCH  72  73
ATOM     73  S   UNL     1      -9.291  -8.661  -6.035  1.00  0.00     0.124 S 
ATOM     74  O   UNL     1     -10.220  -8.072  -6.992  1.00  0.00    -0.237 OA
ATOM     75  O   UNL     1      -9.417 -10.100  -5.822  1.00  0.00    -0.237 OA
ATOM     76  O   UNL     1      -9.042  -7.877  -4.829  1.00  0.00    -0.744 OA
ENDBRANCH  72  73
ENDBRANCH  51  65
BRANCH  52  77
ATOM     77  C   UNL     1      -6.558  -0.308 -10.587  1.00  0.00     0.058 A 
ATOM     78  C   UNL     1      -7.827   0.086 -11.037  1.00  0.00     0.135 A 
ATOM     79  C   UNL     1      -6.065   0.344  -9.438  1.00  0.00     0.135 A 
ATOM     80  F   UNL     1      -8.372  -0.498 -12.114  1.00  0.00    -0.206 F 
ATOM     81  C   UNL     1      -8.587   1.041 -10.358  1.00  0.00     0.059 A 
ATOM     82  C   UNL     1      -6.800   1.305  -8.749  1.00  0.00     0.059 A 
ATOM     83  F   UNL     1      -4.883  -0.002  -8.903  1.00  0.00    -0.206 F 
ATOM     84  C   UNL     1      -8.073   1.629  -9.201  1.00  0.00     0.060 A 
BRANCH  84  85
ATOM     85  S   UNL     1      -9.127   2.727  -8.227  1.00  0.00     0.124 S 
ATOM     86  O   UNL     1      -9.238   3.890  -9.100  1.00  0.00    -0.237 OA
ATOM     87  O   UNL     1     -10.338   1.929  -8.071  1.00  0.00    -0.237 OA
ATOM     88  O   UNL     1      -8.359   2.936  -7.003  1.00  0.00    -0.744 OA
ENDBRANCH  84  85
ENDBRANCH  52  77
BRANCH  64  89
ATOM     89  C   UNL     1      -5.348  -5.140 -14.641  1.00  0.00     0.058 A 
ATOM     90  C   UNL     1      -4.342  -4.190 -14.875  1.00  0.00     0.135 A 
ATOM     91  C   UNL     1      -5.830  -5.854 -15.750  1.00  0.00     0.135 A 
ATOM     92  F   UNL     1      -3.775  -3.521 -13.861  1.00  0.00    -0.206 F 
ATOM     93  C   UNL     1      -3.859  -3.940 -16.163  1.00  0.00     0.059 A 
ATOM     94  C   UNL     1      -5.345  -5.641 -17.036  1.00  0.00     0.059 A 
ATOM     95  F   UNL     1      -6.764  -6.806 -15.583  1.00  0.00    -0.206 F 
ATOM     96  C   UNL     1      -4.367  -4.672 -17.237  1.00  0.00     0.060 A 
BRANCH  96  97
ATOM     97  S   UNL     1      -3.695  -4.399 -18.891  1.00  0.00     0.124 S 
ATOM     98  O   UNL     1      -4.257  -3.099 -19.240  1.00  0.00    -0.237 OA
ATOM     99  O   UNL     1      -2.254  -4.425 -18.657  1.00  0.00    -0.237 OA
ATOM    100  O   UNL     1      -4.211  -5.529 -19.660  1.00  0.00    -0.744 OA
ENDBRANCH  96  97
ENDBRANCH  64  89
ENDBRANCH  38  39
ENDBRANCH  30  33
ENDBRANCH  28  29
ENDBRANCH   1  28
TORSDOF 19
