REMARK SMILES CC(=O)c1ccc(N2/C(=[NH+]/C(=O)CCC(=O)NCCCNC(=O)c3ccc(-c4c5nc(c(-c6c(F)cc(S(=O)(=O)[O-])cc6F)c6ccc([nH]6)c(-c6c(F)cc(S(=O)(=O)[O-])cc6F)c6nc(c(-c7c(F)cc(S(=O)(=O)[O-])cc7F)c7ccc4[nH]7)C=C6)C=C5)cc3)S[C@H]3CS(=O)(=O)C[C@@H]32)cc1
REMARK SMILES IDX 18 1 17 2 15 3 16 4 14 6 13 7 11 8 8 9 9 10 97 11 10 12
REMARK SMILES IDX 90 13 91 14 96 15 92 17 93 18 12 19 94 20 95 21 7 22 4 23
REMARK SMILES IDX 5 24 99 25 6 26 98 27 2 28 1 29 3 30 19 31 20 32 21 33 22 34
REMARK SMILES IDX 23 36 24 37 25 38 89 39 26 40 88 41 27 42 28 43 29 44 82 45
REMARK SMILES IDX 30 46 87 47 81 48 83 49 31 50 86 51 80 52 79 53 32 55 66 56
REMARK SMILES IDX 45 57 65 58 46 59 49 60 64 61 84 62 47 63 48 64 63 66 85 67
REMARK SMILES IDX 50 68 33 69 34 70 43 71 35 72 36 73 42 74 44 75 37 76 38 77
REMARK SMILES IDX 39 78 40 79 41 80 67 81 68 82 77 83 69 84 70 85 76 86 78 87
REMARK SMILES IDX 71 88 72 89 73 90 74 91 75 92 51 93 52 94 61 95 53 96 54 97
REMARK SMILES IDX 60 98 62 99 55 100 56 101 57 102 58 103 59 104
REMARK H PARENT 17 5 10 16 21 35 83 54 49 65
REMARK Flexibility Score: inf
ROOT
ATOM      1  C   UNL     1       6.307  -3.803   4.682  1.00  0.00     0.117 C 
ENDROOT
BRANCH   1   2
ATOM      2  N   UNL     1       5.785  -2.515   5.171  1.00  0.00    -0.356 N 
ATOM      3  C   UNL     1       5.833  -1.871   6.377  1.00  0.00     0.220 C 
ATOM      4  O   UNL     1       5.492  -0.685   6.411  1.00  0.00    -0.275 OA
ATOM      5  H   UNL     1       5.296  -2.010   4.482  1.00  0.00     0.163 HD
BRANCH   3   6
ATOM      6  C   UNL     1       6.255  -2.564   7.655  1.00  0.00     0.112 C 
BRANCH   6   7
ATOM      7  C   UNL     1       5.051  -2.699   8.589  1.00  0.00     0.138 C 
BRANCH   7   8
ATOM      8  C   UNL     1       4.298  -3.885   8.085  1.00  0.00     0.308 C 
ATOM      9  N   UNL     1       2.014  -4.573   5.432  1.00  0.00    -0.217 N 
ATOM     10  C   UNL     1       2.538  -4.465   6.737  1.00  0.00     0.319 C 
ATOM     11  C   UNL     1       1.793  -6.234   5.218  1.00  0.00     0.212 C 
ATOM     12  N   UNL     1       3.397  -3.575   7.098  1.00  0.00    -0.204 N 
ATOM     13  S   UNL     1       2.138  -5.910   7.724  1.00  0.00    -0.029 SA
ATOM     14  C   UNL     1       2.661  -6.896   6.341  1.00  0.00     0.120 C 
ATOM     15  C   UNL     1       2.303  -7.198   4.113  1.00  0.00     0.188 C 
ATOM     16  H   UNL     1       3.408  -2.687   6.672  1.00  0.00     0.316 HD
ATOM     17  C   UNL     1       2.556  -8.420   6.369  1.00  0.00     0.156 C 
ATOM     18  S   UNL     1       2.114  -8.846   4.713  1.00  0.00     0.155 S 
ATOM     19  O   UNL     1       4.740  -5.009   8.332  1.00  0.00    -0.247 OA
ATOM     20  O   UNL     1       3.130  -9.661   4.091  1.00  0.00    -0.229 OA
ATOM     21  O   UNL     1       0.707  -9.195   4.660  1.00  0.00    -0.229 OA
BRANCH   9  22
ATOM     22  C   UNL     1       1.537  -3.348   4.793  1.00  0.00     0.128 A 
ATOM     23  C   UNL     1       0.386  -1.003   3.263  1.00  0.00     0.018 A 
ATOM     24  C   UNL     1       0.007  -1.324   4.581  1.00  0.00     0.016 A 
ATOM     25  C   UNL     1       1.397  -1.751   2.768  1.00  0.00     0.016 A 
ATOM     26  C   UNL     1       0.611  -2.435   5.351  1.00  0.00     0.052 A 
ATOM     27  C   UNL     1       1.874  -2.847   3.504  1.00  0.00     0.052 A 
BRANCH  23  28
ATOM     28  C   UNL     1      -0.218   0.019   2.335  1.00  0.00     0.159 C 
ATOM     29  C   UNL     1       0.310   0.122   0.893  1.00  0.00     0.093 C 
ATOM     30  O   UNL     1      -1.128   0.741   2.730  1.00  0.00    -0.295 OA
ENDBRANCH  23  28
ENDBRANCH   9  22
ENDBRANCH   7   8
ENDBRANCH   6   7
ENDBRANCH   3   6
ENDBRANCH   1   2
BRANCH   1  31
ATOM     31  C   UNL     1       5.265  -4.932   4.295  1.00  0.00     0.042 C 
BRANCH  31  32
ATOM     32  C   UNL     1       4.191  -4.450   3.280  1.00  0.00     0.118 C 
BRANCH  32  33
ATOM     33  N   UNL     1       2.962  -5.378   2.666  1.00  0.00    -0.352 N 
ATOM     34  C   UNL     1       1.548  -5.163   2.135  1.00  0.00     0.251 C 
ATOM     35  H   UNL     1       3.214  -6.329   2.636  1.00  0.00     0.163 HD
ATOM     36  O   UNL     1       1.474  -4.798   0.959  1.00  0.00    -0.269 OA
BRANCH  34  37
ATOM     37  C   UNL     1       0.128  -5.683   2.845  1.00  0.00     0.039 A 
ATOM     38  C   UNL     1      -0.537  -6.861   2.458  1.00  0.00     0.014 A 
ATOM     39  C   UNL     1      -0.607  -5.023   3.844  1.00  0.00     0.014 A 
ATOM     40  C   UNL     1      -1.675  -7.415   3.189  1.00  0.00     0.010 A 
ATOM     41  C   UNL     1      -1.631  -5.597   4.663  1.00  0.00     0.010 A 
ATOM     42  C   UNL     1      -2.194  -6.827   4.360  1.00  0.00    -0.014 A 
BRANCH  42  43
ATOM     43  C   UNL     1      -3.416  -7.262   5.161  1.00  0.00     0.031 A 
ATOM     44  C   UNL     1      -4.745  -6.569   4.883  1.00  0.00     0.074 A 
ATOM     45  C   UNL     1      -3.365  -8.078   6.246  1.00  0.00     0.049 A 
ATOM     46  N   UNL     1      -5.923  -6.734   5.439  1.00  0.00    -0.248 NA
ATOM     47  C   UNL     1      -4.721  -5.510   3.861  1.00  0.00     0.031 C 
ATOM     48  C   UNL     1      -2.160  -8.718   6.769  1.00  0.00     0.029 A 
ATOM     49  N   UNL     1      -4.347  -8.486   7.140  1.00  0.00    -0.354 N 
ATOM     50  C   UNL     1      -6.780  -5.840   4.799  1.00  0.00     0.074 A 
ATOM     51  C   UNL     1      -5.968  -5.066   3.887  1.00  0.00     0.031 C 
ATOM     52  C   UNL     1      -2.465  -9.428   7.875  1.00  0.00     0.029 A 
ATOM     53  C   UNL     1      -3.896  -9.315   8.154  1.00  0.00     0.049 A 
ATOM     54  H   UNL     1      -5.288  -8.208   7.059  1.00  0.00     0.167 HD
ATOM     55  C   UNL     1      -8.124  -5.689   4.919  1.00  0.00     0.037 A 
ATOM     56  C   UNL     1      -4.553  -9.926   9.171  1.00  0.00     0.037 A 
ATOM     57  C   UNL     1      -8.937  -6.399   5.871  1.00  0.00     0.049 A 
ATOM     58  C   UNL     1      -6.055  -9.742   9.304  1.00  0.00     0.074 A 
ATOM     59  C   UNL     1     -10.309  -6.343   6.053  1.00  0.00     0.029 A 
ATOM     60  N   UNL     1      -8.445  -7.282   6.819  1.00  0.00    -0.354 N 
ATOM     61  N   UNL     1      -6.866  -9.014   8.572  1.00  0.00    -0.248 NA
ATOM     62  C   UNL     1      -6.735 -10.477  10.386  1.00  0.00     0.031 C 
ATOM     63  C   UNL     1     -10.641  -7.164   7.137  1.00  0.00     0.029 A 
ATOM     64  C   UNL     1      -9.483  -7.772   7.594  1.00  0.00     0.049 A 
ATOM     65  H   UNL     1      -7.497  -7.525   6.927  1.00  0.00     0.167 HD
ATOM     66  C   UNL     1      -8.148  -9.246   9.070  1.00  0.00     0.074 A 
ATOM     67  C   UNL     1      -8.009 -10.185  10.162  1.00  0.00     0.031 C 
ATOM     68  C   UNL     1      -9.334  -8.732   8.658  1.00  0.00     0.037 A 
BRANCH  55  69
ATOM     69  C   UNL     1      -8.807  -4.755   3.948  1.00  0.00     0.058 A 
ATOM     70  C   UNL     1      -8.877  -5.076   2.581  1.00  0.00     0.135 A 
ATOM     71  C   UNL     1      -9.431  -3.570   4.369  1.00  0.00     0.135 A 
ATOM     72  F   UNL     1      -8.293  -6.193   2.118  1.00  0.00    -0.206 F 
ATOM     73  C   UNL     1      -9.510  -4.244   1.664  1.00  0.00     0.059 A 
ATOM     74  C   UNL     1     -10.096  -2.734   3.471  1.00  0.00     0.059 A 
ATOM     75  F   UNL     1      -9.402  -3.212   5.662  1.00  0.00    -0.206 F 
ATOM     76  C   UNL     1     -10.120  -3.075   2.119  1.00  0.00     0.060 A 
BRANCH  76  77
ATOM     77  S   UNL     1     -10.953  -2.022   0.911  1.00  0.00     0.124 S 
ATOM     78  O   UNL     1      -9.822  -1.488   0.158  1.00  0.00    -0.237 OA
ATOM     79  O   UNL     1     -11.794  -2.977   0.196  1.00  0.00    -0.237 OA
ATOM     80  O   UNL     1     -11.669  -1.055   1.736  1.00  0.00    -0.744 OA
ENDBRANCH  76  77
ENDBRANCH  55  69
BRANCH  56  81
ATOM     81  C   UNL     1      -3.845 -10.833  10.139  1.00  0.00     0.058 A 
ATOM     82  C   UNL     1      -4.114 -12.214  10.168  1.00  0.00     0.135 A 
ATOM     83  C   UNL     1      -2.950 -10.342  11.103  1.00  0.00     0.135 A 
ATOM     84  F   UNL     1      -4.978 -12.745   9.288  1.00  0.00    -0.206 F 
ATOM     85  C   UNL     1      -3.559 -13.061  11.128  1.00  0.00     0.059 A 
ATOM     86  C   UNL     1      -2.358 -11.175  12.057  1.00  0.00     0.059 A 
ATOM     87  F   UNL     1      -2.644  -9.036  11.132  1.00  0.00    -0.206 F 
ATOM     88  C   UNL     1      -2.683 -12.531  12.073  1.00  0.00     0.060 A 
BRANCH  88  89
ATOM     89  S   UNL     1      -1.960 -13.640  13.308  1.00  0.00     0.124 S 
ATOM     90  O   UNL     1      -3.106 -13.919  14.165  1.00  0.00    -0.237 OA
ATOM     91  O   UNL     1      -1.492 -14.752  12.486  1.00  0.00    -0.237 OA
ATOM     92  O   UNL     1      -0.905 -12.831  13.910  1.00  0.00    -0.744 OA
ENDBRANCH  88  89
ENDBRANCH  56  81
BRANCH  68  93
ATOM     93  C   UNL     1     -10.589  -9.215   9.337  1.00  0.00     0.058 A 
ATOM     94  C   UNL     1     -10.920  -8.840  10.648  1.00  0.00     0.135 A 
ATOM     95  C   UNL     1     -11.509 -10.011   8.633  1.00  0.00     0.135 A 
ATOM     96  F   UNL     1     -10.077  -8.082  11.367  1.00  0.00    -0.206 F 
ATOM     97  C   UNL     1     -12.108  -9.253  11.244  1.00  0.00     0.059 A 
ATOM     98  C   UNL     1     -12.716 -10.411   9.198  1.00  0.00     0.059 A 
ATOM     99  F   UNL     1     -11.249 -10.389   7.371  1.00  0.00    -0.206 F 
ATOM    100  C   UNL     1     -13.002 -10.036  10.510  1.00  0.00     0.060 A 
BRANCH 100 101
ATOM    101  S   UNL     1     -14.558 -10.529  11.281  1.00  0.00     0.124 S 
ATOM    102  O   UNL     1     -14.108 -11.540  12.231  1.00  0.00    -0.237 OA
ATOM    103  O   UNL     1     -15.028  -9.276  11.864  1.00  0.00    -0.237 OA
ATOM    104  O   UNL     1     -15.350 -11.028  10.161  1.00  0.00    -0.744 OA
ENDBRANCH 100 101
ENDBRANCH  68  93
ENDBRANCH  42  43
ENDBRANCH  34  37
ENDBRANCH  32  33
ENDBRANCH  31  32
ENDBRANCH   1  31
TORSDOF 17
