REMARK SMILES [NH3+][C@@H](CCC1=c2ccccc2=NC1)C(=O)NCCCNC(=O)c1ccc(-c2c3nc(c(-c4c(F)cc(S(=O)(=O)[O-])cc4F)c4ccc([nH]4)c(-c4c(F)cc(S(=O)(=O)[O-])cc4F)c4nc(c(-c5c(F)cc(S(=O)(=O)[O-])cc5F)c5ccc2[nH]5)C=C4)C=C3)cc1
REMARK SMILES IDX 18 1 17 2 16 3 14 4 15 5 2 7 1 8 3 12 4 13 5 14 6 15 13 16
REMARK SMILES IDX 7 17 11 18 12 19 8 20 10 21 9 22 19 23 20 24 21 25 22 27
REMARK SMILES IDX 23 28 24 29 88 30 25 31 87 32 26 33 27 34 28 35 81 36 29 37
REMARK SMILES IDX 86 38 80 39 82 40 30 41 85 42 79 43 78 44 31 46 65 47 44 48
REMARK SMILES IDX 64 49 45 50 48 51 63 52 83 53 46 54 47 55 62 57 84 58 49 59
REMARK SMILES IDX 32 60 33 61 42 62 34 63 35 64 41 65 43 66 36 67 37 68 38 69
REMARK SMILES IDX 39 70 40 71 66 72 67 73 76 74 68 75 69 76 75 77 77 78 70 79
REMARK SMILES IDX 71 80 72 81 73 82 74 83 50 84 51 85 60 86 52 87 53 88 59 89
REMARK SMILES IDX 61 90 54 91 55 92 56 93 57 94 58 95
REMARK H PARENT 16 6 1 9 1 10 1 11 20 26 82 45 48 56
REMARK Flexibility Score: inf
ROOT
ATOM      1  C   UNL     1      -1.539  -0.771   1.951  1.00  0.00     0.042 C 
ENDROOT
BRANCH   1   2
ATOM      2  C   UNL     1      -0.394  -0.445   1.023  1.00  0.00     0.118 C 
BRANCH   2   3
ATOM      3  N   UNL     1      -0.884   0.061  -0.229  1.00  0.00    -0.351 N 
ATOM      4  C   UNL     1      -0.384  -0.149  -1.473  1.00  0.00     0.278 C 
ATOM      5  O   UNL     1      -1.068   0.203  -2.436  1.00  0.00    -0.268 OA
ATOM      6  H   UNL     1      -1.684   0.632  -0.177  1.00  0.00     0.163 HD
BRANCH   4   7
ATOM      7  C   UNL     1       1.002  -0.785  -1.659  1.00  0.00     0.271 C 
BRANCH   7   8
ATOM      8  N   UNL     1       2.013  -0.242  -0.726  1.00  0.00    -0.347 N 
ATOM      9  H   UNL     1       2.910  -0.698  -0.894  1.00  0.00     0.345 HD
ATOM     10  H   UNL     1       1.718  -0.416   0.235  1.00  0.00     0.345 HD
ATOM     11  H   UNL     1       2.110   0.762  -0.875  1.00  0.00     0.345 HD
ENDBRANCH   7   8
BRANCH   7  12
ATOM     12  C   UNL     1       1.028  -2.319  -1.825  1.00  0.00     0.080 C 
BRANCH  12  13
ATOM     13  C   UNL     1       0.527  -3.337  -0.745  1.00  0.00     0.040 C 
BRANCH  13  14
ATOM     14  C   UNL     1      -0.958  -3.576  -0.519  1.00  0.00    -0.039 C 
ATOM     15  C   UNL     1      -1.683  -3.632   0.621  1.00  0.00     0.001 A 
ATOM     16  C   UNL     1      -1.861  -3.635  -1.780  1.00  0.00     0.174 C 
ATOM     17  C   UNL     1      -1.524  -3.203   2.418  1.00  0.00     0.010 A 
ATOM     18  C   UNL     1      -3.388  -3.361  -0.192  1.00  0.00     0.065 A 
ATOM     19  N   UNL     1      -3.336  -3.498  -1.478  1.00  0.00    -0.280 NA
ATOM     20  C   UNL     1      -2.743  -2.431   3.212  1.00  0.00     0.001 A 
ATOM     21  C   UNL     1      -4.758  -2.563   0.883  1.00  0.00     0.028 A 
ATOM     22  C   UNL     1      -4.424  -2.065   2.350  1.00  0.00     0.002 A 
ENDBRANCH  13  14
ENDBRANCH  12  13
ENDBRANCH   7  12
ENDBRANCH   4   7
ENDBRANCH   2   3
ENDBRANCH   1   2
BRANCH   1  23
ATOM     23  C   UNL     1      -2.702  -1.868   1.208  1.00  0.00     0.118 C 
BRANCH  23  24
ATOM     24  N   UNL     1      -3.390  -3.744   1.837  1.00  0.00    -0.352 N 
ATOM     25  C   UNL     1      -4.039  -4.570   2.986  1.00  0.00     0.251 C 
ATOM     26  H   UNL     1      -3.238  -4.367   1.090  1.00  0.00     0.163 HD
ATOM     27  O   UNL     1      -4.177  -5.774   2.717  1.00  0.00    -0.269 OA
BRANCH  25  28
ATOM     28  C   UNL     1      -4.431  -4.157   4.466  1.00  0.00     0.039 A 
ATOM     29  C   UNL     1      -5.127  -3.000   4.806  1.00  0.00     0.014 A 
ATOM     30  C   UNL     1      -4.077  -4.934   5.585  1.00  0.00     0.014 A 
ATOM     31  C   UNL     1      -5.027  -2.397   6.062  1.00  0.00     0.010 A 
ATOM     32  C   UNL     1      -4.235  -4.442   6.929  1.00  0.00     0.010 A 
ATOM     33  C   UNL     1      -4.640  -3.118   7.182  1.00  0.00    -0.014 A 
BRANCH  33  34
ATOM     34  C   UNL     1      -4.707  -2.403   8.514  1.00  0.00     0.031 A 
ATOM     35  C   UNL     1      -3.470  -2.242   9.369  1.00  0.00     0.074 A 
ATOM     36  C   UNL     1      -5.823  -1.712   8.871  1.00  0.00     0.049 A 
ATOM     37  N   UNL     1      -3.331  -1.639  10.525  1.00  0.00    -0.248 NA
ATOM     38  C   UNL     1      -2.220  -2.806   8.842  1.00  0.00     0.031 C 
ATOM     39  C   UNL     1      -7.064  -1.654   8.088  1.00  0.00     0.029 A 
ATOM     40  N   UNL     1      -6.091  -0.874   9.935  1.00  0.00    -0.354 N 
ATOM     41  C   UNL     1      -1.991  -1.781  10.877  1.00  0.00     0.074 A 
ATOM     42  C   UNL     1      -1.359  -2.531   9.814  1.00  0.00     0.031 C 
ATOM     43  C   UNL     1      -7.909  -0.772   8.639  1.00  0.00     0.029 A 
ATOM     44  C   UNL     1      -7.347  -0.298   9.895  1.00  0.00     0.049 A 
ATOM     45  H   UNL     1      -5.445  -0.702  10.658  1.00  0.00     0.167 HD
ATOM     46  C   UNL     1      -1.347  -1.327  11.982  1.00  0.00     0.037 A 
ATOM     47  C   UNL     1      -8.007   0.481  10.779  1.00  0.00     0.037 A 
ATOM     48  C   UNL     1      -1.975  -0.554  13.024  1.00  0.00     0.049 A 
ATOM     49  C   UNL     1      -7.316   0.853  12.062  1.00  0.00     0.074 A 
ATOM     50  C   UNL     1      -1.420  -0.095  14.207  1.00  0.00     0.029 A 
ATOM     51  N   UNL     1      -3.292  -0.119  13.008  1.00  0.00    -0.354 N 
ATOM     52  N   UNL     1      -6.074   0.624  12.418  1.00  0.00    -0.248 NA
ATOM     53  C   UNL     1      -8.112   1.562  13.074  1.00  0.00     0.031 C 
ATOM     54  C   UNL     1      -2.418   0.561  14.933  1.00  0.00     0.029 A 
ATOM     55  C   UNL     1      -3.577   0.575  14.174  1.00  0.00     0.049 A 
ATOM     56  H   UNL     1      -3.931  -0.279  12.276  1.00  0.00     0.167 HD
ATOM     57  C   UNL     1      -5.936   1.170  13.688  1.00  0.00     0.074 A 
ATOM     58  C   UNL     1      -7.213   1.763  14.029  1.00  0.00     0.031 C 
ATOM     59  C   UNL     1      -4.850   1.171  14.499  1.00  0.00     0.037 A 
BRANCH  46  60
ATOM     60  C   UNL     1       0.102  -1.704  12.158  1.00  0.00     0.058 A 
ATOM     61  C   UNL     1       1.124  -1.145  11.376  1.00  0.00     0.135 A 
ATOM     62  C   UNL     1       0.476  -2.613  13.164  1.00  0.00     0.135 A 
ATOM     63  F   UNL     1       0.827  -0.286  10.387  1.00  0.00    -0.206 F 
ATOM     64  C   UNL     1       2.459  -1.490  11.568  1.00  0.00     0.059 A 
ATOM     65  C   UNL     1       1.806  -2.950  13.394  1.00  0.00     0.059 A 
ATOM     66  F   UNL     1      -0.459  -3.181  13.942  1.00  0.00    -0.206 F 
ATOM     67  C   UNL     1       2.791  -2.391  12.583  1.00  0.00     0.060 A 
BRANCH  67  68
ATOM     68  S   UNL     1       4.528  -2.822  12.816  1.00  0.00     0.124 S 
ATOM     69  O   UNL     1       4.818  -3.545  11.582  1.00  0.00    -0.237 OA
ATOM     70  O   UNL     1       5.156  -1.511  12.944  1.00  0.00    -0.237 OA
ATOM     71  O   UNL     1       4.520  -3.634  14.029  1.00  0.00    -0.744 OA
ENDBRANCH  67  68
ENDBRANCH  46  60
BRANCH  47  72
ATOM     72  C   UNL     1      -9.421   0.899  10.520  1.00  0.00     0.058 A 
ATOM     73  C   UNL     1      -9.778   2.249  10.378  1.00  0.00     0.135 A 
ATOM     74  C   UNL     1     -10.451  -0.052  10.410  1.00  0.00     0.135 A 
ATOM     75  F   UNL     1      -8.845   3.206  10.495  1.00  0.00    -0.206 F 
ATOM     76  C   UNL     1     -11.095   2.639  10.136  1.00  0.00     0.059 A 
ATOM     77  C   UNL     1     -11.767   0.309  10.133  1.00  0.00     0.059 A 
ATOM     78  F   UNL     1     -10.177  -1.360  10.542  1.00  0.00    -0.206 F 
ATOM     79  C   UNL     1     -12.081   1.659  10.003  1.00  0.00     0.060 A 
BRANCH  79  80
ATOM     80  S   UNL     1     -13.774   2.173   9.632  1.00  0.00     0.124 S 
ATOM     81  O   UNL     1     -14.147   2.870  10.858  1.00  0.00    -0.237 OA
ATOM     82  O   UNL     1     -13.582   3.012   8.453  1.00  0.00    -0.237 OA
ATOM     83  O   UNL     1     -14.465   0.910   9.390  1.00  0.00    -0.744 OA
ENDBRANCH  79  80
ENDBRANCH  47  72
BRANCH  59  84
ATOM     84  C   UNL     1      -4.973   1.853  15.833  1.00  0.00     0.058 A 
ATOM     85  C   UNL     1      -5.727   1.296  16.877  1.00  0.00     0.135 A 
ATOM     86  C   UNL     1      -4.252   3.030  16.098  1.00  0.00     0.135 A 
ATOM     87  F   UNL     1      -6.442   0.178  16.674  1.00  0.00    -0.206 F 
ATOM     88  C   UNL     1      -5.769   1.887  18.135  1.00  0.00     0.059 A 
ATOM     89  C   UNL     1      -4.253   3.618  17.358  1.00  0.00     0.059 A 
ATOM     90  F   UNL     1      -3.509   3.599  15.135  1.00  0.00    -0.206 F 
ATOM     91  C   UNL     1      -5.019   3.041  18.369  1.00  0.00     0.060 A 
BRANCH  91  92
ATOM     92  S   UNL     1      -5.040   3.759  20.025  1.00  0.00     0.124 S 
ATOM     93  O   UNL     1      -6.417   4.231  20.124  1.00  0.00    -0.237 OA
ATOM     94  O   UNL     1      -4.700   2.612  20.861  1.00  0.00    -0.237 OA
ATOM     95  O   UNL     1      -4.022   4.803  19.957  1.00  0.00    -0.744 OA
ENDBRANCH  91  92
ENDBRANCH  59  84
ENDBRANCH  33  34
ENDBRANCH  25  28
ENDBRANCH  23  24
ENDBRANCH   1  23
TORSDOF 17
