REMARK SMILES Cc1ccc2c(c1)OCCN2c1sc(C(=O)NCCCNC(=O)c2ccc(-c3c4nc(c(-c5c(F)cc(S(=O)(=O)[O-])cc5F)c5ccc([nH]5)c(-c5c(F)cc(S(=O)(=O)[O-])cc5F)c5nc(c(-c6c(F)cc(S(=O)(=O)[O-])cc6F)c6ccc3[nH]6)C=C5)C=C4)cc2)cc1C
REMARK SMILES IDX 20 1 19 2 18 3 17 4 15 5 16 6 14 8 12 9 13 10 91 11 90 12
REMARK SMILES IDX 92 13 11 14 1 15 2 16 3 17 7 18 4 19 6 20 5 21 8 22 9 23
REMARK SMILES IDX 10 24 21 25 22 26 23 28 24 29 25 30 89 31 26 32 88 33 27 34
REMARK SMILES IDX 28 35 29 36 82 37 30 38 87 39 81 40 83 41 31 42 86 43 80 44
REMARK SMILES IDX 79 45 32 47 66 48 45 49 65 50 46 51 49 52 64 53 84 54 47 55
REMARK SMILES IDX 48 56 63 58 85 59 50 60 33 61 34 62 43 63 35 64 36 65 42 66
REMARK SMILES IDX 44 67 37 68 38 69 39 70 40 71 41 72 67 73 68 74 77 75 69 76
REMARK SMILES IDX 70 77 76 78 78 79 71 80 72 81 73 82 74 83 75 84 51 85 52 86
REMARK SMILES IDX 61 87 53 88 54 89 60 90 62 91 55 92 56 93 57 94 58 95 59 96
REMARK H PARENT 17 7 21 27 83 46 49 57
REMARK Flexibility Score: inf
ROOT
ATOM      1  C   UNL     1      -6.583   2.219  -6.969  1.00  0.00     0.118 C 
ENDROOT
BRANCH   1   2
ATOM      2  C   UNL     1      -5.396   2.434  -6.032  1.00  0.00     0.042 C 
BRANCH   2   3
ATOM      3  C   UNL     1      -4.086   1.891  -6.591  1.00  0.00     0.118 C 
BRANCH   3   4
ATOM      4  N   UNL     1      -3.632   2.674  -7.726  1.00  0.00    -0.351 N 
ATOM      5  C   UNL     1      -2.694   3.665  -7.872  1.00  0.00     0.261 C 
ATOM      6  O   UNL     1      -2.545   4.063  -9.033  1.00  0.00    -0.268 OA
ATOM      7  H   UNL     1      -4.091   2.445  -8.567  1.00  0.00     0.163 HD
BRANCH   5   8
ATOM      8  C   UNL     1      -1.864   4.173  -6.790  1.00  0.00     0.094 A 
ATOM      9  C   UNL     1      -0.679   4.671  -4.660  1.00  0.00     0.099 A 
ATOM     10  S   UNL     1      -2.249   4.152  -5.133  1.00  0.00    -0.112 S 
ATOM     11  C   UNL     1       0.028   5.136  -5.760  1.00  0.00    -0.015 A 
ATOM     12  C   UNL     1      -0.668   4.843  -6.977  1.00  0.00     0.031 A 
ATOM     13  C   UNL     1       1.369   5.790  -5.742  1.00  0.00     0.047 C 
BRANCH   9  14
ATOM     14  N   UNL     1      -0.261   4.664  -3.362  1.00  0.00    -0.327 N 
ATOM     15  C   UNL     1       0.903   0.065  -0.082  1.00  0.00     0.044 C 
ATOM     16  C   UNL     1       0.588   1.253  -0.940  1.00  0.00    -0.047 A 
ATOM     17  C   UNL     1       0.015   1.098  -2.203  1.00  0.00     0.006 A 
ATOM     18  C   UNL     1       0.898   2.542  -0.498  1.00  0.00     0.052 A 
ATOM     19  C   UNL     1      -0.253   2.214  -3.007  1.00  0.00     0.030 A 
ATOM     20  C   UNL     1       0.626   3.655  -1.302  1.00  0.00     0.143 A 
ATOM     21  C   UNL     1       0.019   3.520  -2.571  1.00  0.00     0.085 A 
ATOM     22  O   UNL     1       0.998   4.866  -0.760  1.00  0.00    -0.490 OA
ATOM     23  C   UNL     1       1.052   5.910  -1.737  1.00  0.00     0.251 C 
ATOM     24  C   UNL     1      -0.193   5.921  -2.616  1.00  0.00     0.165 C 
ENDBRANCH   9  14
ENDBRANCH   5   8
ENDBRANCH   3   4
ENDBRANCH   2   3
ENDBRANCH   1   2
BRANCH   1  25
ATOM     25  N   UNL     1      -6.957   0.813  -7.086  1.00  0.00    -0.352 N 
ATOM     26  C   UNL     1      -8.147   0.190  -6.795  1.00  0.00     0.251 C 
ATOM     27  H   UNL     1      -6.248   0.220  -7.425  1.00  0.00     0.163 HD
ATOM     28  O   UNL     1      -8.203  -1.038  -6.785  1.00  0.00    -0.269 OA
BRANCH  26  29
ATOM     29  C   UNL     1      -9.348   0.991  -6.474  1.00  0.00     0.039 A 
ATOM     30  C   UNL     1      -9.670   2.122  -7.226  1.00  0.00     0.014 A 
ATOM     31  C   UNL     1     -10.165   0.604  -5.408  1.00  0.00     0.014 A 
ATOM     32  C   UNL     1     -10.703   2.955  -6.811  1.00  0.00     0.010 A 
ATOM     33  C   UNL     1     -11.258   1.399  -5.044  1.00  0.00     0.010 A 
ATOM     34  C   UNL     1     -11.507   2.607  -5.713  1.00  0.00    -0.014 A 
BRANCH  34  35
ATOM     35  C   UNL     1     -12.592   3.530  -5.287  1.00  0.00     0.031 A 
ATOM     36  C   UNL     1     -12.536   4.219  -3.949  1.00  0.00     0.074 A 
ATOM     37  C   UNL     1     -13.594   3.804  -6.147  1.00  0.00     0.049 A 
ATOM     38  N   UNL     1     -13.368   5.091  -3.437  1.00  0.00    -0.248 NA
ATOM     39  C   UNL     1     -11.405   3.887  -3.068  1.00  0.00     0.031 C 
ATOM     40  C   UNL     1     -13.750   3.204  -7.474  1.00  0.00     0.029 A 
ATOM     41  N   UNL     1     -14.647   4.678  -6.053  1.00  0.00    -0.354 N 
ATOM     42  C   UNL     1     -12.870   5.402  -2.177  1.00  0.00     0.074 A 
ATOM     43  C   UNL     1     -11.681   4.602  -1.985  1.00  0.00     0.031 C 
ATOM     44  C   UNL     1     -14.794   3.774  -8.094  1.00  0.00     0.029 A 
ATOM     45  C   UNL     1     -15.418   4.734  -7.190  1.00  0.00     0.049 A 
ATOM     46  H   UNL     1     -14.832   5.215  -5.249  1.00  0.00     0.167 HD
ATOM     47  C   UNL     1     -13.352   6.287  -1.271  1.00  0.00     0.037 A 
ATOM     48  C   UNL     1     -16.510   5.470  -7.474  1.00  0.00     0.037 A 
ATOM     49  C   UNL     1     -14.523   7.099  -1.477  1.00  0.00     0.049 A 
ATOM     50  C   UNL     1     -17.042   6.419  -6.439  1.00  0.00     0.074 A 
ATOM     51  C   UNL     1     -15.083   8.032  -0.622  1.00  0.00     0.029 A 
ATOM     52  N   UNL     1     -15.309   7.083  -2.620  1.00  0.00    -0.354 N 
ATOM     53  N   UNL     1     -16.559   6.694  -5.251  1.00  0.00    -0.248 NA
ATOM     54  C   UNL     1     -18.272   7.149  -6.775  1.00  0.00     0.031 C 
ATOM     55  C   UNL     1     -16.228   8.555  -1.232  1.00  0.00     0.029 A 
ATOM     56  C   UNL     1     -16.358   7.978  -2.485  1.00  0.00     0.049 A 
ATOM     57  H   UNL     1     -15.146   6.519  -3.410  1.00  0.00     0.167 HD
ATOM     58  C   UNL     1     -17.420   7.636  -4.701  1.00  0.00     0.074 A 
ATOM     59  C   UNL     1     -18.444   7.897  -5.693  1.00  0.00     0.031 C 
ATOM     60  C   UNL     1     -17.369   8.226  -3.482  1.00  0.00     0.037 A 
BRANCH  47  61
ATOM     61  C   UNL     1     -12.617   6.428   0.034  1.00  0.00     0.058 A 
ATOM     62  C   UNL     1     -11.385   7.097   0.114  1.00  0.00     0.135 A 
ATOM     63  C   UNL     1     -13.181   5.949   1.228  1.00  0.00     0.135 A 
ATOM     64  F   UNL     1     -10.794   7.560  -0.999  1.00  0.00    -0.206 F 
ATOM     65  C   UNL     1     -10.732   7.274   1.330  1.00  0.00     0.059 A 
ATOM     66  C   UNL     1     -12.556   6.135   2.458  1.00  0.00     0.059 A 
ATOM     67  F   UNL     1     -14.357   5.302   1.207  1.00  0.00    -0.206 F 
ATOM     68  C   UNL     1     -11.327   6.791   2.497  1.00  0.00     0.060 A 
BRANCH  68  69
ATOM     69  S   UNL     1     -10.474   7.049   4.068  1.00  0.00     0.124 S 
ATOM     70  O   UNL     1      -9.352   6.123   3.946  1.00  0.00    -0.237 OA
ATOM     71  O   UNL     1     -10.134   8.467   4.008  1.00  0.00    -0.237 OA
ATOM     72  O   UNL     1     -11.478   6.689   5.064  1.00  0.00    -0.744 OA
ENDBRANCH  68  69
ENDBRANCH  47  61
BRANCH  48  73
ATOM     73  C   UNL     1     -17.162   5.337  -8.803  1.00  0.00     0.058 A 
ATOM     74  C   UNL     1     -17.087   6.367  -9.751  1.00  0.00     0.135 A 
ATOM     75  C   UNL     1     -17.837   4.161  -9.166  1.00  0.00     0.135 A 
ATOM     76  F   UNL     1     -16.457   7.513  -9.447  1.00  0.00    -0.206 F 
ATOM     77  C   UNL     1     -17.659   6.239 -11.012  1.00  0.00     0.059 A 
ATOM     78  C   UNL     1     -18.396   3.999 -10.429  1.00  0.00     0.059 A 
ATOM     79  F   UNL     1     -17.924   3.140  -8.299  1.00  0.00    -0.206 F 
ATOM     80  C   UNL     1     -18.307   5.048 -11.344  1.00  0.00     0.060 A 
BRANCH  80  81
ATOM     81  S   UNL     1     -18.988   4.866 -13.006  1.00  0.00     0.124 S 
ATOM     82  O   UNL     1     -20.159   5.732 -12.940  1.00  0.00    -0.237 OA
ATOM     83  O   UNL     1     -17.889   5.340 -13.841  1.00  0.00    -0.237 OA
ATOM     84  O   UNL     1     -19.265   3.436 -13.101  1.00  0.00    -0.744 OA
ENDBRANCH  80  81
ENDBRANCH  48  73
BRANCH  60  85
ATOM     85  C   UNL     1     -18.442   9.223  -3.150  1.00  0.00     0.058 A 
ATOM     86  C   UNL     1     -19.741   8.812  -2.815  1.00  0.00     0.135 A 
ATOM     87  C   UNL     1     -18.149  10.595  -3.093  1.00  0.00     0.135 A 
ATOM     88  F   UNL     1     -20.073   7.512  -2.862  1.00  0.00    -0.206 F 
ATOM     89  C   UNL     1     -20.718   9.730  -2.444  1.00  0.00     0.059 A 
ATOM     90  C   UNL     1     -19.104  11.528  -2.703  1.00  0.00     0.059 A 
ATOM     91  F   UNL     1     -16.918  11.036  -3.397  1.00  0.00    -0.206 F 
ATOM     92  C   UNL     1     -20.388  11.086  -2.386  1.00  0.00     0.060 A 
BRANCH  92  93
ATOM     93  S   UNL     1     -21.652  12.259  -1.851  1.00  0.00     0.124 S 
ATOM     94  O   UNL     1     -22.533  12.292  -3.014  1.00  0.00    -0.237 OA
ATOM     95  O   UNL     1     -22.196  11.611  -0.662  1.00  0.00    -0.237 OA
ATOM     96  O   UNL     1     -20.896  13.482  -1.601  1.00  0.00    -0.744 OA
ENDBRANCH  92  93
ENDBRANCH  60  85
ENDBRANCH  34  35
ENDBRANCH  26  29
ENDBRANCH   1  25
TORSDOF 14
