REMARK SMILES Cc1nc(Oc2ccc(F)cc2)c(C(=O)NCCCNC(=O)c2ccc(-c3c4nc(c(-c5c(F)cc(S(=O)(=O)[O-])cc5F)c5ccc([nH]5)c(-c5c(F)cc(S(=O)(=O)[O-])cc5F)c5nc(c(-c6c(F)cc(S(=O)(=O)[O-])cc6F)c6ccc3[nH]6)C=C5)C=C4)cc2)c(C)c1Cl
REMARK SMILES IDX 18 1 17 2 16 3 14 4 15 5 13 7 1 8 2 9 3 10 91 11 4 12 89 13
REMARK SMILES IDX 92 14 90 15 5 16 6 17 7 18 12 19 8 20 11 21 9 22 10 23 19 24
REMARK SMILES IDX 20 25 21 26 22 28 23 29 24 30 88 31 25 32 87 33 26 34 27 35
REMARK SMILES IDX 28 36 81 37 29 38 86 39 80 40 82 41 30 42 85 43 79 44 78 45
REMARK SMILES IDX 31 47 65 48 44 49 64 50 45 51 48 52 63 53 83 54 46 55 47 56
REMARK SMILES IDX 62 58 84 59 49 60 32 61 33 62 42 63 34 64 35 65 41 66 43 67
REMARK SMILES IDX 36 68 37 69 38 70 39 71 40 72 66 73 67 74 76 75 68 76 69 77
REMARK SMILES IDX 75 78 77 79 70 80 71 81 72 82 73 83 74 84 50 85 51 86 60 87
REMARK SMILES IDX 52 88 53 89 59 90 61 91 54 92 55 93 56 94 57 95 58 96
REMARK H PARENT 16 6 20 27 82 46 48 57
REMARK Flexibility Score: inf
ROOT
ATOM      1  C   UNL     1       0.134   4.079  -6.348  1.00  0.00     0.042 C 
ENDROOT
BRANCH   1   2
ATOM      2  C   UNL     1      -1.155   3.379  -5.943  1.00  0.00     0.118 C 
BRANCH   2   3
ATOM      3  N   UNL     1      -0.890   1.987  -5.662  1.00  0.00    -0.352 N 
ATOM      4  C   UNL     1      -1.485   1.389  -4.582  1.00  0.00     0.257 C 
ATOM      5  O   UNL     1      -2.695   1.337  -4.417  1.00  0.00    -0.269 OA
ATOM      6  H   UNL     1      -0.286   1.471  -6.244  1.00  0.00     0.163 HD
BRANCH   4   7
ATOM      7  C   UNL     1      -0.560   0.863  -3.563  1.00  0.00     0.106 A 
ATOM      8  C   UNL     1       1.107  -0.797  -0.043  1.00  0.00     0.068 C 
ATOM      9  C   UNL     1       0.638  -0.160  -1.320  1.00  0.00     0.060 A 
ATOM     10  N   UNL     1       0.166  -1.015  -2.264  1.00  0.00    -0.216 NA
ATOM     11  C   UNL     1       0.635   1.225  -1.486  1.00  0.00     0.066 A 
ATOM     12  C   UNL     1      -0.420  -0.513  -3.380  1.00  0.00     0.232 A 
ATOM     13  C   UNL     1       0.018   1.764  -2.624  1.00  0.00    -0.012 A 
ATOM     14  Cl  UNL     1       1.333   2.236  -0.262  1.00  0.00    -0.082 Cl
ATOM     15  C   UNL     1      -0.057   3.255  -2.830  1.00  0.00     0.047 C 
BRANCH  12  16
ATOM     16  O   UNL     1      -0.917  -1.529  -4.159  1.00  0.00    -0.438 OA
BRANCH  16  17
ATOM     17  C   UNL     1      -1.155  -1.372  -5.497  1.00  0.00     0.129 A 
ATOM     18  C   UNL     1      -2.455  -1.658  -5.923  1.00  0.00     0.050 A 
ATOM     19  C   UNL     1      -0.163  -1.051  -6.429  1.00  0.00     0.050 A 
ATOM     20  C   UNL     1      -2.793  -1.548  -7.271  1.00  0.00     0.043 A 
ATOM     21  C   UNL     1      -0.506  -0.935  -7.782  1.00  0.00     0.043 A 
ATOM     22  C   UNL     1      -1.819  -1.175  -8.187  1.00  0.00     0.123 A 
ATOM     23  F   UNL     1      -2.147  -1.044  -9.479  1.00  0.00    -0.207 F 
ENDBRANCH  16  17
ENDBRANCH  12  16
ENDBRANCH   4   7
ENDBRANCH   2   3
ENDBRANCH   1   2
BRANCH   1  24
ATOM     24  C   UNL     1       0.027   4.657  -7.743  1.00  0.00     0.118 C 
BRANCH  24  25
ATOM     25  N   UNL     1      -0.979   5.710  -7.796  1.00  0.00    -0.352 N 
ATOM     26  C   UNL     1      -0.807   7.055  -8.011  1.00  0.00     0.251 C 
ATOM     27  H   UNL     1      -1.909   5.417  -7.657  1.00  0.00     0.163 HD
ATOM     28  O   UNL     1      -1.707   7.843  -7.760  1.00  0.00    -0.269 OA
BRANCH  26  29
ATOM     29  C   UNL     1       0.486   7.525  -8.543  1.00  0.00     0.039 A 
ATOM     30  C   UNL     1       1.090   8.652  -7.984  1.00  0.00     0.014 A 
ATOM     31  C   UNL     1       1.097   6.828  -9.590  1.00  0.00     0.014 A 
ATOM     32  C   UNL     1       2.339   9.057  -8.453  1.00  0.00     0.010 A 
ATOM     33  C   UNL     1       2.378   7.172  -9.986  1.00  0.00     0.010 A 
ATOM     34  C   UNL     1       2.993   8.309  -9.445  1.00  0.00    -0.014 A 
BRANCH  34  35
ATOM     35  C   UNL     1       4.281   8.749 -10.019  1.00  0.00     0.031 A 
ATOM     36  C   UNL     1       4.315   9.191 -11.455  1.00  0.00     0.074 A 
ATOM     37  C   UNL     1       5.403   8.696  -9.279  1.00  0.00     0.049 A 
ATOM     38  N   UNL     1       5.338   9.542 -12.186  1.00  0.00    -0.248 NA
ATOM     39  C   UNL     1       3.028   9.211 -12.173  1.00  0.00     0.031 C 
ATOM     40  C   UNL     1       5.479   8.251  -7.886  1.00  0.00     0.029 A 
ATOM     41  N   UNL     1       6.696   9.013  -9.600  1.00  0.00    -0.354 N 
ATOM     42  C   UNL     1       4.819   9.820 -13.444  1.00  0.00     0.074 A 
ATOM     43  C   UNL     1       3.406   9.522 -13.402  1.00  0.00     0.031 C 
ATOM     44  C   UNL     1       6.751   8.348  -7.465  1.00  0.00     0.029 A 
ATOM     45  C   UNL     1       7.582   8.829  -8.565  1.00  0.00     0.049 A 
ATOM     46  H   UNL     1       6.966   9.342 -10.487  1.00  0.00     0.167 HD
ATOM     47  C   UNL     1       5.458  10.317 -14.527  1.00  0.00     0.037 A 
ATOM     48  C   UNL     1       8.913   9.027  -8.519  1.00  0.00     0.037 A 
ATOM     49  C   UNL     1       6.860  10.629 -14.546  1.00  0.00     0.049 A 
ATOM     50  C   UNL     1       9.610   9.549  -9.747  1.00  0.00     0.074 A 
ATOM     51  C   UNL     1       7.607  11.173 -15.574  1.00  0.00     0.029 A 
ATOM     52  N   UNL     1       7.728  10.424 -13.482  1.00  0.00    -0.354 N 
ATOM     53  N   UNL     1       9.100   9.855 -10.917  1.00  0.00    -0.248 NA
ATOM     54  C   UNL     1      11.061   9.755  -9.650  1.00  0.00     0.031 C 
ATOM     55  C   UNL     1       8.936  11.253 -15.148  1.00  0.00     0.029 A 
ATOM     56  C   UNL     1       9.008  10.808 -13.837  1.00  0.00     0.049 A 
ATOM     57  H   UNL     1       7.470  10.059 -12.605  1.00  0.00     0.167 HD
ATOM     58  C   UNL     1      10.162  10.312 -11.689  1.00  0.00     0.074 A 
ATOM     59  C   UNL     1      11.340  10.255 -10.847  1.00  0.00     0.031 C 
ATOM     60  C   UNL     1      10.165  10.738 -12.977  1.00  0.00     0.037 A 
BRANCH  47  61
ATOM     61  C   UNL     1       4.639  10.565 -15.764  1.00  0.00     0.058 A 
ATOM     62  C   UNL     1       3.673  11.583 -15.812  1.00  0.00     0.135 A 
ATOM     63  C   UNL     1       4.834   9.792 -16.919  1.00  0.00     0.135 A 
ATOM     64  F   UNL     1       3.428  12.336 -14.727  1.00  0.00    -0.206 F 
ATOM     65  C   UNL     1       2.910  11.809 -16.952  1.00  0.00     0.059 A 
ATOM     66  C   UNL     1       4.104  10.022 -18.082  1.00  0.00     0.059 A 
ATOM     67  F   UNL     1       5.738   8.800 -16.925  1.00  0.00    -0.206 F 
ATOM     68  C   UNL     1       3.136  11.025 -18.084  1.00  0.00     0.060 A 
BRANCH  68  69
ATOM     69  S   UNL     1       2.145  11.344 -19.558  1.00  0.00     0.124 S 
ATOM     70  O   UNL     1       0.828  10.885 -19.129  1.00  0.00    -0.237 OA
ATOM     71  O   UNL     1       2.291  12.787 -19.722  1.00  0.00    -0.237 OA
ATOM     72  O   UNL     1       2.788  10.530 -20.584  1.00  0.00    -0.744 OA
ENDBRANCH  68  69
ENDBRANCH  47  61
BRANCH  48  73
ATOM     73  C   UNL     1       9.656   8.772  -7.256  1.00  0.00     0.058 A 
ATOM     74  C   UNL     1      10.169   9.835  -6.499  1.00  0.00     0.135 A 
ATOM     75  C   UNL     1       9.834   7.471  -6.760  1.00  0.00     0.135 A 
ATOM     76  F   UNL     1      10.029  11.097  -6.935  1.00  0.00    -0.206 F 
ATOM     77  C   UNL     1      10.836   9.621  -5.298  1.00  0.00     0.059 A 
ATOM     78  C   UNL     1      10.478   7.232  -5.549  1.00  0.00     0.059 A 
ATOM     79  F   UNL     1       9.349   6.420  -7.438  1.00  0.00    -0.206 F 
ATOM     80  C   UNL     1      10.978   8.314  -4.826  1.00  0.00     0.060 A 
BRANCH  80  81
ATOM     81  S   UNL     1      11.788   8.057  -3.232  1.00  0.00     0.124 S 
ATOM     82  O   UNL     1      13.165   8.427  -3.537  1.00  0.00    -0.237 OA
ATOM     83  O   UNL     1      11.055   8.977  -2.369  1.00  0.00    -0.237 OA
ATOM     84  O   UNL     1      11.560   6.640  -2.964  1.00  0.00    -0.744 OA
ENDBRANCH  80  81
ENDBRANCH  48  73
BRANCH  60  85
ATOM     85  C   UNL     1      11.478  11.188 -13.556  1.00  0.00     0.058 A 
ATOM     86  C   UNL     1      12.486  10.269 -13.884  1.00  0.00     0.135 A 
ATOM     87  C   UNL     1      11.696  12.542 -13.859  1.00  0.00     0.135 A 
ATOM     88  F   UNL     1      12.328   8.965 -13.611  1.00  0.00    -0.206 F 
ATOM     89  C   UNL     1      13.674  10.680 -14.478  1.00  0.00     0.059 A 
ATOM     90  C   UNL     1      12.864  12.970 -14.481  1.00  0.00     0.059 A 
ATOM     91  F   UNL     1      10.756  13.458 -13.577  1.00  0.00    -0.206 F 
ATOM     92  C   UNL     1      13.851  12.032 -14.779  1.00  0.00     0.060 A 
BRANCH  92  93
ATOM     93  S   UNL     1      15.381  12.540 -15.588  1.00  0.00     0.124 S 
ATOM     94  O   UNL     1      16.355  12.361 -14.516  1.00  0.00    -0.237 OA
ATOM     95  O   UNL     1      15.475  11.593 -16.695  1.00  0.00    -0.237 OA
ATOM     96  O   UNL     1      15.121  13.924 -15.974  1.00  0.00    -0.744 OA
ENDBRANCH  92  93
ENDBRANCH  60  85
ENDBRANCH  34  35
ENDBRANCH  26  29
ENDBRANCH  24  25
ENDBRANCH   1  24
TORSDOF 15
