REMARK SMILES CNC(=O)[C@H](C)Oc1cc([N+](=O)[O-])c(C(=O)NCCCNC(=O)c2ccc(-c3c4nc(c(-c5c(F)cc(S(=O)(=O)[O-])cc5F)c5ccc([nH]5)c(-c5c(F)cc(S(=O)(=O)[O-])cc5F)c5nc(c(-c6c(F)cc(S(=O)(=O)[O-])cc6F)c6ccc3[nH]6)C=C5)C=C4)cc2)cc1OC
REMARK SMILES IDX 19 1 18 2 17 3 15 4 16 5 14 7 8 8 9 9 91 10 10 11 90 12 7 13
REMARK SMILES IDX 5 14 6 15 3 16 1 17 2 18 4 20 92 21 93 22 11 23 12 24 13 25
REMARK SMILES IDX 20 26 21 27 22 28 23 30 24 31 25 32 89 33 26 34 88 35 27 36
REMARK SMILES IDX 28 37 29 38 82 39 30 40 87 41 81 42 83 43 31 44 86 45 80 46
REMARK SMILES IDX 79 47 32 49 66 50 45 51 65 52 46 53 49 54 64 55 84 56 47 57
REMARK SMILES IDX 48 58 63 60 85 61 50 62 33 63 34 64 43 65 35 66 36 67 42 68
REMARK SMILES IDX 44 69 37 70 38 71 39 72 40 73 41 74 67 75 68 76 77 77 69 78
REMARK SMILES IDX 70 79 76 80 78 81 71 82 72 83 73 84 74 85 75 86 51 87 52 88
REMARK SMILES IDX 61 89 53 90 54 91 60 92 62 93 55 94 56 95 57 96 58 97 59 98
REMARK H PARENT 17 6 2 19 21 29 83 48 49 59
REMARK Flexibility Score: inf
ROOT
ATOM      1  C   UNL     1       1.363  -2.066   4.423  1.00  0.00     0.042 C 
ENDROOT
BRANCH   1   2
ATOM      2  C   UNL     1       1.943  -2.575   3.105  1.00  0.00     0.118 C 
BRANCH   2   3
ATOM      3  N   UNL     1       1.229  -3.747   2.626  1.00  0.00    -0.352 N 
ATOM      4  C   UNL     1       0.216  -3.945   1.726  1.00  0.00     0.258 C 
ATOM      5  O   UNL     1      -0.066  -5.118   1.488  1.00  0.00    -0.269 OA
ATOM      6  H   UNL     1       1.544  -4.583   3.040  1.00  0.00     0.163 HD
BRANCH   4   7
ATOM      7  C   UNL     1      -0.463  -2.851   0.972  1.00  0.00     0.121 A 
ATOM      8  C   UNL     1      -1.378  -0.761  -0.727  1.00  0.00     0.169 A 
ATOM      9  C   UNL     1      -1.596  -2.093  -1.070  1.00  0.00     0.137 A 
ATOM     10  C   UNL     1      -0.832  -0.470   0.522  1.00  0.00     0.162 A 
ATOM     11  C   UNL     1      -1.144  -3.117  -0.223  1.00  0.00     0.286 A 
ATOM     12  C   UNL     1      -0.421  -1.510   1.372  1.00  0.00     0.071 A 
BRANCH   8  13
ATOM     13  O   UNL     1      -1.877   0.140  -1.600  1.00  0.00    -0.477 OA
BRANCH  13  14
ATOM     14  C   UNL     1      -1.048   1.077  -2.250  1.00  0.00     0.259 C 
ATOM     15  C   UNL     1      -1.285   2.476  -1.646  1.00  0.00     0.064 C 
BRANCH  14  16
ATOM     16  C   UNL     1       0.352   1.057  -2.976  1.00  0.00     0.260 C 
ATOM     17  C   UNL     1       1.777  -0.723  -1.761  1.00  0.00     0.142 C 
ATOM     18  N   UNL     1       1.430   0.291  -2.717  1.00  0.00    -0.356 N 
ATOM     19  H   UNL     1       2.168   0.473  -3.343  1.00  0.00     0.163 HD
ATOM     20  O   UNL     1       0.532   1.853  -3.916  1.00  0.00    -0.271 OA
ENDBRANCH  14  16
ENDBRANCH  13  14
ENDBRANCH   8  13
BRANCH  10  21
ATOM     21  O   UNL     1      -0.749   0.814   0.981  1.00  0.00    -0.493 OA
ATOM     22  C   UNL     1       0.598   1.296   1.022  1.00  0.00     0.278 C 
ENDBRANCH  10  21
BRANCH  11  23
ATOM     23  N   UNL     1      -1.497  -4.463  -0.626  1.00  0.00     0.063 N 
ATOM     24  O   UNL     1      -0.906  -4.916  -1.616  1.00  0.00    -0.258 OA
ATOM     25  O   UNL     1      -2.459  -4.984  -0.046  1.00  0.00    -0.258 OA
ENDBRANCH  11  23
ENDBRANCH   4   7
ENDBRANCH   2   3
ENDBRANCH   1   2
BRANCH   1  26
ATOM     26  C   UNL     1       1.698  -2.958   5.614  1.00  0.00     0.118 C 
BRANCH  26  27
ATOM     27  N   UNL     1       3.123  -2.950   5.914  1.00  0.00    -0.352 N 
ATOM     28  C   UNL     1       3.785  -2.530   7.037  1.00  0.00     0.251 C 
ATOM     29  H   UNL     1       3.701  -3.301   5.198  1.00  0.00     0.163 HD
ATOM     30  O   UNL     1       5.007  -2.370   6.984  1.00  0.00    -0.269 OA
BRANCH  28  31
ATOM     31  C   UNL     1       3.056  -2.265   8.295  1.00  0.00     0.039 A 
ATOM     32  C   UNL     1       3.461  -1.196   9.100  1.00  0.00     0.014 A 
ATOM     33  C   UNL     1       2.007  -3.090   8.710  1.00  0.00     0.014 A 
ATOM     34  C   UNL     1       2.784  -0.927  10.291  1.00  0.00     0.010 A 
ATOM     35  C   UNL     1       1.280  -2.771   9.854  1.00  0.00     0.010 A 
ATOM     36  C   UNL     1       1.668  -1.695  10.664  1.00  0.00    -0.014 A 
BRANCH  36  37
ATOM     37  C   UNL     1       0.905  -1.394  11.901  1.00  0.00     0.031 A 
ATOM     38  C   UNL     1       0.850  -2.397  13.022  1.00  0.00     0.074 A 
ATOM     39  C   UNL     1       0.219  -0.238  11.992  1.00  0.00     0.049 A 
ATOM     40  N   UNL     1       0.208  -2.332  14.160  1.00  0.00    -0.248 NA
ATOM     41  C   UNL     1       1.593  -3.652  12.825  1.00  0.00     0.031 C 
ATOM     42  C   UNL     1       0.163   0.795  10.956  1.00  0.00     0.029 A 
ATOM     43  N   UNL     1      -0.563   0.263  13.002  1.00  0.00    -0.354 N 
ATOM     44  C   UNL     1       0.460  -3.536  14.808  1.00  0.00     0.074 A 
ATOM     45  C   UNL     1       1.260  -4.338  13.908  1.00  0.00     0.031 C 
ATOM     46  C   UNL     1      -0.578   1.823  11.399  1.00  0.00     0.029 A 
ATOM     47  C   UNL     1      -1.084   1.506  12.731  1.00  0.00     0.049 A 
ATOM     48  H   UNL     1      -0.735  -0.222  13.841  1.00  0.00     0.167 HD
ATOM     49  C   UNL     1       0.081  -3.928  16.049  1.00  0.00     0.037 A 
ATOM     50  C   UNL     1      -1.878   2.300  13.473  1.00  0.00     0.037 A 
ATOM     51  C   UNL     1      -0.707  -3.118  16.941  1.00  0.00     0.049 A 
ATOM     52  C   UNL     1      -2.308   1.835  14.837  1.00  0.00     0.074 A 
ATOM     53  C   UNL     1      -1.105  -3.398  18.236  1.00  0.00     0.029 A 
ATOM     54  N   UNL     1      -1.224  -1.868  16.627  1.00  0.00    -0.354 N 
ATOM     55  N   UNL     1      -2.010   0.719  15.461  1.00  0.00    -0.248 NA
ATOM     56  C   UNL     1      -3.179   2.738  15.601  1.00  0.00     0.031 C 
ATOM     57  C   UNL     1      -1.904  -2.340  18.687  1.00  0.00     0.029 A 
ATOM     58  C   UNL     1      -1.958  -1.375  17.694  1.00  0.00     0.049 A 
ATOM     59  H   UNL     1      -1.089  -1.400  15.771  1.00  0.00     0.167 HD
ATOM     60  C   UNL     1      -2.630   0.800  16.703  1.00  0.00     0.074 A 
ATOM     61  C   UNL     1      -3.311   2.079  16.744  1.00  0.00     0.031 C 
ATOM     62  C   UNL     1      -2.631  -0.099  17.718  1.00  0.00     0.037 A 
BRANCH  49  63
ATOM     63  C   UNL     1       0.511  -5.299  16.501  1.00  0.00     0.058 A 
ATOM     64  C   UNL     1       1.860  -5.608  16.747  1.00  0.00     0.135 A 
ATOM     65  C   UNL     1      -0.433  -6.322  16.686  1.00  0.00     0.135 A 
ATOM     66  F   UNL     1       2.809  -4.673  16.576  1.00  0.00    -0.206 F 
ATOM     67  C   UNL     1       2.262  -6.890  17.105  1.00  0.00     0.059 A 
ATOM     68  C   UNL     1      -0.057  -7.605  17.077  1.00  0.00     0.059 A 
ATOM     69  F   UNL     1      -1.737  -6.086  16.472  1.00  0.00    -0.206 F 
ATOM     70  C   UNL     1       1.296  -7.885  17.259  1.00  0.00     0.060 A 
BRANCH  70  71
ATOM     71  S   UNL     1       1.837  -9.553  17.688  1.00  0.00     0.124 S 
ATOM     72  O   UNL     1       2.419 -10.001  16.426  1.00  0.00    -0.237 OA
ATOM     73  O   UNL     1       2.784  -9.307  18.770  1.00  0.00    -0.237 OA
ATOM     74  O   UNL     1       0.600 -10.222  18.080  1.00  0.00    -0.744 OA
ENDBRANCH  70  71
ENDBRANCH  49  63
BRANCH  50  75
ATOM     75  C   UNL     1      -2.275   3.639  12.960  1.00  0.00     0.058 A 
ATOM     76  C   UNL     1      -1.748   4.807  13.529  1.00  0.00     0.135 A 
ATOM     77  C   UNL     1      -3.160   3.780  11.880  1.00  0.00     0.135 A 
ATOM     78  F   UNL     1      -0.901   4.723  14.567  1.00  0.00    -0.206 F 
ATOM     79  C   UNL     1      -2.089   6.068  13.054  1.00  0.00     0.059 A 
ATOM     80  C   UNL     1      -3.498   5.030  11.371  1.00  0.00     0.059 A 
ATOM     81  F   UNL     1      -3.680   2.692  11.289  1.00  0.00    -0.206 F 
ATOM     82  C   UNL     1      -2.961   6.169  11.970  1.00  0.00     0.060 A 
BRANCH  82  83
ATOM     83  S   UNL     1      -3.347   7.811  11.322  1.00  0.00     0.124 S 
ATOM     84  O   UNL     1      -4.201   8.349  12.374  1.00  0.00    -0.237 OA
ATOM     85  O   UNL     1      -2.021   8.411  11.205  1.00  0.00    -0.237 OA
ATOM     86  O   UNL     1      -4.010   7.523  10.053  1.00  0.00    -0.744 OA
ENDBRANCH  82  83
ENDBRANCH  50  75
BRANCH  62  87
ATOM     87  C   UNL     1      -3.364   0.284  18.976  1.00  0.00     0.058 A 
ATOM     88  C   UNL     1      -4.765   0.336  19.030  1.00  0.00     0.135 A 
ATOM     89  C   UNL     1      -2.652   0.568  20.153  1.00  0.00     0.135 A 
ATOM     90  F   UNL     1      -5.494   0.081  17.931  1.00  0.00    -0.206 F 
ATOM     91  C   UNL     1      -5.435   0.685  20.198  1.00  0.00     0.059 A 
ATOM     92  C   UNL     1      -3.301   0.889  21.340  1.00  0.00     0.059 A 
ATOM     93  F   UNL     1      -1.310   0.523  20.159  1.00  0.00    -0.206 F 
ATOM     94  C   UNL     1      -4.693   0.959  21.349  1.00  0.00     0.060 A 
BRANCH  94  95
ATOM     95  S   UNL     1      -5.575   1.387  22.865  1.00  0.00     0.124 S 
ATOM     96  O   UNL     1      -6.018   2.746  22.574  1.00  0.00    -0.237 OA
ATOM     97  O   UNL     1      -6.625   0.374  22.913  1.00  0.00    -0.237 OA
ATOM     98  O   UNL     1      -4.551   1.268  23.899  1.00  0.00    -0.744 OA
ENDBRANCH  94  95
ENDBRANCH  62  87
ENDBRANCH  36  37
ENDBRANCH  28  31
ENDBRANCH  26  27
ENDBRANCH   1  26
TORSDOF 18
