REMARK SMILES CCOC[C@@H](O)C[C@]1(C(=O)NCCCNC(=O)c2ccc(-c3c4nc(c(-c5c(F)cc(S(=O)(=O)[O-])cc5F)c5ccc([nH]5)c(-c5c(F)cc(S(=O)(=O)[O-])cc5F)c5nc(c(-c6c(F)cc(S(=O)(=O)[O-])cc6F)c6ccc3[nH]6)C=C5)C=C4)cc2)CCc2ccccc21
REMARK SMILES IDX 12 1 11 2 9 3 10 4 8 6 84 7 91 8 85 9 86 10 90 11 87 12
REMARK SMILES IDX 89 13 88 14 7 15 5 16 4 17 3 18 2 19 1 20 6 21 13 23 14 24
REMARK SMILES IDX 15 25 16 26 17 28 18 29 19 30 83 31 20 32 82 33 21 34 22 35
REMARK SMILES IDX 23 36 76 37 24 38 81 39 75 40 77 41 25 42 80 43 74 44 73 45
REMARK SMILES IDX 26 47 60 48 39 49 59 50 40 51 43 52 58 53 78 54 41 55 42 56
REMARK SMILES IDX 57 58 79 59 44 60 27 61 28 62 37 63 29 64 30 65 36 66 38 67
REMARK SMILES IDX 31 68 32 69 33 70 34 71 35 72 61 73 62 74 71 75 63 76 64 77
REMARK SMILES IDX 70 78 72 79 65 80 66 81 67 82 68 83 69 84 45 85 46 86 55 87
REMARK SMILES IDX 47 88 48 89 54 90 56 91 49 92 50 93 51 94 52 95 53 96
REMARK H PARENT 11 5 6 22 15 27 77 46 43 57
REMARK Flexibility Score: inf
ROOT
ATOM      1  C   UNL     1       7.087  -2.646  -5.200  1.00  0.00     0.117 C 
ENDROOT
BRANCH   1   2
ATOM      2  N   UNL     1       6.989  -1.217  -4.966  1.00  0.00    -0.355 N 
ATOM      3  C   UNL     1       6.127  -0.447  -4.250  1.00  0.00     0.230 C 
ATOM      4  O   UNL     1       6.458   0.744  -4.170  1.00  0.00    -0.274 OA
ATOM      5  H   UNL     1       7.693  -0.698  -5.418  1.00  0.00     0.163 HD
BRANCH   3   6
ATOM      6  C   UNL     1       4.814  -0.968  -3.578  1.00  0.00     0.077 C 
ATOM      7  C   UNL     1       3.876  -1.651  -4.609  1.00  0.00     0.026 C 
ATOM      8  C   UNL     1       5.109  -2.083  -2.599  1.00  0.00    -0.029 A 
ATOM      9  C   UNL     1       3.757  -3.149  -4.271  1.00  0.00     0.037 C 
ATOM     10  C   UNL     1       4.518  -3.287  -2.993  1.00  0.00    -0.044 A 
ATOM     11  C   UNL     1       5.912  -2.029  -1.465  1.00  0.00     0.005 A 
ATOM     12  C   UNL     1       4.724  -4.455  -2.273  1.00  0.00     0.004 A 
ATOM     13  C   UNL     1       6.122  -3.200  -0.734  1.00  0.00     0.000 A 
ATOM     14  C   UNL     1       5.534  -4.406  -1.137  1.00  0.00     0.000 A 
BRANCH   6  15
ATOM     15  C   UNL     1       4.137   0.252  -2.868  1.00  0.00     0.056 C 
BRANCH  15  16
ATOM     16  C   UNL     1       2.636   0.259  -2.526  1.00  0.00     0.141 C 
BRANCH  16  17
ATOM     17  C   UNL     1       2.140  -0.903  -1.654  1.00  0.00     0.191 C 
BRANCH  17  18
ATOM     18  O   UNL     1       0.710  -1.003  -1.591  1.00  0.00    -0.379 OA
BRANCH  18  19
ATOM     19  C   UNL     1       0.023   0.044  -0.913  1.00  0.00     0.157 C 
ATOM     20  C   UNL     1       0.440   0.195   0.539  1.00  0.00     0.035 C 
ENDBRANCH  18  19
ENDBRANCH  17  18
ENDBRANCH  16  17
BRANCH  16  21
ATOM     21  O   UNL     1       2.403   1.500  -1.828  1.00  0.00    -0.391 OA
ATOM     22  H   UNL     1       2.929   1.517  -1.013  1.00  0.00     0.211 HD
ENDBRANCH  16  21
ENDBRANCH  15  16
ENDBRANCH   6  15
ENDBRANCH   3   6
ENDBRANCH   1   2
BRANCH   1  23
ATOM     23  C   UNL     1       6.608  -3.052  -6.588  1.00  0.00     0.042 C 
BRANCH  23  24
ATOM     24  C   UNL     1       7.532  -2.590  -7.707  1.00  0.00     0.118 C 
BRANCH  24  25
ATOM     25  N   UNL     1       8.815  -3.277  -7.668  1.00  0.00    -0.352 N 
ATOM     26  C   UNL     1       9.364  -4.168  -8.556  1.00  0.00     0.251 C 
ATOM     27  H   UNL     1       9.374  -3.070  -6.885  1.00  0.00     0.163 HD
ATOM     28  O   UNL     1      10.336  -4.835  -8.214  1.00  0.00    -0.269 OA
BRANCH  26  29
ATOM     29  C   UNL     1       8.791  -4.330  -9.911  1.00  0.00     0.039 A 
ATOM     30  C   UNL     1       8.730  -5.609 -10.472  1.00  0.00     0.014 A 
ATOM     31  C   UNL     1       8.361  -3.223 -10.648  1.00  0.00     0.014 A 
ATOM     32  C   UNL     1       8.192  -5.782 -11.749  1.00  0.00     0.010 A 
ATOM     33  C   UNL     1       7.753  -3.406 -11.886  1.00  0.00     0.010 A 
ATOM     34  C   UNL     1       7.675  -4.684 -12.456  1.00  0.00    -0.014 A 
BRANCH  34  35
ATOM     35  C   UNL     1       7.067  -4.846 -13.801  1.00  0.00     0.031 A 
ATOM     36  C   UNL     1       7.694  -4.176 -14.995  1.00  0.00     0.074 A 
ATOM     37  C   UNL     1       5.913  -5.529 -13.933  1.00  0.00     0.049 A 
ATOM     38  N   UNL     1       7.265  -4.116 -16.229  1.00  0.00    -0.248 NA
ATOM     39  C   UNL     1       8.955  -3.450 -14.764  1.00  0.00     0.031 C 
ATOM     40  C   UNL     1       5.182  -6.175 -12.840  1.00  0.00     0.029 A 
ATOM     41  N   UNL     1       5.142  -5.781 -15.040  1.00  0.00    -0.354 N 
ATOM     42  C   UNL     1       8.184  -3.329 -16.913  1.00  0.00     0.074 A 
ATOM     43  C   UNL     1       9.171  -2.896 -15.949  1.00  0.00     0.031 C 
ATOM     44  C   UNL     1       4.077  -6.757 -13.332  1.00  0.00     0.029 A 
ATOM     45  C   UNL     1       4.001  -6.498 -14.767  1.00  0.00     0.049 A 
ATOM     46  H   UNL     1       5.383  -5.476 -15.944  1.00  0.00     0.167 HD
ATOM     47  C   UNL     1       8.213  -3.013 -18.230  1.00  0.00     0.037 A 
ATOM     48  C   UNL     1       3.001  -6.893 -15.579  1.00  0.00     0.037 A 
ATOM     49  C   UNL     1       7.250  -3.485 -19.190  1.00  0.00     0.049 A 
ATOM     50  C   UNL     1       3.074  -6.558 -17.043  1.00  0.00     0.074 A 
ATOM     51  C   UNL     1       7.235  -3.288 -20.560  1.00  0.00     0.029 A 
ATOM     52  N   UNL     1       6.135  -4.250 -18.882  1.00  0.00    -0.354 N 
ATOM     53  N   UNL     1       3.988  -5.870 -17.686  1.00  0.00    -0.248 NA
ATOM     54  C   UNL     1       1.986  -7.056 -17.895  1.00  0.00     0.031 C 
ATOM     55  C   UNL     1       6.089  -3.903 -21.076  1.00  0.00     0.029 A 
ATOM     56  C   UNL     1       5.414  -4.519 -20.034  1.00  0.00     0.049 A 
ATOM     57  H   UNL     1       5.892  -4.556 -17.979  1.00  0.00     0.167 HD
ATOM     58  C   UNL     1       3.599  -5.875 -19.020  1.00  0.00     0.074 A 
ATOM     59  C   UNL     1       2.373  -6.643 -19.095  1.00  0.00     0.031 C 
ATOM     60  C   UNL     1       4.200  -5.295 -20.088  1.00  0.00     0.037 A 
BRANCH  47  61
ATOM     61  C   UNL     1       9.325  -2.123 -18.713  1.00  0.00     0.058 A 
ATOM     62  C   UNL     1      10.651  -2.576 -18.795  1.00  0.00     0.135 A 
ATOM     63  C   UNL     1       9.054  -0.814 -19.144  1.00  0.00     0.135 A 
ATOM     64  F   UNL     1      10.969  -3.813 -18.382  1.00  0.00    -0.206 F 
ATOM     65  C   UNL     1      11.673  -1.756 -19.262  1.00  0.00     0.059 A 
ATOM     66  C   UNL     1      10.056   0.015 -19.640  1.00  0.00     0.059 A 
ATOM     67  F   UNL     1       7.803  -0.328 -19.086  1.00  0.00    -0.206 F 
ATOM     68  C   UNL     1      11.366  -0.461 -19.683  1.00  0.00     0.060 A 
BRANCH  68  69
ATOM     69  S   UNL     1      12.701   0.585 -20.300  1.00  0.00     0.124 S 
ATOM     70  O   UNL     1      13.397   0.927 -19.063  1.00  0.00    -0.237 OA
ATOM     71  O   UNL     1      13.414  -0.316 -21.199  1.00  0.00    -0.237 OA
ATOM     72  O   UNL     1      11.998   1.686 -20.950  1.00  0.00    -0.744 OA
ENDBRANCH  68  69
ENDBRANCH  47  61
BRANCH  48  73
ATOM     73  C   UNL     1       1.856  -7.664 -15.025  1.00  0.00     0.058 A 
ATOM     74  C   UNL     1       1.696  -9.027 -15.315  1.00  0.00     0.135 A 
ATOM     75  C   UNL     1       0.910  -7.058 -14.185  1.00  0.00     0.135 A 
ATOM     76  F   UNL     1       2.574  -9.649 -16.117  1.00  0.00    -0.206 F 
ATOM     77  C   UNL     1       0.628  -9.759 -14.807  1.00  0.00     0.059 A 
ATOM     78  C   UNL     1      -0.153  -7.775 -13.645  1.00  0.00     0.059 A 
ATOM     79  F   UNL     1       1.029  -5.761 -13.861  1.00  0.00    -0.206 F 
ATOM     80  C   UNL     1      -0.292  -9.124 -13.971  1.00  0.00     0.060 A 
BRANCH  80  81
ATOM     81  S   UNL     1      -1.649 -10.094 -13.278  1.00  0.00     0.124 S 
ATOM     82  O   UNL     1      -2.526 -10.237 -14.434  1.00  0.00    -0.237 OA
ATOM     83  O   UNL     1      -0.967 -11.307 -12.839  1.00  0.00    -0.237 OA
ATOM     84  O   UNL     1      -2.151  -9.244 -12.203  1.00  0.00    -0.744 OA
ENDBRANCH  80  81
ENDBRANCH  48  73
BRANCH  60  85
ATOM     85  C   UNL     1       3.562  -5.494 -21.433  1.00  0.00     0.058 A 
ATOM     86  C   UNL     1       2.385  -4.822 -21.796  1.00  0.00     0.135 A 
ATOM     87  C   UNL     1       4.169  -6.323 -22.391  1.00  0.00     0.135 A 
ATOM     88  F   UNL     1       1.763  -4.024 -20.914  1.00  0.00    -0.206 F 
ATOM     89  C   UNL     1       1.819  -4.981 -23.056  1.00  0.00     0.059 A 
ATOM     90  C   UNL     1       3.635  -6.476 -23.666  1.00  0.00     0.059 A 
ATOM     91  F   UNL     1       5.302  -6.979 -22.096  1.00  0.00    -0.206 F 
ATOM     92  C   UNL     1       2.453  -5.809 -23.985  1.00  0.00     0.060 A 
BRANCH  92  93
ATOM     93  S   UNL     1       1.730  -5.976 -25.631  1.00  0.00     0.124 S 
ATOM     94  O   UNL     1       0.594  -6.852 -25.364  1.00  0.00    -0.237 OA
ATOM     95  O   UNL     1       1.400  -4.596 -25.971  1.00  0.00    -0.237 OA
ATOM     96  O   UNL     1       2.809  -6.568 -26.417  1.00  0.00    -0.744 OA
ENDBRANCH  92  93
ENDBRANCH  60  85
ENDBRANCH  34  35
ENDBRANCH  26  29
ENDBRANCH  24  25
ENDBRANCH  23  24
ENDBRANCH   1  23
TORSDOF 19
