REMARK SMILES Cc1cccc2nc([C@@H]3CCCC[C@@H]3C(=O)NCCCNC(=O)c3ccc(-c4c5nc(c(-c6c(F)cc(S(=O)(=O)[O-])cc6F)c6ccc([nH]6)c(-c6c(F)cc(S(=O)(=O)[O-])cc6F)c6nc(c(-c7c(F)cc(S(=O)(=O)[O-])cc7F)c7ccc4[nH]7)C=C6)C=C5)cc3)oc12
REMARK SMILES IDX 20 1 19 2 18 3 17 4 15 5 16 6 14 8 9 9 10 10 11 11 13 12
REMARK SMILES IDX 12 13 8 14 1 15 2 16 3 17 91 18 4 19 6 20 90 21 5 22 7 23
REMARK SMILES IDX 21 24 22 25 23 27 24 28 25 29 89 30 26 31 88 32 27 33 28 34
REMARK SMILES IDX 29 35 82 36 30 37 87 38 81 39 83 40 31 41 86 42 80 43 79 44
REMARK SMILES IDX 32 46 66 47 45 48 65 49 46 50 49 51 64 52 84 53 47 54 48 55
REMARK SMILES IDX 63 57 85 58 50 59 33 60 34 61 43 62 35 63 36 64 42 65 44 66
REMARK SMILES IDX 37 67 38 68 39 69 40 70 41 71 67 72 68 73 77 74 69 75 70 76
REMARK SMILES IDX 76 77 78 78 71 79 72 80 73 81 74 82 75 83 51 84 52 85 61 86
REMARK SMILES IDX 53 87 54 88 60 89 62 90 55 91 56 92 57 93 58 94 59 95
REMARK H PARENT 17 7 21 26 83 45 49 56
REMARK Flexibility Score: inf
ROOT
ATOM      1  C   UNL     1      -2.117   4.209   1.839  1.00  0.00     0.118 C 
ENDROOT
BRANCH   1   2
ATOM      2  C   UNL     1      -1.701   4.060   0.385  1.00  0.00     0.042 C 
BRANCH   2   3
ATOM      3  C   UNL     1      -1.697   5.384  -0.381  1.00  0.00     0.117 C 
BRANCH   3   4
ATOM      4  N   UNL     1      -0.809   6.383   0.203  1.00  0.00    -0.356 N 
ATOM      5  C   UNL     1       0.488   6.722  -0.036  1.00  0.00     0.223 C 
ATOM      6  O   UNL     1       0.978   7.599   0.677  1.00  0.00    -0.275 OA
ATOM      7  H   UNL     1      -1.233   6.920   0.911  1.00  0.00     0.163 HD
BRANCH   5   8
ATOM      8  C   UNL     1       1.264   6.100  -1.196  1.00  0.00     0.091 C 
ATOM      9  C   UNL     1       2.473   5.244  -0.758  1.00  0.00     0.088 C 
ATOM     10  C   UNL     1       3.658   6.076  -0.255  1.00  0.00     0.014 C 
ATOM     11  C   UNL     1       4.082   7.121  -1.282  1.00  0.00     0.001 C 
ATOM     12  C   UNL     1       1.703   7.230  -2.155  1.00  0.00     0.014 C 
ATOM     13  C   UNL     1       2.923   8.025  -1.678  1.00  0.00     0.001 C 
BRANCH   9  14
ATOM     14  C   UNL     1       2.099   4.191   0.234  1.00  0.00     0.199 A 
ATOM     15  C   UNL     1       1.029  -0.020  -0.314  1.00  0.00     0.048 C 
ATOM     16  C   UNL     1       1.002   0.895   0.867  1.00  0.00    -0.006 A 
ATOM     17  C   UNL     1       0.484   0.486   2.112  1.00  0.00     0.007 A 
ATOM     18  C   UNL     1       1.454   2.217   0.834  1.00  0.00     0.157 A 
ATOM     19  C   UNL     1       0.474   1.332   3.230  1.00  0.00     0.003 A 
ATOM     20  C   UNL     1       1.457   3.081   1.919  1.00  0.00     0.110 A 
ATOM     21  O   UNL     1       1.889   2.924  -0.256  1.00  0.00    -0.440 OA
ATOM     22  C   UNL     1       0.985   2.633   3.156  1.00  0.00     0.032 A 
ATOM     23  N   UNL     1       1.883   4.322   1.527  1.00  0.00    -0.213 NA
ENDBRANCH   9  14
ENDBRANCH   5   8
ENDBRANCH   3   4
ENDBRANCH   2   3
ENDBRANCH   1   2
BRANCH   1  24
ATOM     24  N   UNL     1      -3.556   4.119   2.042  1.00  0.00    -0.352 N 
ATOM     25  C   UNL     1      -4.228   3.871   3.219  1.00  0.00     0.251 C 
ATOM     26  H   UNL     1      -4.116   4.251   1.243  1.00  0.00     0.163 HD
ATOM     27  O   UNL     1      -5.399   3.483   3.168  1.00  0.00    -0.269 OA
BRANCH  25  28
ATOM     28  C   UNL     1      -3.571   4.077   4.531  1.00  0.00     0.039 A 
ATOM     29  C   UNL     1      -4.012   3.373   5.659  1.00  0.00     0.014 A 
ATOM     30  C   UNL     1      -2.573   5.044   4.670  1.00  0.00     0.014 A 
ATOM     31  C   UNL     1      -3.456   3.656   6.906  1.00  0.00     0.010 A 
ATOM     32  C   UNL     1      -1.938   5.239   5.871  1.00  0.00     0.010 A 
ATOM     33  C   UNL     1      -2.434   4.609   7.001  1.00  0.00    -0.014 A 
BRANCH  33  34
ATOM     34  C   UNL     1      -1.838   4.957   8.281  1.00  0.00     0.031 A 
ATOM     35  C   UNL     1      -1.070   3.862   8.924  1.00  0.00     0.074 A 
ATOM     36  C   UNL     1      -1.788   6.232   8.725  1.00  0.00     0.049 A 
ATOM     37  N   UNL     1      -1.358   3.221  10.007  1.00  0.00    -0.248 NA
ATOM     38  C   UNL     1       0.093   3.320   8.202  1.00  0.00     0.031 C 
ATOM     39  C   UNL     1      -2.200   7.456   8.023  1.00  0.00     0.029 A 
ATOM     40  N   UNL     1      -1.248   6.717   9.874  1.00  0.00    -0.354 N 
ATOM     41  C   UNL     1      -0.300   2.343  10.222  1.00  0.00     0.074 A 
ATOM     42  C   UNL     1       0.460   2.314   8.998  1.00  0.00     0.031 C 
ATOM     43  C   UNL     1      -1.694   8.536   8.660  1.00  0.00     0.029 A 
ATOM     44  C   UNL     1      -1.072   8.097   9.895  1.00  0.00     0.049 A 
ATOM     45  H   UNL     1      -1.002   6.139  10.632  1.00  0.00     0.167 HD
ATOM     46  C   UNL     1       0.005   1.882  11.466  1.00  0.00     0.037 A 
ATOM     47  C   UNL     1      -0.430   8.813  10.852  1.00  0.00     0.037 A 
ATOM     48  C   UNL     1      -1.043   2.176  12.408  1.00  0.00     0.049 A 
ATOM     49  C   UNL     1      -0.407   7.965  12.071  1.00  0.00     0.074 A 
ATOM     50  C   UNL     1      -2.358   1.792  12.558  1.00  0.00     0.029 A 
ATOM     51  N   UNL     1      -0.884   3.312  13.163  1.00  0.00    -0.354 N 
ATOM     52  N   UNL     1      -1.473   7.602  12.731  1.00  0.00    -0.248 NA
ATOM     53  C   UNL     1       0.780   7.163  12.321  1.00  0.00     0.031 C 
ATOM     54  C   UNL     1      -3.033   2.948  13.050  1.00  0.00     0.029 A 
ATOM     55  C   UNL     1      -2.090   3.963  13.227  1.00  0.00     0.049 A 
ATOM     56  H   UNL     1      -0.047   3.610  13.587  1.00  0.00     0.167 HD
ATOM     57  C   UNL     1      -1.216   6.301  13.139  1.00  0.00     0.074 A 
ATOM     58  C   UNL     1       0.224   6.132  12.963  1.00  0.00     0.031 C 
ATOM     59  C   UNL     1      -2.231   5.405  13.315  1.00  0.00     0.037 A 
BRANCH  46  60
ATOM     60  C   UNL     1       1.390   1.487  11.911  1.00  0.00     0.058 A 
ATOM     61  C   UNL     1       1.562   0.734  13.088  1.00  0.00     0.135 A 
ATOM     62  C   UNL     1       2.567   2.037  11.357  1.00  0.00     0.135 A 
ATOM     63  F   UNL     1       0.504   0.195  13.715  1.00  0.00    -0.206 F 
ATOM     64  C   UNL     1       2.812   0.562  13.686  1.00  0.00     0.059 A 
ATOM     65  C   UNL     1       3.828   1.833  11.905  1.00  0.00     0.059 A 
ATOM     66  F   UNL     1       2.531   2.877  10.314  1.00  0.00    -0.206 F 
ATOM     67  C   UNL     1       3.939   1.119  13.087  1.00  0.00     0.060 A 
BRANCH  67  68
ATOM     68  S   UNL     1       5.542   0.949  13.892  1.00  0.00     0.124 S 
ATOM     69  O   UNL     1       5.356   1.760  15.090  1.00  0.00    -0.237 OA
ATOM     70  O   UNL     1       5.624  -0.493  14.101  1.00  0.00    -0.237 OA
ATOM     71  O   UNL     1       6.473   1.486  12.904  1.00  0.00    -0.744 OA
ENDBRANCH  67  68
ENDBRANCH  46  60
BRANCH  47  72
ATOM     72  C   UNL     1       0.473   9.985  10.682  1.00  0.00     0.058 A 
ATOM     73  C   UNL     1       0.907  10.726  11.797  1.00  0.00     0.135 A 
ATOM     74  C   UNL     1       1.175  10.206   9.480  1.00  0.00     0.135 A 
ATOM     75  F   UNL     1       0.304  10.571  12.985  1.00  0.00    -0.206 F 
ATOM     76  C   UNL     1       2.016  11.578  11.743  1.00  0.00     0.059 A 
ATOM     77  C   UNL     1       2.278  11.056   9.399  1.00  0.00     0.059 A 
ATOM     78  F   UNL     1       0.869   9.524   8.366  1.00  0.00    -0.206 F 
ATOM     79  C   UNL     1       2.714  11.714  10.544  1.00  0.00     0.060 A 
BRANCH  79  80
ATOM     80  S   UNL     1       4.262  12.652  10.524  1.00  0.00     0.124 S 
ATOM     81  O   UNL     1       3.795  14.012  10.771  1.00  0.00    -0.237 OA
ATOM     82  O   UNL     1       5.011  12.028  11.609  1.00  0.00    -0.237 OA
ATOM     83  O   UNL     1       4.790  12.408   9.184  1.00  0.00    -0.744 OA
ENDBRANCH  79  80
ENDBRANCH  47  72
BRANCH  59  84
ATOM     84  C   UNL     1      -3.640   5.943  13.412  1.00  0.00     0.058 A 
ATOM     85  C   UNL     1      -4.337   6.570  12.363  1.00  0.00     0.135 A 
ATOM     86  C   UNL     1      -4.361   5.678  14.585  1.00  0.00     0.135 A 
ATOM     87  F   UNL     1      -3.754   6.780  11.175  1.00  0.00    -0.206 F 
ATOM     88  C   UNL     1      -5.678   6.943  12.488  1.00  0.00     0.059 A 
ATOM     89  C   UNL     1      -5.706   6.012  14.722  1.00  0.00     0.059 A 
ATOM     90  F   UNL     1      -3.770   5.034  15.605  1.00  0.00    -0.206 F 
ATOM     91  C   UNL     1      -6.357   6.654  13.672  1.00  0.00     0.060 A 
BRANCH  91  92
ATOM     92  S   UNL     1      -8.111   7.065  13.806  1.00  0.00     0.124 S 
ATOM     93  O   UNL     1      -8.087   8.524  13.829  1.00  0.00    -0.237 OA
ATOM     94  O   UNL     1      -8.672   6.459  12.602  1.00  0.00    -0.237 OA
ATOM     95  O   UNL     1      -8.517   6.430  15.058  1.00  0.00    -0.744 OA
ENDBRANCH  91  92
ENDBRANCH  59  84
ENDBRANCH  33  34
ENDBRANCH  25  28
ENDBRANCH   1  24
TORSDOF 14
