REMARK SMILES CC(C)c1cc(=O)[nH]c(SCC(=O)NCCCNC(=O)c2ccc(-c3c4nc(c(-c5c(F)cc(S(=O)(=O)[O-])cc5F)c5ccc([nH]5)c(-c5c(F)cc(S(=O)(=O)[O-])cc5F)c5nc(c(-c6c(F)cc(S(=O)(=O)[O-])cc6F)c6ccc3[nH]6)C=C5)C=C4)cc2)n1
REMARK SMILES IDX 16 1 15 2 14 3 12 4 13 5 11 7 10 8 9 9 4 10 5 11 87 12 6 13
REMARK SMILES IDX 7 14 8 15 2 17 1 18 3 19 17 20 18 21 19 22 20 24 21 25 22 26
REMARK SMILES IDX 86 27 23 28 85 29 24 30 25 31 26 32 79 33 27 34 84 35 78 36
REMARK SMILES IDX 80 37 28 38 83 39 77 40 76 41 29 43 63 44 42 45 62 46 43 47
REMARK SMILES IDX 46 48 61 49 81 50 44 51 45 52 60 54 82 55 47 56 30 57 31 58
REMARK SMILES IDX 40 59 32 60 33 61 39 62 41 63 34 64 35 65 36 66 37 67 38 68
REMARK SMILES IDX 64 69 65 70 74 71 66 72 67 73 73 74 75 75 68 76 69 77 70 78
REMARK SMILES IDX 71 79 72 80 48 81 49 82 58 83 50 84 51 85 57 86 59 87 52 88
REMARK SMILES IDX 53 89 54 90 55 91 56 92
REMARK H PARENT 14 6 8 16 18 23 80 42 46 53
REMARK Flexibility Score: inf
ROOT
ATOM      1  C   UNL     1      -4.552  -4.474  -3.654  1.00  0.00     0.042 C 
ENDROOT
BRANCH   1   2
ATOM      2  C   UNL     1      -3.880  -5.685  -3.012  1.00  0.00     0.117 C 
BRANCH   2   3
ATOM      3  N   UNL     1      -2.472  -5.449  -2.745  1.00  0.00    -0.355 N 
ATOM      4  C   UNL     1      -1.817  -5.263  -1.563  1.00  0.00     0.230 C 
ATOM      5  O   UNL     1      -0.587  -5.165  -1.612  1.00  0.00    -0.274 OA
ATOM      6  H   UNL     1      -1.899  -5.419  -3.545  1.00  0.00     0.163 HD
BRANCH   4   7
ATOM      7  C   UNL     1      -2.553  -5.320  -0.237  1.00  0.00     0.178 C 
BRANCH   7   8
ATOM      8  S   UNL     1      -3.826  -4.053  -0.018  1.00  0.00    -0.078 SA
BRANCH   8   9
ATOM      9  C   UNL     1      -2.903  -2.590  -0.093  1.00  0.00     0.168 A 
ATOM     10  C   UNL     1      -1.004  -1.324  -0.157  1.00  0.00     0.051 A 
ATOM     11  C   UNL     1      -1.705  -0.177  -0.172  1.00  0.00     0.095 A 
ATOM     12  N   UNL     1      -1.617  -2.561  -0.114  1.00  0.00    -0.229 NA
ATOM     13  C   UNL     1      -3.173  -0.241  -0.135  1.00  0.00     0.251 A 
ATOM     14  O   UNL     1      -3.856   0.775  -0.119  1.00  0.00    -0.269 OA
ATOM     15  N   UNL     1      -3.697  -1.492  -0.108  1.00  0.00    -0.301 N 
ATOM     16  H   UNL     1      -4.675  -1.604  -0.098  1.00  0.00     0.172 HD
BRANCH  10  17
ATOM     17  C   UNL     1       0.527  -1.371  -0.197  1.00  0.00     0.032 C 
ATOM     18  C   UNL     1       1.225  -0.018   0.004  1.00  0.00     0.014 C 
ATOM     19  C   UNL     1       1.085  -2.363   0.836  1.00  0.00     0.014 C 
ENDBRANCH  10  17
ENDBRANCH   8   9
ENDBRANCH   7   8
ENDBRANCH   4   7
ENDBRANCH   2   3
ENDBRANCH   1   2
BRANCH   1  20
ATOM     20  C   UNL     1      -4.006  -4.110  -5.034  1.00  0.00     0.118 C 
BRANCH  20  21
ATOM     21  N   UNL     1      -4.240  -5.149  -6.028  1.00  0.00    -0.352 N 
ATOM     22  C   UNL     1      -4.934  -5.109  -7.213  1.00  0.00     0.251 C 
ATOM     23  H   UNL     1      -3.835  -6.021  -5.816  1.00  0.00     0.163 HD
ATOM     24  O   UNL     1      -5.152  -6.159  -7.812  1.00  0.00    -0.269 OA
BRANCH  22  25
ATOM     25  C   UNL     1      -5.443  -3.829  -7.756  1.00  0.00     0.039 A 
ATOM     26  C   UNL     1      -6.729  -3.798  -8.303  1.00  0.00     0.014 A 
ATOM     27  C   UNL     1      -4.663  -2.670  -7.751  1.00  0.00     0.014 A 
ATOM     28  C   UNL     1      -7.261  -2.591  -8.765  1.00  0.00     0.010 A 
ATOM     29  C   UNL     1      -5.220  -1.453  -8.145  1.00  0.00     0.010 A 
ATOM     30  C   UNL     1      -6.530  -1.398  -8.643  1.00  0.00    -0.014 A 
BRANCH  30  31
ATOM     31  C   UNL     1      -7.146  -0.085  -8.975  1.00  0.00     0.031 A 
ATOM     32  C   UNL     1      -6.593   0.770 -10.082  1.00  0.00     0.074 A 
ATOM     33  C   UNL     1      -8.172   0.367  -8.224  1.00  0.00     0.049 A 
ATOM     34  N   UNL     1      -6.967   1.964 -10.466  1.00  0.00    -0.248 NA
ATOM     35  C   UNL     1      -5.461   0.223 -10.845  1.00  0.00     0.031 C 
ATOM     36  C   UNL     1      -8.768  -0.348  -7.092  1.00  0.00     0.029 A 
ATOM     37  N   UNL     1      -8.888   1.537  -8.288  1.00  0.00    -0.354 N 
ATOM     38  C   UNL     1      -6.116   2.315 -11.508  1.00  0.00     0.074 A 
ATOM     39  C   UNL     1      -5.175   1.225 -11.664  1.00  0.00     0.031 C 
ATOM     40  C   UNL     1      -9.769   0.387  -6.584  1.00  0.00     0.029 A 
ATOM     41  C   UNL     1      -9.858   1.645  -7.318  1.00  0.00     0.049 A 
ATOM     42  H   UNL     1      -8.723   2.233  -8.964  1.00  0.00     0.167 HD
ATOM     43  C   UNL     1      -6.129   3.432 -12.274  1.00  0.00     0.037 A 
ATOM     44  C   UNL     1     -10.713   2.648  -7.037  1.00  0.00     0.037 A 
ATOM     45  C   UNL     1      -7.075   4.509 -12.117  1.00  0.00     0.049 A 
ATOM     46  C   UNL     1     -10.690   3.889  -7.886  1.00  0.00     0.074 A 
ATOM     47  C   UNL     1      -7.206   5.656 -12.882  1.00  0.00     0.029 A 
ATOM     48  N   UNL     1      -8.044   4.581 -11.126  1.00  0.00    -0.354 N 
ATOM     49  N   UNL     1      -9.925   4.170  -8.914  1.00  0.00    -0.248 NA
ATOM     50  C   UNL     1     -11.648   4.948  -7.542  1.00  0.00     0.031 C 
ATOM     51  C   UNL     1      -8.213   6.447 -12.319  1.00  0.00     0.029 A 
ATOM     52  C   UNL     1      -8.753   5.766 -11.240  1.00  0.00     0.049 A 
ATOM     53  H   UNL     1      -8.204   3.891 -10.443  1.00  0.00     0.167 HD
ATOM     54  C   UNL     1     -10.325   5.428  -9.352  1.00  0.00     0.074 A 
ATOM     55  C   UNL     1     -11.412   5.843  -8.490  1.00  0.00     0.031 C 
ATOM     56  C   UNL     1      -9.835   6.172 -10.375  1.00  0.00     0.037 A 
BRANCH  43  57
ATOM     57  C   UNL     1      -5.088   3.556 -13.356  1.00  0.00     0.058 A 
ATOM     58  C   UNL     1      -5.115   2.746 -14.503  1.00  0.00     0.135 A 
ATOM     59  C   UNL     1      -4.083   4.534 -13.272  1.00  0.00     0.135 A 
ATOM     60  F   UNL     1      -6.046   1.787 -14.633  1.00  0.00    -0.206 F 
ATOM     61  C   UNL     1      -4.169   2.883 -15.514  1.00  0.00     0.059 A 
ATOM     62  C   UNL     1      -3.144   4.708 -14.285  1.00  0.00     0.059 A 
ATOM     63  F   UNL     1      -4.010   5.337 -12.199  1.00  0.00    -0.206 F 
ATOM     64  C   UNL     1      -3.188   3.869 -15.397  1.00  0.00     0.060 A 
BRANCH  64  65
ATOM     65  S   UNL     1      -1.976   4.039 -16.724  1.00  0.00     0.124 S 
ATOM     66  O   UNL     1      -1.173   2.834 -16.541  1.00  0.00    -0.237 OA
ATOM     67  O   UNL     1      -2.819   4.062 -17.914  1.00  0.00    -0.237 OA
ATOM     68  O   UNL     1      -1.301   5.295 -16.412  1.00  0.00    -0.744 OA
ENDBRANCH  64  65
ENDBRANCH  43  57
BRANCH  44  69
ATOM     69  C   UNL     1     -11.666   2.516  -5.902  1.00  0.00     0.058 A 
ATOM     70  C   UNL     1     -13.046   2.396  -6.126  1.00  0.00     0.135 A 
ATOM     71  C   UNL     1     -11.217   2.497  -4.572  1.00  0.00     0.135 A 
ATOM     72  F   UNL     1     -13.526   2.416  -7.379  1.00  0.00    -0.206 F 
ATOM     73  C   UNL     1     -13.948   2.279  -5.074  1.00  0.00     0.059 A 
ATOM     74  C   UNL     1     -12.097   2.352  -3.504  1.00  0.00     0.059 A 
ATOM     75  F   UNL     1      -9.906   2.592  -4.303  1.00  0.00    -0.206 F 
ATOM     76  C   UNL     1     -13.463   2.254  -3.765  1.00  0.00     0.060 A 
BRANCH  76  77
ATOM     77  S   UNL     1     -14.639   2.052  -2.410  1.00  0.00     0.124 S 
ATOM     78  O   UNL     1     -15.299   3.353  -2.397  1.00  0.00    -0.237 OA
ATOM     79  O   UNL     1     -15.449   0.929  -2.873  1.00  0.00    -0.237 OA
ATOM     80  O   UNL     1     -13.783   1.766  -1.262  1.00  0.00    -0.744 OA
ENDBRANCH  76  77
ENDBRANCH  44  69
BRANCH  56  81
ATOM     81  C   UNL     1     -10.486   7.503 -10.639  1.00  0.00     0.058 A 
ATOM     82  C   UNL     1     -10.321   8.592  -9.768  1.00  0.00     0.135 A 
ATOM     83  C   UNL     1     -11.250   7.705 -11.800  1.00  0.00     0.135 A 
ATOM     84  F   UNL     1      -9.608   8.453  -8.639  1.00  0.00    -0.206 F 
ATOM     85  C   UNL     1     -10.911   9.826 -10.026  1.00  0.00     0.059 A 
ATOM     86  C   UNL     1     -11.822   8.939 -12.094  1.00  0.00     0.059 A 
ATOM     87  F   UNL     1     -11.433   6.701 -12.672  1.00  0.00    -0.206 F 
ATOM     88  C   UNL     1     -11.658   9.990 -11.194  1.00  0.00     0.060 A 
BRANCH  88  89
ATOM     89  S   UNL     1     -12.390  11.605 -11.532  1.00  0.00     0.124 S 
ATOM     90  O   UNL     1     -13.469  11.650 -10.550  1.00  0.00    -0.237 OA
ATOM     91  O   UNL     1     -11.272  12.511 -11.288  1.00  0.00    -0.237 OA
ATOM     92  O   UNL     1     -12.814  11.503 -12.925  1.00  0.00    -0.744 OA
ENDBRANCH  88  89
ENDBRANCH  56  81
ENDBRANCH  30  31
ENDBRANCH  22  25
ENDBRANCH  20  21
ENDBRANCH   1  20
TORSDOF 16
