REMARK SMILES C[C@@]1(C(=O)c2ccccc2N)[C@H](C(=O)NCCCNC(=O)c2ccc(-c3c4nc(c(-c5c(F)cc(S(=O)(=O)[O-])cc5F)c5ccc([nH]5)c(-c5c(F)cc(S(=O)(=O)[O-])cc5F)c5nc(c(-c6c(F)cc(S(=O)(=O)[O-])cc6F)c6ccc3[nH]6)C=C5)C=C4)cc2)[C@@H]1C(=O)N1CCOCC1
REMARK SMILES IDX 17 1 16 2 15 3 13 4 14 5 12 7 1 8 2 9 88 10 3 11 4 12 5 13
REMARK SMILES IDX 6 14 10 15 7 16 9 17 8 18 11 19 89 22 90 23 91 24 92 25
REMARK SMILES IDX 96 26 93 27 95 28 94 29 18 30 19 31 20 32 21 34 22 35 23 36
REMARK SMILES IDX 87 37 24 38 86 39 25 40 26 41 27 42 80 43 28 44 85 45 79 46
REMARK SMILES IDX 81 47 29 48 84 49 78 50 77 51 30 53 64 54 43 55 63 56 44 57
REMARK SMILES IDX 47 58 62 59 82 60 45 61 46 62 61 64 83 65 48 66 31 67 32 68
REMARK SMILES IDX 41 69 33 70 34 71 40 72 42 73 35 74 36 75 37 76 38 77 39 78
REMARK SMILES IDX 65 79 66 80 75 81 67 82 68 83 74 84 76 85 69 86 70 87 71 88
REMARK SMILES IDX 72 89 73 90 49 91 50 92 59 93 51 94 52 95 58 96 60 97 53 98
REMARK SMILES IDX 54 99 55 100 56 101 57 102
REMARK H PARENT 15 6 11 20 11 21 19 33 81 52 47 63
REMARK Flexibility Score: inf
ROOT
ATOM      1  C   UNL     1      -0.655   3.020   5.727  1.00  0.00     0.042 C 
ENDROOT
BRANCH   1   2
ATOM      2  C   UNL     1      -1.512   2.166   4.791  1.00  0.00     0.117 C 
BRANCH   2   3
ATOM      3  N   UNL     1      -1.109   2.376   3.415  1.00  0.00    -0.356 N 
ATOM      4  C   UNL     1      -0.991   1.527   2.356  1.00  0.00     0.224 C 
ATOM      5  O   UNL     1      -1.060   2.009   1.227  1.00  0.00    -0.275 OA
ATOM      6  H   UNL     1      -0.876   3.309   3.206  1.00  0.00     0.163 HD
BRANCH   4   7
ATOM      7  C   UNL     1      -0.971   0.047   2.515  1.00  0.00     0.106 C 
ATOM      8  C   UNL     1       0.290  -0.563   0.084  1.00  0.00     0.022 C 
ATOM      9  C   UNL     1       0.451  -0.337   1.589  1.00  0.00     0.056 C 
ATOM     10  C   UNL     1      -0.318  -1.286   2.446  1.00  0.00     0.106 C 
BRANCH   9  11
ATOM     11  C   UNL     1       1.713   0.608   1.867  1.00  0.00     0.172 C 
ATOM     12  O   UNL     1       1.782   1.699   1.311  1.00  0.00    -0.293 OA
BRANCH  11  13
ATOM     13  C   UNL     1       2.852   0.238   2.768  1.00  0.00     0.041 A 
ATOM     14  C   UNL     1       3.804   1.425   3.571  1.00  0.00     0.014 A 
ATOM     15  C   UNL     1       2.404  -1.150   3.640  1.00  0.00     0.042 A 
ATOM     16  C   UNL     1       4.316   1.296   5.229  1.00  0.00     0.001 A 
ATOM     17  C   UNL     1       2.837  -1.266   5.565  1.00  0.00     0.026 A 
ATOM     18  C   UNL     1       3.871  -0.014   6.261  1.00  0.00     0.002 A 
BRANCH  15  19
ATOM     19  N   UNL     1       2.438  -2.214   2.558  1.00  0.00    -0.398 N 
ATOM     20  H   UNL     1       2.188  -1.984   1.634  1.00  0.00     0.156 HD
ATOM     21  H   UNL     1       2.710  -3.133   2.780  1.00  0.00     0.156 HD
ENDBRANCH  15  19
ENDBRANCH  11  13
ENDBRANCH   9  11
BRANCH  10  22
ATOM     22  C   UNL     1       0.024  -2.424   3.446  1.00  0.00     0.227 C 
ATOM     23  O   UNL     1      -0.172  -3.574   3.041  1.00  0.00    -0.275 OA
ATOM     24  N   UNL     1       0.795  -2.262   4.626  1.00  0.00    -0.338 N 
ATOM     25  C   UNL     1       0.722  -0.781   5.238  1.00  0.00     0.148 C 
ATOM     26  C   UNL     1       2.296  -3.271   4.733  1.00  0.00     0.148 C 
ATOM     27  C   UNL     1       2.159   0.384   4.887  1.00  0.00     0.181 C 
ATOM     28  C   UNL     1       4.010  -2.404   4.376  1.00  0.00     0.181 C 
ATOM     29  O   UNL     1       3.924  -0.518   4.342  1.00  0.00    -0.378 OA
ENDBRANCH  10  22
ENDBRANCH   4   7
ENDBRANCH   2   3
ENDBRANCH   1   2
BRANCH   1  30
ATOM     30  C   UNL     1      -1.068   2.902   7.193  1.00  0.00     0.118 C 
BRANCH  30  31
ATOM     31  N   UNL     1      -0.551   1.688   7.795  1.00  0.00    -0.352 N 
ATOM     32  C   UNL     1       0.590   1.384   8.496  1.00  0.00     0.251 C 
ATOM     33  H   UNL     1      -1.147   0.914   7.676  1.00  0.00     0.163 HD
ATOM     34  O   UNL     1       0.672   0.216   8.886  1.00  0.00    -0.269 OA
BRANCH  32  35
ATOM     35  C   UNL     1       1.710   2.330   8.809  1.00  0.00     0.039 A 
ATOM     36  C   UNL     1       2.650   1.895   9.768  1.00  0.00     0.014 A 
ATOM     37  C   UNL     1       1.933   3.567   8.198  1.00  0.00     0.014 A 
ATOM     38  C   UNL     1       3.763   2.674  10.116  1.00  0.00     0.010 A 
ATOM     39  C   UNL     1       3.037   4.360   8.558  1.00  0.00     0.010 A 
ATOM     40  C   UNL     1       3.965   3.919   9.513  1.00  0.00    -0.014 A 
BRANCH  40  41
ATOM     41  C   UNL     1       5.144   4.758   9.857  1.00  0.00     0.031 A 
ATOM     42  C   UNL     1       4.984   5.986  10.709  1.00  0.00     0.074 A 
ATOM     43  C   UNL     1       6.369   4.429   9.404  1.00  0.00     0.049 A 
ATOM     44  N   UNL     1       5.871   6.897  11.021  1.00  0.00    -0.248 NA
ATOM     45  C   UNL     1       3.652   6.215  11.286  1.00  0.00     0.031 C 
ATOM     46  C   UNL     1       6.688   3.252   8.597  1.00  0.00     0.029 A 
ATOM     47  N   UNL     1       7.578   5.060   9.570  1.00  0.00    -0.354 N 
ATOM     48  C   UNL     1       5.200   7.828  11.804  1.00  0.00     0.074 A 
ATOM     49  C   UNL     1       3.834   7.358  11.934  1.00  0.00     0.031 C 
ATOM     50  C   UNL     1       8.011   3.232   8.358  1.00  0.00     0.029 A 
ATOM     51  C   UNL     1       8.626   4.416   8.958  1.00  0.00     0.049 A 
ATOM     52  H   UNL     1       7.684   5.895  10.079  1.00  0.00     0.167 HD
ATOM     53  C   UNL     1       5.672   8.972  12.357  1.00  0.00     0.037 A 
ATOM     54  C   UNL     1       9.930   4.745   8.875  1.00  0.00     0.037 A 
ATOM     55  C   UNL     1       7.032   9.434  12.269  1.00  0.00     0.049 A 
ATOM     56  C   UNL     1      10.436   6.011   9.508  1.00  0.00     0.074 A 
ATOM     57  C   UNL     1       7.582  10.598  12.780  1.00  0.00     0.029 A 
ATOM     58  N   UNL     1       8.062   8.750  11.644  1.00  0.00    -0.354 N 
ATOM     59  N   UNL     1       9.773   6.914  10.188  1.00  0.00    -0.248 NA
ATOM     60  C   UNL     1      11.868   6.309   9.349  1.00  0.00     0.031 C 
ATOM     61  C   UNL     1       8.946  10.620  12.460  1.00  0.00     0.029 A 
ATOM     62  C   UNL     1       9.246   9.462  11.763  1.00  0.00     0.049 A 
ATOM     63  H   UNL     1       7.967   7.886  11.182  1.00  0.00     0.167 HD
ATOM     64  C   UNL     1      10.707   7.882  10.544  1.00  0.00     0.074 A 
ATOM     65  C   UNL     1      11.983   7.452  10.012  1.00  0.00     0.031 C 
ATOM     66  C   UNL     1      10.517   9.026  11.245  1.00  0.00     0.037 A 
BRANCH  53  67
ATOM     67  C   UNL     1       4.675   9.835  13.073  1.00  0.00     0.058 A 
ATOM     68  C   UNL     1       4.262   9.556  14.384  1.00  0.00     0.135 A 
ATOM     69  C   UNL     1       4.119  10.948  12.424  1.00  0.00     0.135 A 
ATOM     70  F   UNL     1       4.756   8.493  15.037  1.00  0.00    -0.206 F 
ATOM     71  C   UNL     1       3.300  10.335  15.019  1.00  0.00     0.059 A 
ATOM     72  C   UNL     1       3.165  11.748  13.044  1.00  0.00     0.059 A 
ATOM     73  F   UNL     1       4.484  11.253  11.169  1.00  0.00    -0.206 F 
ATOM     74  C   UNL     1       2.745  11.418  14.333  1.00  0.00     0.060 A 
BRANCH  74  75
ATOM     75  S   UNL     1       1.453  12.400  15.124  1.00  0.00     0.124 S 
ATOM     76  O   UNL     1       0.256  11.653  14.749  1.00  0.00    -0.237 OA
ATOM     77  O   UNL     1       1.817  12.341  16.536  1.00  0.00    -0.237 OA
ATOM     78  O   UNL     1       1.601  13.710  14.498  1.00  0.00    -0.744 OA
ENDBRANCH  74  75
ENDBRANCH  53  67
BRANCH  54  79
ATOM     79  C   UNL     1      10.862   3.853   8.145  1.00  0.00     0.058 A 
ATOM     80  C   UNL     1      11.719   2.989   8.842  1.00  0.00     0.135 A 
ATOM     81  C   UNL     1      10.899   3.836   6.744  1.00  0.00     0.135 A 
ATOM     82  F   UNL     1      11.721   2.984  10.184  1.00  0.00    -0.206 F 
ATOM     83  C   UNL     1      12.584   2.133   8.172  1.00  0.00     0.059 A 
ATOM     84  C   UNL     1      11.747   2.979   6.051  1.00  0.00     0.059 A 
ATOM     85  F   UNL     1      10.091   4.644   6.041  1.00  0.00    -0.206 F 
ATOM     86  C   UNL     1      12.589   2.134   6.775  1.00  0.00     0.060 A 
BRANCH  86  87
ATOM     87  S   UNL     1      13.661   0.969   5.905  1.00  0.00     0.124 S 
ATOM     88  O   UNL     1      14.935   1.678   5.919  1.00  0.00    -0.237 OA
ATOM     89  O   UNL     1      13.582  -0.219   6.749  1.00  0.00    -0.237 OA
ATOM     90  O   UNL     1      13.018   0.843   4.600  1.00  0.00    -0.744 OA
ENDBRANCH  86  87
ENDBRANCH  54  79
BRANCH  66  91
ATOM     91  C   UNL     1      11.720   9.885  11.502  1.00  0.00     0.058 A 
ATOM     92  C   UNL     1      12.197  10.784  10.537  1.00  0.00     0.135 A 
ATOM     93  C   UNL     1      12.383   9.834  12.739  1.00  0.00     0.135 A 
ATOM     94  F   UNL     1      11.601  10.865   9.337  1.00  0.00    -0.206 F 
ATOM     95  C   UNL     1      13.299  11.599  10.784  1.00  0.00     0.059 A 
ATOM     96  C   UNL     1      13.481  10.646  13.011  1.00  0.00     0.059 A 
ATOM     97  F   UNL     1      11.963   8.991  13.695  1.00  0.00    -0.206 F 
ATOM     98  C   UNL     1      13.938  11.520  12.023  1.00  0.00     0.060 A 
BRANCH  98  99
ATOM     99  S   UNL     1      15.347  12.600  12.359  1.00  0.00     0.124 S 
ATOM    100  O   UNL     1      16.445  11.841  11.772  1.00  0.00    -0.237 OA
ATOM    101  O   UNL     1      14.983  13.830  11.662  1.00  0.00    -0.237 OA
ATOM    102  O   UNL     1      15.354  12.695  13.816  1.00  0.00    -0.744 OA
ENDBRANCH  98  99
ENDBRANCH  66  91
ENDBRANCH  40  41
ENDBRANCH  32  35
ENDBRANCH  30  31
ENDBRANCH   1  30
TORSDOF 17
