REMARK SMILES CCOc1ccccc1Nc1ccc(C(=O)NCCCNC(=O)c2ccc(-c3c4nc(c(-c5c(F)cc(S(=O)(=O)[O-])cc5F)c5ccc([nH]5)c(-c5c(F)cc(S(=O)(=O)[O-])cc5F)c5nc(c(-c6c(F)cc(S(=O)(=O)[O-])cc6F)c6ccc3[nH]6)C=C5)C=C4)cc2)cc1N
REMARK SMILES IDX 18 1 17 2 15 3 16 4 14 6 11 7 12 8 91 9 13 10 90 11 10 12
REMARK SMILES IDX 9 14 4 15 5 16 6 17 8 18 7 19 3 20 2 21 1 22 92 23 19 26
REMARK SMILES IDX 20 27 21 28 22 29 23 31 24 32 25 33 89 34 26 35 88 36 27 37
REMARK SMILES IDX 28 38 29 39 82 40 30 41 87 42 81 43 83 44 31 45 86 46 80 47
REMARK SMILES IDX 79 48 32 50 66 51 45 52 65 53 46 54 49 55 64 56 84 57 47 58
REMARK SMILES IDX 48 59 63 61 85 62 50 63 33 64 34 65 43 66 35 67 36 68 42 69
REMARK SMILES IDX 44 70 37 71 38 72 39 73 40 74 41 75 67 76 68 77 77 78 69 79
REMARK SMILES IDX 70 80 76 81 78 82 71 83 72 84 73 85 74 86 75 87 51 88 52 89
REMARK SMILES IDX 61 90 53 91 54 92 60 93 62 94 55 95 56 96 57 97 58 98 59 99
REMARK H PARENT 17 5 10 13 92 24 92 25 21 30 83 49 49 60
REMARK Flexibility Score: inf
ROOT
ATOM      1  C   UNL     1       7.850  -3.785  -0.546  1.00  0.00     0.118 C 
ENDROOT
BRANCH   1   2
ATOM      2  N   UNL     1       6.987  -4.643  -1.339  1.00  0.00    -0.352 N 
ATOM      3  C   UNL     1       5.708  -4.471  -1.805  1.00  0.00     0.251 C 
ATOM      4  O   UNL     1       5.221  -5.351  -2.513  1.00  0.00    -0.269 OA
ATOM      5  H   UNL     1       7.393  -5.504  -1.588  1.00  0.00     0.163 HD
BRANCH   3   6
ATOM      6  C   UNL     1       4.934  -3.230  -1.554  1.00  0.00     0.041 A 
ATOM      7  C   UNL     1       3.525  -0.809  -1.279  1.00  0.00     0.062 A 
ATOM      8  C   UNL     1       3.381  -1.596  -2.431  1.00  0.00     0.029 A 
ATOM      9  C   UNL     1       4.349  -1.272  -0.228  1.00  0.00     0.056 A 
ATOM     10  C   UNL     1       4.088  -2.788  -2.574  1.00  0.00     0.016 A 
ATOM     11  C   UNL     1       4.994  -2.508  -0.361  1.00  0.00     0.041 A 
BRANCH   7  12
ATOM     12  N   UNL     1       2.854   0.426  -1.250  1.00  0.00    -0.351 N 
ATOM     13  H   UNL     1       1.935   0.392  -1.600  1.00  0.00     0.167 HD
BRANCH  12  14
ATOM     14  C   UNL     1       3.255   1.699  -0.815  1.00  0.00     0.081 A 
ATOM     15  C   UNL     1       2.291   2.584  -0.303  1.00  0.00     0.142 A 
ATOM     16  C   UNL     1       2.641   3.858   0.144  1.00  0.00     0.048 A 
ATOM     17  C   UNL     1       3.980   4.248   0.126  1.00  0.00     0.004 A 
ATOM     18  C   UNL     1       4.595   2.099  -0.802  1.00  0.00     0.030 A 
ATOM     19  C   UNL     1       4.956   3.369  -0.342  1.00  0.00     0.002 A 
BRANCH  15  20
ATOM     20  O   UNL     1       0.970   2.209  -0.299  1.00  0.00    -0.492 OA
BRANCH  20  21
ATOM     21  C   UNL     1       0.588   1.639   0.964  1.00  0.00     0.226 C 
ATOM     22  C   UNL     1       0.367   0.141   0.821  1.00  0.00     0.049 C 
ENDBRANCH  20  21
ENDBRANCH  15  20
ENDBRANCH  12  14
ENDBRANCH   7  12
BRANCH   9  23
ATOM     23  N   UNL     1       4.401  -0.631   1.010  1.00  0.00    -0.397 N 
ATOM     24  H   UNL     1       3.957   0.238   1.133  1.00  0.00     0.156 HD
ATOM     25  H   UNL     1       4.882  -1.049   1.761  1.00  0.00     0.156 HD
ENDBRANCH   9  23
ENDBRANCH   3   6
ENDBRANCH   1   2
BRANCH   1  26
ATOM     26  C   UNL     1       7.931  -4.276   0.899  1.00  0.00     0.042 C 
BRANCH  26  27
ATOM     27  C   UNL     1       8.753  -5.552   1.054  1.00  0.00     0.118 C 
BRANCH  27  28
ATOM     28  N   UNL     1      10.166  -5.315   0.803  1.00  0.00    -0.352 N 
ATOM     29  C   UNL     1      11.259  -5.616   1.573  1.00  0.00     0.251 C 
ATOM     30  H   UNL     1      10.368  -4.869  -0.051  1.00  0.00     0.163 HD
ATOM     31  O   UNL     1      12.345  -5.121   1.283  1.00  0.00    -0.269 OA
BRANCH  29  32
ATOM     32  C   UNL     1      11.145  -6.518   2.742  1.00  0.00     0.039 A 
ATOM     33  C   UNL     1      11.908  -6.233   3.878  1.00  0.00     0.014 A 
ATOM     34  C   UNL     1      10.356  -7.672   2.705  1.00  0.00     0.014 A 
ATOM     35  C   UNL     1      11.858  -7.085   4.983  1.00  0.00     0.010 A 
ATOM     36  C   UNL     1      10.259  -8.489   3.831  1.00  0.00     0.010 A 
ATOM     37  C   UNL     1      11.021  -8.212   4.975  1.00  0.00    -0.014 A 
BRANCH  37  38
ATOM     38  C   UNL     1      10.962  -9.124   6.146  1.00  0.00     0.031 A 
ATOM     39  C   UNL     1      11.479 -10.534   6.030  1.00  0.00     0.074 A 
ATOM     40  C   UNL     1      10.426  -8.690   7.303  1.00  0.00     0.049 A 
ATOM     41  N   UNL     1      11.474 -11.491   6.922  1.00  0.00    -0.248 NA
ATOM     42  C   UNL     1      12.062 -10.926   4.735  1.00  0.00     0.031 C 
ATOM     43  C   UNL     1       9.866  -7.355   7.527  1.00  0.00     0.029 A 
ATOM     44  N   UNL     1      10.262  -9.324   8.508  1.00  0.00    -0.354 N 
ATOM     45  C   UNL     1      12.051 -12.593   6.301  1.00  0.00     0.074 A 
ATOM     46  C   UNL     1      12.342 -12.205   4.938  1.00  0.00     0.031 C 
ATOM     47  C   UNL     1       9.441  -7.264   8.799  1.00  0.00     0.029 A 
ATOM     48  C   UNL     1       9.668  -8.540   9.469  1.00  0.00     0.049 A 
ATOM     49  H   UNL     1      10.543 -10.254   8.670  1.00  0.00     0.167 HD
ATOM     50  C   UNL     1      12.338 -13.808   6.826  1.00  0.00     0.037 A 
ATOM     51  C   UNL     1       9.340  -8.821  10.745  1.00  0.00     0.037 A 
ATOM     52  C   UNL     1      12.064 -14.184   8.189  1.00  0.00     0.049 A 
ATOM     53  C   UNL     1       9.654 -10.186  11.297  1.00  0.00     0.074 A 
ATOM     54  C   UNL     1      12.327 -15.387   8.821  1.00  0.00     0.029 A 
ATOM     55  N   UNL     1      11.475 -13.357   9.133  1.00  0.00    -0.354 N 
ATOM     56  N   UNL     1      10.227 -11.205  10.702  1.00  0.00    -0.248 NA
ATOM     57  C   UNL     1       9.285 -10.437  12.698  1.00  0.00     0.031 C 
ATOM     58  C   UNL     1      11.876 -15.295  10.142  1.00  0.00     0.029 A 
ATOM     59  C   UNL     1      11.365 -14.023  10.342  1.00  0.00     0.049 A 
ATOM     60  H   UNL     1      11.180 -12.432   8.969  1.00  0.00     0.167 HD
ATOM     61  C   UNL     1      10.314 -12.206  11.663  1.00  0.00     0.074 A 
ATOM     62  C   UNL     1       9.746 -11.666  12.882  1.00  0.00     0.031 C 
ATOM     63  C   UNL     1      10.817 -13.459  11.549  1.00  0.00     0.037 A 
BRANCH  50  64
ATOM     64  C   UNL     1      13.006 -14.815   5.932  1.00  0.00     0.058 A 
ATOM     65  C   UNL     1      14.351 -14.675   5.555  1.00  0.00     0.135 A 
ATOM     66  C   UNL     1      12.318 -15.956   5.488  1.00  0.00     0.135 A 
ATOM     67  F   UNL     1      15.051 -13.594   5.937  1.00  0.00    -0.206 F 
ATOM     68  C   UNL     1      14.987 -15.619   4.756  1.00  0.00     0.059 A 
ATOM     69  C   UNL     1      12.941 -16.927   4.708  1.00  0.00     0.059 A 
ATOM     70  F   UNL     1      11.030 -16.140   5.818  1.00  0.00    -0.206 F 
ATOM     71  C   UNL     1      14.273 -16.744   4.339  1.00  0.00     0.060 A 
BRANCH  71  72
ATOM     72  S   UNL     1      15.120 -17.971   3.321  1.00  0.00     0.124 S 
ATOM     73  O   UNL     1      15.200 -17.279   2.038  1.00  0.00    -0.237 OA
ATOM     74  O   UNL     1      16.385 -18.144   4.027  1.00  0.00    -0.237 OA
ATOM     75  O   UNL     1      14.223 -19.121   3.358  1.00  0.00    -0.744 OA
ENDBRANCH  71  72
ENDBRANCH  50  64
BRANCH  51  76
ATOM     76  C   UNL     1       8.691  -7.792  11.600  1.00  0.00     0.058 A 
ATOM     77  C   UNL     1       9.377  -7.213  12.678  1.00  0.00     0.135 A 
ATOM     78  C   UNL     1       7.365  -7.389  11.377  1.00  0.00     0.135 A 
ATOM     79  F   UNL     1      10.646  -7.569  12.932  1.00  0.00    -0.206 F 
ATOM     80  C   UNL     1       8.764  -6.298  13.526  1.00  0.00     0.059 A 
ATOM     81  C   UNL     1       6.738  -6.457  12.196  1.00  0.00     0.059 A 
ATOM     82  F   UNL     1       6.671  -7.898  10.347  1.00  0.00    -0.206 F 
ATOM     83  C   UNL     1       7.439  -5.932  13.281  1.00  0.00     0.060 A 
BRANCH  83  84
ATOM     84  S   UNL     1       6.648  -4.739  14.383  1.00  0.00     0.124 S 
ATOM     85  O   UNL     1       6.348  -5.569  15.544  1.00  0.00    -0.237 OA
ATOM     86  O   UNL     1       7.697  -3.741  14.564  1.00  0.00    -0.237 OA
ATOM     87  O   UNL     1       5.493  -4.289  13.611  1.00  0.00    -0.744 OA
ENDBRANCH  83  84
ENDBRANCH  51  76
BRANCH  63  88
ATOM     88  C   UNL     1      10.819 -14.316  12.783  1.00  0.00     0.058 A 
ATOM     89  C   UNL     1       9.642 -14.894  13.280  1.00  0.00     0.135 A 
ATOM     90  C   UNL     1      12.023 -14.597  13.449  1.00  0.00     0.135 A 
ATOM     91  F   UNL     1       8.464 -14.649  12.683  1.00  0.00    -0.206 F 
ATOM     92  C   UNL     1       9.653 -15.705  14.410  1.00  0.00     0.059 A 
ATOM     93  C   UNL     1      12.062 -15.425  14.566  1.00  0.00     0.059 A 
ATOM     94  F   UNL     1      13.178 -14.075  13.007  1.00  0.00    -0.206 F 
ATOM     95  C   UNL     1      10.869 -15.965  15.046  1.00  0.00     0.060 A 
BRANCH  95  96
ATOM     96  S   UNL     1      10.877 -17.046  16.492  1.00  0.00     0.124 S 
ATOM     97  O   UNL     1      10.349 -16.160  17.524  1.00  0.00    -0.237 OA
ATOM     98  O   UNL     1       9.995 -18.132  16.077  1.00  0.00    -0.237 OA
ATOM     99  O   UNL     1      12.283 -17.410  16.635  1.00  0.00    -0.744 OA
ENDBRANCH  95  96
ENDBRANCH  63  88
ENDBRANCH  37  38
ENDBRANCH  29  32
ENDBRANCH  27  28
ENDBRANCH  26  27
ENDBRANCH   1  26
TORSDOF 18
