REMARK SMILES COC(=O)[C@H]1CCN(S(=O)(=O)N2CCC[C@H](C(=O)NCCCNC(=O)c3ccc(-c4c5nc(c(-c6c(F)cc(S(=O)(=O)[O-])cc6F)c6ccc([nH]6)c(-c6c(F)cc(S(=O)(=O)[O-])cc6F)c6nc(c(-c7c(F)cc(S(=O)(=O)[O-])cc7F)c7ccc4[nH]7)C=C6)C=C5)cc3)C2)C1
REMARK SMILES IDX 20 1 19 2 17 3 18 4 16 6 12 7 13 8 92 9 14 10 15 11 9 12
REMARK SMILES IDX 10 13 11 14 8 15 5 16 6 17 93 18 7 19 3 20 4 21 2 22 1 23
REMARK SMILES IDX 21 24 22 25 23 26 24 27 25 29 26 30 27 31 91 32 28 33 90 34
REMARK SMILES IDX 29 35 30 36 31 37 84 38 32 39 89 40 83 41 85 42 33 43 88 44
REMARK SMILES IDX 82 45 81 46 34 48 68 49 47 50 67 51 48 52 51 53 66 54 86 55
REMARK SMILES IDX 49 56 50 57 65 59 87 60 52 61 35 62 36 63 45 64 37 65 38 66
REMARK SMILES IDX 44 67 46 68 39 69 40 70 41 71 42 72 43 73 69 74 70 75 79 76
REMARK SMILES IDX 71 77 72 78 78 79 80 80 73 81 74 82 75 83 76 84 77 85 53 86
REMARK SMILES IDX 54 87 63 88 55 89 56 90 62 91 64 92 57 93 58 94 59 95 60 96
REMARK SMILES IDX 61 97
REMARK H PARENT 19 5 23 28 85 47 51 58
REMARK Flexibility Score: inf
ROOT
ATOM      1  C   UNL     1      -5.216   3.335   7.160  1.00  0.00     0.117 C 
ENDROOT
BRANCH   1   2
ATOM      2  N   UNL     1      -6.168   2.263   7.350  1.00  0.00    -0.356 N 
ATOM      3  C   UNL     1      -6.567   1.254   6.543  1.00  0.00     0.224 C 
ATOM      4  O   UNL     1      -7.386   0.462   7.029  1.00  0.00    -0.275 OA
ATOM      5  H   UNL     1      -6.607   2.269   8.231  1.00  0.00     0.163 HD
BRANCH   3   6
ATOM      6  C   UNL     1      -6.089   1.033   5.107  1.00  0.00     0.094 C 
ATOM      7  N   UNL     1      -3.796   1.913   4.656  1.00  0.00    -0.188 NA
ATOM      8  C   UNL     1      -4.234   2.767   3.543  1.00  0.00     0.103 C 
ATOM      9  C   UNL     1      -4.610   0.721   4.949  1.00  0.00     0.117 C 
ATOM     10  C   UNL     1      -5.707   3.146   3.687  1.00  0.00     0.018 C 
ATOM     11  C   UNL     1      -6.628   1.986   4.044  1.00  0.00     0.016 C 
BRANCH   7  12
ATOM     12  S   UNL     1      -2.195   1.964   5.138  1.00  0.00     0.282 S 
ATOM     13  O   UNL     1      -1.993   1.025   6.214  1.00  0.00    -0.195 OA
ATOM     14  O   UNL     1      -1.818   3.352   5.291  1.00  0.00    -0.195 OA
BRANCH  12  15
ATOM     15  N   UNL     1      -1.367   1.380   3.781  1.00  0.00    -0.188 NA
ATOM     16  C   UNL     1       0.623  -0.020   3.811  1.00  0.00     0.116 C 
ATOM     17  C   UNL     1      -0.632  -0.867   3.930  1.00  0.00     0.033 C 
ATOM     18  C   UNL     1       0.129   1.419   3.966  1.00  0.00     0.118 C 
ATOM     19  C   UNL     1      -1.681   0.018   3.305  1.00  0.00     0.104 C 
BRANCH  16  20
ATOM     20  C   UNL     1       1.649  -0.388   4.853  1.00  0.00     0.310 C 
ATOM     21  O   UNL     1       1.544  -1.315   5.644  1.00  0.00    -0.252 OA
BRANCH  20  22
ATOM     22  O   UNL     1       2.751   0.403   4.725  1.00  0.00    -0.469 OA
ATOM     23  C   UNL     1       3.805   0.061   5.627  1.00  0.00     0.282 C 
ENDBRANCH  20  22
ENDBRANCH  16  20
ENDBRANCH  12  15
ENDBRANCH   7  12
ENDBRANCH   3   6
ENDBRANCH   1   2
BRANCH   1  24
ATOM     24  C   UNL     1      -5.893   4.676   6.943  1.00  0.00     0.042 C 
BRANCH  24  25
ATOM     25  C   UNL     1      -6.273   5.357   8.242  1.00  0.00     0.118 C 
BRANCH  25  26
ATOM     26  N   UNL     1      -5.104   5.773   9.009  1.00  0.00    -0.352 N 
ATOM     27  C   UNL     1      -4.667   7.029   9.350  1.00  0.00     0.251 C 
ATOM     28  H   UNL     1      -4.538   5.035   9.333  1.00  0.00     0.163 HD
ATOM     29  O   UNL     1      -3.544   7.173   9.823  1.00  0.00    -0.269 OA
BRANCH  27  30
ATOM     30  C   UNL     1      -5.538   8.202   9.132  1.00  0.00     0.039 A 
ATOM     31  C   UNL     1      -4.969   9.400   8.694  1.00  0.00     0.014 A 
ATOM     32  C   UNL     1      -6.913   8.124   9.360  1.00  0.00     0.014 A 
ATOM     33  C   UNL     1      -5.792  10.495   8.425  1.00  0.00     0.010 A 
ATOM     34  C   UNL     1      -7.740   9.169   8.973  1.00  0.00     0.010 A 
ATOM     35  C   UNL     1      -7.188  10.375   8.522  1.00  0.00    -0.014 A 
BRANCH  35  36
ATOM     36  C   UNL     1      -8.090  11.503   8.183  1.00  0.00     0.031 A 
ATOM     37  C   UNL     1      -9.019  12.060   9.229  1.00  0.00     0.074 A 
ATOM     38  C   UNL     1      -8.115  11.979   6.922  1.00  0.00     0.049 A 
ATOM     39  N   UNL     1      -9.926  12.995   9.114  1.00  0.00    -0.248 NA
ATOM     40  C   UNL     1      -8.945  11.465  10.575  1.00  0.00     0.031 C 
ATOM     41  C   UNL     1      -7.302  11.478   5.811  1.00  0.00     0.029 A 
ATOM     42  N   UNL     1      -8.857  12.986   6.359  1.00  0.00    -0.354 N 
ATOM     43  C   UNL     1     -10.535  13.086  10.360  1.00  0.00     0.074 A 
ATOM     44  C   UNL     1      -9.946  12.067  11.197  1.00  0.00     0.031 C 
ATOM     45  C   UNL     1      -7.563  12.202   4.712  1.00  0.00     0.029 A 
ATOM     46  C   UNL     1      -8.595  13.185   5.024  1.00  0.00     0.049 A 
ATOM     47  H   UNL     1      -9.515  13.517   6.863  1.00  0.00     0.167 HD
ATOM     48  C   UNL     1     -11.479  13.963  10.778  1.00  0.00     0.037 A 
ATOM     49  C   UNL     1      -9.133  14.056   4.148  1.00  0.00     0.037 A 
ATOM     50  C   UNL     1     -12.037  14.992   9.942  1.00  0.00     0.049 A 
ATOM     51  C   UNL     1     -10.185  15.016   4.634  1.00  0.00     0.074 A 
ATOM     52  C   UNL     1     -12.953  15.972  10.280  1.00  0.00     0.029 A 
ATOM     53  N   UNL     1     -11.736  15.171   8.599  1.00  0.00    -0.354 N 
ATOM     54  N   UNL     1     -10.698  15.137   5.836  1.00  0.00    -0.248 NA
ATOM     55  C   UNL     1     -10.727  15.961   3.650  1.00  0.00     0.031 C 
ATOM     56  C   UNL     1     -13.249  16.707   9.128  1.00  0.00     0.029 A 
ATOM     57  C   UNL     1     -12.470  16.228   8.087  1.00  0.00     0.049 A 
ATOM     58  H   UNL     1     -11.095  14.628   8.086  1.00  0.00     0.167 HD
ATOM     59  C   UNL     1     -11.603  16.189   5.759  1.00  0.00     0.074 A 
ATOM     60  C   UNL     1     -11.554  16.680   4.397  1.00  0.00     0.031 C 
ATOM     61  C   UNL     1     -12.403  16.704   6.726  1.00  0.00     0.037 A 
BRANCH  48  62
ATOM     62  C   UNL     1     -11.961  13.850  12.200  1.00  0.00     0.058 A 
ATOM     63  C   UNL     1     -11.128  14.151  13.291  1.00  0.00     0.135 A 
ATOM     64  C   UNL     1     -13.284  13.468  12.477  1.00  0.00     0.135 A 
ATOM     65  F   UNL     1      -9.848  14.504  13.089  1.00  0.00    -0.206 F 
ATOM     66  C   UNL     1     -11.579  14.049  14.603  1.00  0.00     0.059 A 
ATOM     67  C   UNL     1     -13.767  13.392  13.780  1.00  0.00     0.059 A 
ATOM     68  F   UNL     1     -14.124  13.165  11.475  1.00  0.00    -0.206 F 
ATOM     69  C   UNL     1     -12.902  13.672  14.838  1.00  0.00     0.060 A 
BRANCH  69  70
ATOM     70  S   UNL     1     -13.475  13.560  16.546  1.00  0.00     0.124 S 
ATOM     71  O   UNL     1     -12.763  12.375  17.015  1.00  0.00    -0.237 OA
ATOM     72  O   UNL     1     -13.027  14.831  17.106  1.00  0.00    -0.237 OA
ATOM     73  O   UNL     1     -14.920  13.411  16.412  1.00  0.00    -0.744 OA
ENDBRANCH  69  70
ENDBRANCH  48  62
BRANCH  49  74
ATOM     74  C   UNL     1      -8.673  14.070   2.733  1.00  0.00     0.058 A 
ATOM     75  C   UNL     1      -7.941  15.151   2.220  1.00  0.00     0.135 A 
ATOM     76  C   UNL     1      -8.941  12.996   1.868  1.00  0.00     0.135 A 
ATOM     77  F   UNL     1      -7.662  16.204   3.003  1.00  0.00    -0.206 F 
ATOM     78  C   UNL     1      -7.509  15.179   0.897  1.00  0.00     0.059 A 
ATOM     79  C   UNL     1      -8.493  12.987   0.551  1.00  0.00     0.059 A 
ATOM     80  F   UNL     1      -9.621  11.928   2.312  1.00  0.00    -0.206 F 
ATOM     81  C   UNL     1      -7.787  14.089   0.071  1.00  0.00     0.060 A 
BRANCH  81  82
ATOM     82  S   UNL     1      -7.184  14.116  -1.631  1.00  0.00     0.124 S 
ATOM     83  O   UNL     1      -8.046  15.126  -2.233  1.00  0.00    -0.237 OA
ATOM     84  O   UNL     1      -5.785  14.493  -1.452  1.00  0.00    -0.237 OA
ATOM     85  O   UNL     1      -7.403  12.746  -2.087  1.00  0.00    -0.744 OA
ENDBRANCH  81  82
ENDBRANCH  49  74
BRANCH  61  86
ATOM     86  C   UNL     1     -13.268  17.878   6.357  1.00  0.00     0.058 A 
ATOM     87  C   UNL     1     -14.378  17.743   5.510  1.00  0.00     0.135 A 
ATOM     88  C   UNL     1     -13.011  19.147   6.905  1.00  0.00     0.135 A 
ATOM     89  F   UNL     1     -14.664  16.554   4.955  1.00  0.00    -0.206 F 
ATOM     90  C   UNL     1     -15.188  18.829   5.196  1.00  0.00     0.059 A 
ATOM     91  C   UNL     1     -13.828  20.239   6.632  1.00  0.00     0.059 A 
ATOM     92  F   UNL     1     -11.968  19.329   7.731  1.00  0.00    -0.206 F 
ATOM     93  C   UNL     1     -14.907  20.072   5.766  1.00  0.00     0.060 A 
BRANCH  93  94
ATOM     94  S   UNL     1     -15.988  21.464   5.376  1.00  0.00     0.124 S 
ATOM     95  O   UNL     1     -15.627  21.736   3.989  1.00  0.00    -0.237 OA
ATOM     96  O   UNL     1     -17.315  20.895   5.587  1.00  0.00    -0.237 OA
ATOM     97  O   UNL     1     -15.589  22.485   6.340  1.00  0.00    -0.744 OA
ENDBRANCH  93  94
ENDBRANCH  61  86
ENDBRANCH  35  36
ENDBRANCH  27  30
ENDBRANCH  25  26
ENDBRANCH  24  25
ENDBRANCH   1  24
TORSDOF 17
