REMARK SMILES O=C(NCCCNC(=O)[C@@]1([NH2+]C2CC2)CCC[C@H]1CCn1ccnc1)c1ccc(-c2c3nc(c(-c4c(F)cc(S(=O)(=O)[O-])cc4F)c4ccc([nH]4)c(-c4c(F)cc(S(=O)(=O)[O-])cc4F)c4nc(c(-c5c(F)cc(S(=O)(=O)[O-])cc5F)c5ccc2[nH]5)C=C4)C=C3)cc1
REMARK SMILES IDX 5 1 4 2 3 3 1 4 2 5 26 7 27 8 91 9 28 10 90 11 29 12 30 13
REMARK SMILES IDX 31 14 84 15 32 16 89 17 83 18 85 19 33 20 88 21 82 22 81 23
REMARK SMILES IDX 34 25 68 26 47 27 67 28 48 29 51 30 66 31 86 32 49 33 50 34
REMARK SMILES IDX 65 36 87 37 52 38 35 39 36 40 45 41 37 42 38 43 44 44 46 45
REMARK SMILES IDX 39 46 40 47 41 48 42 49 43 50 69 51 70 52 79 53 71 54 72 55
REMARK SMILES IDX 78 56 80 57 73 58 74 59 75 60 76 61 77 62 53 63 54 64 63 65
REMARK SMILES IDX 55 66 56 67 62 68 64 69 57 70 58 71 59 72 60 73 61 74 6 75
REMARK SMILES IDX 7 76 8 77 9 79 10 80 15 81 18 82 16 83 17 84 11 85 12 88
REMARK SMILES IDX 13 89 14 90 19 91 20 92 21 93 22 94 25 95 23 96 24 97
REMARK H PARENT 3 6 85 24 51 35 7 78 11 86 11 87
REMARK Flexibility Score: inf
ROOT
ATOM      1  C   UNL     1       3.857   0.965   3.100  1.00  0.00     0.042 C 
ENDROOT
BRANCH   1   2
ATOM      2  C   UNL     1       4.359   0.641   1.617  1.00  0.00     0.118 C 
BRANCH   2   3
ATOM      3  N   UNL     1       3.575  -0.087   0.616  1.00  0.00    -0.352 N 
ATOM      4  O   UNL     1       2.039  -0.506  -0.988  1.00  0.00    -0.269 OA
ATOM      5  C   UNL     1       2.603   0.293  -0.280  1.00  0.00     0.251 C 
ATOM      6  H   UNL     1       3.789  -1.047   0.576  1.00  0.00     0.163 HD
BRANCH   5   7
ATOM      7  C   UNL     1       2.289   1.714  -0.357  1.00  0.00     0.039 A 
ATOM      8  C   UNL     1       3.336   2.599  -0.588  1.00  0.00     0.014 A 
ATOM      9  C   UNL     1       0.975   2.137  -0.157  1.00  0.00     0.014 A 
ATOM     10  C   UNL     1       3.103   3.939  -0.422  1.00  0.00     0.010 A 
ATOM     11  C   UNL     1       0.725   3.498  -0.078  1.00  0.00     0.010 A 
ATOM     12  C   UNL     1       1.799   4.386  -0.164  1.00  0.00    -0.014 A 
BRANCH  12  13
ATOM     13  C   UNL     1       1.639   5.831  -0.192  1.00  0.00     0.031 A 
ATOM     14  C   UNL     1       2.127   6.456  -1.455  1.00  0.00     0.074 A 
ATOM     15  C   UNL     1       1.056   6.567   0.766  1.00  0.00     0.049 A 
ATOM     16  N   UNL     1       3.123   7.264  -1.616  1.00  0.00    -0.248 NA
ATOM     17  C   UNL     1       1.526   5.977  -2.709  1.00  0.00     0.031 C 
ATOM     18  C   UNL     1       0.260   6.121   1.907  1.00  0.00     0.029 A 
ATOM     19  N   UNL     1       0.980   7.922   0.834  1.00  0.00    -0.354 N 
ATOM     20  C   UNL     1       3.169   7.539  -2.981  1.00  0.00     0.074 A 
ATOM     21  C   UNL     1       2.268   6.612  -3.616  1.00  0.00     0.031 C 
ATOM     22  C   UNL     1      -0.411   7.183   2.406  1.00  0.00     0.029 A 
ATOM     23  C   UNL     1       0.009   8.386   1.702  1.00  0.00     0.049 A 
ATOM     24  H   UNL     1       1.562   8.519   0.312  1.00  0.00     0.167 HD
ATOM     25  C   UNL     1       3.806   8.630  -3.485  1.00  0.00     0.037 A 
ATOM     26  C   UNL     1      -0.479   9.649   1.741  1.00  0.00     0.037 A 
ATOM     27  C   UNL     1       4.721   9.207  -2.540  1.00  0.00     0.049 A 
ATOM     28  C   UNL     1       0.519  10.542   1.090  1.00  0.00     0.074 A 
ATOM     29  C   UNL     1       5.861   8.766  -1.896  1.00  0.00     0.029 A 
ATOM     30  N   UNL     1       4.328  10.339  -1.869  1.00  0.00    -0.354 N 
ATOM     31  N   UNL     1       1.700  10.807   1.579  1.00  0.00    -0.248 NA
ATOM     32  C   UNL     1       0.361  10.831  -0.329  1.00  0.00     0.031 C 
ATOM     33  C   UNL     1       5.819   9.371  -0.607  1.00  0.00     0.029 A 
ATOM     34  C   UNL     1       4.670  10.161  -0.553  1.00  0.00     0.049 A 
ATOM     35  H   UNL     1       3.885  11.127  -2.259  1.00  0.00     0.167 HD
ATOM     36  C   UNL     1       2.536  10.906   0.475  1.00  0.00     0.074 A 
ATOM     37  C   UNL     1       1.639  11.016  -0.670  1.00  0.00     0.031 C 
ATOM     38  C   UNL     1       3.869  10.620   0.561  1.00  0.00     0.037 A 
BRANCH  25  39
ATOM     39  C   UNL     1       3.353   9.364  -4.720  1.00  0.00     0.058 A 
ATOM     40  C   UNL     1       4.191  10.333  -5.306  1.00  0.00     0.135 A 
ATOM     41  C   UNL     1       2.015   9.351  -5.177  1.00  0.00     0.135 A 
ATOM     42  F   UNL     1       5.477  10.439  -4.935  1.00  0.00    -0.206 F 
ATOM     43  C   UNL     1       3.714  11.270  -6.223  1.00  0.00     0.059 A 
ATOM     44  C   UNL     1       1.536  10.236  -6.132  1.00  0.00     0.059 A 
ATOM     45  F   UNL     1       1.087   8.549  -4.640  1.00  0.00    -0.206 F 
ATOM     46  C   UNL     1       2.378  11.225  -6.612  1.00  0.00     0.060 A 
BRANCH  46  47
ATOM     47  S   UNL     1       1.721  12.514  -7.683  1.00  0.00     0.124 S 
ATOM     48  O   UNL     1       1.683  13.652  -6.771  1.00  0.00    -0.237 OA
ATOM     49  O   UNL     1       2.724  12.575  -8.741  1.00  0.00    -0.237 OA
ATOM     50  O   UNL     1       0.422  11.983  -8.087  1.00  0.00    -0.744 OA
ENDBRANCH  46  47
ENDBRANCH  25  39
BRANCH  26  51
ATOM     51  C   UNL     1      -1.888  10.050   1.980  1.00  0.00     0.058 A 
ATOM     52  C   UNL     1      -2.225  11.388   2.240  1.00  0.00     0.135 A 
ATOM     53  C   UNL     1      -2.962   9.179   1.700  1.00  0.00     0.135 A 
ATOM     54  F   UNL     1      -1.263  12.291   2.483  1.00  0.00    -0.206 F 
ATOM     55  C   UNL     1      -3.546  11.845   2.188  1.00  0.00     0.059 A 
ATOM     56  C   UNL     1      -4.286   9.606   1.662  1.00  0.00     0.059 A 
ATOM     57  F   UNL     1      -2.752   7.898   1.361  1.00  0.00    -0.206 F 
ATOM     58  C   UNL     1      -4.569  10.947   1.881  1.00  0.00     0.060 A 
BRANCH  58  59
ATOM     59  S   UNL     1      -6.251  11.561   1.646  1.00  0.00     0.124 S 
ATOM     60  O   UNL     1      -6.630  11.927   3.006  1.00  0.00    -0.237 OA
ATOM     61  O   UNL     1      -6.046  12.669   0.720  1.00  0.00    -0.237 OA
ATOM     62  O   UNL     1      -6.957  10.410   1.089  1.00  0.00    -0.744 OA
ENDBRANCH  58  59
ENDBRANCH  26  51
BRANCH  38  63
ATOM     63  C   UNL     1       4.489  10.506   1.928  1.00  0.00     0.058 A 
ATOM     64  C   UNL     1       4.139   9.523   2.869  1.00  0.00     0.135 A 
ATOM     65  C   UNL     1       5.593  11.319   2.228  1.00  0.00     0.135 A 
ATOM     66  F   UNL     1       3.171   8.633   2.611  1.00  0.00    -0.206 F 
ATOM     67  C   UNL     1       4.830   9.383   4.074  1.00  0.00     0.059 A 
ATOM     68  C   UNL     1       6.317  11.175   3.409  1.00  0.00     0.059 A 
ATOM     69  F   UNL     1       6.018  12.233   1.339  1.00  0.00    -0.206 F 
ATOM     70  C   UNL     1       5.922  10.210   4.333  1.00  0.00     0.060 A 
BRANCH  70  71
ATOM     71  S   UNL     1       6.878   9.950   5.842  1.00  0.00     0.124 S 
ATOM     72  O   UNL     1       5.994  10.498   6.865  1.00  0.00    -0.237 OA
ATOM     73  O   UNL     1       7.050   8.499   5.864  1.00  0.00    -0.237 OA
ATOM     74  O   UNL     1       8.105  10.707   5.604  1.00  0.00    -0.744 OA
ENDBRANCH  70  71
ENDBRANCH  38  63
ENDBRANCH  12  13
ENDBRANCH   5   7
ENDBRANCH   2   3
ENDBRANCH   1   2
BRANCH   1  75
ATOM     75  C   UNL     1       3.463   0.151   4.470  1.00  0.00     0.118 C 
BRANCH  75  76
ATOM     76  N   UNL     1       3.704  -1.299   4.920  1.00  0.00    -0.351 N 
ATOM     77  C   UNL     1       4.607  -2.242   5.432  1.00  0.00     0.281 C 
ATOM     78  H   UNL     1       2.851  -1.773   4.794  1.00  0.00     0.163 HD
ATOM     79  O   UNL     1       4.138  -3.384   5.561  1.00  0.00    -0.268 OA
BRANCH  77  80
ATOM     80  C   UNL     1       6.120  -1.956   5.875  1.00  0.00     0.178 C 
ATOM     81  C   UNL     1       7.572  -2.421   5.474  1.00  0.00     0.079 C 
ATOM     82  C   UNL     1       6.286  -0.624   5.157  1.00  0.00     0.062 C 
ATOM     83  C   UNL     1       8.477  -1.224   5.863  1.00  0.00     0.008 C 
ATOM     84  C   UNL     1       7.612  -0.015   5.603  1.00  0.00     0.011 C 
BRANCH  80  85
ATOM     85  N   UNL     1       6.112  -2.254   7.333  1.00  0.00    -0.331 N 
ATOM     86  H   UNL     1       5.332  -1.752   7.756  1.00  0.00     0.347 HD
ATOM     87  H   UNL     1       7.021  -1.959   7.692  1.00  0.00     0.347 HD
BRANCH  85  88
ATOM     88  C   UNL     1       5.971  -3.729   7.682  1.00  0.00     0.183 C 
ATOM     89  C   UNL     1       6.348  -4.898   6.781  1.00  0.00     0.071 C 
ATOM     90  C   UNL     1       7.189  -4.586   7.980  1.00  0.00     0.071 C 
ENDBRANCH  85  88
ENDBRANCH  80  85
BRANCH  82  91
ATOM     91  C   UNL     1       6.238  -0.909   3.563  1.00  0.00     0.032 C 
BRANCH  91  92
ATOM     92  C   UNL     1       5.445  -2.148   2.736  1.00  0.00     0.123 C 
BRANCH  92  93
ATOM     93  N   UNL     1       4.050  -2.642   2.650  1.00  0.00    -0.337 N 
ATOM     94  C   UNL     1       3.715  -3.989   2.728  1.00  0.00     0.107 A 
ATOM     95  C   UNL     1       2.828  -2.037   2.477  1.00  0.00     0.199 A 
ATOM     96  C   UNL     1       2.340  -4.061   2.776  1.00  0.00     0.130 A 
ATOM     97  N   UNL     1       1.797  -2.837   2.601  1.00  0.00    -0.245 NA
ENDBRANCH  92  93
ENDBRANCH  91  92
ENDBRANCH  82  91
ENDBRANCH  77  80
ENDBRANCH  75  76
ENDBRANCH   1  75
TORSDOF 18
