REMARK SMILES C[C@@H]1CCCN(C(=O)NC2(CC(=O)NCCCNC(=O)c3ccc(-c4c5nc(c(-c6c(F)cc(S(=O)(=O)[O-])cc6F)c6ccc([nH]6)c(-c6c(F)cc(S(=O)(=O)[O-])cc6F)c6nc(c(-c7c(F)cc(S(=O)(=O)[O-])cc7F)c7ccc4[nH]7)C=C6)C=C5)cc3)CCC2)[C@@H]1C
REMARK SMILES IDX 16 1 15 2 14 3 12 4 13 5 11 7 10 8 87 9 89 10 88 11 9 12
REMARK SMILES IDX 7 13 8 14 6 16 1 17 2 18 3 19 90 20 4 21 91 22 5 23 17 24
REMARK SMILES IDX 18 25 19 26 20 28 21 29 22 30 86 31 23 32 85 33 24 34 25 35
REMARK SMILES IDX 26 36 79 37 27 38 84 39 78 40 80 41 28 42 83 43 77 44 76 45
REMARK SMILES IDX 29 47 63 48 42 49 62 50 43 51 46 52 61 53 81 54 44 55 45 56
REMARK SMILES IDX 60 58 82 59 47 60 30 61 31 62 40 63 32 64 33 65 39 66 41 67
REMARK SMILES IDX 34 68 35 69 36 70 37 71 38 72 64 73 65 74 74 75 66 76 67 77
REMARK SMILES IDX 73 78 75 79 68 80 69 81 70 82 71 83 72 84 48 85 49 86 58 87
REMARK SMILES IDX 50 88 51 89 57 90 59 91 52 92 53 93 54 94 55 95 56 96
REMARK H PARENT 14 6 9 15 18 27 80 46 46 57
REMARK Flexibility Score: inf
ROOT
ATOM      1  C   UNL     1      -0.466   8.410  -1.935  1.00  0.00     0.042 C 
ENDROOT
BRANCH   1   2
ATOM      2  C   UNL     1      -0.661   7.881  -3.354  1.00  0.00     0.117 C 
BRANCH   2   3
ATOM      3  N   UNL     1       0.509   7.138  -3.777  1.00  0.00    -0.356 N 
ATOM      4  C   UNL     1       0.764   5.809  -3.648  1.00  0.00     0.222 C 
ATOM      5  O   UNL     1       1.925   5.417  -3.775  1.00  0.00    -0.275 OA
ATOM      6  H   UNL     1       1.214   7.668  -4.215  1.00  0.00     0.163 HD
BRANCH   4   7
ATOM      7  C   UNL     1      -0.355   4.826  -3.408  1.00  0.00     0.128 C 
BRANCH   7   8
ATOM      8  C   UNL     1      -0.577   4.320  -1.959  1.00  0.00     0.051 C 
ATOM      9  C   UNL     1      -1.708   3.273  -2.025  1.00  0.00     0.029 C 
ATOM     10  C   UNL     1      -1.486   5.222  -1.095  1.00  0.00     0.029 C 
ATOM     11  C   UNL     1      -2.671   4.281  -1.377  1.00  0.00     0.005 C 
BRANCH   8  12
ATOM     12  N   UNL     1       0.711   3.885  -1.373  1.00  0.00    -0.332 N 
ATOM     13  C   UNL     1       1.279   3.176  -0.375  1.00  0.00     0.318 C 
ATOM     14  O   UNL     1       2.495   3.042  -0.561  1.00  0.00    -0.249 OA
ATOM     15  H   UNL     1       1.435   4.256  -1.927  1.00  0.00     0.165 HD
BRANCH  13  16
ATOM     16  N   UNL     1       0.662   2.643   0.718  1.00  0.00    -0.322 N 
ATOM     17  C   UNL     1       1.131  -0.331   0.211  1.00  0.00     0.010 C 
ATOM     18  C   UNL     1       0.846   0.317   1.571  1.00  0.00     0.008 C 
ATOM     19  C   UNL     1      -0.664   0.325   1.881  1.00  0.00     0.007 C 
ATOM     20  C   UNL     1       1.397   1.764   1.675  1.00  0.00     0.086 C 
ATOM     21  C   UNL     1      -1.420   1.366   1.059  1.00  0.00     0.022 C 
ATOM     22  C   UNL     1       2.927   1.798   1.721  1.00  0.00     0.031 C 
ATOM     23  C   UNL     1      -0.736   2.734   1.106  1.00  0.00     0.121 C 
ENDBRANCH  13  16
ENDBRANCH   8  12
ENDBRANCH   7   8
ENDBRANCH   4   7
ENDBRANCH   2   3
ENDBRANCH   1   2
BRANCH   1  24
ATOM     24  C   UNL     1       0.429   9.637  -1.869  1.00  0.00     0.118 C 
BRANCH  24  25
ATOM     25  N   UNL     1      -0.243  10.809  -2.402  1.00  0.00    -0.352 N 
ATOM     26  C   UNL     1      -0.593  11.981  -1.781  1.00  0.00     0.251 C 
ATOM     27  H   UNL     1      -0.485  10.754  -3.355  1.00  0.00     0.163 HD
ATOM     28  O   UNL     1      -1.402  12.723  -2.331  1.00  0.00    -0.269 OA
BRANCH  26  29
ATOM     29  C   UNL     1      -0.010  12.357  -0.471  1.00  0.00     0.039 A 
ATOM     30  C   UNL     1      -0.796  13.090   0.425  1.00  0.00     0.014 A 
ATOM     31  C   UNL     1       1.318  12.066  -0.146  1.00  0.00     0.014 A 
ATOM     32  C   UNL     1      -0.258  13.512   1.643  1.00  0.00     0.010 A 
ATOM     33  C   UNL     1       1.827  12.411   1.104  1.00  0.00     0.010 A 
ATOM     34  C   UNL     1       1.056  13.166   1.998  1.00  0.00    -0.014 A 
BRANCH  34  35
ATOM     35  C   UNL     1       1.654  13.635   3.274  1.00  0.00     0.031 A 
ATOM     36  C   UNL     1       2.838  14.568   3.250  1.00  0.00     0.074 A 
ATOM     37  C   UNL     1       1.165  13.188   4.447  1.00  0.00     0.049 A 
ATOM     38  N   UNL     1       3.533  15.047   4.250  1.00  0.00    -0.248 NA
ATOM     39  C   UNL     1       3.327  14.994   1.928  1.00  0.00     0.031 C 
ATOM     40  C   UNL     1       0.062  12.235   4.596  1.00  0.00     0.029 A 
ATOM     41  N   UNL     1       1.538  13.468   5.737  1.00  0.00    -0.354 N 
ATOM     42  C   UNL     1       4.551  15.803   3.679  1.00  0.00     0.074 A 
ATOM     43  C   UNL     1       4.412  15.684   2.245  1.00  0.00     0.031 C 
ATOM     44  C   UNL     1      -0.162  12.024   5.904  1.00  0.00     0.029 A 
ATOM     45  C   UNL     1       0.795  12.803   6.683  1.00  0.00     0.049 A 
ATOM     46  H   UNL     1       2.268  14.088   5.963  1.00  0.00     0.167 HD
ATOM     47  C   UNL     1       5.500  16.548   4.294  1.00  0.00     0.037 A 
ATOM     48  C   UNL     1       0.878  12.819   8.027  1.00  0.00     0.037 A 
ATOM     49  C   UNL     1       5.599  16.706   5.721  1.00  0.00     0.049 A 
ATOM     50  C   UNL     1       1.900  13.705   8.686  1.00  0.00     0.074 A 
ATOM     51  C   UNL     1       6.476  17.497   6.442  1.00  0.00     0.029 A 
ATOM     52  N   UNL     1       4.786  16.065   6.645  1.00  0.00    -0.354 N 
ATOM     53  N   UNL     1       2.811  14.467   8.128  1.00  0.00    -0.248 NA
ATOM     54  C   UNL     1       1.893  13.750  10.154  1.00  0.00     0.031 C 
ATOM     55  C   UNL     1       6.213  17.313   7.803  1.00  0.00     0.029 A 
ATOM     56  C   UNL     1       5.145  16.439   7.929  1.00  0.00     0.049 A 
ATOM     57  H   UNL     1       4.061  15.438   6.420  1.00  0.00     0.167 HD
ATOM     58  C   UNL     1       3.468  15.102   9.177  1.00  0.00     0.074 A 
ATOM     59  C   UNL     1       2.839  14.645  10.399  1.00  0.00     0.031 C 
ATOM     60  C   UNL     1       4.497  15.983   9.132  1.00  0.00     0.037 A 
BRANCH  47  61
ATOM     61  C   UNL     1       6.501  17.264   3.429  1.00  0.00     0.058 A 
ATOM     62  C   UNL     1       6.143  18.379   2.653  1.00  0.00     0.135 A 
ATOM     63  C   UNL     1       7.847  16.862   3.413  1.00  0.00     0.135 A 
ATOM     64  F   UNL     1       4.867  18.795   2.617  1.00  0.00    -0.206 F 
ATOM     65  C   UNL     1       7.078  19.056   1.877  1.00  0.00     0.059 A 
ATOM     66  C   UNL     1       8.804  17.541   2.664  1.00  0.00     0.059 A 
ATOM     67  F   UNL     1       8.244  15.802   4.134  1.00  0.00    -0.206 F 
ATOM     68  C   UNL     1       8.407  18.631   1.891  1.00  0.00     0.060 A 
BRANCH  68  69
ATOM     69  S   UNL     1       9.613  19.538   0.899  1.00  0.00     0.124 S 
ATOM     70  O   UNL     1       9.278  19.088  -0.448  1.00  0.00    -0.237 OA
ATOM     71  O   UNL     1       9.288  20.927   1.202  1.00  0.00    -0.237 OA
ATOM     72  O   UNL     1      10.897  19.071   1.415  1.00  0.00    -0.744 OA
ENDBRANCH  68  69
ENDBRANCH  47  61
BRANCH  48  73
ATOM     73  C   UNL     1      -0.052  11.991   8.840  1.00  0.00     0.058 A 
ATOM     74  C   UNL     1      -1.081  12.581   9.589  1.00  0.00     0.135 A 
ATOM     75  C   UNL     1       0.066  10.593   8.879  1.00  0.00     0.135 A 
ATOM     76  F   UNL     1      -1.232  13.915   9.585  1.00  0.00    -0.206 F 
ATOM     77  C   UNL     1      -1.944  11.820  10.369  1.00  0.00     0.059 A 
ATOM     78  C   UNL     1      -0.801   9.808   9.632  1.00  0.00     0.059 A 
ATOM     79  F   UNL     1       1.019   9.978   8.163  1.00  0.00    -0.206 F 
ATOM     80  C   UNL     1      -1.796  10.432  10.385  1.00  0.00     0.060 A 
BRANCH  80  81
ATOM     81  S   UNL     1      -2.945   9.445  11.369  1.00  0.00     0.124 S 
ATOM     82  O   UNL     1      -2.441   9.667  12.719  1.00  0.00    -0.237 OA
ATOM     83  O   UNL     1      -4.229  10.065  11.056  1.00  0.00    -0.237 OA
ATOM     84  O   UNL     1      -2.765   8.097  10.839  1.00  0.00    -0.744 OA
ENDBRANCH  80  81
ENDBRANCH  48  73
BRANCH  60  85
ATOM     85  C   UNL     1       4.977  16.544  10.441  1.00  0.00     0.058 A 
ATOM     86  C   UNL     1       5.720  15.773  11.347  1.00  0.00     0.135 A 
ATOM     87  C   UNL     1       4.713  17.881  10.777  1.00  0.00     0.135 A 
ATOM     88  F   UNL     1       5.996  14.488  11.074  1.00  0.00    -0.206 F 
ATOM     89  C   UNL     1       6.155  16.298  12.560  1.00  0.00     0.059 A 
ATOM     90  C   UNL     1       5.160  18.435  11.971  1.00  0.00     0.059 A 
ATOM     91  F   UNL     1       4.017  18.665   9.937  1.00  0.00    -0.206 F 
ATOM     92  C   UNL     1       5.865  17.630  12.865  1.00  0.00     0.060 A 
BRANCH  92  93
ATOM     93  S   UNL     1       6.439  18.305  14.437  1.00  0.00     0.124 S 
ATOM     94  O   UNL     1       5.472  17.738  15.370  1.00  0.00    -0.237 OA
ATOM     95  O   UNL     1       7.797  17.776  14.531  1.00  0.00    -0.237 OA
ATOM     96  O   UNL     1       6.349  19.749  14.238  1.00  0.00    -0.744 OA
ENDBRANCH  92  93
ENDBRANCH  60  85
ENDBRANCH  34  35
ENDBRANCH  26  29
ENDBRANCH  24  25
ENDBRANCH   1  24
TORSDOF 16
