REMARK SMILES C[C@H]1C[C@H]1CN(C)c1cccc(F)c1C(=O)NCCCNC(=O)c1ccc(-c2c3nc(c(-c4c(F)cc(S(=O)(=O)[O-])cc4F)c4ccc([nH]4)c(-c4c(F)cc(S(=O)(=O)[O-])cc4F)c4nc(c(-c5c(F)cc(S(=O)(=O)[O-])cc5F)c5ccc2[nH]5)C=C4)C=C3)cc1
REMARK SMILES IDX 19 1 18 2 17 3 15 4 16 5 14 7 8 8 9 9 10 10 12 11 11 12
REMARK SMILES IDX 13 13 6 14 7 15 5 16 4 17 1 18 2 19 3 20 20 21 21 22 22 23
REMARK SMILES IDX 23 25 24 26 25 27 89 28 26 29 88 30 27 31 28 32 29 33 82 34
REMARK SMILES IDX 30 35 87 36 81 37 83 38 31 39 86 40 80 41 79 42 32 44 66 45
REMARK SMILES IDX 45 46 65 47 46 48 49 49 64 50 84 51 47 52 48 53 63 55 85 56
REMARK SMILES IDX 50 57 33 58 34 59 43 60 35 61 36 62 42 63 44 64 37 65 38 66
REMARK SMILES IDX 39 67 40 68 41 69 67 70 68 71 77 72 69 73 70 74 76 75 78 76
REMARK SMILES IDX 71 77 72 78 73 79 74 80 75 81 51 82 52 83 61 84 53 85 54 86
REMARK SMILES IDX 60 87 62 88 55 89 56 90 57 91 58 92 59 93
REMARK H PARENT 17 6 21 24 83 43 49 54
REMARK Flexibility Score: inf
ROOT
ATOM      1  C   UNL     1       3.088   5.834  -6.372  1.00  0.00     0.042 C 
ENDROOT
BRANCH   1   2
ATOM      2  C   UNL     1       1.855   4.965  -6.177  1.00  0.00     0.118 C 
BRANCH   2   3
ATOM      3  N   UNL     1       2.023   3.544  -6.468  1.00  0.00    -0.352 N 
ATOM      4  C   UNL     1       1.635   2.418  -5.755  1.00  0.00     0.256 C 
ATOM      5  O   UNL     1       1.664   1.333  -6.335  1.00  0.00    -0.269 OA
ATOM      6  H   UNL     1       2.492   3.352  -7.313  1.00  0.00     0.163 HD
BRANCH   4   7
ATOM      7  C   UNL     1       1.267   2.506  -4.316  1.00  0.00     0.098 A 
ATOM      8  C   UNL     1       1.818   1.648  -3.337  1.00  0.00     0.052 A 
ATOM      9  C   UNL     1       1.636   1.999  -1.984  1.00  0.00     0.027 A 
ATOM     10  C   UNL     1       0.833   3.070  -1.597  1.00  0.00     0.005 A 
ATOM     11  C   UNL     1       0.342   3.473  -3.908  1.00  0.00     0.138 A 
ATOM     12  C   UNL     1       0.141   3.777  -2.565  1.00  0.00     0.040 A 
ATOM     13  F   UNL     1      -0.393   4.145  -4.810  1.00  0.00    -0.206 F 
BRANCH   8  14
ATOM     14  N   UNL     1       2.415   0.419  -3.587  1.00  0.00    -0.374 N 
ATOM     15  C   UNL     1       3.757   0.333  -4.128  1.00  0.00     0.143 C 
BRANCH  14  16
ATOM     16  C   UNL     1       1.576  -0.777  -3.480  1.00  0.00     0.120 C 
BRANCH  16  17
ATOM     17  C   UNL     1       1.563  -1.285  -2.061  1.00  0.00     0.011 C 
ATOM     18  C   UNL     1      -0.853  -0.359  -1.381  1.00  0.00     0.008 C 
ATOM     19  C   UNL     1       0.425  -1.063  -1.071  1.00  0.00    -0.009 C 
ATOM     20  C   UNL     1       0.658  -2.429  -1.658  1.00  0.00     0.009 C 
ENDBRANCH  16  17
ENDBRANCH  14  16
ENDBRANCH   8  14
ENDBRANCH   4   7
ENDBRANCH   2   3
ENDBRANCH   1   2
BRANCH   1  21
ATOM     21  C   UNL     1       3.652   5.888  -7.781  1.00  0.00     0.118 C 
BRANCH  21  22
ATOM     22  N   UNL     1       2.721   6.421  -8.768  1.00  0.00    -0.352 N 
ATOM     23  C   UNL     1       2.711   7.608  -9.466  1.00  0.00     0.251 C 
ATOM     24  H   UNL     1       1.964   5.826  -8.972  1.00  0.00     0.163 HD
ATOM     25  O   UNL     1       1.731   7.888 -10.150  1.00  0.00    -0.269 OA
BRANCH  23  26
ATOM     26  C   UNL     1       3.842   8.563  -9.380  1.00  0.00     0.039 A 
ATOM     27  C   UNL     1       3.570   9.935  -9.342  1.00  0.00     0.014 A 
ATOM     28  C   UNL     1       5.167   8.127  -9.364  1.00  0.00     0.014 A 
ATOM     29  C   UNL     1       4.616  10.852  -9.198  1.00  0.00     0.010 A 
ATOM     30  C   UNL     1       6.197   9.030  -9.113  1.00  0.00     0.010 A 
ATOM     31  C   UNL     1       5.936  10.405  -9.031  1.00  0.00    -0.014 A 
BRANCH  31  32
ATOM     32  C   UNL     1       7.060  11.349  -8.786  1.00  0.00     0.031 A 
ATOM     33  C   UNL     1       8.218  11.409  -9.749  1.00  0.00     0.074 A 
ATOM     34  C   UNL     1       7.072  12.104  -7.668  1.00  0.00     0.049 A 
ATOM     35  N   UNL     1       9.334  12.086  -9.658  1.00  0.00    -0.248 NA
ATOM     36  C   UNL     1       8.124  10.578 -10.962  1.00  0.00     0.031 C 
ATOM     37  C   UNL     1       6.029  12.110  -6.638  1.00  0.00     0.029 A 
ATOM     38  N   UNL     1       7.993  13.011  -7.204  1.00  0.00    -0.354 N 
ATOM     39  C   UNL     1      10.072  11.757 -10.789  1.00  0.00     0.074 A 
ATOM     40  C   UNL     1       9.310  10.770 -11.521  1.00  0.00     0.031 C 
ATOM     41  C   UNL     1       6.351  13.001  -5.687  1.00  0.00     0.029 A 
ATOM     42  C   UNL     1       7.644  13.596  -6.007  1.00  0.00     0.049 A 
ATOM     43  H   UNL     1       8.827  13.224  -7.682  1.00  0.00     0.167 HD
ATOM     44  C   UNL     1      11.260  12.257 -11.200  1.00  0.00     0.037 A 
ATOM     45  C   UNL     1       8.294  14.503  -5.250  1.00  0.00     0.037 A 
ATOM     46  C   UNL     1      11.997  13.268 -10.487  1.00  0.00     0.049 A 
ATOM     47  C   UNL     1       9.628  15.023  -5.718  1.00  0.00     0.074 A 
ATOM     48  C   UNL     1      13.191  13.869 -10.843  1.00  0.00     0.029 A 
ATOM     49  N   UNL     1      11.606  13.834  -9.283  1.00  0.00    -0.354 N 
ATOM     50  N   UNL     1      10.291  14.726  -6.810  1.00  0.00    -0.248 NA
ATOM     51  C   UNL     1      10.304  16.000  -4.853  1.00  0.00     0.031 C 
ATOM     52  C   UNL     1      13.546  14.766  -9.833  1.00  0.00     0.029 A 
ATOM     53  C   UNL     1      12.545  14.765  -8.874  1.00  0.00     0.049 A 
ATOM     54  H   UNL     1      10.784  13.607  -8.792  1.00  0.00     0.167 HD
ATOM     55  C   UNL     1      11.444  15.503  -6.779  1.00  0.00     0.074 A 
ATOM     56  C   UNL     1      11.384  16.291  -5.566  1.00  0.00     0.031 C 
ATOM     57  C   UNL     1      12.461  15.557  -7.673  1.00  0.00     0.037 A 
BRANCH  44  58
ATOM     58  C   UNL     1      11.834  11.755 -12.497  1.00  0.00     0.058 A 
ATOM     59  C   UNL     1      13.016  10.998 -12.514  1.00  0.00     0.135 A 
ATOM     60  C   UNL     1      11.263  12.104 -13.732  1.00  0.00     0.135 A 
ATOM     61  F   UNL     1      13.600  10.628 -11.363  1.00  0.00    -0.206 F 
ATOM     62  C   UNL     1      13.629  10.632 -13.708  1.00  0.00     0.059 A 
ATOM     63  C   UNL     1      11.844  11.725 -14.938  1.00  0.00     0.059 A 
ATOM     64  F   UNL     1      10.120  12.806 -13.773  1.00  0.00    -0.206 F 
ATOM     65  C   UNL     1      13.038  11.007 -14.916  1.00  0.00     0.060 A 
BRANCH  65  66
ATOM     66  S   UNL     1      13.851  10.531 -16.456  1.00  0.00     0.124 S 
ATOM     67  O   UNL     1      15.068  11.333 -16.414  1.00  0.00    -0.237 OA
ATOM     68  O   UNL     1      14.028   9.094 -16.275  1.00  0.00    -0.237 OA
ATOM     69  O   UNL     1      12.883  10.911 -17.481  1.00  0.00    -0.744 OA
ENDBRANCH  65  66
ENDBRANCH  44  58
BRANCH  45  70
ATOM     70  C   UNL     1       7.683  15.000  -3.986  1.00  0.00     0.058 A 
ATOM     71  C   UNL     1       7.522  14.165  -2.869  1.00  0.00     0.135 A 
ATOM     72  C   UNL     1       7.244  16.329  -3.872  1.00  0.00     0.135 A 
ATOM     73  F   UNL     1       7.913  12.882  -2.924  1.00  0.00    -0.206 F 
ATOM     74  C   UNL     1       6.935  14.623  -1.694  1.00  0.00     0.059 A 
ATOM     75  C   UNL     1       6.682  16.819  -2.697  1.00  0.00     0.059 A 
ATOM     76  F   UNL     1       7.386  17.171  -4.908  1.00  0.00    -0.206 F 
ATOM     77  C   UNL     1       6.520  15.953  -1.616  1.00  0.00     0.060 A 
BRANCH  77  78
ATOM     78  S   UNL     1       5.780  16.532  -0.074  1.00  0.00     0.124 S 
ATOM     79  O   UNL     1       4.513  15.809  -0.070  1.00  0.00    -0.237 OA
ATOM     80  O   UNL     1       6.762  16.099   0.915  1.00  0.00    -0.237 OA
ATOM     81  O   UNL     1       5.681  17.975  -0.267  1.00  0.00    -0.744 OA
ENDBRANCH  77  78
ENDBRANCH  45  70
BRANCH  57  82
ATOM     82  C   UNL     1      13.583  16.522  -7.405  1.00  0.00     0.058 A 
ATOM     83  C   UNL     1      13.762  17.646  -8.229  1.00  0.00     0.135 A 
ATOM     84  C   UNL     1      14.533  16.287  -6.400  1.00  0.00     0.135 A 
ATOM     85  F   UNL     1      12.887  17.913  -9.211  1.00  0.00    -0.206 F 
ATOM     86  C   UNL     1      14.858  18.488  -8.081  1.00  0.00     0.059 A 
ATOM     87  C   UNL     1      15.620  17.135  -6.213  1.00  0.00     0.059 A 
ATOM     88  F   UNL     1      14.400  15.232  -5.580  1.00  0.00    -0.206 F 
ATOM     89  C   UNL     1      15.784  18.222  -7.072  1.00  0.00     0.060 A 
BRANCH  89  90
ATOM     90  S   UNL     1      17.201  19.327  -6.894  1.00  0.00     0.124 S 
ATOM     91  O   UNL     1      17.969  19.025  -8.097  1.00  0.00    -0.237 OA
ATOM     92  O   UNL     1      16.564  20.640  -6.861  1.00  0.00    -0.237 OA
ATOM     93  O   UNL     1      17.808  18.900  -5.637  1.00  0.00    -0.744 OA
ENDBRANCH  89  90
ENDBRANCH  57  82
ENDBRANCH  31  32
ENDBRANCH  23  26
ENDBRANCH  21  22
ENDBRANCH   1  21
TORSDOF 16
