REMARK SMILES Cc1c(Cl)cccc1-n1ncc2c1NC(=O)C[C@@H]2c1ccc(C(=O)NCCCNC(=O)c2ccc(-c3c4nc(c(-c5c(F)cc(S(=O)(=O)[O-])cc5F)c5ccc([nH]5)c(-c5c(F)cc(S(=O)(=O)[O-])cc5F)c5nc(c(-c6c(F)cc(S(=O)(=O)[O-])cc6F)c6ccc3[nH]6)C=C5)C=C4)cc2)cc1
REMARK SMILES IDX 27 1 26 2 25 3 23 4 24 5 22 7 19 8 20 9 99 10 21 11 98 12
REMARK SMILES IDX 18 13 9 14 10 15 13 16 11 17 12 18 14 19 15 20 17 22 16 23
REMARK SMILES IDX 8 24 1 25 2 26 3 27 4 28 5 29 7 30 6 31 28 32 29 33 30 34
REMARK SMILES IDX 31 36 32 37 33 38 97 39 34 40 96 41 35 42 36 43 37 44 90 45
REMARK SMILES IDX 38 46 95 47 89 48 91 49 39 50 94 51 88 52 87 53 40 55 74 56
REMARK SMILES IDX 53 57 73 58 54 59 57 60 72 61 92 62 55 63 56 64 71 66 93 67
REMARK SMILES IDX 58 68 41 69 42 70 51 71 43 72 44 73 50 74 52 75 45 76 46 77
REMARK SMILES IDX 47 78 48 79 49 80 75 81 76 82 85 83 77 84 78 85 84 86 86 87
REMARK SMILES IDX 79 88 80 89 81 90 82 91 83 92 59 93 60 94 69 95 61 96 62 97
REMARK SMILES IDX 68 98 70 99 63 100 64 101 65 102 66 103 67 104
REMARK H PARENT 25 6 14 21 29 35 91 54 57 65
REMARK Flexibility Score: inf
ROOT
ATOM      1  C   UNL     1     -10.490   7.984   0.275  1.00  0.00     0.042 C 
ENDROOT
BRANCH   1   2
ATOM      2  C   UNL     1     -10.615   6.478   0.003  1.00  0.00     0.118 C 
BRANCH   2   3
ATOM      3  N   UNL     1     -10.288   6.136  -1.374  1.00  0.00    -0.352 N 
ATOM      4  C   UNL     1      -9.121   5.687  -1.940  1.00  0.00     0.251 C 
ATOM      5  O   UNL     1      -9.125   5.340  -3.118  1.00  0.00    -0.269 OA
ATOM      6  H   UNL     1     -11.032   6.247  -2.009  1.00  0.00     0.163 HD
BRANCH   4   7
ATOM      7  C   UNL     1      -7.874   5.531  -1.149  1.00  0.00     0.039 A 
ATOM      8  C   UNL     1      -5.555   5.028   0.388  1.00  0.00    -0.040 A 
ATOM      9  C   UNL     1      -5.873   4.229  -0.725  1.00  0.00     0.005 A 
ATOM     10  C   UNL     1      -6.391   6.113   0.676  1.00  0.00     0.005 A 
ATOM     11  C   UNL     1      -7.012   4.487  -1.493  1.00  0.00     0.014 A 
ATOM     12  C   UNL     1      -7.516   6.369  -0.097  1.00  0.00     0.014 A 
BRANCH   8  13
ATOM     13  C   UNL     1      -4.387   4.816   1.333  1.00  0.00     0.064 C 
ATOM     14  N   UNL     1      -2.092   2.310   0.045  1.00  0.00    -0.217 N 
ATOM     15  N   UNL     1      -1.748   3.306  -0.803  1.00  0.00    -0.174 NA
ATOM     16  C   UNL     1      -3.055   2.724   0.941  1.00  0.00     0.140 A 
ATOM     17  C   UNL     1      -2.537   4.328  -0.465  1.00  0.00     0.142 A 
ATOM     18  C   UNL     1      -3.371   4.017   0.628  1.00  0.00     0.023 A 
ATOM     19  N   UNL     1      -3.608   2.078   2.020  1.00  0.00    -0.310 N 
ATOM     20  C   UNL     1      -4.513   2.753   2.887  1.00  0.00     0.226 C 
ATOM     21  H   UNL     1      -3.376   1.138   2.195  1.00  0.00     0.171 HD
ATOM     22  C   UNL     1      -4.842   4.209   2.667  1.00  0.00     0.113 C 
ATOM     23  O   UNL     1      -4.908   2.106   3.837  1.00  0.00    -0.275 OA
BRANCH  14  24
ATOM     24  C   UNL     1      -1.479   1.041   0.009  1.00  0.00     0.071 A 
ATOM     25  C   UNL     1       0.866   2.091  -0.005  1.00  0.00     0.048 C 
ATOM     26  C   UNL     1      -0.074   0.911  -0.040  1.00  0.00    -0.007 A 
ATOM     27  C   UNL     1       0.450  -0.395  -0.065  1.00  0.00     0.046 A 
ATOM     28  Cl  UNL     1       2.155  -0.688  -0.111  1.00  0.00    -0.084 Cl
ATOM     29  C   UNL     1      -0.387  -1.517  -0.025  1.00  0.00     0.021 A 
ATOM     30  C   UNL     1      -2.319  -0.089   0.054  1.00  0.00     0.029 A 
ATOM     31  C   UNL     1      -1.769  -1.366   0.033  1.00  0.00     0.004 A 
ENDBRANCH  14  24
ENDBRANCH   8  13
ENDBRANCH   4   7
ENDBRANCH   2   3
ENDBRANCH   1   2
BRANCH   1  32
ATOM     32  C   UNL     1     -11.680   8.763  -0.235  1.00  0.00     0.118 C 
BRANCH  32  33
ATOM     33  N   UNL     1     -12.893   8.502   0.540  1.00  0.00    -0.352 N 
ATOM     34  C   UNL     1     -14.165   8.992   0.309  1.00  0.00     0.251 C 
ATOM     35  H   UNL     1     -12.791   7.906   1.317  1.00  0.00     0.163 HD
ATOM     36  O   UNL     1     -14.993   9.017   1.211  1.00  0.00    -0.269 OA
BRANCH  34  37
ATOM     37  C   UNL     1     -14.486   9.486  -1.040  1.00  0.00     0.039 A 
ATOM     38  C   UNL     1     -15.261  10.626  -1.251  1.00  0.00     0.014 A 
ATOM     39  C   UNL     1     -13.918   8.804  -2.111  1.00  0.00     0.014 A 
ATOM     40  C   UNL     1     -15.390  11.105  -2.552  1.00  0.00     0.010 A 
ATOM     41  C   UNL     1     -13.834   9.415  -3.328  1.00  0.00     0.010 A 
ATOM     42  C   UNL     1     -14.649  10.502  -3.584  1.00  0.00    -0.014 A 
BRANCH  42  43
ATOM     43  C   UNL     1     -14.639  11.039  -4.936  1.00  0.00     0.031 A 
ATOM     44  C   UNL     1     -14.331  12.489  -5.003  1.00  0.00     0.074 A 
ATOM     45  C   UNL     1     -14.704  10.263  -6.042  1.00  0.00     0.049 A 
ATOM     46  N   UNL     1     -15.157  13.448  -5.249  1.00  0.00    -0.248 NA
ATOM     47  C   UNL     1     -13.004  12.945  -4.558  1.00  0.00     0.031 C 
ATOM     48  C   UNL     1     -14.696   8.798  -6.154  1.00  0.00     0.029 A 
ATOM     49  N   UNL     1     -14.709  10.649  -7.344  1.00  0.00    -0.354 N 
ATOM     50  C   UNL     1     -14.397  14.611  -5.244  1.00  0.00     0.074 A 
ATOM     51  C   UNL     1     -13.151  14.271  -4.606  1.00  0.00     0.031 C 
ATOM     52  C   UNL     1     -14.460   8.436  -7.435  1.00  0.00     0.029 A 
ATOM     53  C   UNL     1     -14.486   9.627  -8.261  1.00  0.00     0.049 A 
ATOM     54  H   UNL     1     -14.858  11.583  -7.618  1.00  0.00     0.167 HD
ATOM     55  C   UNL     1     -14.760  15.688  -5.995  1.00  0.00     0.037 A 
ATOM     56  C   UNL     1     -14.325   9.764  -9.603  1.00  0.00     0.037 A 
ATOM     57  C   UNL     1     -16.131  15.575  -6.434  1.00  0.00     0.049 A 
ATOM     58  C   UNL     1     -14.935  11.073  -9.967  1.00  0.00     0.074 A 
ATOM     59  C   UNL     1     -17.339  15.433  -5.775  1.00  0.00     0.029 A 
ATOM     60  N   UNL     1     -16.362  15.151  -7.723  1.00  0.00    -0.354 N 
ATOM     61  N   UNL     1     -16.214  11.326  -9.858  1.00  0.00    -0.248 NA
ATOM     62  C   UNL     1     -14.068  12.242  -9.952  1.00  0.00     0.031 C 
ATOM     63  C   UNL     1     -18.059  14.464  -6.536  1.00  0.00     0.029 A 
ATOM     64  C   UNL     1     -17.299  14.146  -7.663  1.00  0.00     0.049 A 
ATOM     65  H   UNL     1     -15.935  15.503  -8.537  1.00  0.00     0.167 HD
ATOM     66  C   UNL     1     -16.283  12.611  -9.336  1.00  0.00     0.074 A 
ATOM     67  C   UNL     1     -14.928  13.146  -9.473  1.00  0.00     0.031 C 
ATOM     68  C   UNL     1     -17.343  13.021  -8.576  1.00  0.00     0.037 A 
BRANCH  55  69
ATOM     69  C   UNL     1     -13.781  16.653  -6.612  1.00  0.00     0.058 A 
ATOM     70  C   UNL     1     -14.249  17.854  -7.181  1.00  0.00     0.135 A 
ATOM     71  C   UNL     1     -12.432  16.333  -6.889  1.00  0.00     0.135 A 
ATOM     72  F   UNL     1     -15.522  18.242  -7.004  1.00  0.00    -0.206 F 
ATOM     73  C   UNL     1     -13.449  18.654  -7.997  1.00  0.00     0.059 A 
ATOM     74  C   UNL     1     -11.602  17.144  -7.652  1.00  0.00     0.059 A 
ATOM     75  F   UNL     1     -11.881  15.172  -6.515  1.00  0.00    -0.206 F 
ATOM     76  C   UNL     1     -12.127  18.286  -8.230  1.00  0.00     0.060 A 
BRANCH  76  77
ATOM     77  S   UNL     1     -11.109  19.281  -9.332  1.00  0.00     0.124 S 
ATOM     78  O   UNL     1     -11.739  19.023 -10.621  1.00  0.00    -0.237 OA
ATOM     79  O   UNL     1     -11.293  20.620  -8.784  1.00  0.00    -0.237 OA
ATOM     80  O   UNL     1      -9.774  18.716  -9.155  1.00  0.00    -0.744 OA
ENDBRANCH  76  77
ENDBRANCH  55  69
BRANCH  56  81
ATOM     81  C   UNL     1     -13.356   9.046 -10.479  1.00  0.00     0.058 A 
ATOM     82  C   UNL     1     -13.413   9.155 -11.881  1.00  0.00     0.135 A 
ATOM     83  C   UNL     1     -12.181   8.469  -9.954  1.00  0.00     0.135 A 
ATOM     84  F   UNL     1     -14.485   9.709 -12.469  1.00  0.00    -0.206 F 
ATOM     85  C   UNL     1     -12.350   8.768 -12.708  1.00  0.00     0.059 A 
ATOM     86  C   UNL     1     -11.112   8.069 -10.757  1.00  0.00     0.059 A 
ATOM     87  F   UNL     1     -11.994   8.362  -8.630  1.00  0.00    -0.206 F 
ATOM     88  C   UNL     1     -11.191   8.245 -12.133  1.00  0.00     0.060 A 
BRANCH  88  89
ATOM     89  S   UNL     1      -9.745   7.912 -13.171  1.00  0.00     0.124 S 
ATOM     90  O   UNL     1     -10.188   6.759 -13.946  1.00  0.00    -0.237 OA
ATOM     91  O   UNL     1      -9.601   9.162 -13.910  1.00  0.00    -0.237 OA
ATOM     92  O   UNL     1      -8.687   7.641 -12.200  1.00  0.00    -0.744 OA
ENDBRANCH  88  89
ENDBRANCH  56  81
BRANCH  68  93
ATOM     93  C   UNL     1     -18.574  12.144  -8.510  1.00  0.00     0.058 A 
ATOM     94  C   UNL     1     -18.607  10.838  -7.985  1.00  0.00     0.135 A 
ATOM     95  C   UNL     1     -19.810  12.720  -8.843  1.00  0.00     0.135 A 
ATOM     96  F   UNL     1     -17.492  10.243  -7.543  1.00  0.00    -0.206 F 
ATOM     97  C   UNL     1     -19.803  10.129  -7.836  1.00  0.00     0.059 A 
ATOM     98  C   UNL     1     -21.017  12.046  -8.674  1.00  0.00     0.059 A 
ATOM     99  F   UNL     1     -19.861  13.985  -9.293  1.00  0.00    -0.206 F 
ATOM    100  C   UNL     1     -21.006  10.743  -8.182  1.00  0.00     0.060 A 
BRANCH 100 101
ATOM    101  S   UNL     1     -22.558   9.854  -7.930  1.00  0.00     0.124 S 
ATOM    102  O   UNL     1     -22.485   8.814  -8.951  1.00  0.00    -0.237 OA
ATOM    103  O   UNL     1     -22.441   9.395  -6.549  1.00  0.00    -0.237 OA
ATOM    104  O   UNL     1     -23.578  10.876  -8.153  1.00  0.00    -0.744 OA
ENDBRANCH 100 101
ENDBRANCH  68  93
ENDBRANCH  42  43
ENDBRANCH  34  37
ENDBRANCH  32  33
ENDBRANCH   1  32
TORSDOF 15
