REMARK SMILES COc1ccc(/C=C(\NC(=O)c2ccccc2Br)C(=O)NCCCNC(=O)c2ccc(-c3c4nc(c(-c5c(F)cc(S(=O)(=O)[O-])cc5F)c5ccc([nH]5)c(-c5c(F)cc(S(=O)(=O)[O-])cc5F)c5nc(c(-c6c(F)cc(S(=O)(=O)[O-])cc6F)c6ccc3[nH]6)C=C5)C=C4)cc2)cc1
REMARK SMILES IDX 23 1 22 2 21 3 19 4 20 5 8 7 7 8 6 9 3 10 4 11 95 12 5 13
REMARK SMILES IDX 94 14 2 15 1 16 9 17 10 18 11 20 12 21 13 22 17 23 14 24
REMARK SMILES IDX 16 25 18 26 15 27 24 28 25 29 26 30 27 32 28 33 29 34 93 35
REMARK SMILES IDX 30 36 92 37 31 38 32 39 33 40 86 41 34 42 91 43 85 44 87 45
REMARK SMILES IDX 35 46 90 47 84 48 83 49 36 51 70 52 49 53 69 54 50 55 53 56
REMARK SMILES IDX 68 57 88 58 51 59 52 60 67 62 89 63 54 64 37 65 38 66 47 67
REMARK SMILES IDX 39 68 40 69 46 70 48 71 41 72 42 73 43 74 44 75 45 76 71 77
REMARK SMILES IDX 72 78 81 79 73 80 74 81 80 82 82 83 75 84 76 85 77 86 78 87
REMARK SMILES IDX 79 88 55 89 56 90 65 91 57 92 58 93 64 94 66 95 59 96 60 97
REMARK SMILES IDX 61 98 62 99 63 100
REMARK H PARENT 21 6 9 19 25 31 87 50 53 61
REMARK Flexibility Score: inf
ROOT
ATOM      1  C   UNL     1      -1.988  -7.330   6.902  1.00  0.00     0.042 C 
ENDROOT
BRANCH   1   2
ATOM      2  C   UNL     1      -1.153  -6.060   6.829  1.00  0.00     0.118 C 
BRANCH   2   3
ATOM      3  N   UNL     1       0.264  -6.263   7.050  1.00  0.00    -0.351 N 
ATOM      4  C   UNL     1       1.274  -5.394   6.736  1.00  0.00     0.267 C 
ATOM      5  O   UNL     1       2.446  -5.740   6.862  1.00  0.00    -0.268 OA
ATOM      6  H   UNL     1       0.528  -7.115   7.468  1.00  0.00     0.163 HD
BRANCH   4   7
ATOM      7  C   UNL     1       0.909  -4.055   6.153  1.00  0.00     0.107 C 
ATOM      8  C   UNL     1       1.326  -3.902   4.878  1.00  0.00     0.040 C 
BRANCH   8   9
ATOM      9  C   UNL     1       1.174  -2.772   3.937  1.00  0.00    -0.023 A 
ATOM     10  C   UNL     1       0.969  -0.749   1.973  1.00  0.00     0.118 A 
ATOM     11  C   UNL     1      -0.070  -0.970   2.873  1.00  0.00     0.047 A 
ATOM     12  C   UNL     1       2.123  -1.522   2.058  1.00  0.00     0.047 A 
ATOM     13  C   UNL     1       0.014  -1.997   3.822  1.00  0.00     0.012 A 
ATOM     14  C   UNL     1       2.222  -2.524   3.033  1.00  0.00     0.012 A 
BRANCH  10  15
ATOM     15  O   UNL     1       0.772   0.259   1.069  1.00  0.00    -0.497 OA
ATOM     16  C   UNL     1       1.288  -0.007  -0.232  1.00  0.00     0.278 C 
ENDBRANCH  10  15
ENDBRANCH   8   9
BRANCH   7  17
ATOM     17  N   UNL     1       0.191  -3.103   6.846  1.00  0.00    -0.317 N 
ATOM     18  C   UNL     1      -0.194  -2.967   8.160  1.00  0.00     0.256 C 
ATOM     19  H   UNL     1      -0.112  -2.360   6.276  1.00  0.00     0.170 HD
ATOM     20  O   UNL     1      -1.075  -2.151   8.434  1.00  0.00    -0.269 OA
BRANCH  18  21
ATOM     21  C   UNL     1       0.398  -3.750   9.261  1.00  0.00     0.054 A 
ATOM     22  C   UNL     1      -0.497  -4.378  10.142  1.00  0.00     0.015 A 
ATOM     23  C   UNL     1       1.769  -3.810   9.525  1.00  0.00     0.030 A 
ATOM     24  C   UNL     1      -0.027  -5.175  11.185  1.00  0.00     0.001 A 
ATOM     25  C   UNL     1       2.238  -4.619  10.567  1.00  0.00     0.016 A 
ATOM     26  Br  UNL     1       3.046  -2.726   8.626  1.00  0.00    -0.050 Br
ATOM     27  C   UNL     1       1.343  -5.317  11.380  1.00  0.00     0.001 A 
ENDBRANCH  18  21
ENDBRANCH   7  17
ENDBRANCH   4   7
ENDBRANCH   2   3
ENDBRANCH   1   2
BRANCH   1  28
ATOM     28  C   UNL     1      -2.143  -7.973   8.279  1.00  0.00     0.118 C 
BRANCH  28  29
ATOM     29  N   UNL     1      -2.543  -7.074   9.351  1.00  0.00    -0.352 N 
ATOM     30  C   UNL     1      -3.228  -7.311  10.522  1.00  0.00     0.251 C 
ATOM     31  H   UNL     1      -2.278  -6.135   9.217  1.00  0.00     0.163 HD
ATOM     32  O   UNL     1      -3.341  -6.408  11.348  1.00  0.00    -0.269 OA
BRANCH  30  33
ATOM     33  C   UNL     1      -3.921  -8.599  10.733  1.00  0.00     0.039 A 
ATOM     34  C   UNL     1      -5.244  -8.556  11.185  1.00  0.00     0.014 A 
ATOM     35  C   UNL     1      -3.347  -9.811  10.356  1.00  0.00     0.014 A 
ATOM     36  C   UNL     1      -6.043  -9.692  11.079  1.00  0.00     0.010 A 
ATOM     37  C   UNL     1      -4.167 -10.912  10.152  1.00  0.00     0.010 A 
ATOM     38  C   UNL     1      -5.533 -10.843  10.461  1.00  0.00    -0.014 A 
BRANCH  38  39
ATOM     39  C   UNL     1      -6.434 -11.936  10.025  1.00  0.00     0.031 A 
ATOM     40  C   UNL     1      -6.249 -13.325  10.556  1.00  0.00     0.074 A 
ATOM     41  C   UNL     1      -7.341 -11.681   9.058  1.00  0.00     0.049 A 
ATOM     42  N   UNL     1      -6.868 -14.425  10.217  1.00  0.00    -0.248 NA
ATOM     43  C   UNL     1      -5.201 -13.511  11.572  1.00  0.00     0.031 C 
ATOM     44  C   UNL     1      -7.540 -10.382   8.402  1.00  0.00     0.029 A 
ATOM     45  N   UNL     1      -8.260 -12.496   8.449  1.00  0.00    -0.354 N 
ATOM     46  C   UNL     1      -6.270 -15.436  10.958  1.00  0.00     0.074 A 
ATOM     47  C   UNL     1      -5.205 -14.827  11.725  1.00  0.00     0.031 C 
ATOM     48  C   UNL     1      -8.543 -10.481   7.516  1.00  0.00     0.029 A 
ATOM     49  C   UNL     1      -9.035 -11.852   7.511  1.00  0.00     0.049 A 
ATOM     50  H   UNL     1      -8.356 -13.452   8.662  1.00  0.00     0.167 HD
ATOM     51  C   UNL     1      -6.599 -16.748  11.011  1.00  0.00     0.037 A 
ATOM     52  C   UNL     1     -10.034 -12.318   6.738  1.00  0.00     0.037 A 
ATOM     53  C   UNL     1      -7.686 -17.329  10.270  1.00  0.00     0.049 A 
ATOM     54  C   UNL     1     -10.426 -13.763   6.868  1.00  0.00     0.074 A 
ATOM     55  C   UNL     1      -8.144 -18.634  10.286  1.00  0.00     0.029 A 
ATOM     56  N   UNL     1      -8.496 -16.631   9.384  1.00  0.00    -0.354 N 
ATOM     57  N   UNL     1      -9.889 -14.694   7.620  1.00  0.00    -0.248 NA
ATOM     58  C   UNL     1     -11.560 -14.221   6.054  1.00  0.00     0.031 C 
ATOM     59  C   UNL     1      -9.222 -18.728   9.398  1.00  0.00     0.029 A 
ATOM     60  C   UNL     1      -9.452 -17.475   8.849  1.00  0.00     0.049 A 
ATOM     61  H   UNL     1      -8.403 -15.674   9.168  1.00  0.00     0.167 HD
ATOM     62  C   UNL     1     -10.631 -15.844   7.387  1.00  0.00     0.074 A 
ATOM     63  C   UNL     1     -11.663 -15.488   6.432  1.00  0.00     0.031 C 
ATOM     64  C   UNL     1     -10.473 -17.085   7.910  1.00  0.00     0.037 A 
BRANCH  51  65
ATOM     65  C   UNL     1      -5.777 -17.623  11.913  1.00  0.00     0.058 A 
ATOM     66  C   UNL     1      -5.869 -17.523  13.311  1.00  0.00     0.135 A 
ATOM     67  C   UNL     1      -4.873 -18.556  11.381  1.00  0.00     0.135 A 
ATOM     68  F   UNL     1      -6.703 -16.632  13.870  1.00  0.00    -0.206 F 
ATOM     69  C   UNL     1      -5.062 -18.283  14.150  1.00  0.00     0.059 A 
ATOM     70  C   UNL     1      -4.074 -19.347  12.203  1.00  0.00     0.059 A 
ATOM     71  F   UNL     1      -4.744 -18.692  10.052  1.00  0.00    -0.206 F 
ATOM     72  C   UNL     1      -4.160 -19.186  13.586  1.00  0.00     0.060 A 
BRANCH  72  73
ATOM     73  S   UNL     1      -3.095 -20.145  14.684  1.00  0.00     0.124 S 
ATOM     74  O   UNL     1      -2.087 -19.153  15.045  1.00  0.00    -0.237 OA
ATOM     75  O   UNL     1      -4.011 -20.533  15.752  1.00  0.00    -0.237 OA
ATOM     76  O   UNL     1      -2.629 -21.236  13.835  1.00  0.00    -0.744 OA
ENDBRANCH  72  73
ENDBRANCH  51  65
BRANCH  52  77
ATOM     77  C   UNL     1     -10.759 -11.402   5.819  1.00  0.00     0.058 A 
ATOM     78  C   UNL     1     -12.061 -10.973   6.116  1.00  0.00     0.135 A 
ATOM     79  C   UNL     1     -10.164 -10.919   4.644  1.00  0.00     0.135 A 
ATOM     80  F   UNL     1     -12.671 -11.408   7.229  1.00  0.00    -0.206 F 
ATOM     81  C   UNL     1     -12.757 -10.113   5.273  1.00  0.00     0.059 A 
ATOM     82  C   UNL     1     -10.833 -10.041   3.794  1.00  0.00     0.059 A 
ATOM     83  F   UNL     1      -8.911 -11.280   4.326  1.00  0.00    -0.206 F 
ATOM     84  C   UNL     1     -12.134  -9.652   4.112  1.00  0.00     0.060 A 
BRANCH  84  85
ATOM     85  S   UNL     1     -13.027  -8.499   3.045  1.00  0.00     0.124 S 
ATOM     86  O   UNL     1     -13.954  -9.392   2.361  1.00  0.00    -0.237 OA
ATOM     87  O   UNL     1     -13.620  -7.580   4.011  1.00  0.00    -0.237 OA
ATOM     88  O   UNL     1     -11.970  -7.927   2.216  1.00  0.00    -0.744 OA
ENDBRANCH  84  85
ENDBRANCH  52  77
BRANCH  64  89
ATOM     89  C   UNL     1     -11.453 -18.134   7.479  1.00  0.00     0.058 A 
ATOM     90  C   UNL     1     -11.355 -18.753   6.224  1.00  0.00     0.135 A 
ATOM     91  C   UNL     1     -12.463 -18.564   8.354  1.00  0.00     0.135 A 
ATOM     92  F   UNL     1     -10.410 -18.369   5.353  1.00  0.00    -0.206 F 
ATOM     93  C   UNL     1     -12.237 -19.758   5.844  1.00  0.00     0.059 A 
ATOM     94  C   UNL     1     -13.343 -19.580   8.002  1.00  0.00     0.059 A 
ATOM     95  F   UNL     1     -12.589 -18.004   9.567  1.00  0.00    -0.206 F 
ATOM     96  C   UNL     1     -13.227 -20.166   6.741  1.00  0.00     0.060 A 
BRANCH  96  97
ATOM     97  S   UNL     1     -14.337 -21.505   6.259  1.00  0.00     0.124 S 
ATOM     98  O   UNL     1     -15.272 -20.808   5.382  1.00  0.00    -0.237 OA
ATOM     99  O   UNL     1     -13.432 -22.444   5.603  1.00  0.00    -0.237 OA
ATOM    100  O   UNL     1     -14.887 -21.961   7.531  1.00  0.00    -0.744 OA
ENDBRANCH  96  97
ENDBRANCH  64  89
ENDBRANCH  38  39
ENDBRANCH  30  33
ENDBRANCH  28  29
ENDBRANCH   1  28
TORSDOF 17
