REMARK SMILES CCN(CC(C)(C)O)C(=O)Nc1ccc(C(=O)NCCCNC(=O)c2ccc(-c3c4nc(c(-c5c(F)cc(S(=O)(=O)[O-])cc5F)c5ccc([nH]5)c(-c5c(F)cc(S(=O)(=O)[O-])cc5F)c5nc(c(-c6c(F)cc(S(=O)(=O)[O-])cc6F)c6ccc3[nH]6)C=C5)C=C4)cc2)c(O)c1
REMARK SMILES IDX 19 1 18 2 16 3 17 4 15 6 12 7 13 8 93 9 14 10 91 11 11 12
REMARK SMILES IDX 9 13 10 14 3 16 2 17 1 18 4 19 5 20 6 21 7 22 8 23 92 25
REMARK SMILES IDX 20 27 21 28 22 29 23 30 24 32 25 33 26 34 90 35 27 36 89 37
REMARK SMILES IDX 28 38 29 39 30 40 83 41 31 42 88 43 82 44 84 45 32 46 87 47
REMARK SMILES IDX 81 48 80 49 33 51 67 52 46 53 66 54 47 55 50 56 65 57 85 58
REMARK SMILES IDX 48 59 49 60 64 62 86 63 51 64 34 65 35 66 44 67 36 68 37 69
REMARK SMILES IDX 43 70 45 71 38 72 39 73 40 74 41 75 42 76 68 77 69 78 78 79
REMARK SMILES IDX 70 80 71 81 77 82 79 83 72 84 73 85 74 86 75 87 76 88 52 89
REMARK SMILES IDX 53 90 62 91 54 92 55 93 61 94 63 95 56 96 57 97 58 98 59 99
REMARK SMILES IDX 60 100
REMARK H PARENT 18 5 11 15 8 24 92 26 22 31 84 50 50 61
REMARK Flexibility Score: inf
ROOT
ATOM      1  C   UNL     1       0.220   5.996   7.358  1.00  0.00     0.118 C 
ENDROOT
BRANCH   1   2
ATOM      2  N   UNL     1      -0.257   4.877   8.151  1.00  0.00    -0.352 N 
ATOM      3  C   UNL     1       0.134   3.571   8.153  1.00  0.00     0.255 C 
ATOM      4  O   UNL     1      -0.354   2.808   8.986  1.00  0.00    -0.269 OA
ATOM      5  H   UNL     1      -0.976   5.096   8.787  1.00  0.00     0.163 HD
BRANCH   3   6
ATOM      6  C   UNL     1       1.006   3.033   7.090  1.00  0.00     0.081 A 
ATOM      7  C   UNL     1       2.143   1.950   4.746  1.00  0.00     0.046 A 
ATOM      8  C   UNL     1       1.225   1.281   5.507  1.00  0.00     0.027 A 
ATOM      9  C   UNL     1       2.666   3.117   5.299  1.00  0.00     0.073 A 
ATOM     10  C   UNL     1       0.596   1.806   6.615  1.00  0.00     0.020 A 
ATOM     11  C   UNL     1       2.136   3.617   6.505  1.00  0.00     0.130 A 
BRANCH   7  12
ATOM     12  N   UNL     1       2.614   1.412   3.544  1.00  0.00    -0.308 N 
ATOM     13  C   UNL     1       2.319   0.402   2.687  1.00  0.00     0.321 C 
ATOM     14  O   UNL     1       3.258   0.144   1.915  1.00  0.00    -0.248 OA
ATOM     15  H   UNL     1       3.394   1.919   3.222  1.00  0.00     0.171 HD
BRANCH  13  16
ATOM     16  N   UNL     1       1.115  -0.261   2.543  1.00  0.00    -0.322 N 
BRANCH  16  17
ATOM     17  C   UNL     1       0.996  -1.046   1.298  1.00  0.00     0.118 C 
ATOM     18  C   UNL     1       0.978  -0.161   0.047  1.00  0.00     0.027 C 
ENDBRANCH  16  17
BRANCH  16  19
ATOM     19  C   UNL     1      -0.153  -0.228   3.312  1.00  0.00     0.155 C 
BRANCH  19  20
ATOM     20  C   UNL     1      -0.404  -1.427   4.338  1.00  0.00     0.077 C 
ATOM     21  C   UNL     1       0.795  -1.954   5.167  1.00  0.00     0.043 C 
ATOM     22  C   UNL     1      -1.557  -1.032   5.289  1.00  0.00     0.043 C 
BRANCH  20  23
ATOM     23  O   UNL     1      -0.864  -2.566   3.585  1.00  0.00    -0.389 OA
ATOM     24  H   UNL     1      -0.168  -2.850   2.971  1.00  0.00     0.211 HD
ENDBRANCH  20  23
ENDBRANCH  19  20
ENDBRANCH  16  19
ENDBRANCH  13  16
ENDBRANCH   7  12
BRANCH  11  25
ATOM     25  O   UNL     1       2.811   4.659   7.080  1.00  0.00    -0.507 OA
ATOM     26  H   UNL     1       2.502   5.030   7.884  1.00  0.00     0.293 HD
ENDBRANCH  11  25
ENDBRANCH   3   6
ENDBRANCH   1   2
BRANCH   1  27
ATOM     27  C   UNL     1      -0.853   6.993   6.964  1.00  0.00     0.042 C 
BRANCH  27  28
ATOM     28  C   UNL     1      -1.760   7.425   8.103  1.00  0.00     0.118 C 
BRANCH  28  29
ATOM     29  N   UNL     1      -1.033   7.935   9.260  1.00  0.00    -0.352 N 
ATOM     30  C   UNL     1      -0.582   9.203   9.557  1.00  0.00     0.251 C 
ATOM     31  H   UNL     1      -0.829   7.258   9.945  1.00  0.00     0.163 HD
ATOM     32  O   UNL     1       0.200   9.365  10.482  1.00  0.00    -0.269 OA
BRANCH  30  33
ATOM     33  C   UNL     1      -1.005  10.348   8.724  1.00  0.00     0.039 A 
ATOM     34  C   UNL     1      -0.063  11.309   8.348  1.00  0.00     0.014 A 
ATOM     35  C   UNL     1      -2.323  10.457   8.290  1.00  0.00     0.014 A 
ATOM     36  C   UNL     1      -0.423  12.305   7.436  1.00  0.00     0.010 A 
ATOM     37  C   UNL     1      -2.644  11.362   7.289  1.00  0.00     0.010 A 
ATOM     38  C   UNL     1      -1.696  12.294   6.845  1.00  0.00    -0.014 A 
BRANCH  38  39
ATOM     39  C   UNL     1      -2.069  13.223   5.747  1.00  0.00     0.031 A 
ATOM     40  C   UNL     1      -3.259  14.131   5.905  1.00  0.00     0.074 A 
ATOM     41  C   UNL     1      -1.409  13.163   4.573  1.00  0.00     0.049 A 
ATOM     42  N   UNL     1      -3.833  14.901   5.018  1.00  0.00    -0.248 NA
ATOM     43  C   UNL     1      -3.913  14.146   7.224  1.00  0.00     0.031 C 
ATOM     44  C   UNL     1      -0.273  12.284   4.282  1.00  0.00     0.029 A 
ATOM     45  N   UNL     1      -1.608  13.841   3.396  1.00  0.00    -0.354 N 
ATOM     46  C   UNL     1      -4.923  15.473   5.664  1.00  0.00     0.074 A 
ATOM     47  C   UNL     1      -4.969  14.911   6.995  1.00  0.00     0.031 C 
ATOM     48  C   UNL     1       0.141  12.497   3.023  1.00  0.00     0.029 A 
ATOM     49  C   UNL     1      -0.733  13.483   2.397  1.00  0.00     0.049 A 
ATOM     50  H   UNL     1      -2.311  14.520   3.279  1.00  0.00     0.167 HD
ATOM     51  C   UNL     1      -5.789  16.404   5.199  1.00  0.00     0.037 A 
ATOM     52  C   UNL     1      -0.655  13.887   1.114  1.00  0.00     0.037 A 
ATOM     53  C   UNL     1      -5.717  16.973   3.879  1.00  0.00     0.049 A 
ATOM     54  C   UNL     1      -1.649  14.897   0.608  1.00  0.00     0.074 A 
ATOM     55  C   UNL     1      -6.501  17.971   3.330  1.00  0.00     0.029 A 
ATOM     56  N   UNL     1      -4.813  16.588   2.899  1.00  0.00    -0.354 N 
ATOM     57  N   UNL     1      -2.626  15.485   1.256  1.00  0.00    -0.248 NA
ATOM     58  C   UNL     1      -1.536  15.293  -0.802  1.00  0.00     0.031 C 
ATOM     59  C   UNL     1      -6.109  18.150   2.000  1.00  0.00     0.029 A 
ATOM     60  C   UNL     1      -5.044  17.302   1.736  1.00  0.00     0.049 A 
ATOM     61  H   UNL     1      -4.111  15.908   3.014  1.00  0.00     0.167 HD
ATOM     62  C   UNL     1      -3.235  16.333   0.337  1.00  0.00     0.074 A 
ATOM     63  C   UNL     1      -2.504  16.194  -0.906  1.00  0.00     0.031 C 
ATOM     64  C   UNL     1      -4.305  17.148   0.506  1.00  0.00     0.037 A 
BRANCH  51  65
ATOM     65  C   UNL     1      -6.883  16.863   6.125  1.00  0.00     0.058 A 
ATOM     66  C   UNL     1      -6.607  17.617   7.277  1.00  0.00     0.135 A 
ATOM     67  C   UNL     1      -8.227  16.562   5.849  1.00  0.00     0.135 A 
ATOM     68  F   UNL     1      -5.340  17.922   7.599  1.00  0.00    -0.206 F 
ATOM     69  C   UNL     1      -7.617  18.022   8.143  1.00  0.00     0.059 A 
ATOM     70  C   UNL     1      -9.258  16.986   6.684  1.00  0.00     0.059 A 
ATOM     71  F   UNL     1      -8.551  15.845   4.762  1.00  0.00    -0.206 F 
ATOM     72  C   UNL     1      -8.941  17.700   7.838  1.00  0.00     0.060 A 
BRANCH  72  73
ATOM     73  S   UNL     1     -10.237  18.226   8.978  1.00  0.00     0.124 S 
ATOM     74  O   UNL     1     -10.004  17.338  10.113  1.00  0.00    -0.237 OA
ATOM     75  O   UNL     1      -9.908  19.631   9.195  1.00  0.00    -0.237 OA
ATOM     76  O   UNL     1     -11.467  17.981   8.232  1.00  0.00    -0.744 OA
ENDBRANCH  72  73
ENDBRANCH  51  65
BRANCH  52  77
ATOM     77  C   UNL     1       0.408  13.343   0.226  1.00  0.00     0.058 A 
ATOM     78  C   UNL     1       1.465  14.155  -0.208  1.00  0.00     0.135 A 
ATOM     79  C   UNL     1       0.408  11.999  -0.182  1.00  0.00     0.135 A 
ATOM     80  F   UNL     1       1.506  15.449   0.147  1.00  0.00    -0.206 F 
ATOM     81  C   UNL     1       2.480  13.661  -1.021  1.00  0.00     0.059 A 
ATOM     82  C   UNL     1       1.426  11.474  -0.972  1.00  0.00     0.059 A 
ATOM     83  F   UNL     1      -0.572  11.174   0.219  1.00  0.00    -0.206 F 
ATOM     84  C   UNL     1       2.455  12.315  -1.392  1.00  0.00     0.060 A 
BRANCH  84  85
ATOM     85  S   UNL     1       3.811  11.672  -2.397  1.00  0.00     0.124 S 
ATOM     86  O   UNL     1       3.549  12.304  -3.684  1.00  0.00    -0.237 OA
ATOM     87  O   UNL     1       4.982  12.156  -1.673  1.00  0.00    -0.237 OA
ATOM     88  O   UNL     1       3.607  10.227  -2.350  1.00  0.00    -0.744 OA
ENDBRANCH  84  85
ENDBRANCH  52  77
BRANCH  64  89
ATOM     89  C   UNL     1      -4.753  17.962  -0.675  1.00  0.00     0.058 A 
ATOM     90  C   UNL     1      -5.422  17.372  -1.758  1.00  0.00     0.135 A 
ATOM     91  C   UNL     1      -4.591  19.357  -0.683  1.00  0.00     0.135 A 
ATOM     92  F   UNL     1      -5.592  16.041  -1.804  1.00  0.00    -0.206 F 
ATOM     93  C   UNL     1      -5.912  18.137  -2.811  1.00  0.00     0.059 A 
ATOM     94  C   UNL     1      -5.098  20.145  -1.712  1.00  0.00     0.059 A 
ATOM     95  F   UNL     1      -3.963  19.971   0.333  1.00  0.00    -0.206 F 
ATOM     96  C   UNL     1      -5.756  19.524  -2.773  1.00  0.00     0.060 A 
BRANCH  96  97
ATOM     97  S   UNL     1      -6.463  20.507  -4.111  1.00  0.00     0.124 S 
ATOM     98  O   UNL     1      -5.579  20.173  -5.223  1.00  0.00    -0.237 OA
ATOM     99  O   UNL     1      -7.821  19.978  -4.199  1.00  0.00    -0.237 OA
ATOM    100  O   UNL     1      -6.361  21.877  -3.619  1.00  0.00    -0.744 OA
ENDBRANCH  96  97
ENDBRANCH  64  89
ENDBRANCH  38  39
ENDBRANCH  30  33
ENDBRANCH  28  29
ENDBRANCH  27  28
ENDBRANCH   1  27
TORSDOF 20
