REMARK SMILES Cc1cc(C(=O)NCCCNC(=O)c2ccc(-c3c4nc(c(-c5c(F)cc(S(=O)(=O)[O-])cc5F)c5ccc([nH]5)c(-c5c(F)cc(S(=O)(=O)[O-])cc5F)c5nc(c(-c6c(F)cc(S(=O)(=O)[O-])cc6F)c6ccc3[nH]6)C=C5)C=C4)cc2)c([N+](=O)[O-])cc1[N+](=O)[O-]
REMARK SMILES IDX 10 1 9 2 8 3 7 4 5 5 6 6 4 8 1 9 2 10 3 11 85 12 84 13 80 14
REMARK SMILES IDX 86 15 87 16 88 17 81 18 82 19 83 20 11 21 12 22 13 24 14 25
REMARK SMILES IDX 15 26 79 27 16 28 78 29 17 30 18 31 19 32 72 33 20 34 77 35
REMARK SMILES IDX 71 36 73 37 21 38 76 39 70 40 69 41 22 43 56 44 35 45 55 46
REMARK SMILES IDX 36 47 39 48 54 49 74 50 37 51 38 52 53 54 75 55 40 56 23 57
REMARK SMILES IDX 24 58 33 59 25 60 26 61 32 62 34 63 27 64 28 65 29 66 30 67
REMARK SMILES IDX 31 68 57 69 58 70 67 71 59 72 60 73 66 74 68 75 61 76 62 77
REMARK SMILES IDX 63 78 64 79 65 80 41 81 42 82 51 83 43 84 44 85 50 86 52 87
REMARK SMILES IDX 45 88 46 89 47 90 48 91 49 92
REMARK H PARENT 7 7 11 23 73 42 39 53
REMARK Flexibility Score: inf
ROOT
ATOM      1  C   UNL     1      -6.735  -0.507   0.647  1.00  0.00     0.118 C 
ENDROOT
BRANCH   1   2
ATOM      2  C   UNL     1      -5.338   0.157   0.257  1.00  0.00     0.042 C 
BRANCH   2   3
ATOM      3  C   UNL     1      -4.020  -0.449   0.981  1.00  0.00     0.118 C 
BRANCH   3   4
ATOM      4  N   UNL     1      -3.163  -1.394   0.215  1.00  0.00    -0.352 N 
ATOM      5  C   UNL     1      -1.841  -1.543  -0.143  1.00  0.00     0.258 C 
ATOM      6  O   UNL     1      -1.393  -2.633  -0.501  1.00  0.00    -0.269 OA
ATOM      7  H   UNL     1      -3.702  -2.135  -0.144  1.00  0.00     0.163 HD
BRANCH   5   8
ATOM      8  C   UNL     1      -0.862  -0.435  -0.103  1.00  0.00     0.118 A 
ATOM      9  C   UNL     1       2.942  -0.189   0.135  1.00  0.00     0.052 C 
ATOM     10  C   UNL     1       1.512   0.294   0.127  1.00  0.00     0.028 A 
ATOM     11  C   UNL     1       0.513  -0.721   0.084  1.00  0.00     0.031 A 
ATOM     12  C   UNL     1       1.079   1.635   0.086  1.00  0.00     0.279 A 
ATOM     13  C   UNL     1      -0.272   1.918  -0.179  1.00  0.00     0.172 A 
ATOM     14  C   UNL     1      -1.192   0.879  -0.360  1.00  0.00     0.289 A 
BRANCH  12  15
ATOM     15  N   UNL     1       1.961   2.810   0.266  1.00  0.00     0.063 N 
ATOM     16  O   UNL     1       1.449   3.931   0.124  1.00  0.00    -0.258 OA
ATOM     17  O   UNL     1       3.142   2.640   0.584  1.00  0.00    -0.258 OA
ENDBRANCH  12  15
BRANCH  14  18
ATOM     18  N   UNL     1      -2.397   1.220  -1.084  1.00  0.00     0.063 N 
ATOM     19  O   UNL     1      -2.551   0.695  -2.192  1.00  0.00    -0.258 OA
ATOM     20  O   UNL     1      -3.085   2.131  -0.604  1.00  0.00    -0.258 OA
ENDBRANCH  14  18
ENDBRANCH   5   8
ENDBRANCH   3   4
ENDBRANCH   2   3
ENDBRANCH   1   2
BRANCH   1  21
ATOM     21  N   UNL     1      -8.132  -0.229  -0.025  1.00  0.00    -0.352 N 
ATOM     22  C   UNL     1      -9.365  -0.975  -0.274  1.00  0.00     0.251 C 
ATOM     23  H   UNL     1      -8.191   0.692  -0.369  1.00  0.00     0.163 HD
ATOM     24  O   UNL     1     -10.335  -0.554   0.383  1.00  0.00    -0.269 OA
BRANCH  22  25
ATOM     25  C   UNL     1      -9.755  -2.153  -1.272  1.00  0.00     0.039 A 
ATOM     26  C   UNL     1     -10.694  -3.170  -0.891  1.00  0.00     0.014 A 
ATOM     27  C   UNL     1      -9.193  -2.401  -2.518  1.00  0.00     0.014 A 
ATOM     28  C   UNL     1     -10.591  -4.531  -1.406  1.00  0.00     0.010 A 
ATOM     29  C   UNL     1      -9.078  -3.740  -3.021  1.00  0.00     0.010 A 
ATOM     30  C   UNL     1      -9.568  -4.853  -2.317  1.00  0.00    -0.014 A 
BRANCH  30  31
ATOM     31  C   UNL     1      -8.787  -6.177  -2.332  1.00  0.00     0.031 A 
ATOM     32  C   UNL     1      -8.985  -7.153  -3.397  1.00  0.00     0.074 A 
ATOM     33  C   UNL     1      -7.734  -6.582  -1.548  1.00  0.00     0.049 A 
ATOM     34  N   UNL     1      -9.203  -8.416  -3.219  1.00  0.00    -0.248 NA
ATOM     35  C   UNL     1      -8.814  -6.747  -4.779  1.00  0.00     0.031 C 
ATOM     36  C   UNL     1      -6.813  -7.736  -1.579  1.00  0.00     0.029 A 
ATOM     37  N   UNL     1      -7.162  -5.922  -0.486  1.00  0.00    -0.354 N 
ATOM     38  C   UNL     1      -8.875  -9.011  -4.420  1.00  0.00     0.074 A 
ATOM     39  C   UNL     1      -8.871  -7.931  -5.390  1.00  0.00     0.031 C 
ATOM     40  C   UNL     1      -6.152  -7.831  -0.398  1.00  0.00     0.029 A 
ATOM     41  C   UNL     1      -6.641  -6.782   0.473  1.00  0.00     0.049 A 
ATOM     42  H   UNL     1      -7.126  -4.941  -0.413  1.00  0.00     0.167 HD
ATOM     43  C   UNL     1      -8.319 -10.261  -4.484  1.00  0.00     0.037 A 
ATOM     44  C   UNL     1      -7.241  -6.835   1.709  1.00  0.00     0.037 A 
ATOM     45  C   UNL     1      -7.870 -10.742  -3.161  1.00  0.00     0.049 A 
ATOM     46  C   UNL     1      -8.018  -8.124   1.821  1.00  0.00     0.074 A 
ATOM     47  C   UNL     1      -6.625 -11.000  -2.599  1.00  0.00     0.029 A 
ATOM     48  N   UNL     1      -8.747 -10.750  -2.088  1.00  0.00    -0.354 N 
ATOM     49  N   UNL     1      -7.820  -9.133   1.024  1.00  0.00    -0.248 NA
ATOM     50  C   UNL     1      -9.123  -8.365   2.747  1.00  0.00     0.031 C 
ATOM     51  C   UNL     1      -6.780 -11.182  -1.192  1.00  0.00     0.029 A 
ATOM     52  C   UNL     1      -8.122 -11.057  -0.891  1.00  0.00     0.049 A 
ATOM     53  H   UNL     1      -9.710 -10.558  -2.169  1.00  0.00     0.167 HD
ATOM     54  C   UNL     1      -8.812 -10.051   1.177  1.00  0.00     0.074 A 
ATOM     55  C   UNL     1      -9.574  -9.558   2.314  1.00  0.00     0.031 C 
ATOM     56  C   UNL     1      -8.935 -11.108   0.321  1.00  0.00     0.037 A 
BRANCH  43  57
ATOM     57  C   UNL     1      -7.902 -10.906  -5.803  1.00  0.00     0.058 A 
ATOM     58  C   UNL     1      -6.992 -11.982  -5.859  1.00  0.00     0.135 A 
ATOM     59  C   UNL     1      -8.430 -10.537  -7.063  1.00  0.00     0.135 A 
ATOM     60  F   UNL     1      -6.524 -12.564  -4.747  1.00  0.00    -0.206 F 
ATOM     61  C   UNL     1      -6.556 -12.553  -7.059  1.00  0.00     0.059 A 
ATOM     62  C   UNL     1      -7.950 -11.030  -8.279  1.00  0.00     0.059 A 
ATOM     63  F   UNL     1      -9.506  -9.742  -7.165  1.00  0.00    -0.206 F 
ATOM     64  C   UNL     1      -7.016 -12.050  -8.268  1.00  0.00     0.060 A 
BRANCH  64  65
ATOM     65  S   UNL     1      -6.474 -12.815  -9.807  1.00  0.00     0.124 S 
ATOM     66  O   UNL     1      -5.021 -12.712  -9.712  1.00  0.00    -0.237 OA
ATOM     67  O   UNL     1      -7.026 -14.160  -9.686  1.00  0.00    -0.237 OA
ATOM     68  O   UNL     1      -7.087 -11.981 -10.838  1.00  0.00    -0.744 OA
ENDBRANCH  64  65
ENDBRANCH  43  57
BRANCH  44  69
ATOM     69  C   UNL     1      -7.702  -5.475   2.308  1.00  0.00     0.058 A 
ATOM     70  C   UNL     1      -6.642  -4.590   2.592  1.00  0.00     0.135 A 
ATOM     71  C   UNL     1      -8.701  -4.885   1.557  1.00  0.00     0.135 A 
ATOM     72  F   UNL     1      -5.961  -4.719   3.737  1.00  0.00    -0.206 F 
ATOM     73  C   UNL     1      -6.212  -3.636   1.664  1.00  0.00     0.059 A 
ATOM     74  C   UNL     1      -8.264  -3.966   0.596  1.00  0.00     0.059 A 
ATOM     75  F   UNL     1      -9.858  -5.539   1.350  1.00  0.00    -0.206 F 
ATOM     76  C   UNL     1      -6.971  -3.492   0.521  1.00  0.00     0.060 A 
BRANCH  76  77
ATOM     77  S   UNL     1      -6.103  -3.063  -1.209  1.00  0.00     0.124 S 
ATOM     78  O   UNL     1      -4.732  -2.983  -0.751  1.00  0.00    -0.237 OA
ATOM     79  O   UNL     1      -6.331  -4.222  -2.074  1.00  0.00    -0.237 OA
ATOM     80  O   UNL     1      -6.668  -1.833  -1.696  1.00  0.00    -0.744 OA
ENDBRANCH  76  77
ENDBRANCH  44  69
BRANCH  56  81
ATOM     81  C   UNL     1      -9.877 -12.261   0.533  1.00  0.00     0.058 A 
ATOM     82  C   UNL     1     -10.211 -12.739   1.811  1.00  0.00     0.135 A 
ATOM     83  C   UNL     1     -10.372 -13.025  -0.550  1.00  0.00     0.135 A 
ATOM     84  F   UNL     1      -9.672 -12.205   2.917  1.00  0.00    -0.206 F 
ATOM     85  C   UNL     1     -11.078 -13.814   1.999  1.00  0.00     0.059 A 
ATOM     86  C   UNL     1     -11.199 -14.126  -0.386  1.00  0.00     0.059 A 
ATOM     87  F   UNL     1     -10.080 -12.742  -1.825  1.00  0.00    -0.206 F 
ATOM     88  C   UNL     1     -11.580 -14.491   0.892  1.00  0.00     0.060 A 
BRANCH  88  89
ATOM     89  S   UNL     1     -12.707 -15.867   1.133  1.00  0.00     0.124 S 
ATOM     90  O   UNL     1     -12.067 -16.609   2.214  1.00  0.00    -0.237 OA
ATOM     91  O   UNL     1     -13.941 -15.171   1.486  1.00  0.00    -0.237 OA
ATOM     92  O   UNL     1     -12.712 -16.538  -0.163  1.00  0.00    -0.744 OA
ENDBRANCH  88  89
ENDBRANCH  56  81
ENDBRANCH  30  31
ENDBRANCH  22  25
ENDBRANCH   1  21
TORSDOF 15
