REMARK SMILES NC(=O)[C@@H]1CCC[N@@H+]1[C@@H](C(=O)NCCCNC(=O)c1ccc(-c2c3nc(c(-c4c(F)cc(S(=O)(=O)[O-])cc4F)c4ccc([nH]4)c(-c4c(F)cc(S(=O)(=O)[O-])cc4F)c4nc(c(-c5c(F)cc(S(=O)(=O)[O-])cc5F)c5ccc2[nH]5)C=C4)C=C3)cc1)c1c[nH]c2cc(OCc3ccccc3)ccc12
REMARK SMILES IDX 13 1 12 2 10 3 11 4 9 6 8 7 4 8 5 9 6 10 7 11 2 13 1 14 3 17
REMARK SMILES IDX 85 18 86 19 101 20 87 21 88 22 100 23 89 25 99 26 90 27
REMARK SMILES IDX 91 28 92 29 93 30 94 31 98 32 95 33 97 34 96 35 14 36 15 37
REMARK SMILES IDX 16 38 17 39 18 41 19 42 20 43 84 44 21 45 83 46 22 47 23 48
REMARK SMILES IDX 24 49 77 50 25 51 82 52 76 53 78 54 26 55 81 56 75 57 74 58
REMARK SMILES IDX 27 60 61 61 40 62 60 63 41 64 44 65 59 66 79 67 42 68 43 69
REMARK SMILES IDX 58 71 80 72 45 73 28 74 29 75 38 76 30 77 31 78 37 79 39 80
REMARK SMILES IDX 32 81 33 82 34 83 35 84 36 85 62 86 63 87 72 88 64 89 65 90
REMARK SMILES IDX 71 91 73 92 66 93 67 94 68 95 69 96 70 97 46 98 47 99 56 100
REMARK SMILES IDX 48 101 49 102 55 103 57 104 50 105 51 106 52 107 53 108
REMARK SMILES IDX 54 109
REMARK H PARENT 12 5 8 12 1 15 1 16 87 24 16 40 78 59 44 70
REMARK Flexibility Score: inf
ROOT
ATOM      1  C   UNL     1      -1.948  -2.034   0.630  1.00  0.00     0.118 C 
ENDROOT
BRANCH   1   2
ATOM      2  N   UNL     1      -1.900  -3.098   1.617  1.00  0.00    -0.351 N 
ATOM      3  C   UNL     1      -1.430  -3.268   2.885  1.00  0.00     0.283 C 
ATOM      4  O   UNL     1      -1.525  -4.449   3.239  1.00  0.00    -0.268 OA
ATOM      5  H   UNL     1      -2.322  -3.920   1.278  1.00  0.00     0.163 HD
BRANCH   3   6
ATOM      6  C   UNL     1      -0.836  -2.141   3.784  1.00  0.00     0.308 C 
BRANCH   6   7
ATOM      7  N   UNL     1       0.665  -1.986   3.694  1.00  0.00    -0.311 N 
ATOM      8  C   UNL     1       1.325  -1.562   2.453  1.00  0.00     0.275 C 
ATOM      9  C   UNL     1       1.577  -2.862   1.698  1.00  0.00     0.081 C 
ATOM     10  C   UNL     1       1.777  -3.905   2.783  1.00  0.00     0.068 C 
ATOM     11  C   UNL     1       1.453  -3.175   4.069  1.00  0.00     0.264 C 
ATOM     12  H   UNL     1       0.677  -1.212   4.358  1.00  0.00     0.349 HD
BRANCH   8  13
ATOM     13  C   UNL     1       0.739  -0.352   1.726  1.00  0.00     0.275 C 
ATOM     14  N   UNL     1       1.365  -0.028   0.552  1.00  0.00    -0.365 N 
ATOM     15  H   UNL     1       1.050   0.739   0.021  1.00  0.00     0.159 HD
ATOM     16  H   UNL     1       2.131  -0.562   0.239  1.00  0.00     0.159 HD
ATOM     17  O   UNL     1      -0.161   0.372   2.141  1.00  0.00    -0.268 OA
ENDBRANCH   8  13
ENDBRANCH   6   7
BRANCH   6  18
ATOM     18  C   UNL     1      -1.074  -2.323   5.332  1.00  0.00     0.044 A 
ATOM     19  C   UNL     1      -0.662  -1.363   6.259  1.00  0.00     0.094 A 
ATOM     20  C   UNL     1      -1.167  -3.542   6.110  1.00  0.00     0.009 A 
ATOM     21  N   UNL     1       0.075  -2.059   7.194  1.00  0.00    -0.361 N 
ATOM     22  C   UNL     1      -0.119  -3.407   7.023  1.00  0.00     0.050 A 
ATOM     23  C   UNL     1      -1.718  -4.833   5.947  1.00  0.00     0.015 A 
ATOM     24  H   UNL     1       0.652  -1.651   7.880  1.00  0.00     0.166 HD
ATOM     25  C   UNL     1       0.616  -4.509   7.468  1.00  0.00     0.073 A 
ATOM     26  C   UNL     1      -1.063  -5.953   6.486  1.00  0.00     0.047 A 
ATOM     27  C   UNL     1       0.144  -5.790   7.153  1.00  0.00     0.121 A 
BRANCH  27  28
ATOM     28  O   UNL     1       1.019  -6.815   7.399  1.00  0.00    -0.489 OA
BRANCH  28  29
ATOM     29  C   UNL     1       0.503  -7.948   8.102  1.00  0.00     0.265 C 
BRANCH  29  30
ATOM     30  C   UNL     1       0.765  -7.861   9.593  1.00  0.00    -0.011 A 
ATOM     31  C   UNL     1       0.550  -8.985  10.401  1.00  0.00     0.007 A 
ATOM     32  C   UNL     1       1.195  -6.678  10.210  1.00  0.00     0.007 A 
ATOM     33  C   UNL     1       0.743  -8.911  11.783  1.00  0.00     0.000 A 
ATOM     34  C   UNL     1       1.376  -6.597  11.587  1.00  0.00     0.000 A 
ATOM     35  C   UNL     1       1.147  -7.715  12.376  1.00  0.00     0.000 A 
ENDBRANCH  29  30
ENDBRANCH  28  29
ENDBRANCH  27  28
ENDBRANCH   6  18
ENDBRANCH   3   6
ENDBRANCH   1   2
BRANCH   1  36
ATOM     36  C   UNL     1      -1.016  -2.252  -0.582  1.00  0.00     0.042 C 
BRANCH  36  37
ATOM     37  C   UNL     1      -0.959  -3.675  -1.162  1.00  0.00     0.118 C 
BRANCH  37  38
ATOM     38  N   UNL     1      -1.576  -3.727  -2.473  1.00  0.00    -0.352 N 
ATOM     39  C   UNL     1      -1.106  -4.268  -3.644  1.00  0.00     0.251 C 
ATOM     40  H   UNL     1      -2.467  -3.313  -2.532  1.00  0.00     0.163 HD
ATOM     41  O   UNL     1      -1.647  -3.941  -4.699  1.00  0.00    -0.269 OA
BRANCH  39  42
ATOM     42  C   UNL     1       0.023  -5.235  -3.671  1.00  0.00     0.039 A 
ATOM     43  C   UNL     1       0.909  -5.190  -4.755  1.00  0.00     0.014 A 
ATOM     44  C   UNL     1       0.144  -6.263  -2.730  1.00  0.00     0.014 A 
ATOM     45  C   UNL     1       1.904  -6.165  -4.900  1.00  0.00     0.010 A 
ATOM     46  C   UNL     1       1.163  -7.217  -2.856  1.00  0.00     0.010 A 
ATOM     47  C   UNL     1       2.039  -7.192  -3.954  1.00  0.00    -0.014 A 
BRANCH  47  48
ATOM     48  C   UNL     1       3.065  -8.258  -4.128  1.00  0.00     0.031 A 
ATOM     49  C   UNL     1       2.649  -9.675  -4.435  1.00  0.00     0.074 A 
ATOM     50  C   UNL     1       4.373  -7.964  -3.988  1.00  0.00     0.049 A 
ATOM     51  N   UNL     1       3.392 -10.744  -4.581  1.00  0.00    -0.248 NA
ATOM     52  C   UNL     1       1.207  -9.926  -4.580  1.00  0.00     0.031 C 
ATOM     53  C   UNL     1       4.910  -6.641  -3.668  1.00  0.00     0.029 A 
ATOM     54  N   UNL     1       5.488  -8.760  -4.086  1.00  0.00    -0.354 N 
ATOM     55  C   UNL     1       2.511 -11.794  -4.818  1.00  0.00     0.074 A 
ATOM     56  C   UNL     1       1.175 -11.239  -4.761  1.00  0.00     0.031 C 
ATOM     57  C   UNL     1       6.249  -6.714  -3.602  1.00  0.00     0.029 A 
ATOM     58  C   UNL     1       6.667  -8.092  -3.847  1.00  0.00     0.049 A 
ATOM     59  H   UNL     1       5.448  -9.719  -4.306  1.00  0.00     0.167 HD
ATOM     60  C   UNL     1       2.788 -13.096  -5.076  1.00  0.00     0.037 A 
ATOM     61  C   UNL     1       7.939  -8.538  -3.820  1.00  0.00     0.037 A 
ATOM     62  C   UNL     1       4.119 -13.642  -5.160  1.00  0.00     0.049 A 
ATOM     63  C   UNL     1       8.223  -9.986  -4.113  1.00  0.00     0.074 A 
ATOM     64  C   UNL     1       4.501 -14.936  -5.473  1.00  0.00     0.029 A 
ATOM     65  N   UNL     1       5.285 -12.928  -4.930  1.00  0.00    -0.354 N 
ATOM     66  N   UNL     1       7.379 -10.951  -4.389  1.00  0.00    -0.248 NA
ATOM     67  C   UNL     1       9.632 -10.405  -4.101  1.00  0.00     0.031 C 
ATOM     68  C   UNL     1       5.896 -15.013  -5.395  1.00  0.00     0.029 A 
ATOM     69  C   UNL     1       6.386 -13.757  -5.076  1.00  0.00     0.049 A 
ATOM     70  H   UNL     1       5.325 -11.972  -4.697  1.00  0.00     0.167 HD
ATOM     71  C   UNL     1       8.155 -12.085  -4.605  1.00  0.00     0.074 A 
ATOM     72  C   UNL     1       9.537 -11.683  -4.439  1.00  0.00     0.031 C 
ATOM     73  C   UNL     1       7.758 -13.344  -4.913  1.00  0.00     0.037 A 
BRANCH  60  74
ATOM     74  C   UNL     1       1.626 -14.029  -5.288  1.00  0.00     0.058 A 
ATOM     75  C   UNL     1       0.843 -13.979  -6.453  1.00  0.00     0.135 A 
ATOM     76  C   UNL     1       1.316 -15.014  -4.335  1.00  0.00     0.135 A 
ATOM     77  F   UNL     1       1.088 -13.052  -7.392  1.00  0.00    -0.206 F 
ATOM     78  C   UNL     1      -0.224 -14.850  -6.651  1.00  0.00     0.059 A 
ATOM     79  C   UNL     1       0.269 -15.912  -4.525  1.00  0.00     0.059 A 
ATOM     80  F   UNL     1       2.035 -15.111  -3.206  1.00  0.00    -0.206 F 
ATOM     81  C   UNL     1      -0.505 -15.811  -5.679  1.00  0.00     0.060 A 
BRANCH  81  82
ATOM     82  S   UNL     1      -1.894 -16.933  -5.952  1.00  0.00     0.124 S 
ATOM     83  O   UNL     1      -3.031 -16.056  -5.691  1.00  0.00    -0.237 OA
ATOM     84  O   UNL     1      -1.707 -17.334  -7.341  1.00  0.00    -0.237 OA
ATOM     85  O   UNL     1      -1.677 -17.988  -4.964  1.00  0.00    -0.744 OA
ENDBRANCH  81  82
ENDBRANCH  60  74
BRANCH  61  86
ATOM     86  C   UNL     1       9.046  -7.592  -3.517  1.00  0.00     0.058 A 
ATOM     87  C   UNL     1       9.935  -7.177  -4.518  1.00  0.00     0.135 A 
ATOM     88  C   UNL     1       9.223  -7.071  -2.226  1.00  0.00     0.135 A 
ATOM     89  F   UNL     1       9.811  -7.655  -5.765  1.00  0.00    -0.206 F 
ATOM     90  C   UNL     1      10.969  -6.285  -4.250  1.00  0.00     0.059 A 
ATOM     91  C   UNL     1      10.235  -6.160  -1.938  1.00  0.00     0.059 A 
ATOM     92  F   UNL     1       8.389  -7.425  -1.236  1.00  0.00    -0.206 F 
ATOM     93  C   UNL     1      11.108  -5.779  -2.957  1.00  0.00     0.060 A 
BRANCH  93  94
ATOM     94  S   UNL     1      12.411  -4.571  -2.632  1.00  0.00     0.124 S 
ATOM     95  O   UNL     1      13.597  -5.418  -2.605  1.00  0.00    -0.237 OA
ATOM     96  O   UNL     1      12.291  -3.674  -3.778  1.00  0.00    -0.237 OA
ATOM     97  O   UNL     1      12.017  -3.991  -1.351  1.00  0.00    -0.744 OA
ENDBRANCH  93  94
ENDBRANCH  61  86
BRANCH  73  98
ATOM     98  C   UNL     1       8.831 -14.377  -5.121  1.00  0.00     0.058 A 
ATOM     99  C   UNL     1       9.546 -14.923  -4.044  1.00  0.00     0.135 A 
ATOM    100  C   UNL     1       9.112 -14.862  -6.409  1.00  0.00     0.135 A 
ATOM    101  F   UNL     1       9.320 -14.490  -2.794  1.00  0.00    -0.206 F 
ATOM    102  C   UNL     1      10.518 -15.900  -4.239  1.00  0.00     0.059 A 
ATOM    103  C   UNL     1      10.063 -15.855  -6.624  1.00  0.00     0.059 A 
ATOM    104  F   UNL     1       8.450 -14.380  -7.472  1.00  0.00    -0.206 F 
ATOM    105  C   UNL     1      10.769 -16.360  -5.533  1.00  0.00     0.060 A 
BRANCH 105 106
ATOM    106  S   UNL     1      12.010 -17.650  -5.770  1.00  0.00     0.124 S 
ATOM    107  O   UNL     1      13.250 -16.896  -5.623  1.00  0.00    -0.237 OA
ATOM    108  O   UNL     1      11.703 -18.583  -4.690  1.00  0.00    -0.237 OA
ATOM    109  O   UNL     1      11.731 -18.146  -7.115  1.00  0.00    -0.744 OA
ENDBRANCH 105 106
ENDBRANCH  73  98
ENDBRANCH  47  48
ENDBRANCH  39  42
ENDBRANCH  37  38
ENDBRANCH  36  37
ENDBRANCH   1  36
TORSDOF 19
