REMARK SMILES COc1ccccc1C(=O)N1[C@@H](C(=O)NCCCNC(=O)c2ccc(-c3c4nc(c(-c5c(F)cc(S(=O)(=O)[O-])cc5F)c5ccc([nH]5)c(-c5c(F)cc(S(=O)(=O)[O-])cc5F)c5nc(c(-c6c(F)cc(S(=O)(=O)[O-])cc6F)c6ccc3[nH]6)C=C5)C=C4)cc2)COC12CC[NH+](Cc1ccccc1)CC2
REMARK SMILES IDX 17 1 16 2 15 3 13 4 14 5 12 7 11 8 90 9 88 10 89 11 91 12
REMARK SMILES IDX 102 13 92 14 101 15 93 16 9 18 10 19 8 20 3 21 4 22 5 23
REMARK SMILES IDX 7 24 6 25 2 26 1 27 94 28 95 29 96 30 100 31 97 32 99 33
REMARK SMILES IDX 98 34 18 35 19 36 20 37 21 39 22 40 23 41 87 42 24 43 86 44
REMARK SMILES IDX 25 45 26 46 27 47 80 48 28 49 85 50 79 51 81 52 29 53 84 54
REMARK SMILES IDX 78 55 77 56 30 58 64 59 43 60 63 61 44 62 47 63 62 64 82 65
REMARK SMILES IDX 45 66 46 67 61 69 83 70 48 71 31 72 32 73 41 74 33 75 34 76
REMARK SMILES IDX 40 77 42 78 35 79 36 80 37 81 38 82 39 83 65 84 66 85 75 86
REMARK SMILES IDX 67 87 68 88 74 89 76 90 69 91 70 92 71 93 72 94 73 95 49 96
REMARK SMILES IDX 50 97 59 98 51 99 52 100 58 101 60 102 53 103 54 104 55 105
REMARK SMILES IDX 56 106 57 107
REMARK H PARENT 15 6 93 17 19 38 81 57 47 68
REMARK Flexibility Score: inf
ROOT
ATOM      1  C   UNL     1      -0.358  -3.593   1.322  1.00  0.00     0.042 C 
ENDROOT
BRANCH   1   2
ATOM      2  C   UNL     1       0.045  -2.194   1.743  1.00  0.00     0.117 C 
BRANCH   2   3
ATOM      3  N   UNL     1       1.094  -2.121   2.726  1.00  0.00    -0.354 N 
ATOM      4  C   UNL     1       2.285  -1.463   2.617  1.00  0.00     0.245 C 
ATOM      5  O   UNL     1       2.827  -1.112   3.671  1.00  0.00    -0.273 OA
ATOM      6  H   UNL     1       0.934  -2.599   3.572  1.00  0.00     0.163 HD
BRANCH   4   7
ATOM      7  C   UNL     1       2.949  -1.185   1.254  1.00  0.00     0.203 C 
ATOM      8  N   UNL     1       2.350  -0.141   0.422  1.00  0.00    -0.295 N 
ATOM      9  C   UNL     1       2.095  -0.716  -0.917  1.00  0.00     0.155 C 
ATOM     10  C   UNL     1       3.006  -2.413   0.373  1.00  0.00     0.198 C 
ATOM     11  O   UNL     1       2.071  -2.150  -0.685  1.00  0.00    -0.352 OA
ATOM     12  C   UNL     1       0.733  -0.311  -1.492  1.00  0.00     0.120 C 
ATOM     13  C   UNL     1       3.204  -0.449  -1.954  1.00  0.00     0.120 C 
ATOM     14  C   UNL     1       0.472  -0.902  -2.869  1.00  0.00     0.267 C 
ATOM     15  C   UNL     1       2.839  -0.977  -3.351  1.00  0.00     0.267 C 
ATOM     16  N   UNL     1       1.516  -0.593  -3.834  1.00  0.00    -0.331 N 
ATOM     17  H   UNL     1       1.363  -1.211  -4.631  1.00  0.00     0.348 HD
BRANCH   8  18
ATOM     18  C   UNL     1       2.925   1.125   0.551  1.00  0.00     0.260 C 
ATOM     19  O   UNL     1       4.153   1.243   0.480  1.00  0.00    -0.269 OA
BRANCH  18  20
ATOM     20  C   UNL     1       2.115   2.350   0.873  1.00  0.00     0.082 A 
ATOM     21  C   UNL     1       0.724   2.489   0.871  1.00  0.00     0.131 A 
ATOM     22  C   UNL     1       0.123   3.747   1.081  1.00  0.00     0.047 A 
ATOM     23  C   UNL     1       0.889   4.859   1.412  1.00  0.00     0.004 A 
ATOM     24  C   UNL     1       2.867   3.492   1.231  1.00  0.00     0.018 A 
ATOM     25  C   UNL     1       2.265   4.725   1.513  1.00  0.00     0.001 A 
BRANCH  21  26
ATOM     26  O   UNL     1      -0.125   1.448   0.627  1.00  0.00    -0.496 OA
ATOM     27  C   UNL     1      -0.769   1.049   1.835  1.00  0.00     0.278 C 
ENDBRANCH  21  26
ENDBRANCH  18  20
ENDBRANCH   8  18
BRANCH  16  28
ATOM     28  C   UNL     1       1.381   0.681  -4.550  1.00  0.00     0.299 C 
BRANCH  28  29
ATOM     29  C   UNL     1       1.877   1.937  -3.868  1.00  0.00     0.006 A 
ATOM     30  C   UNL     1       1.003   2.781  -3.169  1.00  0.00     0.009 A 
ATOM     31  C   UNL     1       3.241   2.268  -3.903  1.00  0.00     0.009 A 
ATOM     32  C   UNL     1       1.494   3.882  -2.463  1.00  0.00     0.001 A 
ATOM     33  C   UNL     1       3.734   3.349  -3.172  1.00  0.00     0.001 A 
ATOM     34  C   UNL     1       2.861   4.151  -2.445  1.00  0.00     0.000 A 
ENDBRANCH  28  29
ENDBRANCH  16  28
ENDBRANCH   4   7
ENDBRANCH   2   3
ENDBRANCH   1   2
BRANCH   1  35
ATOM     35  C   UNL     1      -1.799  -3.885   1.717  1.00  0.00     0.118 C 
BRANCH  35  36
ATOM     36  N   UNL     1      -2.770  -2.941   1.159  1.00  0.00    -0.352 N 
ATOM     37  C   UNL     1      -4.058  -3.165   0.734  1.00  0.00     0.251 C 
ATOM     38  H   UNL     1      -2.455  -2.012   1.076  1.00  0.00     0.163 HD
ATOM     39  O   UNL     1      -4.723  -2.246   0.264  1.00  0.00    -0.269 OA
BRANCH  37  40
ATOM     40  C   UNL     1      -4.596  -4.536   0.789  1.00  0.00     0.039 A 
ATOM     41  C   UNL     1      -5.190  -5.073  -0.354  1.00  0.00     0.014 A 
ATOM     42  C   UNL     1      -4.395  -5.321   1.924  1.00  0.00     0.014 A 
ATOM     43  C   UNL     1      -5.483  -6.436  -0.393  1.00  0.00     0.010 A 
ATOM     44  C   UNL     1      -4.571  -6.692   1.837  1.00  0.00     0.010 A 
ATOM     45  C   UNL     1      -5.115  -7.266   0.678  1.00  0.00    -0.014 A 
BRANCH  45  46
ATOM     46  C   UNL     1      -5.285  -8.738   0.623  1.00  0.00     0.031 A 
ATOM     47  C   UNL     1      -6.112  -9.425   1.675  1.00  0.00     0.074 A 
ATOM     48  C   UNL     1      -4.612  -9.457  -0.298  1.00  0.00     0.049 A 
ATOM     49  N   UNL     1      -6.265 -10.703   1.903  1.00  0.00    -0.248 NA
ATOM     50  C   UNL     1      -6.818  -8.558   2.635  1.00  0.00     0.031 C 
ATOM     51  C   UNL     1      -3.715  -8.909  -1.320  1.00  0.00     0.029 A 
ATOM     52  N   UNL     1      -4.568 -10.811  -0.517  1.00  0.00    -0.354 N 
ATOM     53  C   UNL     1      -7.045 -10.789   3.050  1.00  0.00     0.074 A 
ATOM     54  C   UNL     1      -7.278  -9.438   3.509  1.00  0.00     0.031 C 
ATOM     55  C   UNL     1      -3.241  -9.912  -2.077  1.00  0.00     0.029 A 
ATOM     56  C   UNL     1      -3.764 -11.175  -1.572  1.00  0.00     0.049 A 
ATOM     57  H   UNL     1      -5.066 -11.461   0.030  1.00  0.00     0.167 HD
ATOM     58  C   UNL     1      -7.551 -11.893   3.647  1.00  0.00     0.037 A 
ATOM     59  C   UNL     1      -3.482 -12.394  -2.071  1.00  0.00     0.037 A 
ATOM     60  C   UNL     1      -7.373 -13.225   3.137  1.00  0.00     0.049 A 
ATOM     61  C   UNL     1      -4.107 -13.602  -1.430  1.00  0.00     0.074 A 
ATOM     62  C   UNL     1      -7.917 -14.406   3.607  1.00  0.00     0.029 A 
ATOM     63  N   UNL     1      -6.603 -13.548   2.029  1.00  0.00    -0.354 N 
ATOM     64  N   UNL     1      -4.896 -13.662  -0.383  1.00  0.00    -0.248 NA
ATOM     65  C   UNL     1      -3.810 -14.906  -2.037  1.00  0.00     0.031 C 
ATOM     66  C   UNL     1      -7.454 -15.449   2.797  1.00  0.00     0.029 A 
ATOM     67  C   UNL     1      -6.650 -14.912   1.804  1.00  0.00     0.049 A 
ATOM     68  H   UNL     1      -6.098 -12.902   1.485  1.00  0.00     0.167 HD
ATOM     69  C   UNL     1      -5.205 -15.007  -0.217  1.00  0.00     0.074 A 
ATOM     70  C   UNL     1      -4.530 -15.724  -1.281  1.00  0.00     0.031 C 
ATOM     71  C   UNL     1      -5.975 -15.597   0.730  1.00  0.00     0.037 A 
BRANCH  58  72
ATOM     72  C   UNL     1      -8.364 -11.693   4.895  1.00  0.00     0.058 A 
ATOM     73  C   UNL     1      -9.630 -11.086   4.860  1.00  0.00     0.135 A 
ATOM     74  C   UNL     1      -7.875 -12.114   6.142  1.00  0.00     0.135 A 
ATOM     75  F   UNL     1     -10.137 -10.647   3.697  1.00  0.00    -0.206 F 
ATOM     76  C   UNL     1     -10.365 -10.867   6.019  1.00  0.00     0.059 A 
ATOM     77  C   UNL     1      -8.607 -11.931   7.312  1.00  0.00     0.059 A 
ATOM     78  F   UNL     1      -6.670 -12.698   6.234  1.00  0.00    -0.206 F 
ATOM     79  C   UNL     1      -9.842 -11.289   7.242  1.00  0.00     0.060 A 
BRANCH  79  80
ATOM     80  S   UNL     1     -10.805 -10.990   8.740  1.00  0.00     0.124 S 
ATOM     81  O   UNL     1     -10.587  -9.561   8.943  1.00  0.00    -0.237 OA
ATOM     82  O   UNL     1     -12.152 -11.373   8.329  1.00  0.00    -0.237 OA
ATOM     83  O   UNL     1     -10.180 -11.867   9.725  1.00  0.00    -0.744 OA
ENDBRANCH  79  80
ENDBRANCH  58  72
BRANCH  59  84
ATOM     84  C   UNL     1      -2.599 -12.527  -3.261  1.00  0.00     0.058 A 
ATOM     85  C   UNL     1      -3.132 -12.873  -4.512  1.00  0.00     0.135 A 
ATOM     86  C   UNL     1      -1.218 -12.293  -3.180  1.00  0.00     0.135 A 
ATOM     87  F   UNL     1      -4.447 -13.108  -4.638  1.00  0.00    -0.206 F 
ATOM     88  C   UNL     1      -2.326 -12.999  -5.638  1.00  0.00     0.059 A 
ATOM     89  C   UNL     1      -0.394 -12.393  -4.298  1.00  0.00     0.059 A 
ATOM     90  F   UNL     1      -0.662 -11.940  -2.011  1.00  0.00    -0.206 F 
ATOM     91  C   UNL     1      -0.956 -12.756  -5.521  1.00  0.00     0.060 A 
BRANCH  91  92
ATOM     92  S   UNL     1       0.074 -12.877  -7.000  1.00  0.00     0.124 S 
ATOM     93  O   UNL     1       0.163 -14.322  -7.178  1.00  0.00    -0.237 OA
ATOM     94  O   UNL     1      -0.723 -12.159  -7.990  1.00  0.00    -0.237 OA
ATOM     95  O   UNL     1       1.311 -12.212  -6.601  1.00  0.00    -0.744 OA
ENDBRANCH  91  92
ENDBRANCH  59  84
BRANCH  71  96
ATOM     96  C   UNL     1      -6.146 -17.085   0.647  1.00  0.00     0.058 A 
ATOM     97  C   UNL     1      -5.121 -17.962   1.030  1.00  0.00     0.135 A 
ATOM     98  C   UNL     1      -7.372 -17.638   0.242  1.00  0.00     0.135 A 
ATOM     99  F   UNL     1      -3.929 -17.481   1.418  1.00  0.00    -0.206 F 
ATOM    100  C   UNL     1      -5.299 -19.341   1.000  1.00  0.00     0.059 A 
ATOM    101  C   UNL     1      -7.580 -19.012   0.227  1.00  0.00     0.059 A 
ATOM    102  F   UNL     1      -8.386 -16.838  -0.124  1.00  0.00    -0.206 F 
ATOM    103  C   UNL     1      -6.534 -19.856   0.599  1.00  0.00     0.060 A 
BRANCH 103 104
ATOM    104  S   UNL     1      -6.769 -21.645   0.609  1.00  0.00     0.124 S 
ATOM    105  O   UNL     1      -6.035 -22.044  -0.588  1.00  0.00    -0.237 OA
ATOM    106  O   UNL     1      -6.168 -22.034   1.881  1.00  0.00    -0.237 OA
ATOM    107  O   UNL     1      -8.219 -21.797   0.537  1.00  0.00    -0.744 OA
ENDBRANCH 103 104
ENDBRANCH  71  96
ENDBRANCH  45  46
ENDBRANCH  37  40
ENDBRANCH  35  36
ENDBRANCH   1  35
TORSDOF 18
