REMARK SMILES O=C(NCCCNC(=O)C1(Cc2ccccc2Cl)CCN(c2ncnc3[nH]ccc23)CC1)c1ccc(-c2c3nc(c(-c4c(F)cc(S(=O)(=O)[O-])cc4F)c4ccc([nH]4)c(-c4c(F)cc(S(=O)(=O)[O-])cc4F)c4nc(c(-c5c(F)cc(S(=O)(=O)[O-])cc5F)c5ccc2[nH]5)C=C4)C=C3)cc1
REMARK SMILES IDX 4 1 3 2 1 3 2 4 33 6 34 7 98 8 35 9 97 10 36 11 37 12 38 13
REMARK SMILES IDX 91 14 39 15 96 16 90 17 92 18 40 19 95 20 89 21 88 22 41 24
REMARK SMILES IDX 75 25 54 26 74 27 55 28 58 29 73 30 93 31 56 32 57 33 72 35
REMARK SMILES IDX 94 36 59 37 42 38 43 39 52 40 44 41 45 42 51 43 53 44 46 45
REMARK SMILES IDX 47 46 48 47 49 48 50 49 76 50 77 51 86 52 78 53 79 54 85 55
REMARK SMILES IDX 87 56 80 57 81 58 82 59 83 60 84 61 60 62 61 63 70 64 62 65
REMARK SMILES IDX 63 66 69 67 71 68 64 69 65 70 66 71 67 72 68 73 5 74 6 75
REMARK SMILES IDX 7 76 8 77 9 79 10 80 19 81 32 82 20 83 31 84 21 85 11 86
REMARK SMILES IDX 12 87 13 88 17 89 14 90 16 91 18 92 15 93 22 94 23 95 30 96
REMARK SMILES IDX 24 97 26 98 29 99 25 100 27 101 28 102
REMARK H PARENT 3 5 92 23 58 34 7 78 27 103
REMARK Flexibility Score: inf
ROOT
ATOM      1  C   UNL     1       4.145   0.884   1.429  1.00  0.00     0.118 C 
ENDROOT
BRANCH   1   2
ATOM      2  N   UNL     1       2.797   0.424   1.148  1.00  0.00    -0.352 N 
ATOM      3  O   UNL     1       1.030  -0.165  -0.094  1.00  0.00    -0.269 OA
ATOM      4  C   UNL     1       2.255  -0.079  -0.007  1.00  0.00     0.251 C 
ATOM      5  H   UNL     1       2.173   0.482   1.908  1.00  0.00     0.163 HD
BRANCH   4   6
ATOM      6  C   UNL     1       3.099  -0.517  -1.147  1.00  0.00     0.039 A 
ATOM      7  C   UNL     1       4.246  -1.295  -0.960  1.00  0.00     0.014 A 
ATOM      8  C   UNL     1       2.654  -0.253  -2.448  1.00  0.00     0.014 A 
ATOM      9  C   UNL     1       4.977  -1.748  -2.063  1.00  0.00     0.010 A 
ATOM     10  C   UNL     1       3.354  -0.754  -3.552  1.00  0.00     0.010 A 
ATOM     11  C   UNL     1       4.523  -1.509  -3.371  1.00  0.00    -0.014 A 
BRANCH  11  12
ATOM     12  C   UNL     1       5.196  -2.153  -4.533  1.00  0.00     0.031 A 
ATOM     13  C   UNL     1       5.904  -1.336  -5.579  1.00  0.00     0.074 A 
ATOM     14  C   UNL     1       5.120  -3.493  -4.666  1.00  0.00     0.049 A 
ATOM     15  N   UNL     1       6.495  -1.738  -6.676  1.00  0.00    -0.248 NA
ATOM     16  C   UNL     1       5.950   0.120  -5.374  1.00  0.00     0.031 C 
ATOM     17  C   UNL     1       4.429  -4.393  -3.738  1.00  0.00     0.029 A 
ATOM     18  N   UNL     1       5.612  -4.334  -5.634  1.00  0.00    -0.354 N 
ATOM     19  C   UNL     1       6.965  -0.591  -7.303  1.00  0.00     0.074 A 
ATOM     20  C   UNL     1       6.580   0.529  -6.469  1.00  0.00     0.031 C 
ATOM     21  C   UNL     1       4.546  -5.655  -4.176  1.00  0.00     0.029 A 
ATOM     22  C   UNL     1       5.275  -5.654  -5.439  1.00  0.00     0.049 A 
ATOM     23  H   UNL     1       6.154  -4.022  -6.394  1.00  0.00     0.167 HD
ATOM     24  C   UNL     1       7.657  -0.485  -8.464  1.00  0.00     0.037 A 
ATOM     25  C   UNL     1       5.496  -6.741  -6.204  1.00  0.00     0.037 A 
ATOM     26  C   UNL     1       8.055  -1.606  -9.278  1.00  0.00     0.049 A 
ATOM     27  C   UNL     1       6.246  -6.590  -7.498  1.00  0.00     0.074 A 
ATOM     28  C   UNL     1       8.835  -1.602 -10.422  1.00  0.00     0.029 A 
ATOM     29  N   UNL     1       7.690  -2.925  -9.050  1.00  0.00    -0.354 N 
ATOM     30  N   UNL     1       6.758  -5.506  -8.028  1.00  0.00    -0.248 NA
ATOM     31  C   UNL     1       6.443  -7.805  -8.301  1.00  0.00     0.031 C 
ATOM     32  C   UNL     1       8.899  -2.909 -10.915  1.00  0.00     0.029 A 
ATOM     33  C   UNL     1       8.196  -3.736 -10.054  1.00  0.00     0.049 A 
ATOM     34  H   UNL     1       7.152  -3.238  -8.288  1.00  0.00     0.167 HD
ATOM     35  C   UNL     1       7.344  -5.909  -9.223  1.00  0.00     0.074 A 
ATOM     36  C   UNL     1       7.143  -7.339  -9.327  1.00  0.00     0.031 C 
ATOM     37  C   UNL     1       7.986  -5.159 -10.150  1.00  0.00     0.037 A 
BRANCH  24  38
ATOM     38  C   UNL     1       8.029   0.890  -8.947  1.00  0.00     0.058 A 
ATOM     39  C   UNL     1       9.060   1.629  -8.349  1.00  0.00     0.135 A 
ATOM     40  C   UNL     1       7.404   1.437 -10.081  1.00  0.00     0.135 A 
ATOM     41  F   UNL     1       9.685   1.159  -7.257  1.00  0.00    -0.206 F 
ATOM     42  C   UNL     1       9.452   2.868  -8.849  1.00  0.00     0.059 A 
ATOM     43  C   UNL     1       7.793   2.664 -10.611  1.00  0.00     0.059 A 
ATOM     44  F   UNL     1       6.413   0.770 -10.693  1.00  0.00    -0.206 F 
ATOM     45  C   UNL     1       8.813   3.376  -9.983  1.00  0.00     0.060 A 
BRANCH  45  46
ATOM     46  S   UNL     1       9.354   4.973 -10.630  1.00  0.00     0.124 S 
ATOM     47  O   UNL     1       8.811   5.889  -9.630  1.00  0.00    -0.237 OA
ATOM     48  O   UNL     1      10.800   4.833 -10.644  1.00  0.00    -0.237 OA
ATOM     49  O   UNL     1       8.717   5.038 -11.947  1.00  0.00    -0.744 OA
ENDBRANCH  45  46
ENDBRANCH  24  38
BRANCH  25  50
ATOM     50  C   UNL     1       4.967  -8.065  -5.780  1.00  0.00     0.058 A 
ATOM     51  C   UNL     1       5.827  -9.090  -5.361  1.00  0.00     0.135 A 
ATOM     52  C   UNL     1       3.588  -8.326  -5.780  1.00  0.00     0.135 A 
ATOM     53  F   UNL     1       7.154  -8.891  -5.352  1.00  0.00    -0.206 F 
ATOM     54  C   UNL     1       5.340 -10.334  -4.972  1.00  0.00     0.059 A 
ATOM     55  C   UNL     1       3.075  -9.552  -5.370  1.00  0.00     0.059 A 
ATOM     56  F   UNL     1       2.723  -7.372  -6.159  1.00  0.00    -0.206 F 
ATOM     57  C   UNL     1       3.961 -10.555  -4.980  1.00  0.00     0.060 A 
BRANCH  57  58
ATOM     58  S   UNL     1       3.334 -12.159  -4.437  1.00  0.00     0.124 S 
ATOM     59  O   UNL     1       3.630 -12.995  -5.593  1.00  0.00    -0.237 OA
ATOM     60  O   UNL     1       4.133 -12.415  -3.242  1.00  0.00    -0.237 OA
ATOM     61  O   UNL     1       1.919 -11.898  -4.189  1.00  0.00    -0.744 OA
ENDBRANCH  57  58
ENDBRANCH  25  50
BRANCH  37  62
ATOM     62  C   UNL     1       8.527  -5.867 -11.360  1.00  0.00     0.058 A 
ATOM     63  C   UNL     1       7.681  -6.305 -12.390  1.00  0.00     0.135 A 
ATOM     64  C   UNL     1       9.909  -6.054 -11.521  1.00  0.00     0.135 A 
ATOM     65  F   UNL     1       6.351  -6.160 -12.279  1.00  0.00    -0.206 F 
ATOM     66  C   UNL     1       8.185  -6.913 -13.535  1.00  0.00     0.059 A 
ATOM     67  C   UNL     1      10.438  -6.638 -12.668  1.00  0.00     0.059 A 
ATOM     68  F   UNL     1      10.762  -5.648 -10.566  1.00  0.00    -0.206 F 
ATOM     69  C   UNL     1       9.566  -7.070 -13.667  1.00  0.00     0.060 A 
BRANCH  69  70
ATOM     70  S   UNL     1      10.213  -7.809 -15.182  1.00  0.00     0.124 S 
ATOM     71  O   UNL     1       9.883  -9.217 -14.987  1.00  0.00    -0.237 OA
ATOM     72  O   UNL     1       9.451  -7.118 -16.218  1.00  0.00    -0.237 OA
ATOM     73  O   UNL     1      11.635  -7.485 -15.138  1.00  0.00    -0.744 OA
ENDBRANCH  69  70
ENDBRANCH  37  62
ENDBRANCH  11  12
ENDBRANCH   4   6
ENDBRANCH   1   2
BRANCH   1  74
ATOM     74  C   UNL     1       4.259   2.406   1.370  1.00  0.00     0.042 C 
BRANCH  74  75
ATOM     75  C   UNL     1       3.704   3.170   2.575  1.00  0.00     0.117 C 
BRANCH  75  76
ATOM     76  N   UNL     1       4.106   2.655   3.872  1.00  0.00    -0.356 N 
ATOM     77  C   UNL     1       5.053   2.954   4.792  1.00  0.00     0.226 C 
ATOM     78  H   UNL     1       3.547   1.895   4.154  1.00  0.00     0.163 HD
ATOM     79  O   UNL     1       4.925   2.333   5.856  1.00  0.00    -0.274 OA
BRANCH  77  80
ATOM     80  C   UNL     1       6.168   4.010   4.638  1.00  0.00     0.057 C 
ATOM     81  C   UNL     1       7.288   3.731   5.695  1.00  0.00     0.039 C 
ATOM     82  C   UNL     1       5.536   5.436   4.884  1.00  0.00     0.039 C 
ATOM     83  C   UNL     1       6.921   4.166   7.112  1.00  0.00     0.119 C 
ATOM     84  C   UNL     1       5.379   5.882   6.346  1.00  0.00     0.119 C 
ATOM     85  N   UNL     1       6.603   5.575   7.069  1.00  0.00    -0.356 N 
BRANCH  80  86
ATOM     86  C   UNL     1       6.834   4.090   3.232  1.00  0.00     0.054 C 
BRANCH  86  87
ATOM     87  C   UNL     1       7.570   3.049   2.405  1.00  0.00    -0.028 A 
ATOM     88  C   UNL     1       8.123   3.594   1.212  1.00  0.00     0.005 A 
ATOM     89  C   UNL     1       7.696   1.665   2.575  1.00  0.00     0.044 A 
ATOM     90  C   UNL     1       8.728   2.808   0.232  1.00  0.00     0.000 A 
ATOM     91  C   UNL     1       8.309   0.876   1.584  1.00  0.00     0.021 A 
ATOM     92  Cl  UNL     1       7.106   0.781   3.924  1.00  0.00    -0.084 Cl
ATOM     93  C   UNL     1       8.813   1.440   0.414  1.00  0.00     0.002 A 
ENDBRANCH  86  87
ENDBRANCH  80  86
BRANCH  85  94
ATOM     94  C   UNL     1       7.448   6.567   7.524  1.00  0.00     0.141 A 
ATOM     95  N   UNL     1       6.906   7.787   7.811  1.00  0.00    -0.219 NA
ATOM     96  C   UNL     1       8.848   6.437   7.740  1.00  0.00     0.061 A 
ATOM     97  C   UNL     1       7.681   8.764   8.319  1.00  0.00     0.226 A 
ATOM     98  C   UNL     1       9.517   7.542   8.254  1.00  0.00     0.142 A 
ATOM     99  C   UNL     1       9.861   5.443   7.546  1.00  0.00     0.033 A 
ATOM    100  N   UNL     1       8.996   8.732   8.580  1.00  0.00    -0.218 NA
ATOM    101  N   UNL     1      10.844   7.236   8.386  1.00  0.00    -0.346 N 
ATOM    102  C   UNL     1      11.073   5.960   7.952  1.00  0.00     0.085 A 
ATOM    103  H   UNL     1      11.533   7.844   8.740  1.00  0.00     0.167 HD
ENDBRANCH  85  94
ENDBRANCH  77  80
ENDBRANCH  75  76
ENDBRANCH  74  75
ENDBRANCH   1  74
TORSDOF 16
