REMARK SMILES CC[C@H](C)[C@@H](NC(=O)c1csc(NC(C)=O)n1)C(=O)NCCCNC(=O)c1ccc(-c2c3nc(c(-c4c(F)cc(S(=O)(=O)[O-])cc4F)c4ccc([nH]4)c(-c4c(F)cc(S(=O)(=O)[O-])cc4F)c4nc(c(-c5c(F)cc(S(=O)(=O)[O-])cc5F)c5ccc2[nH]5)C=C4)C=C3)cc1
REMARK SMILES IDX 22 1 21 2 20 3 18 4 19 5 5 7 3 8 4 9 2 10 1 11 6 12 7 13
REMARK SMILES IDX 8 15 9 16 10 17 17 18 11 19 12 20 13 21 14 22 15 24 16 25
REMARK SMILES IDX 23 26 24 27 25 28 26 30 27 31 28 32 92 33 29 34 91 35 30 36
REMARK SMILES IDX 31 37 32 38 85 39 33 40 90 41 84 42 86 43 34 44 89 45 83 46
REMARK SMILES IDX 82 47 35 49 69 50 48 51 68 52 49 53 52 54 67 55 87 56 50 57
REMARK SMILES IDX 51 58 66 60 88 61 53 62 36 63 37 64 46 65 38 66 39 67 45 68
REMARK SMILES IDX 47 69 40 70 41 71 42 72 43 73 44 74 70 75 71 76 80 77 72 78
REMARK SMILES IDX 73 79 79 80 81 81 74 82 75 83 76 84 77 85 78 86 54 87 55 88
REMARK SMILES IDX 64 89 56 90 57 91 63 92 65 93 58 94 59 95 60 96 61 97 62 98
REMARK H PARENT 20 6 6 14 13 23 24 29 86 48 52 59
REMARK Flexibility Score: inf
ROOT
ATOM      1  C   UNL     1       4.640   0.615   3.596  1.00  0.00     0.042 C 
ENDROOT
BRANCH   1   2
ATOM      2  C   UNL     1       3.613  -0.269   4.276  1.00  0.00     0.117 C 
BRANCH   2   3
ATOM      3  N   UNL     1       2.570   0.522   4.905  1.00  0.00    -0.354 N 
ATOM      4  C   UNL     1       1.214   0.422   4.801  1.00  0.00     0.242 C 
ATOM      5  O   UNL     1       0.531   1.280   5.372  1.00  0.00    -0.273 OA
ATOM      6  H   UNL     1       2.891   1.240   5.496  1.00  0.00     0.163 HD
BRANCH   4   7
ATOM      7  C   UNL     1       0.564  -0.636   3.878  1.00  0.00     0.174 C 
BRANCH   7   8
ATOM      8  C   UNL     1       0.738  -0.111   2.401  1.00  0.00     0.018 C 
ATOM      9  C   UNL     1       0.418  -1.148   1.318  1.00  0.00     0.010 C 
BRANCH   8  10
ATOM     10  C   UNL     1      -0.013   1.216   2.126  1.00  0.00     0.002 C 
ATOM     11  C   UNL     1      -1.504   1.073   1.865  1.00  0.00     0.004 C 
ENDBRANCH   8  10
ENDBRANCH   7   8
BRANCH   7  12
ATOM     12  N   UNL     1       1.101  -2.011   4.022  1.00  0.00    -0.339 N 
ATOM     13  C   UNL     1       1.425  -2.782   5.116  1.00  0.00     0.271 C 
ATOM     14  H   UNL     1       1.256  -2.464   3.162  1.00  0.00     0.164 HD
ATOM     15  O   UNL     1       1.657  -3.975   4.916  1.00  0.00    -0.267 OA
BRANCH  13  16
ATOM     16  C   UNL     1       1.652  -2.172   6.424  1.00  0.00     0.141 A 
ATOM     17  C   UNL     1       2.737  -2.509   7.218  1.00  0.00     0.102 A 
ATOM     18  N   UNL     1       0.842  -1.184   6.966  1.00  0.00    -0.215 NA
ATOM     19  S   UNL     1       2.821  -1.465   8.570  1.00  0.00    -0.104 S 
ATOM     20  C   UNL     1       1.413  -0.676   8.035  1.00  0.00     0.190 A 
BRANCH  20  21
ATOM     21  N   UNL     1       0.895   0.438   8.643  1.00  0.00    -0.302 N 
ATOM     22  C   UNL     1       1.449   1.149   9.681  1.00  0.00     0.223 C 
ATOM     23  H   UNL     1       0.032   0.764   8.299  1.00  0.00     0.172 HD
ATOM     24  C   UNL     1       0.587   2.305  10.126  1.00  0.00     0.114 C 
ATOM     25  O   UNL     1       2.519   0.934  10.240  1.00  0.00    -0.275 OA
ENDBRANCH  20  21
ENDBRANCH  13  16
ENDBRANCH   7  12
ENDBRANCH   4   7
ENDBRANCH   2   3
ENDBRANCH   1   2
BRANCH   1  26
ATOM     26  C   UNL     1       5.449   1.442   4.580  1.00  0.00     0.118 C 
BRANCH  26  27
ATOM     27  N   UNL     1       6.303   0.623   5.433  1.00  0.00    -0.352 N 
ATOM     28  C   UNL     1       7.644   0.789   5.686  1.00  0.00     0.251 C 
ATOM     29  H   UNL     1       5.868  -0.138   5.880  1.00  0.00     0.163 HD
ATOM     30  O   UNL     1       8.284  -0.067   6.287  1.00  0.00    -0.269 OA
BRANCH  28  31
ATOM     31  C   UNL     1       8.295   2.013   5.186  1.00  0.00     0.039 A 
ATOM     32  C   UNL     1       9.425   1.908   4.374  1.00  0.00     0.014 A 
ATOM     33  C   UNL     1       7.706   3.253   5.443  1.00  0.00     0.014 A 
ATOM     34  C   UNL     1       9.930   3.054   3.757  1.00  0.00     0.010 A 
ATOM     35  C   UNL     1       8.156   4.372   4.761  1.00  0.00     0.010 A 
ATOM     36  C   UNL     1       9.275   4.285   3.917  1.00  0.00    -0.014 A 
BRANCH  36  37
ATOM     37  C   UNL     1       9.748   5.524   3.255  1.00  0.00     0.031 A 
ATOM     38  C   UNL     1      10.175   6.684   4.109  1.00  0.00     0.074 A 
ATOM     39  C   UNL     1       9.676   5.649   1.916  1.00  0.00     0.049 A 
ATOM     40  N   UNL     1      10.417   7.921   3.766  1.00  0.00    -0.248 NA
ATOM     41  C   UNL     1      10.295   6.424   5.554  1.00  0.00     0.031 C 
ATOM     42  C   UNL     1       9.231   4.609   0.987  1.00  0.00     0.029 A 
ATOM     43  N   UNL     1       9.951   6.722   1.106  1.00  0.00    -0.354 N 
ATOM     44  C   UNL     1      10.666   8.596   4.955  1.00  0.00     0.074 A 
ATOM     45  C   UNL     1      10.505   7.641   6.029  1.00  0.00     0.031 C 
ATOM     46  C   UNL     1       9.271   5.092  -0.266  1.00  0.00     0.029 A 
ATOM     47  C   UNL     1       9.704   6.485  -0.225  1.00  0.00     0.049 A 
ATOM     48  H   UNL     1      10.293   7.580   1.447  1.00  0.00     0.167 HD
ATOM     49  C   UNL     1      11.013   9.892   5.133  1.00  0.00     0.037 A 
ATOM     50  C   UNL     1       9.802   7.306  -1.289  1.00  0.00     0.037 A 
ATOM     51  C   UNL     1      11.225  10.817   4.053  1.00  0.00     0.049 A 
ATOM     52  C   UNL     1      10.256   8.724  -1.079  1.00  0.00     0.074 A 
ATOM     53  C   UNL     1      11.640  12.134   4.115  1.00  0.00     0.029 A 
ATOM     54  N   UNL     1      11.051  10.511   2.711  1.00  0.00    -0.354 N 
ATOM     55  N   UNL     1      10.523   9.342   0.048  1.00  0.00    -0.248 NA
ATOM     56  C   UNL     1      10.428   9.555  -2.278  1.00  0.00     0.031 C 
ATOM     57  C   UNL     1      11.701  12.632   2.808  1.00  0.00     0.029 A 
ATOM     58  C   UNL     1      11.353  11.614   1.932  1.00  0.00     0.049 A 
ATOM     59  H   UNL     1      10.755   9.639   2.364  1.00  0.00     0.167 HD
ATOM     60  C   UNL     1      10.922  10.625  -0.307  1.00  0.00     0.074 A 
ATOM     61  C   UNL     1      10.860  10.696  -1.754  1.00  0.00     0.031 C 
ATOM     62  C   UNL     1      11.307  11.650   0.492  1.00  0.00     0.037 A 
BRANCH  49  63
ATOM     63  C   UNL     1      11.179  10.367   6.549  1.00  0.00     0.058 A 
ATOM     64  C   UNL     1      12.250   9.939   7.350  1.00  0.00     0.135 A 
ATOM     65  C   UNL     1      10.238  11.237   7.123  1.00  0.00     0.135 A 
ATOM     66  F   UNL     1      13.168   9.093   6.855  1.00  0.00    -0.206 F 
ATOM     67  C   UNL     1      12.354  10.312   8.685  1.00  0.00     0.059 A 
ATOM     68  C   UNL     1      10.339  11.647   8.449  1.00  0.00     0.059 A 
ATOM     69  F   UNL     1       9.195  11.678   6.402  1.00  0.00    -0.206 F 
ATOM     70  C   UNL     1      11.386  11.158   9.229  1.00  0.00     0.060 A 
BRANCH  70  71
ATOM     71  S   UNL     1      11.506  11.605  10.973  1.00  0.00     0.124 S 
ATOM     72  O   UNL     1      10.970  10.409  11.616  1.00  0.00    -0.237 OA
ATOM     73  O   UNL     1      12.938  11.828  11.146  1.00  0.00    -0.237 OA
ATOM     74  O   UNL     1      10.674  12.800  11.073  1.00  0.00    -0.744 OA
ENDBRANCH  70  71
ENDBRANCH  49  63
BRANCH  50  75
ATOM     75  C   UNL     1       9.495   6.785  -2.646  1.00  0.00     0.058 A 
ATOM     76  C   UNL     1      10.526   6.484  -3.547  1.00  0.00     0.135 A 
ATOM     77  C   UNL     1       8.176   6.521  -3.046  1.00  0.00     0.135 A 
ATOM     78  F   UNL     1      11.802   6.724  -3.210  1.00  0.00    -0.206 F 
ATOM     79  C   UNL     1      10.263   5.935  -4.798  1.00  0.00     0.059 A 
ATOM     80  C   UNL     1       7.889   5.956  -4.285  1.00  0.00     0.059 A 
ATOM     81  F   UNL     1       7.156   6.775  -2.211  1.00  0.00    -0.206 F 
ATOM     82  C   UNL     1       8.940   5.668  -5.155  1.00  0.00     0.060 A 
BRANCH  82  83
ATOM     83  S   UNL     1       8.615   4.873  -6.745  1.00  0.00     0.124 S 
ATOM     84  O   UNL     1       8.812   5.981  -7.673  1.00  0.00    -0.237 OA
ATOM     85  O   UNL     1       9.630   3.824  -6.778  1.00  0.00    -0.237 OA
ATOM     86  O   UNL     1       7.241   4.399  -6.606  1.00  0.00    -0.744 OA
ENDBRANCH  82  83
ENDBRANCH  50  75
BRANCH  62  87
ATOM     87  C   UNL     1      11.739  12.925  -0.172  1.00  0.00     0.058 A 
ATOM     88  C   UNL     1      10.808  13.841  -0.681  1.00  0.00     0.135 A 
ATOM     89  C   UNL     1      13.099  13.274  -0.209  1.00  0.00     0.135 A 
ATOM     90  F   UNL     1       9.498  13.548  -0.673  1.00  0.00    -0.206 F 
ATOM     91  C   UNL     1      11.210  15.064  -1.207  1.00  0.00     0.059 A 
ATOM     92  C   UNL     1      13.522  14.498  -0.713  1.00  0.00     0.059 A 
ATOM     93  F   UNL     1      14.026  12.431   0.274  1.00  0.00    -0.206 F 
ATOM     94  C   UNL     1      12.569  15.386  -1.213  1.00  0.00     0.060 A 
BRANCH  94  95
ATOM     95  S   UNL     1      13.075  17.006  -1.831  1.00  0.00     0.124 S 
ATOM     96  O   UNL     1      12.973  16.813  -3.274  1.00  0.00    -0.237 OA
ATOM     97  O   UNL     1      12.079  17.893  -1.238  1.00  0.00    -0.237 OA
ATOM     98  O   UNL     1      14.430  17.159  -1.310  1.00  0.00    -0.744 OA
ENDBRANCH  94  95
ENDBRANCH  62  87
ENDBRANCH  36  37
ENDBRANCH  28  31
ENDBRANCH  26  27
ENDBRANCH   1  26
TORSDOF 18
