REMARK SMILES CN(C)C(=O)Cc1nc(C[N@H+](C)CC(=O)NCCCNC(=O)c2ccc(-c3c4nc(c(-c5c(F)cc(S(=O)(=O)[O-])cc5F)c5ccc([nH]5)c(-c5c(F)cc(S(=O)(=O)[O-])cc5F)c5nc(c(-c6c(F)cc(S(=O)(=O)[O-])cc6F)c6ccc3[nH]6)C=C5)C=C4)cc2)cs1
REMARK SMILES IDX 17 1 16 2 14 3 15 4 13 6 11 7 12 8 10 10 9 11 89 12 8 13
REMARK SMILES IDX 90 14 7 15 6 16 4 17 5 18 2 19 1 20 3 21 18 22 19 23 20 24
REMARK SMILES IDX 21 25 22 27 23 28 24 29 88 30 25 31 87 32 26 33 27 34 28 35
REMARK SMILES IDX 81 36 29 37 86 38 80 39 82 40 30 41 85 42 79 43 78 44 31 46
REMARK SMILES IDX 65 47 44 48 64 49 45 50 48 51 63 52 83 53 46 54 47 55 62 57
REMARK SMILES IDX 84 58 49 59 32 60 33 61 42 62 34 63 35 64 41 65 43 66 36 67
REMARK SMILES IDX 37 68 38 69 39 70 40 71 66 72 67 73 76 74 68 75 69 76 75 77
REMARK SMILES IDX 77 78 70 79 71 80 72 81 73 82 74 83 50 84 51 85 60 86 52 87
REMARK SMILES IDX 53 88 59 89 61 90 54 91 55 92 56 93 57 94 58 95
REMARK H PARENT 16 5 11 9 20 26 82 45 48 56
REMARK Flexibility Score: inf
ROOT
ATOM      1  C   UNL     1      -0.796   0.014   1.895  1.00  0.00     0.118 C 
ENDROOT
BRANCH   1   2
ATOM      2  N   UNL     1      -1.553   0.828   0.953  1.00  0.00    -0.351 N 
ATOM      3  C   UNL     1      -1.629   0.777  -0.415  1.00  0.00     0.275 C 
ATOM      4  O   UNL     1      -2.446   1.507  -0.983  1.00  0.00    -0.269 OA
ATOM      5  H   UNL     1      -2.101   1.533   1.368  1.00  0.00     0.163 HD
BRANCH   3   6
ATOM      6  C   UNL     1      -0.698  -0.146  -1.211  1.00  0.00     0.363 C 
BRANCH   6   7
ATOM      7  N   UNL     1       0.630   0.456  -1.259  1.00  0.00    -0.325 N 
ATOM      8  C   UNL     1       1.762  -0.401  -0.989  1.00  0.00     0.333 C 
ATOM      9  H   UNL     1       0.603   1.004  -0.399  1.00  0.00     0.348 HD
BRANCH   7  10
ATOM     10  C   UNL     1       0.839   1.487  -2.285  1.00  0.00     0.320 C 
BRANCH  10  11
ATOM     11  C   UNL     1       0.890   2.855  -1.656  1.00  0.00     0.106 A 
ATOM     12  C   UNL     1       0.849   3.139  -0.308  1.00  0.00     0.096 A 
ATOM     13  N   UNL     1       0.997   3.987  -2.455  1.00  0.00    -0.240 NA
ATOM     14  S   UNL     1       0.901   4.806  -0.007  1.00  0.00    -0.126 S 
ATOM     15  C   UNL     1       0.983   5.074  -1.702  1.00  0.00     0.102 A 
BRANCH  15  16
ATOM     16  C   UNL     1       1.030   6.472  -2.216  1.00  0.00     0.167 C 
BRANCH  16  17
ATOM     17  C   UNL     1      -0.364   7.069  -2.159  1.00  0.00     0.228 C 
ATOM     18  O   UNL     1      -0.651   7.868  -1.261  1.00  0.00    -0.274 OA
ATOM     19  N   UNL     1      -1.297   6.708  -3.126  1.00  0.00    -0.348 N 
ATOM     20  C   UNL     1      -1.099   5.678  -4.135  1.00  0.00     0.146 C 
ATOM     21  C   UNL     1      -2.651   7.205  -2.959  1.00  0.00     0.146 C 
ENDBRANCH  16  17
ENDBRANCH  15  16
ENDBRANCH  10  11
ENDBRANCH   7  10
ENDBRANCH   6   7
ENDBRANCH   3   6
ENDBRANCH   1   2
BRANCH   1  22
ATOM     22  C   UNL     1       0.455   0.678   2.479  1.00  0.00     0.042 C 
BRANCH  22  23
ATOM     23  C   UNL     1       0.257   2.079   3.064  1.00  0.00     0.118 C 
BRANCH  23  24
ATOM     24  N   UNL     1      -0.246   2.062   4.423  1.00  0.00    -0.352 N 
ATOM     25  C   UNL     1       0.340   2.477   5.595  1.00  0.00     0.251 C 
ATOM     26  H   UNL     1      -1.154   1.694   4.523  1.00  0.00     0.163 HD
ATOM     27  O   UNL     1      -0.222   2.206   6.656  1.00  0.00    -0.269 OA
BRANCH  25  28
ATOM     28  C   UNL     1       1.632   3.211   5.621  1.00  0.00     0.039 A 
ATOM     29  C   UNL     1       2.550   2.885   6.627  1.00  0.00     0.014 A 
ATOM     30  C   UNL     1       1.925   4.265   4.749  1.00  0.00     0.014 A 
ATOM     31  C   UNL     1       3.760   3.579   6.737  1.00  0.00     0.010 A 
ATOM     32  C   UNL     1       3.161   4.923   4.825  1.00  0.00     0.010 A 
ATOM     33  C   UNL     1       4.090   4.595   5.826  1.00  0.00    -0.014 A 
BRANCH  33  34
ATOM     34  C   UNL     1       5.390   5.317   5.934  1.00  0.00     0.031 A 
ATOM     35  C   UNL     1       5.433   6.778   6.304  1.00  0.00     0.074 A 
ATOM     36  C   UNL     1       6.545   4.662   5.693  1.00  0.00     0.049 A 
ATOM     37  N   UNL     1       6.470   7.567   6.441  1.00  0.00    -0.248 NA
ATOM     38  C   UNL     1       4.142   7.442   6.539  1.00  0.00     0.031 C 
ATOM     39  C   UNL     1       6.651   3.255   5.305  1.00  0.00     0.029 A 
ATOM     40  N   UNL     1       7.849   5.092   5.740  1.00  0.00    -0.354 N 
ATOM     41  C   UNL     1       5.960   8.818   6.771  1.00  0.00     0.074 A 
ATOM     42  C   UNL     1       4.517   8.693   6.769  1.00  0.00     0.031 C 
ATOM     43  C   UNL     1       7.948   2.932   5.172  1.00  0.00     0.029 A 
ATOM     44  C   UNL     1       8.766   4.114   5.432  1.00  0.00     0.049 A 
ATOM     45  H   UNL     1       8.104   6.014   5.972  1.00  0.00     0.167 HD
ATOM     46  C   UNL     1       6.627   9.961   7.069  1.00  0.00     0.037 A 
ATOM     47  C   UNL     1      10.112   4.159   5.363  1.00  0.00     0.037 A 
ATOM     48  C   UNL     1       8.062  10.087   7.087  1.00  0.00     0.049 A 
ATOM     49  C   UNL     1      10.830   5.444   5.675  1.00  0.00     0.074 A 
ATOM     50  C   UNL     1       8.826  11.195   7.415  1.00  0.00     0.029 A 
ATOM     51  N   UNL     1       8.952   9.074   6.761  1.00  0.00    -0.354 N 
ATOM     52  N   UNL     1      10.329   6.603   6.031  1.00  0.00    -0.248 NA
ATOM     53  C   UNL     1      12.297   5.427   5.580  1.00  0.00     0.031 C 
ATOM     54  C   UNL     1      10.176  10.863   7.251  1.00  0.00     0.029 A 
ATOM     55  C   UNL     1      10.255   9.536   6.862  1.00  0.00     0.049 A 
ATOM     56  H   UNL     1       8.696   8.161   6.496  1.00  0.00     0.167 HD
ATOM     57  C   UNL     1      11.420   7.443   6.229  1.00  0.00     0.074 A 
ATOM     58  C   UNL     1      12.607   6.659   5.961  1.00  0.00     0.031 C 
ATOM     59  C   UNL     1      11.434   8.747   6.600  1.00  0.00     0.037 A 
BRANCH  46  60
ATOM     60  C   UNL     1       5.804  11.177   7.402  1.00  0.00     0.058 A 
ATOM     61  C   UNL     1       5.097  11.277   8.611  1.00  0.00     0.135 A 
ATOM     62  C   UNL     1       5.744  12.267   6.518  1.00  0.00     0.135 A 
ATOM     63  F   UNL     1       5.112  10.261   9.489  1.00  0.00    -0.206 F 
ATOM     64  C   UNL     1       4.331  12.398   8.917  1.00  0.00     0.059 A 
ATOM     65  C   UNL     1       5.005  13.409   6.815  1.00  0.00     0.059 A 
ATOM     66  F   UNL     1       6.406  12.228   5.351  1.00  0.00    -0.206 F 
ATOM     67  C   UNL     1       4.287  13.457   8.009  1.00  0.00     0.060 A 
BRANCH  67  68
ATOM     68  S   UNL     1       3.282  14.902   8.411  1.00  0.00     0.124 S 
ATOM     69  O   UNL     1       1.933  14.390   8.179  1.00  0.00    -0.237 OA
ATOM     70  O   UNL     1       3.629  15.145   9.812  1.00  0.00    -0.237 OA
ATOM     71  O   UNL     1       3.742  15.912   7.472  1.00  0.00    -0.744 OA
ENDBRANCH  67  68
ENDBRANCH  46  60
BRANCH  47  72
ATOM     72  C   UNL     1      10.875   2.935   5.000  1.00  0.00     0.058 A 
ATOM     73  C   UNL     1      11.640   2.252   5.958  1.00  0.00     0.135 A 
ATOM     74  C   UNL     1      10.848   2.419   3.695  1.00  0.00     0.135 A 
ATOM     75  F   UNL     1      11.705   2.713   7.216  1.00  0.00    -0.206 F 
ATOM     76  C   UNL     1      12.358   1.106   5.634  1.00  0.00     0.059 A 
ATOM     77  C   UNL     1      11.539   1.262   3.353  1.00  0.00     0.059 A 
ATOM     78  F   UNL     1      10.121   3.029   2.746  1.00  0.00    -0.206 F 
ATOM     79  C   UNL     1      12.299   0.616   4.328  1.00  0.00     0.060 A 
BRANCH  79  80
ATOM     80  S   UNL     1      13.188  -0.905   3.930  1.00  0.00     0.124 S 
ATOM     81  O   UNL     1      14.567  -0.434   3.877  1.00  0.00    -0.237 OA
ATOM     82  O   UNL     1      12.848  -1.764   5.060  1.00  0.00    -0.237 OA
ATOM     83  O   UNL     1      12.607  -1.306   2.652  1.00  0.00    -0.744 OA
ENDBRANCH  79  80
ENDBRANCH  47  72
BRANCH  59  84
ATOM     84  C   UNL     1      12.775   9.406   6.772  1.00  0.00     0.058 A 
ATOM     85  C   UNL     1      13.569   9.762   5.670  1.00  0.00     0.135 A 
ATOM     86  C   UNL     1      13.252   9.725   8.054  1.00  0.00     0.135 A 
ATOM     87  F   UNL     1      13.163   9.473   4.424  1.00  0.00    -0.206 F 
ATOM     88  C   UNL     1      14.798  10.394   5.834  1.00  0.00     0.059 A 
ATOM     89  C   UNL     1      14.467  10.378   8.240  1.00  0.00     0.059 A 
ATOM     90  F   UNL     1      12.529   9.414   9.141  1.00  0.00    -0.206 F 
ATOM     91  C   UNL     1      15.239  10.698   7.123  1.00  0.00     0.060 A 
BRANCH  91  92
ATOM     92  S   UNL     1      16.820  11.547   7.322  1.00  0.00     0.124 S 
ATOM     93  O   UNL     1      17.768  10.466   7.074  1.00  0.00    -0.237 OA
ATOM     94  O   UNL     1      16.754  12.581   6.293  1.00  0.00    -0.237 OA
ATOM     95  O   UNL     1      16.772  12.037   8.697  1.00  0.00    -0.744 OA
ENDBRANCH  91  92
ENDBRANCH  59  84
ENDBRANCH  33  34
ENDBRANCH  25  28
ENDBRANCH  23  24
ENDBRANCH  22  23
ENDBRANCH   1  22
TORSDOF 18
