REMARK SMILES O=C(NCCCNC(=O)c1ccc(-c2c3nc(c(-c4c(F)cc(S(=O)(=O)[O-])cc4F)c4ccc([nH]4)c(-c4c(F)cc(S(=O)(=O)[O-])cc4F)c4nc(c(-c5c(F)cc(S(=O)(=O)[O-])cc5F)c5ccc2[nH]5)C=C4)C=C3)cc1)C1=N[C@@H]2NC=NN2[C@@H]([C@H]2C=NN=C2c2ccc(F)cc2)C1
REMARK SMILES IDX 5 1 4 2 3 3 1 4 2 5 76 7 77 8 96 9 78 10 83 11 79 12 82 13
REMARK SMILES IDX 80 14 81 16 84 17 85 18 88 19 86 20 87 21 89 22 90 23 95 24
REMARK SMILES IDX 91 25 94 26 92 27 93 28 6 29 7 30 8 31 9 33 10 34 11 35
REMARK SMILES IDX 75 36 12 37 74 38 13 39 14 40 15 41 68 42 16 43 73 44 67 45
REMARK SMILES IDX 69 46 17 47 72 48 66 49 65 50 18 52 52 53 31 54 51 55 32 56
REMARK SMILES IDX 35 57 50 58 70 59 33 60 34 61 49 63 71 64 36 65 19 66 20 67
REMARK SMILES IDX 29 68 21 69 22 70 28 71 30 72 23 73 24 74 25 75 26 76 27 77
REMARK SMILES IDX 53 78 54 79 63 80 55 81 56 82 62 83 64 84 57 85 58 86 59 87
REMARK SMILES IDX 60 88 61 89 37 90 38 91 47 92 39 93 40 94 46 95 48 96 41 97
REMARK SMILES IDX 42 98 43 99 44 100 45 101
REMARK H PARENT 3 6 79 15 7 32 69 51 35 62
REMARK Flexibility Score: inf
ROOT
ATOM      1  C   UNL     1      12.087   4.522   1.163  1.00  0.00     0.042 C 
ENDROOT
BRANCH   1   2
ATOM      2  C   UNL     1      10.596   4.695   0.921  1.00  0.00     0.118 C 
BRANCH   2   3
ATOM      3  N   UNL     1      10.153   4.577  -0.456  1.00  0.00    -0.351 N 
ATOM      4  O   UNL     1       8.732   4.406  -2.181  1.00  0.00    -0.268 OA
ATOM      5  C   UNL     1       8.942   4.192  -0.989  1.00  0.00     0.265 C 
ATOM      6  H   UNL     1      10.836   4.812  -1.125  1.00  0.00     0.163 HD
BRANCH   5   7
ATOM      7  C   UNL     1       7.872   3.420  -0.192  1.00  0.00     0.106 C 
ATOM      8  N   UNL     1       7.253   2.487  -0.830  1.00  0.00    -0.237 NA
ATOM      9  C   UNL     1       7.562   3.809   1.225  1.00  0.00     0.090 C 
ATOM     10  C   UNL     1       6.423   1.559  -0.108  1.00  0.00     0.319 C 
ATOM     11  C   UNL     1       6.399   3.014   1.807  1.00  0.00     0.127 C 
ATOM     12  N   UNL     1       5.035   1.444  -0.461  1.00  0.00    -0.335 N 
ATOM     13  N   UNL     1       6.410   1.598   1.374  1.00  0.00    -0.249 NA
ATOM     14  C   UNL     1       4.456   0.974   0.680  1.00  0.00     0.217 C 
ATOM     15  H   UNL     1       4.606   1.655  -1.321  1.00  0.00     0.165 HD
ATOM     16  N   UNL     1       5.201   0.966   1.756  1.00  0.00    -0.164 NA
BRANCH  11  17
ATOM     17  C   UNL     1       6.288   3.064   3.343  1.00  0.00     0.109 C 
ATOM     18  C   UNL     1       7.427   2.424   4.066  1.00  0.00     0.120 C 
ATOM     19  C   UNL     1       6.451   4.436   3.920  1.00  0.00     0.081 C 
ATOM     20  N   UNL     1       8.042   3.232   4.867  1.00  0.00    -0.162 NA
ATOM     21  N   UNL     1       7.432   4.516   4.766  1.00  0.00    -0.155 NA
BRANCH  19  22
ATOM     22  C   UNL     1       5.661   5.584   3.455  1.00  0.00    -0.001 A 
ATOM     23  C   UNL     1       4.364   5.421   2.954  1.00  0.00     0.013 A 
ATOM     24  C   UNL     1       6.309   6.821   3.370  1.00  0.00     0.013 A 
ATOM     25  C   UNL     1       3.734   6.496   2.326  1.00  0.00     0.040 A 
ATOM     26  C   UNL     1       5.677   7.888   2.736  1.00  0.00     0.040 A 
ATOM     27  C   UNL     1       4.400   7.714   2.213  1.00  0.00     0.123 A 
ATOM     28  F   UNL     1       3.806   8.730   1.575  1.00  0.00    -0.207 F 
ENDBRANCH  19  22
ENDBRANCH  11  17
ENDBRANCH   5   7
ENDBRANCH   2   3
ENDBRANCH   1   2
BRANCH   1  29
ATOM     29  C   UNL     1      13.020   5.466   0.426  1.00  0.00     0.118 C 
BRANCH  29  30
ATOM     30  N   UNL     1      12.942   6.849   0.872  1.00  0.00    -0.352 N 
ATOM     31  C   UNL     1      13.809   7.613   1.619  1.00  0.00     0.251 C 
ATOM     32  H   UNL     1      12.125   7.321   0.590  1.00  0.00     0.163 HD
ATOM     33  O   UNL     1      13.455   8.746   1.956  1.00  0.00    -0.269 OA
BRANCH  31  34
ATOM     34  C   UNL     1      15.128   7.098   2.061  1.00  0.00     0.039 A 
ATOM     35  C   UNL     1      15.584   7.422   3.344  1.00  0.00     0.014 A 
ATOM     36  C   UNL     1      15.935   6.317   1.232  1.00  0.00     0.014 A 
ATOM     37  C   UNL     1      16.786   6.884   3.820  1.00  0.00     0.010 A 
ATOM     38  C   UNL     1      17.071   5.692   1.744  1.00  0.00     0.010 A 
ATOM     39  C   UNL     1      17.513   5.966   3.046  1.00  0.00    -0.014 A 
BRANCH  39  40
ATOM     40  C   UNL     1      18.722   5.277   3.582  1.00  0.00     0.031 A 
ATOM     41  C   UNL     1      20.055   5.421   2.892  1.00  0.00     0.074 A 
ATOM     42  C   UNL     1      18.606   4.463   4.652  1.00  0.00     0.049 A 
ATOM     43  N   UNL     1      21.196   4.842   3.170  1.00  0.00    -0.248 NA
ATOM     44  C   UNL     1      20.110   6.308   1.718  1.00  0.00     0.031 C 
ATOM     45  C   UNL     1      17.363   4.188   5.377  1.00  0.00     0.029 A 
ATOM     46  N   UNL     1      19.543   3.704   5.312  1.00  0.00    -0.354 N 
ATOM     47  C   UNL     1      22.094   5.280   2.202  1.00  0.00     0.074 A 
ATOM     48  C   UNL     1      21.353   6.128   1.295  1.00  0.00     0.031 C 
ATOM     49  C   UNL     1      17.618   3.349   6.393  1.00  0.00     0.029 A 
ATOM     50  C   UNL     1      19.030   2.984   6.367  1.00  0.00     0.049 A 
ATOM     51  H   UNL     1      20.492   3.677   5.053  1.00  0.00     0.167 HD
ATOM     52  C   UNL     1      23.419   5.020   2.093  1.00  0.00     0.037 A 
ATOM     53  C   UNL     1      19.624   2.119   7.214  1.00  0.00     0.037 A 
ATOM     54  C   UNL     1      24.159   4.198   3.015  1.00  0.00     0.049 A 
ATOM     55  C   UNL     1      21.098   1.847   7.070  1.00  0.00     0.074 A 
ATOM     56  C   UNL     1      25.518   3.931   3.027  1.00  0.00     0.029 A 
ATOM     57  N   UNL     1      23.608   3.507   4.084  1.00  0.00    -0.354 N 
ATOM     58  N   UNL     1      21.944   2.332   6.193  1.00  0.00    -0.248 NA
ATOM     59  C   UNL     1      21.701   0.916   8.034  1.00  0.00     0.031 C 
ATOM     60  C   UNL     1      25.778   3.035   4.068  1.00  0.00     0.029 A 
ATOM     61  C   UNL     1      24.594   2.793   4.745  1.00  0.00     0.049 A 
ATOM     62  H   UNL     1      22.656   3.522   4.336  1.00  0.00     0.167 HD
ATOM     63  C   UNL     1      23.183   1.789   6.519  1.00  0.00     0.074 A 
ATOM     64  C   UNL     1      22.978   0.952   7.682  1.00  0.00     0.031 C 
ATOM     65  C   UNL     1      24.381   1.969   5.909  1.00  0.00     0.037 A 
BRANCH  52  66
ATOM     66  C   UNL     1      24.166   5.636   0.939  1.00  0.00     0.058 A 
ATOM     67  C   UNL     1      24.409   7.017   0.868  1.00  0.00     0.135 A 
ATOM     68  C   UNL     1      24.700   4.827  -0.079  1.00  0.00     0.135 A 
ATOM     69  F   UNL     1      23.911   7.841   1.804  1.00  0.00    -0.206 F 
ATOM     70  C   UNL     1      25.134   7.577  -0.179  1.00  0.00     0.059 A 
ATOM     71  C   UNL     1      25.454   5.362  -1.119  1.00  0.00     0.059 A 
ATOM     72  F   UNL     1      24.498   3.500  -0.063  1.00  0.00    -0.206 F 
ATOM     73  C   UNL     1      25.657   6.740  -1.166  1.00  0.00     0.060 A 
BRANCH  73  74
ATOM     74  S   UNL     1      26.616   7.482  -2.504  1.00  0.00     0.124 S 
ATOM     75  O   UNL     1      25.576   8.177  -3.256  1.00  0.00    -0.237 OA
ATOM     76  O   UNL     1      27.551   8.336  -1.779  1.00  0.00    -0.237 OA
ATOM     77  O   UNL     1      27.212   6.332  -3.175  1.00  0.00    -0.744 OA
ENDBRANCH  73  74
ENDBRANCH  52  66
BRANCH  53  78
ATOM     78  C   UNL     1      18.828   1.452   8.282  1.00  0.00     0.058 A 
ATOM     79  C   UNL     1      19.039   1.751   9.637  1.00  0.00     0.135 A 
ATOM     80  C   UNL     1      17.845   0.499   7.971  1.00  0.00     0.135 A 
ATOM     81  F   UNL     1      19.972   2.649   9.988  1.00  0.00    -0.206 F 
ATOM     82  C   UNL     1      18.324   1.112  10.645  1.00  0.00     0.059 A 
ATOM     83  C   UNL     1      17.095  -0.130   8.960  1.00  0.00     0.059 A 
ATOM     84  F   UNL     1      17.590   0.188   6.690  1.00  0.00    -0.206 F 
ATOM     85  C   UNL     1      17.353   0.172  10.296  1.00  0.00     0.060 A 
BRANCH  85  86
ATOM     86  S   UNL     1      16.412  -0.630  11.612  1.00  0.00     0.124 S 
ATOM     87  O   UNL     1      17.416  -1.515  12.193  1.00  0.00    -0.237 OA
ATOM     88  O   UNL     1      16.008   0.505  12.435  1.00  0.00    -0.237 OA
ATOM     89  O   UNL     1      15.327  -1.292  10.893  1.00  0.00    -0.744 OA
ENDBRANCH  85  86
ENDBRANCH  53  78
BRANCH  65  90
ATOM     90  C   UNL     1      25.578   1.282   6.510  1.00  0.00     0.058 A 
ATOM     91  C   UNL     1      25.752  -0.108   6.431  1.00  0.00     0.135 A 
ATOM     92  C   UNL     1      26.590   2.034   7.128  1.00  0.00     0.135 A 
ATOM     93  F   UNL     1      24.813  -0.876   5.856  1.00  0.00    -0.206 F 
ATOM     94  C   UNL     1      26.875  -0.732   6.966  1.00  0.00     0.059 A 
ATOM     95  C   UNL     1      27.737   1.436   7.641  1.00  0.00     0.059 A 
ATOM     96  F   UNL     1      26.480   3.369   7.222  1.00  0.00    -0.206 F 
ATOM     97  C   UNL     1      27.864   0.050   7.567  1.00  0.00     0.060 A 
BRANCH  97  98
ATOM     98  S   UNL     1      29.331  -0.769   8.227  1.00  0.00     0.124 S 
ATOM     99  O   UNL     1      28.792  -1.427   9.413  1.00  0.00    -0.237 OA
ATOM    100  O   UNL     1      29.714  -1.653   7.131  1.00  0.00    -0.237 OA
ATOM    101  O   UNL     1      30.251   0.335   8.485  1.00  0.00    -0.744 OA
ENDBRANCH  97  98
ENDBRANCH  65  90
ENDBRANCH  39  40
ENDBRANCH  31  34
ENDBRANCH  29  30
ENDBRANCH   1  29
TORSDOF 15
