REMARK SMILES CCc1ccc(S(=O)(=O)c2nnn(-c3ccc(C(=O)NCCCNC(=O)c4ccc(-c5c6nc(c(-c7c(F)cc(S(=O)(=O)[O-])cc7F)c7ccc([nH]7)c(-c7c(F)cc(S(=O)(=O)[O-])cc7F)c7nc(c(-c8c(F)cc(S(=O)(=O)[O-])cc8F)c8ccc5[nH]8)C=C7)C=C6)cc4)cc3)c2C)cc1
REMARK SMILES IDX 21 1 20 2 18 3 19 4 17 6 14 7 15 8 94 9 16 10 93 11 13 12
REMARK SMILES IDX 10 13 11 14 95 15 12 16 96 17 7 18 8 19 9 20 6 21 3 22 4 23
REMARK SMILES IDX 98 24 5 25 97 26 2 27 1 28 22 29 23 30 24 31 25 32 26 34
REMARK SMILES IDX 27 35 28 36 92 37 29 38 91 39 30 40 31 41 32 42 85 43 33 44
REMARK SMILES IDX 90 45 84 46 86 47 34 48 89 49 83 50 82 51 35 53 69 54 48 55
REMARK SMILES IDX 68 56 49 57 52 58 67 59 87 60 50 61 51 62 66 64 88 65 53 66
REMARK SMILES IDX 36 67 37 68 46 69 38 70 39 71 45 72 47 73 40 74 41 75 42 76
REMARK SMILES IDX 43 77 44 78 70 79 71 80 80 81 72 82 73 83 79 84 81 85 74 86
REMARK SMILES IDX 75 87 76 88 77 89 78 90 54 91 55 92 64 93 56 94 57 95 63 96
REMARK SMILES IDX 65 97 58 98 59 99 60 100 61 101 62 102
REMARK H PARENT 20 5 24 33 86 52 52 63
REMARK Flexibility Score: inf
ROOT
ATOM      1  C   UNL     1      -4.519   7.299   7.725  1.00  0.00     0.118 C 
ENDROOT
BRANCH   1   2
ATOM      2  N   UNL     1      -3.905   8.425   7.033  1.00  0.00    -0.352 N 
ATOM      3  C   UNL     1      -2.644   8.615   6.513  1.00  0.00     0.251 C 
ATOM      4  O   UNL     1      -2.442   9.620   5.834  1.00  0.00    -0.269 OA
ATOM      5  H   UNL     1      -4.505   9.197   6.916  1.00  0.00     0.163 HD
BRANCH   3   6
ATOM      6  C   UNL     1      -1.542   7.627   6.679  1.00  0.00     0.039 A 
ATOM      7  C   UNL     1       0.401   5.625   6.737  1.00  0.00     0.067 A 
ATOM      8  C   UNL     1       0.492   6.626   5.770  1.00  0.00     0.029 A 
ATOM      9  C   UNL     1      -0.556   5.691   7.746  1.00  0.00     0.029 A 
ATOM     10  C   UNL     1      -0.505   7.609   5.728  1.00  0.00     0.016 A 
ATOM     11  C   UNL     1      -1.488   6.717   7.734  1.00  0.00     0.016 A 
BRANCH   7  12
ATOM     12  N   UNL     1       1.212   4.483   6.674  1.00  0.00    -0.216 N 
ATOM     13  C   UNL     1       1.973   2.452   6.730  1.00  0.00     0.205 A 
ATOM     14  N   UNL     1       3.026   3.312   6.562  1.00  0.00    -0.117 NA
ATOM     15  C   UNL     1       0.787   3.166   6.721  1.00  0.00     0.081 A 
ATOM     16  N   UNL     1       2.538   4.540   6.439  1.00  0.00    -0.061 NA
ATOM     17  C   UNL     1      -0.631   2.744   6.570  1.00  0.00     0.070 C 
BRANCH  13  18
ATOM     18  S   UNL     1       2.157   0.737   6.641  1.00  0.00     0.227 S 
ATOM     19  O   UNL     1       1.155   0.213   7.537  1.00  0.00    -0.217 OA
ATOM     20  O   UNL     1       3.578   0.474   6.817  1.00  0.00    -0.217 OA
BRANCH  18  21
ATOM     21  C   UNL     1       1.715   0.269   4.989  1.00  0.00     0.073 A 
ATOM     22  C   UNL     1       0.910  -0.543   2.427  1.00  0.00    -0.048 A 
ATOM     23  C   UNL     1       1.170  -1.491   3.432  1.00  0.00     0.005 A 
ATOM     24  C   UNL     1       1.037   0.816   2.737  1.00  0.00     0.005 A 
ATOM     25  C   UNL     1       1.567  -1.090   4.710  1.00  0.00     0.021 A 
ATOM     26  C   UNL     1       1.460   1.223   4.000  1.00  0.00     0.021 A 
BRANCH  22  27
ATOM     27  C   UNL     1       0.446  -1.008   1.066  1.00  0.00     0.032 C 
ATOM     28  C   UNL     1       0.925  -0.151  -0.102  1.00  0.00     0.009 C 
ENDBRANCH  22  27
ENDBRANCH  18  21
ENDBRANCH  13  18
ENDBRANCH   7  12
ENDBRANCH   3   6
ENDBRANCH   1   2
BRANCH   1  29
ATOM     29  C   UNL     1      -4.454   7.436   9.254  1.00  0.00     0.042 C 
BRANCH  29  30
ATOM     30  C   UNL     1      -5.578   8.284   9.812  1.00  0.00     0.118 C 
BRANCH  30  31
ATOM     31  N   UNL     1      -6.877   7.609   9.742  1.00  0.00    -0.352 N 
ATOM     32  C   UNL     1      -8.121   8.107  10.087  1.00  0.00     0.251 C 
ATOM     33  H   UNL     1      -6.863   6.684   9.406  1.00  0.00     0.163 HD
ATOM     34  O   UNL     1      -9.052   7.345  10.318  1.00  0.00    -0.269 OA
BRANCH  32  35
ATOM     35  C   UNL     1      -8.295   9.567  10.179  1.00  0.00     0.039 A 
ATOM     36  C   UNL     1      -9.080  10.163  11.169  1.00  0.00     0.014 A 
ATOM     37  C   UNL     1      -7.594  10.345   9.268  1.00  0.00     0.014 A 
ATOM     38  C   UNL     1      -9.081  11.553  11.274  1.00  0.00     0.010 A 
ATOM     39  C   UNL     1      -7.407  11.672   9.525  1.00  0.00     0.010 A 
ATOM     40  C   UNL     1      -8.221  12.300  10.454  1.00  0.00    -0.014 A 
BRANCH  40  41
ATOM     41  C   UNL     1      -8.088  13.746  10.583  1.00  0.00     0.031 A 
ATOM     42  C   UNL     1      -7.724  14.215  11.946  1.00  0.00     0.074 A 
ATOM     43  C   UNL     1      -8.037  14.557   9.502  1.00  0.00     0.049 A 
ATOM     44  N   UNL     1      -8.450  14.893  12.772  1.00  0.00    -0.248 NA
ATOM     45  C   UNL     1      -6.457  13.739  12.527  1.00  0.00     0.031 C 
ATOM     46  C   UNL     1      -8.044  14.188   8.078  1.00  0.00     0.029 A 
ATOM     47  N   UNL     1      -7.838  15.899   9.449  1.00  0.00    -0.354 N 
ATOM     48  C   UNL     1      -7.636  15.145  13.873  1.00  0.00     0.074 A 
ATOM     49  C   UNL     1      -6.529  14.231  13.765  1.00  0.00     0.031 C 
ATOM     50  C   UNL     1      -7.606  15.227   7.335  1.00  0.00     0.029 A 
ATOM     51  C   UNL     1      -7.473  16.384   8.197  1.00  0.00     0.049 A 
ATOM     52  H   UNL     1      -7.945  16.483  10.234  1.00  0.00     0.167 HD
ATOM     53  C   UNL     1      -7.802  16.264  14.634  1.00  0.00     0.037 A 
ATOM     54  C   UNL     1      -7.063  17.643   7.901  1.00  0.00     0.037 A 
ATOM     55  C   UNL     1      -9.082  16.879  14.372  1.00  0.00     0.049 A 
ATOM     56  C   UNL     1      -7.530  18.512   9.014  1.00  0.00     0.074 A 
ATOM     57  C   UNL     1     -10.394  16.451  14.443  1.00  0.00     0.029 A 
ATOM     58  N   UNL     1      -9.101  18.001  13.576  1.00  0.00    -0.354 N 
ATOM     59  N   UNL     1      -8.791  18.740   9.275  1.00  0.00    -0.248 NA
ATOM     60  C   UNL     1      -6.617  18.732  10.125  1.00  0.00     0.031 C 
ATOM     61  C   UNL     1     -11.029  17.021  13.299  1.00  0.00     0.029 A 
ATOM     62  C   UNL     1     -10.095  17.827  12.645  1.00  0.00     0.049 A 
ATOM     63  H   UNL     1      -8.511  18.785  13.658  1.00  0.00     0.167 HD
ATOM     64  C   UNL     1      -8.881  18.711  10.660  1.00  0.00     0.074 A 
ATOM     65  C   UNL     1      -7.498  18.788  11.129  1.00  0.00     0.031 C 
ATOM     66  C   UNL     1     -10.034  18.335  11.290  1.00  0.00     0.037 A 
BRANCH  53  67
ATOM     67  C   UNL     1      -6.678  17.011  15.322  1.00  0.00     0.058 A 
ATOM     68  C   UNL     1      -6.994  18.080  16.188  1.00  0.00     0.135 A 
ATOM     69  C   UNL     1      -5.316  16.912  14.958  1.00  0.00     0.135 A 
ATOM     70  F   UNL     1      -8.256  18.274  16.603  1.00  0.00    -0.206 F 
ATOM     71  C   UNL     1      -6.048  19.026  16.587  1.00  0.00     0.059 A 
ATOM     72  C   UNL     1      -4.347  17.810  15.391  1.00  0.00     0.059 A 
ATOM     73  F   UNL     1      -4.866  16.002  14.087  1.00  0.00    -0.206 F 
ATOM     74  C   UNL     1      -4.729  18.891  16.165  1.00  0.00     0.060 A 
BRANCH  74  75
ATOM     75  S   UNL     1      -3.531  20.170  16.575  1.00  0.00     0.124 S 
ATOM     76  O   UNL     1      -4.007  21.282  15.761  1.00  0.00    -0.237 OA
ATOM     77  O   UNL     1      -3.715  20.305  18.016  1.00  0.00    -0.237 OA
ATOM     78  O   UNL     1      -2.260  19.582  16.163  1.00  0.00    -0.744 OA
ENDBRANCH  74  75
ENDBRANCH  53  67
BRANCH  54  79
ATOM     79  C   UNL     1      -6.029  18.063   6.918  1.00  0.00     0.058 A 
ATOM     80  C   UNL     1      -5.879  19.412   6.549  1.00  0.00     0.135 A 
ATOM     81  C   UNL     1      -4.985  17.197   6.531  1.00  0.00     0.135 A 
ATOM     82  F   UNL     1      -6.815  20.310   6.890  1.00  0.00    -0.206 F 
ATOM     83  C   UNL     1      -4.739  19.883   5.886  1.00  0.00     0.059 A 
ATOM     84  C   UNL     1      -3.845  17.641   5.861  1.00  0.00     0.059 A 
ATOM     85  F   UNL     1      -4.998  15.900   6.876  1.00  0.00    -0.206 F 
ATOM     86  C   UNL     1      -3.716  18.992   5.565  1.00  0.00     0.060 A 
BRANCH  86  87
ATOM     87  S   UNL     1      -2.167  19.625   4.876  1.00  0.00     0.124 S 
ATOM     88  O   UNL     1      -2.576  20.033   3.537  1.00  0.00    -0.237 OA
ATOM     89  O   UNL     1      -1.837  20.706   5.799  1.00  0.00    -0.237 OA
ATOM     90  O   UNL     1      -1.274  18.471   4.931  1.00  0.00    -0.744 OA
ENDBRANCH  86  87
ENDBRANCH  54  79
BRANCH  66  91
ATOM     91  C   UNL     1     -11.298  18.221  10.470  1.00  0.00     0.058 A 
ATOM     92  C   UNL     1     -11.496  17.298   9.427  1.00  0.00     0.135 A 
ATOM     93  C   UNL     1     -12.414  18.972  10.871  1.00  0.00     0.135 A 
ATOM     94  F   UNL     1     -10.519  16.465   9.048  1.00  0.00    -0.206 F 
ATOM     95  C   UNL     1     -12.730  17.157   8.787  1.00  0.00     0.059 A 
ATOM     96  C   UNL     1     -13.662  18.826  10.270  1.00  0.00     0.059 A 
ATOM     97  F   UNL     1     -12.312  19.826  11.903  1.00  0.00    -0.206 F 
ATOM     98  C   UNL     1     -13.810  17.926   9.218  1.00  0.00     0.060 A 
BRANCH  98  99
ATOM     99  S   UNL     1     -15.424  17.692   8.441  1.00  0.00     0.124 S 
ATOM    100  O   UNL     1     -15.219  18.285   7.123  1.00  0.00    -0.237 OA
ATOM    101  O   UNL     1     -15.582  16.241   8.466  1.00  0.00    -0.237 OA
ATOM    102  O   UNL     1     -16.334  18.424   9.319  1.00  0.00    -0.744 OA
ENDBRANCH  98  99
ENDBRANCH  66  91
ENDBRANCH  40  41
ENDBRANCH  32  35
ENDBRANCH  30  31
ENDBRANCH  29  30
ENDBRANCH   1  29
TORSDOF 17
