REMARK SMILES C=CC[N@@H+](CC(=O)NCCCNC(=O)c1ccc(-c2c3nc(c(-c4c(F)cc(S(=O)(=O)[O-])cc4F)c4ccc([nH]4)c(-c4c(F)cc(S(=O)(=O)[O-])cc4F)c4nc(c(-c5c(F)cc(S(=O)(=O)[O-])cc5F)c5ccc2[nH]5)C=C4)C=C3)cc1)C(C)C
REMARK SMILES IDX 10 1 9 2 8 3 6 4 7 5 5 7 4 8 3 10 2 11 1 12 81 13 82 14
REMARK SMILES IDX 83 15 11 16 12 17 13 18 14 20 15 21 16 22 80 23 17 24 79 25
REMARK SMILES IDX 18 26 19 27 20 28 73 29 21 30 78 31 72 32 74 33 22 34 77 35
REMARK SMILES IDX 71 36 70 37 23 39 57 40 36 41 56 42 37 43 40 44 55 45 75 46
REMARK SMILES IDX 38 47 39 48 54 50 76 51 41 52 24 53 25 54 34 55 26 56 27 57
REMARK SMILES IDX 33 58 35 59 28 60 29 61 30 62 31 63 32 64 58 65 59 66 68 67
REMARK SMILES IDX 60 68 61 69 67 70 69 71 62 72 63 73 64 74 65 75 66 76 42 77
REMARK SMILES IDX 43 78 52 79 44 80 45 81 51 82 53 83 46 84 47 85 48 86 49 87
REMARK SMILES IDX 50 88
REMARK H PARENT 8 6 4 9 12 19 74 38 40 49
REMARK Flexibility Score: inf
ROOT
ATOM      1  C   UNL     1      -2.000  -1.197   1.315  1.00  0.00     0.042 C 
ENDROOT
BRANCH   1   2
ATOM      2  C   UNL     1      -3.164  -1.212   0.320  1.00  0.00     0.118 C 
BRANCH   2   3
ATOM      3  N   UNL     1      -3.787   0.093   0.169  1.00  0.00    -0.351 N 
ATOM      4  C   UNL     1      -3.786   0.992  -0.858  1.00  0.00     0.275 C 
ATOM      5  O   UNL     1      -4.515   1.982  -0.718  1.00  0.00    -0.269 OA
ATOM      6  H   UNL     1      -4.305   0.383   0.954  1.00  0.00     0.163 HD
BRANCH   4   7
ATOM      7  C   UNL     1      -2.988   0.798  -2.155  1.00  0.00     0.363 C 
BRANCH   7   8
ATOM      8  N   UNL     1      -1.539   1.144  -2.136  1.00  0.00    -0.322 N 
ATOM      9  H   UNL     1      -1.217   1.303  -3.091  1.00  0.00     0.349 HD
BRANCH   8  10
ATOM     10  C   UNL     1      -0.734   0.004  -1.726  1.00  0.00     0.291 C 
BRANCH  10  11
ATOM     11  C   UNL     1       0.751   0.057  -1.876  1.00  0.00     0.025 C 
ATOM     12  C   UNL     1       1.597  -0.132  -0.852  1.00  0.00     0.010 C 
ENDBRANCH  10  11
ENDBRANCH   8  10
BRANCH   8  13
ATOM     13  C   UNL     1      -1.229   2.494  -1.618  1.00  0.00     0.178 C 
ATOM     14  C   UNL     1      -1.357   2.713  -0.104  1.00  0.00     0.075 C 
ATOM     15  C   UNL     1       0.156   3.001  -2.058  1.00  0.00     0.075 C 
ENDBRANCH   8  13
ENDBRANCH   7   8
ENDBRANCH   4   7
ENDBRANCH   2   3
ENDBRANCH   1   2
BRANCH   1  16
ATOM     16  C   UNL     1      -2.394  -1.087   2.780  1.00  0.00     0.118 C 
BRANCH  16  17
ATOM     17  N   UNL     1      -2.764  -2.364   3.358  1.00  0.00    -0.352 N 
ATOM     18  C   UNL     1      -2.071  -3.234   4.166  1.00  0.00     0.251 C 
ATOM     19  H   UNL     1      -3.675  -2.662   3.131  1.00  0.00     0.163 HD
ATOM     20  O   UNL     1      -2.552  -4.351   4.356  1.00  0.00    -0.269 OA
BRANCH  18  21
ATOM     21  C   UNL     1      -0.766  -2.888   4.793  1.00  0.00     0.039 A 
ATOM     22  C   UNL     1       0.167  -3.915   4.989  1.00  0.00     0.014 A 
ATOM     23  C   UNL     1      -0.467  -1.611   5.273  1.00  0.00     0.014 A 
ATOM     24  C   UNL     1       1.391  -3.655   5.618  1.00  0.00     0.010 A 
ATOM     25  C   UNL     1       0.792  -1.330   5.811  1.00  0.00     0.010 A 
ATOM     26  C   UNL     1       1.730  -2.353   6.013  1.00  0.00    -0.014 A 
BRANCH  26  27
ATOM     27  C   UNL     1       3.031  -2.056   6.676  1.00  0.00     0.031 A 
ATOM     28  C   UNL     1       3.064  -1.514   8.085  1.00  0.00     0.074 A 
ATOM     29  C   UNL     1       4.187  -2.232   6.005  1.00  0.00     0.049 A 
ATOM     30  N   UNL     1       4.093  -1.148   8.808  1.00  0.00    -0.248 NA
ATOM     31  C   UNL     1       1.768  -1.335   8.758  1.00  0.00     0.031 C 
ATOM     32  C   UNL     1       4.300  -2.712   4.626  1.00  0.00     0.029 A 
ATOM     33  N   UNL     1       5.490  -2.026   6.390  1.00  0.00    -0.354 N 
ATOM     34  C   UNL     1       3.568  -0.679  10.008  1.00  0.00     0.074 A 
ATOM     35  C   UNL     1       2.128  -0.755   9.894  1.00  0.00     0.031 C 
ATOM     36  C   UNL     1       5.598  -2.790   4.292  1.00  0.00     0.029 A 
ATOM     37  C   UNL     1       6.410  -2.333   5.416  1.00  0.00     0.049 A 
ATOM     38  H   UNL     1       5.741  -1.689   7.280  1.00  0.00     0.167 HD
ATOM     39  C   UNL     1       4.221  -0.247  11.115  1.00  0.00     0.037 A 
ATOM     40  C   UNL     1       7.756  -2.256   5.422  1.00  0.00     0.037 A 
ATOM     41  C   UNL     1       5.655  -0.202  11.242  1.00  0.00     0.049 A 
ATOM     42  C   UNL     1       8.463  -1.781   6.662  1.00  0.00     0.074 A 
ATOM     43  C   UNL     1       6.412   0.164  12.341  1.00  0.00     0.029 A 
ATOM     44  N   UNL     1       6.550  -0.536  10.236  1.00  0.00    -0.354 N 
ATOM     45  N   UNL     1       7.950  -1.391   7.805  1.00  0.00    -0.248 NA
ATOM     46  C   UNL     1       9.931  -1.740   6.616  1.00  0.00     0.031 C 
ATOM     47  C   UNL     1       7.764   0.089  11.988  1.00  0.00     0.029 A 
ATOM     48  C   UNL     1       7.851  -0.368  10.683  1.00  0.00     0.049 A 
ATOM     49  H   UNL     1       6.298  -0.847   9.336  1.00  0.00     0.167 HD
ATOM     50  C   UNL     1       9.032  -1.083   8.622  1.00  0.00     0.074 A 
ATOM     51  C   UNL     1      10.228  -1.340   7.846  1.00  0.00     0.031 C 
ATOM     52  C   UNL     1       9.034  -0.631   9.901  1.00  0.00     0.037 A 
BRANCH  39  53
ATOM     53  C   UNL     1       3.384   0.210  12.280  1.00  0.00     0.058 A 
ATOM     54  C   UNL     1       2.629  -0.694  13.046  1.00  0.00     0.135 A 
ATOM     55  C   UNL     1       3.341   1.566  12.642  1.00  0.00     0.135 A 
ATOM     56  F   UNL     1       2.622  -2.000  12.737  1.00  0.00    -0.206 F 
ATOM     57  C   UNL     1       1.827  -0.264  14.098  1.00  0.00     0.059 A 
ATOM     58  C   UNL     1       2.569   2.014  13.711  1.00  0.00     0.059 A 
ATOM     59  F   UNL     1       4.047   2.474  11.950  1.00  0.00    -0.206 F 
ATOM     60  C   UNL     1       1.798   1.093  14.419  1.00  0.00     0.060 A 
BRANCH  60  61
ATOM     61  S   UNL     1       0.735   1.642  15.771  1.00  0.00     0.124 S 
ATOM     62  O   UNL     1      -0.586   1.562  15.150  1.00  0.00    -0.237 OA
ATOM     63  O   UNL     1       1.005   0.645  16.806  1.00  0.00    -0.237 OA
ATOM     64  O   UNL     1       1.214   2.986  16.059  1.00  0.00    -0.744 OA
ENDBRANCH  60  61
ENDBRANCH  39  53
BRANCH  40  65
ATOM     65  C   UNL     1       8.524  -2.676   4.220  1.00  0.00     0.058 A 
ATOM     66  C   UNL     1       9.260  -3.870   4.219  1.00  0.00     0.135 A 
ATOM     67  C   UNL     1       8.511  -1.915   3.042  1.00  0.00     0.135 A 
ATOM     68  F   UNL     1       9.309  -4.628   5.325  1.00  0.00    -0.206 F 
ATOM     69  C   UNL     1       9.960  -4.294   3.094  1.00  0.00     0.059 A 
ATOM     70  C   UNL     1       9.185  -2.329   1.897  1.00  0.00     0.059 A 
ATOM     71  F   UNL     1       7.810  -0.771   2.987  1.00  0.00    -0.206 F 
ATOM     72  C   UNL     1       9.911  -3.519   1.935  1.00  0.00     0.060 A 
BRANCH  72  73
ATOM     73  S   UNL     1      10.763  -4.115   0.458  1.00  0.00     0.124 S 
ATOM     74  O   UNL     1      12.158  -3.868   0.803  1.00  0.00    -0.237 OA
ATOM     75  O   UNL     1      10.354  -5.515   0.412  1.00  0.00    -0.237 OA
ATOM     76  O   UNL     1      10.217  -3.276  -0.605  1.00  0.00    -0.744 OA
ENDBRANCH  72  73
ENDBRANCH  40  65
BRANCH  52  77
ATOM     77  C   UNL     1      10.369  -0.412  10.556  1.00  0.00     0.058 A 
ATOM     78  C   UNL     1      11.188   0.676  10.217  1.00  0.00     0.135 A 
ATOM     79  C   UNL     1      10.812  -1.275  11.572  1.00  0.00     0.135 A 
ATOM     80  F   UNL     1      10.814   1.527   9.248  1.00  0.00    -0.206 F 
ATOM     81  C   UNL     1      12.410   0.889  10.847  1.00  0.00     0.059 A 
ATOM     82  C   UNL     1      12.019  -1.067  12.232  1.00  0.00     0.059 A 
ATOM     83  F   UNL     1      10.062  -2.325  11.941  1.00  0.00    -0.206 F 
ATOM     84  C   UNL     1      12.817   0.012  11.854  1.00  0.00     0.060 A 
BRANCH  84  85
ATOM     85  S   UNL     1      14.389   0.318  12.687  1.00  0.00     0.124 S 
ATOM     86  O   UNL     1      15.347  -0.120  11.677  1.00  0.00    -0.237 OA
ATOM     87  O   UNL     1      14.341   1.756  12.933  1.00  0.00    -0.237 OA
ATOM     88  O   UNL     1      14.309  -0.518  13.881  1.00  0.00    -0.744 OA
ENDBRANCH  84  85
ENDBRANCH  52  77
ENDBRANCH  26  27
ENDBRANCH  18  21
ENDBRANCH  16  17
ENDBRANCH   1  16
TORSDOF 17
