REMARK SMILES CC(C)(C)c1n[nH]c2c1CC[C@@H](C(=O)NCCCNC(=O)c1ccc(-c3c4nc(c(-c5c(F)cc(S(=O)(=O)[O-])cc5F)c5ccc([nH]5)c(-c5c(F)cc(S(=O)(=O)[O-])cc5F)c5nc(c(-c6c(F)cc(S(=O)(=O)[O-])cc6F)c6ccc3[nH]6)C=C5)C=C4)cc1)C2
REMARK SMILES IDX 18 1 17 2 16 3 15 4 13 5 14 6 12 8 5 9 6 10 9 11 7 12 8 13
REMARK SMILES IDX 10 14 88 16 11 17 2 18 1 19 3 20 4 21 19 22 20 23 21 25
REMARK SMILES IDX 22 26 23 27 87 28 24 29 86 30 25 31 26 32 27 33 80 34 28 35
REMARK SMILES IDX 85 36 79 37 81 38 29 39 84 40 78 41 77 42 30 44 64 45 43 46
REMARK SMILES IDX 63 47 44 48 47 49 62 50 82 51 45 52 46 53 61 55 83 56 48 57
REMARK SMILES IDX 31 58 32 59 41 60 33 61 34 62 40 63 42 64 35 65 36 66 37 67
REMARK SMILES IDX 38 68 39 69 65 70 66 71 75 72 67 73 68 74 74 75 76 76 69 77
REMARK SMILES IDX 70 78 71 79 72 80 73 81 49 82 50 83 59 84 51 85 52 86 58 87
REMARK SMILES IDX 60 88 53 89 54 90 55 91 56 92 57 93
REMARK H PARENT 15 7 7 15 19 24 81 43 47 54
REMARK Flexibility Score: inf
ROOT
ATOM      1  C   UNL     1       2.487   8.890  -4.823  1.00  0.00     0.118 C 
ENDROOT
BRANCH   1   2
ATOM      2  C   UNL     1       2.355   7.385  -4.625  1.00  0.00     0.042 C 
BRANCH   2   3
ATOM      3  C   UNL     1       2.521   6.984  -3.165  1.00  0.00     0.117 C 
BRANCH   3   4
ATOM      4  N   UNL     1       1.318   7.243  -2.397  1.00  0.00    -0.356 N 
ATOM      5  C   UNL     1       0.250   6.510  -2.014  1.00  0.00     0.223 C 
ATOM      6  O   UNL     1      -0.637   7.145  -1.425  1.00  0.00    -0.275 OA
ATOM      7  H   UNL     1       1.267   8.174  -2.081  1.00  0.00     0.163 HD
BRANCH   5   8
ATOM      8  C   UNL     1       0.081   5.002  -2.178  1.00  0.00     0.084 C 
ATOM      9  C   UNL     1       0.532   0.753  -2.168  1.00  0.00     0.071 A 
ATOM     10  N   UNL     1       1.130   0.597  -3.363  1.00  0.00    -0.180 NA
ATOM     11  C   UNL     1       0.287   2.131  -1.905  1.00  0.00    -0.003 A 
ATOM     12  N   UNL     1       1.283   1.837  -3.843  1.00  0.00    -0.282 N 
ATOM     13  C   UNL     1       0.816   2.784  -2.993  1.00  0.00     0.039 A 
ATOM     14  C   UNL     1      -0.340   2.874  -0.778  1.00  0.00     0.040 C 
ATOM     15  H   UNL     1       1.690   2.039  -4.716  1.00  0.00     0.190 HD
ATOM     16  C   UNL     1       1.006   4.244  -3.135  1.00  0.00     0.069 C 
ATOM     17  C   UNL     1       0.103   4.354  -0.765  1.00  0.00     0.019 C 
BRANCH   9  18
ATOM     18  C   UNL     1       0.217  -0.468  -1.317  1.00  0.00     0.006 C 
ATOM     19  C   UNL     1       0.880  -0.361   0.072  1.00  0.00     0.017 C 
ATOM     20  C   UNL     1       0.749  -1.769  -1.966  1.00  0.00     0.017 C 
ATOM     21  C   UNL     1      -1.306  -0.607  -1.152  1.00  0.00     0.017 C 
ENDBRANCH   9  18
ENDBRANCH   5   8
ENDBRANCH   3   4
ENDBRANCH   2   3
ENDBRANCH   1   2
BRANCH   1  22
ATOM     22  N   UNL     1       3.812   9.360  -4.436  1.00  0.00    -0.352 N 
ATOM     23  C   UNL     1       4.859   9.799  -5.203  1.00  0.00     0.251 C 
ATOM     24  H   UNL     1       3.982   9.363  -3.466  1.00  0.00     0.163 HD
ATOM     25  O   UNL     1       5.988   9.804  -4.722  1.00  0.00    -0.269 OA
BRANCH  23  26
ATOM     26  C   UNL     1       4.630  10.288  -6.578  1.00  0.00     0.039 A 
ATOM     27  C   UNL     1       5.642  10.139  -7.530  1.00  0.00     0.014 A 
ATOM     28  C   UNL     1       3.461  10.979  -6.904  1.00  0.00     0.014 A 
ATOM     29  C   UNL     1       5.473  10.674  -8.808  1.00  0.00     0.010 A 
ATOM     30  C   UNL     1       3.250  11.419  -8.203  1.00  0.00     0.010 A 
ATOM     31  C   UNL     1       4.272  11.312  -9.154  1.00  0.00    -0.014 A 
BRANCH  31  32
ATOM     32  C   UNL     1       4.093  11.956 -10.476  1.00  0.00     0.031 A 
ATOM     33  C   UNL     1       3.885  13.447 -10.553  1.00  0.00     0.074 A 
ATOM     34  C   UNL     1       4.063  11.199 -11.588  1.00  0.00     0.049 A 
ATOM     35  N   UNL     1       3.636  14.196 -11.595  1.00  0.00    -0.248 NA
ATOM     36  C   UNL     1       3.921  14.191  -9.281  1.00  0.00     0.031 C 
ATOM     37  C   UNL     1       4.191   9.740 -11.625  1.00  0.00     0.029 A 
ATOM     38  N   UNL     1       3.910  11.552 -12.903  1.00  0.00    -0.354 N 
ATOM     39  C   UNL     1       3.456  15.484 -11.102  1.00  0.00     0.074 A 
ATOM     40  C   UNL     1       3.563  15.407  -9.663  1.00  0.00     0.031 C 
ATOM     41  C   UNL     1       4.144   9.327 -12.902  1.00  0.00     0.029 A 
ATOM     42  C   UNL     1       3.955  10.486 -13.768  1.00  0.00     0.049 A 
ATOM     43  H   UNL     1       3.781  12.482 -13.200  1.00  0.00     0.167 HD
ATOM     44  C   UNL     1       3.253  16.633 -11.789  1.00  0.00     0.037 A 
ATOM     45  C   UNL     1       3.863  10.454 -15.111  1.00  0.00     0.037 A 
ATOM     46  C   UNL     1       3.206  16.704 -13.225  1.00  0.00     0.049 A 
ATOM     47  C   UNL     1       3.712  11.751 -15.857  1.00  0.00     0.074 A 
ATOM     48  C   UNL     1       3.060  17.817 -14.032  1.00  0.00     0.029 A 
ATOM     49  N   UNL     1       3.327  15.609 -14.070  1.00  0.00    -0.354 N 
ATOM     50  N   UNL     1       3.587  12.967 -15.379  1.00  0.00    -0.248 NA
ATOM     51  C   UNL     1       3.711  11.676 -17.323  1.00  0.00     0.031 C 
ATOM     52  C   UNL     1       3.072  17.394 -15.366  1.00  0.00     0.029 A 
ATOM     53  C   UNL     1       3.264  16.021 -15.389  1.00  0.00     0.049 A 
ATOM     54  H   UNL     1       3.440  14.677 -13.774  1.00  0.00     0.167 HD
ATOM     55  C   UNL     1       3.527  13.806 -16.485  1.00  0.00     0.074 A 
ATOM     56  C   UNL     1       3.638  12.957 -17.655  1.00  0.00     0.031 C 
ATOM     57  C   UNL     1       3.396  15.155 -16.533  1.00  0.00     0.037 A 
BRANCH  44  58
ATOM     58  C   UNL     1       3.088  17.900 -10.993  1.00  0.00     0.058 A 
ATOM     59  C   UNL     1       4.160  18.473 -10.289  1.00  0.00     0.135 A 
ATOM     60  C   UNL     1       1.847  18.555 -10.939  1.00  0.00     0.135 A 
ATOM     61  F   UNL     1       5.364  17.878 -10.290  1.00  0.00    -0.206 F 
ATOM     62  C   UNL     1       4.000  19.628  -9.531  1.00  0.00     0.059 A 
ATOM     63  C   UNL     1       1.672  19.729 -10.210  1.00  0.00     0.059 A 
ATOM     64  F   UNL     1       0.787  18.052 -11.591  1.00  0.00    -0.206 F 
ATOM     65  C   UNL     1       2.751  20.247  -9.495  1.00  0.00     0.060 A 
BRANCH  65  66
ATOM     66  S   UNL     1       2.557  21.745  -8.505  1.00  0.00     0.124 S 
ATOM     67  O   UNL     1       2.521  21.195  -7.153  1.00  0.00    -0.237 OA
ATOM     68  O   UNL     1       3.755  22.505  -8.847  1.00  0.00    -0.237 OA
ATOM     69  O   UNL     1       1.301  22.310  -8.987  1.00  0.00    -0.744 OA
ENDBRANCH  65  66
ENDBRANCH  44  58
BRANCH  45  70
ATOM     70  C   UNL     1       3.975   9.159 -15.831  1.00  0.00     0.058 A 
ATOM     71  C   UNL     1       5.128   8.844 -16.565  1.00  0.00     0.135 A 
ATOM     72  C   UNL     1       2.949   8.204 -15.782  1.00  0.00     0.135 A 
ATOM     73  F   UNL     1       6.137   9.725 -16.639  1.00  0.00    -0.206 F 
ATOM     74  C   UNL     1       5.252   7.637 -17.245  1.00  0.00     0.059 A 
ATOM     75  C   UNL     1       3.059   6.980 -16.435  1.00  0.00     0.059 A 
ATOM     76  F   UNL     1       1.836   8.448 -15.072  1.00  0.00    -0.206 F 
ATOM     77  C   UNL     1       4.210   6.711 -17.174  1.00  0.00     0.060 A 
BRANCH  77  78
ATOM     78  S   UNL     1       4.399   5.127 -18.022  1.00  0.00     0.124 S 
ATOM     79  O   UNL     1       4.188   5.513 -19.412  1.00  0.00    -0.237 OA
ATOM     80  O   UNL     1       5.762   4.747 -17.664  1.00  0.00    -0.237 OA
ATOM     81  O   UNL     1       3.351   4.303 -17.427  1.00  0.00    -0.744 OA
ENDBRANCH  77  78
ENDBRANCH  45  70
BRANCH  57  82
ATOM     82  C   UNL     1       3.420  15.794 -17.891  1.00  0.00     0.058 A 
ATOM     83  C   UNL     1       2.335  15.694 -18.775  1.00  0.00     0.135 A 
ATOM     84  C   UNL     1       4.537  16.539 -18.300  1.00  0.00     0.135 A 
ATOM     85  F   UNL     1       1.245  14.990 -18.430  1.00  0.00    -0.206 F 
ATOM     86  C   UNL     1       2.372  16.279 -20.036  1.00  0.00     0.059 A 
ATOM     87  C   UNL     1       4.586  17.154 -19.546  1.00  0.00     0.059 A 
ATOM     88  F   UNL     1       5.595  16.676 -17.484  1.00  0.00    -0.206 F 
ATOM     89  C   UNL     1       3.505  17.003 -20.414  1.00  0.00     0.060 A 
BRANCH  89  90
ATOM     90  S   UNL     1       3.544  17.763 -22.050  1.00  0.00     0.124 S 
ATOM     91  O   UNL     1       3.837  16.613 -22.899  1.00  0.00    -0.237 OA
ATOM     92  O   UNL     1       2.199  18.316 -22.173  1.00  0.00    -0.237 OA
ATOM     93  O   UNL     1       4.612  18.752 -21.938  1.00  0.00    -0.744 OA
ENDBRANCH  89  90
ENDBRANCH  57  82
ENDBRANCH  31  32
ENDBRANCH  23  26
ENDBRANCH   1  22
TORSDOF 14
