REMARK SMILES CC(C)N1C[C@@H](C(=O)NCCCNC(=O)c2ccc(-c3c4nc(c(-c5c(F)cc(S(=O)(=O)[O-])cc5F)c5ccc([nH]5)c(-c5c(F)cc(S(=O)(=O)[O-])cc5F)c5nc(c(-c6c(F)cc(S(=O)(=O)[O-])cc6F)c6ccc3[nH]6)C=C5)C=C4)cc2)CC1=O
REMARK SMILES IDX 12 1 11 2 10 3 9 4 7 5 8 6 6 8 4 9 5 10 83 11 82 12 84 13
REMARK SMILES IDX 2 14 1 15 3 16 13 17 14 18 15 20 16 21 17 22 81 23 18 24
REMARK SMILES IDX 80 25 19 26 20 27 21 28 74 29 22 30 79 31 73 32 75 33 23 34
REMARK SMILES IDX 78 35 72 36 71 37 24 39 58 40 37 41 57 42 38 43 41 44 56 45
REMARK SMILES IDX 76 46 39 47 40 48 55 50 77 51 42 52 25 53 26 54 35 55 27 56
REMARK SMILES IDX 28 57 34 58 36 59 29 60 30 61 31 62 32 63 33 64 59 65 60 66
REMARK SMILES IDX 69 67 61 68 62 69 68 70 70 71 63 72 64 73 65 74 66 75 67 76
REMARK SMILES IDX 43 77 44 78 53 79 45 80 46 81 52 82 54 83 47 84 48 85 49 86
REMARK SMILES IDX 50 87 51 88
REMARK H PARENT 9 7 13 19 75 38 41 49
REMARK Flexibility Score: inf
ROOT
ATOM      1  C   UNL     1      -5.255  -0.694   2.973  1.00  0.00     0.118 C 
ENDROOT
BRANCH   1   2
ATOM      2  C   UNL     1      -4.132  -0.026   2.186  1.00  0.00     0.042 C 
BRANCH   2   3
ATOM      3  C   UNL     1      -3.385  -0.954   1.237  1.00  0.00     0.117 C 
BRANCH   3   4
ATOM      4  N   UNL     1      -4.248  -1.500   0.201  1.00  0.00    -0.356 N 
ATOM      5  C   UNL     1      -4.245  -1.352  -1.148  1.00  0.00     0.225 C 
ATOM      6  O   UNL     1      -5.106  -1.964  -1.786  1.00  0.00    -0.275 OA
ATOM      7  H   UNL     1      -4.965  -2.083   0.540  1.00  0.00     0.163 HD
BRANCH   5   8
ATOM      8  C   UNL     1      -3.226  -0.509  -1.881  1.00  0.00     0.107 C 
ATOM      9  N   UNL     1      -0.995   0.162  -1.605  1.00  0.00    -0.339 N 
ATOM     10  C   UNL     1      -1.809  -1.026  -1.704  1.00  0.00     0.133 C 
ATOM     11  C   UNL     1      -1.744   1.316  -1.446  1.00  0.00     0.223 C 
ATOM     12  C   UNL     1      -3.206   0.965  -1.498  1.00  0.00     0.115 C 
ATOM     13  O   UNL     1      -1.307   2.442  -1.264  1.00  0.00    -0.275 OA
BRANCH   9  14
ATOM     14  C   UNL     1       0.461   0.137  -1.460  1.00  0.00     0.078 C 
ATOM     15  C   UNL     1       0.856  -0.068   0.003  1.00  0.00     0.031 C 
ATOM     16  C   UNL     1       1.124  -0.908  -2.354  1.00  0.00     0.031 C 
ENDBRANCH   9  14
ENDBRANCH   5   8
ENDBRANCH   3   4
ENDBRANCH   2   3
ENDBRANCH   1   2
BRANCH   1  17
ATOM     17  N   UNL     1      -4.783  -1.769   3.832  1.00  0.00    -0.352 N 
ATOM     18  C   UNL     1      -4.848  -1.918   5.196  1.00  0.00     0.251 C 
ATOM     19  H   UNL     1      -4.346  -2.513   3.357  1.00  0.00     0.163 HD
ATOM     20  O   UNL     1      -4.211  -2.828   5.722  1.00  0.00    -0.269 OA
BRANCH  18  21
ATOM     21  C   UNL     1      -5.647  -0.993   6.032  1.00  0.00     0.039 A 
ATOM     22  C   UNL     1      -5.138  -0.613   7.277  1.00  0.00     0.014 A 
ATOM     23  C   UNL     1      -6.899  -0.525   5.625  1.00  0.00     0.014 A 
ATOM     24  C   UNL     1      -5.852   0.283   8.077  1.00  0.00     0.010 A 
ATOM     25  C   UNL     1      -7.567   0.438   6.383  1.00  0.00     0.010 A 
ATOM     26  C   UNL     1      -7.053   0.851   7.619  1.00  0.00    -0.014 A 
BRANCH  26  27
ATOM     27  C   UNL     1      -7.748   1.895   8.418  1.00  0.00     0.031 A 
ATOM     28  C   UNL     1      -9.135   1.665   8.959  1.00  0.00     0.074 A 
ATOM     29  C   UNL     1      -7.130   3.074   8.633  1.00  0.00     0.049 A 
ATOM     30  N   UNL     1      -9.873   2.455   9.698  1.00  0.00    -0.248 NA
ATOM     31  C   UNL     1      -9.789   0.396   8.605  1.00  0.00     0.031 C 
ATOM     32  C   UNL     1      -5.815   3.446   8.104  1.00  0.00     0.029 A 
ATOM     33  N   UNL     1      -7.517   4.176   9.354  1.00  0.00    -0.354 N 
ATOM     34  C   UNL     1     -11.073   1.782   9.896  1.00  0.00     0.074 A 
ATOM     35  C   UNL     1     -10.989   0.546   9.149  1.00  0.00     0.031 C 
ATOM     36  C   UNL     1      -5.487   4.667   8.553  1.00  0.00     0.029 A 
ATOM     37  C   UNL     1      -6.580   5.183   9.369  1.00  0.00     0.049 A 
ATOM     38  H   UNL     1      -8.383   4.239   9.817  1.00  0.00     0.167 HD
ATOM     39  C   UNL     1     -12.137   2.148  10.652  1.00  0.00     0.037 A 
ATOM     40  C   UNL     1      -6.596   6.386   9.974  1.00  0.00     0.037 A 
ATOM     41  C   UNL     1     -12.210   3.377  11.402  1.00  0.00     0.049 A 
ATOM     42  C   UNL     1      -7.785   6.764  10.815  1.00  0.00     0.074 A 
ATOM     43  C   UNL     1     -13.219   3.814  12.243  1.00  0.00     0.029 A 
ATOM     44  N   UNL     1     -11.240   4.370  11.398  1.00  0.00    -0.354 N 
ATOM     45  N   UNL     1      -8.878   6.080  11.055  1.00  0.00    -0.248 NA
ATOM     46  C   UNL     1      -7.735   8.073  11.478  1.00  0.00     0.031 C 
ATOM     47  C   UNL     1     -12.885   5.093  12.704  1.00  0.00     0.029 A 
ATOM     48  C   UNL     1     -11.639   5.429  12.200  1.00  0.00     0.049 A 
ATOM     49  H   UNL     1     -10.393   4.329  10.898  1.00  0.00     0.167 HD
ATOM     50  C   UNL     1      -9.638   6.867  11.913  1.00  0.00     0.074 A 
ATOM     51  C   UNL     1      -8.864   8.064  12.172  1.00  0.00     0.031 C 
ATOM     52  C   UNL     1     -10.866   6.623  12.437  1.00  0.00     0.037 A 
BRANCH  39  53
ATOM     53  C   UNL     1     -13.312   1.206  10.710  1.00  0.00     0.058 A 
ATOM     54  C   UNL     1     -13.232  -0.037  11.360  1.00  0.00     0.135 A 
ATOM     55  C   UNL     1     -14.548   1.566  10.147  1.00  0.00     0.135 A 
ATOM     56  F   UNL     1     -12.073  -0.442  11.904  1.00  0.00    -0.206 F 
ATOM     57  C   UNL     1     -14.322  -0.899  11.423  1.00  0.00     0.059 A 
ATOM     58  C   UNL     1     -15.660   0.733  10.226  1.00  0.00     0.059 A 
ATOM     59  F   UNL     1     -14.685   2.742   9.513  1.00  0.00    -0.206 F 
ATOM     60  C   UNL     1     -15.533  -0.505  10.854  1.00  0.00     0.060 A 
BRANCH  60  61
ATOM     61  S   UNL     1     -16.940  -1.632  10.955  1.00  0.00     0.124 S 
ATOM     62  O   UNL     1     -16.540  -2.681  10.022  1.00  0.00    -0.237 OA
ATOM     63  O   UNL     1     -16.938  -2.006  12.366  1.00  0.00    -0.237 OA
ATOM     64  O   UNL     1     -18.067  -0.810  10.528  1.00  0.00    -0.744 OA
ENDBRANCH  60  61
ENDBRANCH  39  53
BRANCH  40  65
ATOM     65  C   UNL     1      -5.436   7.307   9.829  1.00  0.00     0.058 A 
ATOM     66  C   UNL     1      -4.595   7.590  10.916  1.00  0.00     0.135 A 
ATOM     67  C   UNL     1      -5.138   7.913   8.599  1.00  0.00     0.135 A 
ATOM     68  F   UNL     1      -4.841   7.039  12.115  1.00  0.00    -0.206 F 
ATOM     69  C   UNL     1      -3.513   8.456  10.796  1.00  0.00     0.059 A 
ATOM     70  C   UNL     1      -4.044   8.758   8.445  1.00  0.00     0.059 A 
ATOM     71  F   UNL     1      -5.900   7.661   7.523  1.00  0.00    -0.206 F 
ATOM     72  C   UNL     1      -3.244   9.032   9.553  1.00  0.00     0.060 A 
BRANCH  72  73
ATOM     73  S   UNL     1      -1.808  10.117   9.396  1.00  0.00     0.124 S 
ATOM     74  O   UNL     1      -2.257  11.304  10.113  1.00  0.00    -0.237 OA
ATOM     75  O   UNL     1      -0.761   9.334  10.046  1.00  0.00    -0.237 OA
ATOM     76  O   UNL     1      -1.660  10.269   7.952  1.00  0.00    -0.744 OA
ENDBRANCH  72  73
ENDBRANCH  40  65
BRANCH  52  77
ATOM     77  C   UNL     1     -11.433   7.670  13.359  1.00  0.00     0.058 A 
ATOM     78  C   UNL     1     -11.832   8.933  12.890  1.00  0.00     0.135 A 
ATOM     79  C   UNL     1     -11.573   7.411  14.732  1.00  0.00     0.135 A 
ATOM     80  F   UNL     1     -11.718   9.236  11.586  1.00  0.00    -0.206 F 
ATOM     81  C   UNL     1     -12.295   9.918  13.755  1.00  0.00     0.059 A 
ATOM     82  C   UNL     1     -12.068   8.370  15.611  1.00  0.00     0.059 A 
ATOM     83  F   UNL     1     -11.225   6.216  15.235  1.00  0.00    -0.206 F 
ATOM     84  C   UNL     1     -12.402   9.629  15.117  1.00  0.00     0.060 A 
BRANCH  84  85
ATOM     85  S   UNL     1     -12.983  10.923  16.233  1.00  0.00     0.124 S 
ATOM     86  O   UNL     1     -11.816  11.797  16.300  1.00  0.00    -0.237 OA
ATOM     87  O   UNL     1     -14.137  11.459  15.519  1.00  0.00    -0.237 OA
ATOM     88  O   UNL     1     -13.295  10.197  17.461  1.00  0.00    -0.744 OA
ENDBRANCH  84  85
ENDBRANCH  52  77
ENDBRANCH  26  27
ENDBRANCH  18  21
ENDBRANCH   1  17
TORSDOF 14
