REMARK SMILES CC(C)(C)[N@H+](CCC(=O)Nc1ccccc1F)CC(=O)NCCCNC(=O)c1ccc(-c2c3nc(c(-c4c(F)cc(S(=O)(=O)[O-])cc4F)c4ccc([nH]4)c(-c4c(F)cc(S(=O)(=O)[O-])cc4F)c4nc(c(-c5c(F)cc(S(=O)(=O)[O-])cc5F)c5ccc2[nH]5)C=C4)C=C3)cc1
REMARK SMILES IDX 22 1 21 2 19 3 20 4 18 6 5 7 2 9 1 10 3 11 4 12 6 13 7 14
REMARK SMILES IDX 8 15 9 16 10 17 11 19 12 20 16 21 13 22 15 23 17 24 14 25
REMARK SMILES IDX 23 26 24 27 25 28 26 29 27 31 28 32 29 33 93 34 30 35 92 36
REMARK SMILES IDX 31 37 32 38 33 39 86 40 34 41 91 42 85 43 87 44 35 45 90 46
REMARK SMILES IDX 84 47 83 48 36 50 70 51 49 52 69 53 50 54 53 55 68 56 88 57
REMARK SMILES IDX 51 58 52 59 67 61 89 62 54 63 37 64 38 65 47 66 39 67 40 68
REMARK SMILES IDX 46 69 48 70 41 71 42 72 43 73 44 74 45 75 71 76 72 77 81 78
REMARK SMILES IDX 73 79 74 80 80 81 82 82 75 83 76 84 77 85 78 86 79 87 55 88
REMARK SMILES IDX 56 89 65 90 57 91 58 92 64 93 66 94 59 95 60 96 61 97 62 98
REMARK SMILES IDX 63 99
REMARK H PARENT 21 5 5 8 10 18 25 30 87 49 53 60
REMARK Flexibility Score: inf
ROOT
ATOM      1  C   UNL     1       3.710  -1.828   4.462  1.00  0.00     0.118 C 
ENDROOT
BRANCH   1   2
ATOM      2  N   UNL     1       2.825  -0.786   4.942  1.00  0.00    -0.351 N 
ATOM      3  C   UNL     1       1.749  -0.146   4.423  1.00  0.00     0.275 C 
ATOM      4  O   UNL     1       1.274   0.747   5.140  1.00  0.00    -0.269 OA
ATOM      5  H   UNL     1       3.058  -0.473   5.846  1.00  0.00     0.163 HD
BRANCH   3   6
ATOM      6  C   UNL     1       0.963  -0.604   3.205  1.00  0.00     0.363 C 
BRANCH   6   7
ATOM      7  N   UNL     1       1.610  -0.702   1.880  1.00  0.00    -0.323 N 
ATOM      8  H   UNL     1       2.615  -0.582   2.010  1.00  0.00     0.349 HD
BRANCH   7   9
ATOM      9  C   UNL     1       1.120   0.413   0.951  1.00  0.00     0.090 C 
ATOM     10  C   UNL     1       1.849   0.408  -0.419  1.00  0.00     0.078 C 
ATOM     11  C   UNL     1       1.420   1.793   1.589  1.00  0.00     0.078 C 
ATOM     12  C   UNL     1      -0.401   0.365   0.613  1.00  0.00     0.078 C 
ENDBRANCH   7   9
BRANCH   7  13
ATOM     13  C   UNL     1       1.393  -2.054   1.271  1.00  0.00     0.273 C 
BRANCH  13  14
ATOM     14  C   UNL     1       1.773  -3.386   1.975  1.00  0.00     0.161 C 
BRANCH  14  15
ATOM     15  C   UNL     1       1.206  -3.958   3.295  1.00  0.00     0.230 C 
ATOM     16  O   UNL     1       1.938  -4.684   3.986  1.00  0.00    -0.275 OA
ATOM     17  N   UNL     1      -0.019  -3.686   3.826  1.00  0.00    -0.323 N 
ATOM     18  H   UNL     1      -0.116  -3.903   4.781  1.00  0.00     0.170 HD
BRANCH  17  19
ATOM     19  C   UNL     1      -1.162  -3.146   3.224  1.00  0.00     0.077 A 
ATOM     20  C   UNL     1      -1.911  -2.205   3.945  1.00  0.00     0.029 A 
ATOM     21  C   UNL     1      -1.531  -3.462   1.921  1.00  0.00     0.146 A 
ATOM     22  C   UNL     1      -2.930  -1.495   3.305  1.00  0.00     0.002 A 
ATOM     23  C   UNL     1      -2.576  -2.794   1.297  1.00  0.00     0.041 A 
ATOM     24  F   UNL     1      -0.869  -4.410   1.243  1.00  0.00    -0.205 F 
ATOM     25  C   UNL     1      -3.257  -1.786   1.980  1.00  0.00     0.003 A 
ENDBRANCH  17  19
ENDBRANCH  14  15
ENDBRANCH  13  14
ENDBRANCH   7  13
ENDBRANCH   6   7
ENDBRANCH   3   6
ENDBRANCH   1   2
BRANCH   1  26
ATOM     26  C   UNL     1       4.700  -1.340   3.425  1.00  0.00     0.042 C 
BRANCH  26  27
ATOM     27  C   UNL     1       5.588  -0.252   3.995  1.00  0.00     0.118 C 
BRANCH  27  28
ATOM     28  N   UNL     1       6.557  -0.798   4.943  1.00  0.00    -0.352 N 
ATOM     29  C   UNL     1       7.925  -0.641   4.912  1.00  0.00     0.251 C 
ATOM     30  H   UNL     1       6.193  -1.335   5.683  1.00  0.00     0.163 HD
ATOM     31  O   UNL     1       8.665  -1.347   5.571  1.00  0.00    -0.269 OA
BRANCH  29  32
ATOM     32  C   UNL     1       8.449   0.434   4.049  1.00  0.00     0.039 A 
ATOM     33  C   UNL     1       9.464   0.170   3.131  1.00  0.00     0.014 A 
ATOM     34  C   UNL     1       7.833   1.687   4.113  1.00  0.00     0.014 A 
ATOM     35  C   UNL     1       9.847   1.176   2.243  1.00  0.00     0.010 A 
ATOM     36  C   UNL     1       8.129   2.634   3.155  1.00  0.00     0.010 A 
ATOM     37  C   UNL     1       9.170   2.405   2.243  1.00  0.00    -0.014 A 
BRANCH  37  38
ATOM     38  C   UNL     1       9.570   3.542   1.385  1.00  0.00     0.031 A 
ATOM     39  C   UNL     1       9.997   4.817   2.059  1.00  0.00     0.074 A 
ATOM     40  C   UNL     1       9.434   3.471   0.050  1.00  0.00     0.049 A 
ATOM     41  N   UNL     1      10.178   6.004   1.547  1.00  0.00    -0.248 NA
ATOM     42  C   UNL     1      10.181   4.760   3.521  1.00  0.00     0.031 C 
ATOM     43  C   UNL     1       8.992   2.293  -0.697  1.00  0.00     0.029 A 
ATOM     44  N   UNL     1       9.633   4.424  -0.915  1.00  0.00    -0.354 N 
ATOM     45  C   UNL     1      10.449   6.835   2.627  1.00  0.00     0.074 A 
ATOM     46  C   UNL     1      10.332   6.038   3.825  1.00  0.00     0.031 C 
ATOM     47  C   UNL     1       8.976   2.586  -2.007  1.00  0.00     0.029 A 
ATOM     48  C   UNL     1       9.353   3.986  -2.187  1.00  0.00     0.049 A 
ATOM     49  H   UNL     1       9.946   5.336  -0.716  1.00  0.00     0.167 HD
ATOM     50  C   UNL     1      10.796   8.142   2.614  1.00  0.00     0.037 A 
ATOM     51  C   UNL     1       9.386   4.647  -3.361  1.00  0.00     0.037 A 
ATOM     52  C   UNL     1      10.960   8.896   1.403  1.00  0.00     0.049 A 
ATOM     53  C   UNL     1       9.786   6.097  -3.362  1.00  0.00     0.074 A 
ATOM     54  C   UNL     1      11.387  10.201   1.256  1.00  0.00     0.029 A 
ATOM     55  N   UNL     1      10.707   8.405   0.129  1.00  0.00    -0.354 N 
ATOM     56  N   UNL     1      10.094   6.864  -2.342  1.00  0.00    -0.248 NA
ATOM     57  C   UNL     1       9.845   6.775  -4.663  1.00  0.00     0.031 C 
ATOM     58  C   UNL     1      11.339  10.518  -0.104  1.00  0.00     0.029 A 
ATOM     59  C   UNL     1      10.944   9.390  -0.811  1.00  0.00     0.049 A 
ATOM     60  H   UNL     1      10.403   7.491  -0.075  1.00  0.00     0.167 HD
ATOM     61  C   UNL     1      10.407   8.108  -2.878  1.00  0.00     0.074 A 
ATOM     62  C   UNL     1      10.251   7.991  -4.314  1.00  0.00     0.031 C 
ATOM     63  C   UNL     1      10.793   9.240  -2.239  1.00  0.00     0.037 A 
BRANCH  50  64
ATOM     64  C   UNL     1      11.024   8.821   3.938  1.00  0.00     0.058 A 
ATOM     65  C   UNL     1      10.168   9.848   4.367  1.00  0.00     0.135 A 
ATOM     66  C   UNL     1      12.088   8.464   4.783  1.00  0.00     0.135 A 
ATOM     67  F   UNL     1       9.130  10.228   3.606  1.00  0.00    -0.206 F 
ATOM     68  C   UNL     1      10.358  10.493   5.584  1.00  0.00     0.059 A 
ATOM     69  C   UNL     1      12.274   9.070   6.022  1.00  0.00     0.059 A 
ATOM     70  F   UNL     1      12.927   7.474   4.435  1.00  0.00    -0.206 F 
ATOM     71  C   UNL     1      11.409  10.091   6.410  1.00  0.00     0.060 A 
BRANCH  71  72
ATOM     72  S   UNL     1      11.595  10.887   8.018  1.00  0.00     0.124 S 
ATOM     73  O   UNL     1      12.051  12.220   7.643  1.00  0.00    -0.237 OA
ATOM     74  O   UNL     1      10.242  10.805   8.560  1.00  0.00    -0.237 OA
ATOM     75  O   UNL     1      12.583  10.052   8.696  1.00  0.00    -0.744 OA
ENDBRANCH  71  72
ENDBRANCH  50  64
BRANCH  51  76
ATOM     76  C   UNL     1       9.078   3.909  -4.614  1.00  0.00     0.058 A 
ATOM     77  C   UNL     1       7.779   3.457  -4.899  1.00  0.00     0.135 A 
ATOM     78  C   UNL     1      10.105   3.541  -5.495  1.00  0.00     0.135 A 
ATOM     79  F   UNL     1       6.763   3.770  -4.080  1.00  0.00    -0.206 F 
ATOM     80  C   UNL     1       7.519   2.628  -5.985  1.00  0.00     0.059 A 
ATOM     81  C   UNL     1       9.865   2.731  -6.602  1.00  0.00     0.059 A 
ATOM     82  F   UNL     1      11.361   3.956  -5.270  1.00  0.00    -0.206 F 
ATOM     83  C   UNL     1       8.572   2.259  -6.823  1.00  0.00     0.060 A 
BRANCH  83  84
ATOM     84  S   UNL     1       8.226   1.118  -8.180  1.00  0.00     0.124 S 
ATOM     85  O   UNL     1       7.857  -0.094  -7.456  1.00  0.00    -0.237 OA
ATOM     86  O   UNL     1       7.139   1.797  -8.878  1.00  0.00    -0.237 OA
ATOM     87  O   UNL     1       9.492   1.056  -8.902  1.00  0.00    -0.744 OA
ENDBRANCH  83  84
ENDBRANCH  51  76
BRANCH  63  88
ATOM     88  C   UNL     1      11.105  10.453  -3.069  1.00  0.00     0.058 A 
ATOM     89  C   UNL     1      12.427  10.920  -3.159  1.00  0.00     0.135 A 
ATOM     90  C   UNL     1      10.087  11.242  -3.622  1.00  0.00     0.135 A 
ATOM     91  F   UNL     1      13.435  10.203  -2.638  1.00  0.00    -0.206 F 
ATOM     92  C   UNL     1      12.722  12.154  -3.724  1.00  0.00     0.059 A 
ATOM     93  C   UNL     1      10.363  12.469  -4.218  1.00  0.00     0.059 A 
ATOM     94  F   UNL     1       8.810  10.832  -3.569  1.00  0.00    -0.206 F 
ATOM     95  C   UNL     1      11.681  12.928  -4.237  1.00  0.00     0.060 A 
BRANCH  95  96
ATOM     96  S   UNL     1      12.078  14.555  -4.909  1.00  0.00     0.124 S 
ATOM     97  O   UNL     1      12.498  15.278  -3.713  1.00  0.00    -0.237 OA
ATOM     98  O   UNL     1      13.134  14.242  -5.866  1.00  0.00    -0.237 OA
ATOM     99  O   UNL     1      10.817  14.996  -5.498  1.00  0.00    -0.744 OA
ENDBRANCH  95  96
ENDBRANCH  63  88
ENDBRANCH  37  38
ENDBRANCH  29  32
ENDBRANCH  27  28
ENDBRANCH  26  27
ENDBRANCH   1  26
TORSDOF 19
