REMARK SMILES O=C(OCCOC(=O)c1ccc2c(c1)[C@@H]1C=CC[C@@H]1[C@H](c1ccncc1)N2)c1ccc(-c2c3nc(c(-c4c(F)cc(S(=O)(=O)[O-])cc4F)c4ccc([nH]4)c(-c4c(F)cc(S(=O)(=O)[O-])cc4F)c4nc(c(-c5c(F)cc(S(=O)(=O)[O-])cc5F)c5ccc2[nH]5)C=C4)C=C3)cc1
REMARK SMILES IDX 4 1 3 2 2 3 1 4 28 5 29 6 93 7 30 8 92 9 31 10 32 11 33 12
REMARK SMILES IDX 86 13 34 14 91 15 85 16 87 17 35 18 90 19 84 20 83 21 36 23
REMARK SMILES IDX 70 24 49 25 69 26 50 27 53 28 68 29 88 30 51 31 52 32 67 34
REMARK SMILES IDX 89 35 54 36 37 37 38 38 47 39 39 40 40 41 46 42 48 43 41 44
REMARK SMILES IDX 42 45 43 46 44 47 45 48 71 49 72 50 81 51 73 52 74 53 80 54
REMARK SMILES IDX 82 55 75 56 76 57 77 58 78 59 79 60 55 61 56 62 65 63 57 64
REMARK SMILES IDX 58 65 64 66 66 67 59 68 60 69 61 70 62 71 63 72 5 73 6 74
REMARK SMILES IDX 7 75 8 76 9 77 10 78 14 79 11 80 13 81 12 82 15 83 27 84
REMARK SMILES IDX 16 85 19 86 20 87 17 89 18 90 21 91 22 92 26 93 23 94 25 95
REMARK SMILES IDX 24 96
REMARK H PARENT 87 22 53 33 27 88
REMARK Flexibility Score: inf
ROOT
ATOM      1  C   UNL     1       4.336  -1.146   0.701  1.00  0.00     0.275 C 
ENDROOT
BRANCH   1   2
ATOM      2  O   UNL     1       3.167  -0.396   1.060  1.00  0.00    -0.458 OA
BRANCH   2   3
ATOM      3  C   UNL     1       2.768   0.834   0.660  1.00  0.00     0.338 C 
ATOM      4  O   UNL     1       1.761   1.303   1.193  1.00  0.00    -0.246 OA
BRANCH   3   5
ATOM      5  C   UNL     1       3.411   1.644  -0.436  1.00  0.00     0.060 A 
ATOM      6  C   UNL     1       4.526   1.289  -1.197  1.00  0.00     0.016 A 
ATOM      7  C   UNL     1       2.766   2.853  -0.773  1.00  0.00     0.016 A 
ATOM      8  C   UNL     1       4.950   2.065  -2.278  1.00  0.00     0.010 A 
ATOM      9  C   UNL     1       3.188   3.642  -1.852  1.00  0.00     0.010 A 
ATOM     10  C   UNL     1       4.285   3.245  -2.615  1.00  0.00    -0.014 A 
BRANCH  10  11
ATOM     11  C   UNL     1       4.891   4.103  -3.650  1.00  0.00     0.031 A 
ATOM     12  C   UNL     1       5.690   5.253  -3.238  1.00  0.00     0.074 A 
ATOM     13  C   UNL     1       4.793   3.788  -4.950  1.00  0.00     0.049 A 
ATOM     14  N   UNL     1       6.173   6.174  -4.010  1.00  0.00    -0.248 NA
ATOM     15  C   UNL     1       5.840   5.472  -1.796  1.00  0.00     0.031 C 
ATOM     16  C   UNL     1       3.513   2.485  -5.481  1.00  0.00     0.029 A 
ATOM     17  N   UNL     1       5.635   4.211  -6.371  1.00  0.00    -0.354 N 
ATOM     18  C   UNL     1       6.622   7.143  -3.146  1.00  0.00     0.074 A 
ATOM     19  C   UNL     1       6.334   6.698  -1.796  1.00  0.00     0.031 C 
ATOM     20  C   UNL     1       3.854   2.106  -7.310  1.00  0.00     0.029 A 
ATOM     21  C   UNL     1       5.264   3.307  -7.814  1.00  0.00     0.049 A 
ATOM     22  H   UNL     1       6.302   4.936  -6.376  1.00  0.00     0.167 HD
ATOM     23  C   UNL     1       7.184   8.315  -3.490  1.00  0.00     0.037 A 
ATOM     24  C   UNL     1       5.496   3.660  -9.097  1.00  0.00     0.037 A 
ATOM     25  C   UNL     1       7.382   8.715  -4.859  1.00  0.00     0.049 A 
ATOM     26  C   UNL     1       6.009   5.058  -9.276  1.00  0.00     0.074 A 
ATOM     27  C   UNL     1       7.968   9.875  -5.313  1.00  0.00     0.029 A 
ATOM     28  N   UNL     1       6.976   7.992  -5.991  1.00  0.00    -0.354 N 
ATOM     29  N   UNL     1       6.335   5.936  -8.352  1.00  0.00    -0.248 NA
ATOM     30  C   UNL     1       6.087   5.560 -10.648  1.00  0.00     0.031 C 
ATOM     31  C   UNL     1       7.869   9.886  -6.705  1.00  0.00     0.029 A 
ATOM     32  C   UNL     1       7.313   8.687  -7.145  1.00  0.00     0.049 A 
ATOM     33  H   UNL     1       6.520   7.120  -5.970  1.00  0.00     0.167 HD
ATOM     34  C   UNL     1       6.681   7.095  -9.021  1.00  0.00     0.074 A 
ATOM     35  C   UNL     1       6.504   6.804 -10.440  1.00  0.00     0.031 C 
ATOM     36  C   UNL     1       7.123   8.281  -8.529  1.00  0.00     0.037 A 
BRANCH  23  37
ATOM     37  C   UNL     1       7.505   9.223  -2.343  1.00  0.00     0.058 A 
ATOM     38  C   UNL     1       8.440   8.862  -1.355  1.00  0.00     0.135 A 
ATOM     39  C   UNL     1       6.748  10.386  -2.140  1.00  0.00     0.135 A 
ATOM     40  F   UNL     1       9.150   7.728  -1.475  1.00  0.00    -0.206 F 
ATOM     41  C   UNL     1       8.556   9.582  -0.174  1.00  0.00     0.059 A 
ATOM     42  C   UNL     1       6.885  11.148  -0.987  1.00  0.00     0.059 A 
ATOM     43  F   UNL     1       5.823  10.758  -3.039  1.00  0.00    -0.206 F 
ATOM     44  C   UNL     1       7.769  10.720   0.003  1.00  0.00     0.060 A 
BRANCH  44  45
ATOM     45  S   UNL     1       7.904  11.618   1.560  1.00  0.00     0.124 S 
ATOM     46  O   UNL     1       7.230  10.707   2.480  1.00  0.00    -0.237 OA
ATOM     47  O   UNL     1       9.349  11.731   1.725  1.00  0.00    -0.237 OA
ATOM     48  O   UNL     1       7.205  12.870   1.290  1.00  0.00    -0.744 OA
ENDBRANCH  44  45
ENDBRANCH  23  37
BRANCH  24  49
ATOM     49  C   UNL     1       4.924   2.834 -10.189  1.00  0.00     0.058 A 
ATOM     50  C   UNL     1       5.730   1.970 -10.939  1.00  0.00     0.135 A 
ATOM     51  C   UNL     1       3.541   2.781 -10.423  1.00  0.00     0.135 A 
ATOM     52  F   UNL     1       7.065   2.028 -10.820  1.00  0.00    -0.206 F 
ATOM     53  C   UNL     1       5.180   1.023 -11.805  1.00  0.00     0.059 A 
ATOM     54  C   UNL     1       2.961   1.812 -11.237  1.00  0.00     0.059 A 
ATOM     55  F   UNL     1       2.727   3.641  -9.800  1.00  0.00    -0.206 F 
ATOM     56  C   UNL     1       3.791   0.925 -11.915  1.00  0.00     0.060 A 
BRANCH  56  57
ATOM     57  S   UNL     1       3.071  -0.423 -12.881  1.00  0.00     0.124 S 
ATOM     58  O   UNL     1       3.232   0.074 -14.242  1.00  0.00    -0.237 OA
ATOM     59  O   UNL     1       3.913  -1.555 -12.509  1.00  0.00    -0.237 OA
ATOM     60  O   UNL     1       1.699  -0.486 -12.387  1.00  0.00    -0.744 OA
ENDBRANCH  56  57
ENDBRANCH  24  49
BRANCH  36  61
ATOM     61  C   UNL     1       7.621   9.251  -9.562  1.00  0.00     0.058 A 
ATOM     62  C   UNL     1       6.770  10.042 -10.344  1.00  0.00     0.135 A 
ATOM     63  C   UNL     1       9.009   9.427  -9.695  1.00  0.00     0.135 A 
ATOM     64  F   UNL     1       5.439   9.885 -10.271  1.00  0.00    -0.206 F 
ATOM     65  C   UNL     1       7.283  10.981 -11.231  1.00  0.00     0.059 A 
ATOM     66  C   UNL     1       9.540  10.385 -10.542  1.00  0.00     0.059 A 
ATOM     67  F   UNL     1       9.857   8.688  -8.962  1.00  0.00    -0.206 F 
ATOM     68  C   UNL     1       8.669  11.155 -11.309  1.00  0.00     0.060 A 
BRANCH  68  69
ATOM     69  S   UNL     1       9.322  12.432 -12.399  1.00  0.00     0.124 S 
ATOM     70  O   UNL     1       9.058  11.858 -13.714  1.00  0.00    -0.237 OA
ATOM     71  O   UNL     1       8.513  13.591 -12.036  1.00  0.00    -0.237 OA
ATOM     72  O   UNL     1      10.730  12.514 -12.021  1.00  0.00    -0.744 OA
ENDBRANCH  68  69
ENDBRANCH  36  61
ENDBRANCH  10  11
ENDBRANCH   3   5
ENDBRANCH   2   3
ENDBRANCH   1   2
BRANCH   1  73
ATOM     73  C   UNL     1       4.128  -2.042  -0.532  1.00  0.00     0.275 C 
BRANCH  73  74
ATOM     74  O   UNL     1       3.485  -1.377  -1.640  1.00  0.00    -0.458 OA
BRANCH  74  75
ATOM     75  C   UNL     1       2.129  -1.488  -1.705  1.00  0.00     0.338 C 
ATOM     76  O   UNL     1       1.425  -2.158  -0.970  1.00  0.00    -0.246 OA
BRANCH  75  77
ATOM     77  C   UNL     1       1.594  -0.512  -2.687  1.00  0.00     0.060 A 
ATOM     78  C   UNL     1       0.685   0.439  -2.217  1.00  0.00     0.018 A 
ATOM     79  C   UNL     1       2.040  -0.463  -4.012  1.00  0.00     0.022 A 
ATOM     80  C   UNL     1       0.291   1.498  -3.035  1.00  0.00     0.027 A 
ATOM     81  C   UNL     1       1.643   0.599  -4.858  1.00  0.00    -0.017 A 
ATOM     82  C   UNL     1       0.783   1.636  -4.342  1.00  0.00     0.038 A 
ATOM     83  C   UNL     1       2.467   0.794  -6.180  1.00  0.00     0.049 C 
ATOM     84  N   UNL     1       0.487   2.854  -4.974  1.00  0.00    -0.378 N 
ATOM     85  C   UNL     1       4.406   0.676  -5.886  1.00  0.00    -0.023 C 
ATOM     86  C   UNL     1       1.971   2.573  -6.859  1.00  0.00     0.031 C 
ATOM     87  C   UNL     1       0.628   3.057  -6.396  1.00  0.00     0.114 C 
ATOM     88  H   UNL     1       0.169   3.604  -4.422  1.00  0.00     0.161 HD
ATOM     89  C   UNL     1       5.158   2.135  -6.101  1.00  0.00    -0.030 C 
ATOM     90  C   UNL     1       3.650   3.724  -6.672  1.00  0.00     0.034 C 
BRANCH  87  91
ATOM     91  C   UNL     1       0.343   4.442  -6.987  1.00  0.00    -0.022 A 
ATOM     92  C   UNL     1       0.295   4.556  -8.397  1.00  0.00     0.026 A 
ATOM     93  C   UNL     1       0.166   5.627  -6.272  1.00  0.00     0.026 A 
ATOM     94  C   UNL     1       0.119   5.790  -9.008  1.00  0.00     0.111 A 
ATOM     95  C   UNL     1      -0.039   6.819  -6.975  1.00  0.00     0.111 A 
ATOM     96  N   UNL     1      -0.072   6.927  -8.321  1.00  0.00    -0.265 NA
ENDBRANCH  87  91
ENDBRANCH  75  77
ENDBRANCH  74  75
ENDBRANCH  73  74
ENDBRANCH   1  73
TORSDOF 15
