REMARK SMILES Cc1cc(=O)cc(C)n1C[C@H]1CCCC[C@@H]1C(=O)OCCOC(=O)c1ccc(-c2c3nc(c(-c4c(F)cc(S(=O)(=O)[O-])cc4F)c4ccc([nH]4)c(-c4c(F)cc(S(=O)(=O)[O-])cc4F)c4nc(c(-c5c(F)cc(S(=O)(=O)[O-])cc5F)c5ccc2[nH]5)C=C4)C=C3)cc1
REMARK SMILES IDX 21 1 20 2 19 3 17 4 18 5 16 6 11 7 12 8 13 9 15 10 14 11
REMARK SMILES IDX 10 12 9 13 1 14 2 15 3 16 4 17 7 18 5 19 6 20 8 21 22 22
REMARK SMILES IDX 23 23 24 24 25 25 26 26 90 27 27 28 89 29 28 30 29 31 30 32
REMARK SMILES IDX 83 33 31 34 88 35 82 36 84 37 32 38 87 39 81 40 80 41 33 43
REMARK SMILES IDX 67 44 46 45 66 46 47 47 50 48 65 49 85 50 48 51 49 52 64 54
REMARK SMILES IDX 86 55 51 56 34 57 35 58 44 59 36 60 37 61 43 62 45 63 38 64
REMARK SMILES IDX 39 65 40 66 41 67 42 68 68 69 69 70 78 71 70 72 71 73 77 74
REMARK SMILES IDX 79 75 72 76 73 77 74 78 75 79 76 80 52 81 53 82 62 83 54 84
REMARK SMILES IDX 55 85 61 86 63 87 56 88 57 89 58 90 59 91 60 92
REMARK H PARENT 84 42 50 53
REMARK Flexibility Score: inf
ROOT
ATOM      1  C   UNL     1      -1.539   1.347   0.092  1.00  0.00     0.275 C 
ENDROOT
BRANCH   1   2
ATOM      2  C   UNL     1      -1.600   1.038  -1.404  1.00  0.00     0.274 C 
BRANCH   2   3
ATOM      3  O   UNL     1      -0.297   1.124  -2.028  1.00  0.00    -0.462 OA
BRANCH   3   4
ATOM      4  C   UNL     1      -0.075   2.288  -2.703  1.00  0.00     0.309 C 
ATOM      5  O   UNL     1      -0.873   3.217  -2.725  1.00  0.00    -0.252 OA
BRANCH   4   6
ATOM      6  C   UNL     1       1.254   2.273  -3.479  1.00  0.00     0.104 C 
ATOM      7  C   UNL     1       2.378   3.084  -2.772  1.00  0.00     0.023 C 
ATOM      8  C   UNL     1       1.945   4.553  -2.758  1.00  0.00     0.006 C 
ATOM      9  C   UNL     1       1.700   5.148  -4.140  1.00  0.00     0.000 C 
ATOM     10  C   UNL     1       1.002   2.802  -4.906  1.00  0.00     0.016 C 
ATOM     11  C   UNL     1       0.736   4.312  -4.975  1.00  0.00     0.001 C 
BRANCH   7  12
ATOM     12  C   UNL     1       3.763   2.904  -3.469  1.00  0.00     0.126 C 
BRANCH  12  13
ATOM     13  N   UNL     1       4.941   3.176  -2.584  1.00  0.00    -0.349 N 
ATOM     14  C   UNL     1       5.380   0.673  -2.396  1.00  0.00     0.064 C 
ATOM     15  C   UNL     1       5.645   2.099  -1.977  1.00  0.00     0.018 A 
ATOM     16  C   UNL     1       6.616   2.288  -1.064  1.00  0.00     0.073 A 
ATOM     17  C   UNL     1       6.985   3.651  -0.661  1.00  0.00     0.182 A 
ATOM     18  C   UNL     1       5.448   4.492  -2.358  1.00  0.00     0.018 A 
ATOM     19  O   UNL     1       7.783   3.848   0.245  1.00  0.00    -0.290 OA
ATOM     20  C   UNL     1       6.396   4.751  -1.436  1.00  0.00     0.073 A 
ATOM     21  C   UNL     1       5.051   5.673  -3.212  1.00  0.00     0.064 C 
ENDBRANCH  12  13
ENDBRANCH   7  12
ENDBRANCH   4   6
ENDBRANCH   3   4
ENDBRANCH   2   3
ENDBRANCH   1   2
BRANCH   1  22
ATOM     22  O   UNL     1      -0.987   2.655   0.312  1.00  0.00    -0.458 OA
BRANCH  22  23
ATOM     23  C   UNL     1      -0.104   2.765   1.339  1.00  0.00     0.338 C 
ATOM     24  O   UNL     1       0.189   1.879   2.124  1.00  0.00    -0.246 OA
BRANCH  23  25
ATOM     25  C   UNL     1       0.536   4.110   1.354  1.00  0.00     0.060 A 
ATOM     26  C   UNL     1       0.435   4.979   0.274  1.00  0.00     0.016 A 
ATOM     27  C   UNL     1       1.355   4.473   2.425  1.00  0.00     0.016 A 
ATOM     28  C   UNL     1       1.279   6.095   0.185  1.00  0.00     0.010 A 
ATOM     29  C   UNL     1       2.103   5.665   2.382  1.00  0.00     0.010 A 
ATOM     30  C   UNL     1       2.142   6.467   1.228  1.00  0.00    -0.014 A 
BRANCH  30  31
ATOM     31  C   UNL     1       3.125   7.606   1.096  1.00  0.00     0.031 A 
ATOM     32  C   UNL     1       4.555   7.441   1.586  1.00  0.00     0.074 A 
ATOM     33  C   UNL     1       2.819   8.788   0.510  1.00  0.00     0.049 A 
ATOM     34  N   UNL     1       5.440   8.362   1.886  1.00  0.00    -0.248 NA
ATOM     35  C   UNL     1       5.047   6.068   1.777  1.00  0.00     0.031 C 
ATOM     36  C   UNL     1       1.540   9.143  -0.104  1.00  0.00     0.029 A 
ATOM     37  N   UNL     1       3.588   9.917   0.314  1.00  0.00    -0.354 N 
ATOM     38  C   UNL     1       6.538   7.685   2.412  1.00  0.00     0.074 A 
ATOM     39  C   UNL     1       6.229   6.273   2.346  1.00  0.00     0.031 C 
ATOM     40  C   UNL     1       1.644  10.343  -0.694  1.00  0.00     0.029 A 
ATOM     41  C   UNL     1       2.942  10.922  -0.369  1.00  0.00     0.049 A 
ATOM     42  H   UNL     1       4.516   9.996   0.634  1.00  0.00     0.167 HD
ATOM     43  C   UNL     1       7.689   8.193   2.916  1.00  0.00     0.037 A 
ATOM     44  C   UNL     1       3.301  12.192  -0.651  1.00  0.00     0.037 A 
ATOM     45  C   UNL     1       8.066   9.582   2.852  1.00  0.00     0.049 A 
ATOM     46  C   UNL     1       4.585  12.746  -0.102  1.00  0.00     0.074 A 
ATOM     47  C   UNL     1       9.208  10.191   3.349  1.00  0.00     0.029 A 
ATOM     48  N   UNL     1       7.346  10.567   2.197  1.00  0.00    -0.354 N 
ATOM     49  N   UNL     1       5.513  12.136   0.592  1.00  0.00    -0.248 NA
ATOM     50  C   UNL     1       4.841  14.178  -0.324  1.00  0.00     0.031 C 
ATOM     51  C   UNL     1       9.176  11.544   2.997  1.00  0.00     0.029 A 
ATOM     52  C   UNL     1       8.027  11.773   2.260  1.00  0.00     0.049 A 
ATOM     53  H   UNL     1       6.479  10.431   1.752  1.00  0.00     0.167 HD
ATOM     54  C   UNL     1       6.452  13.113   0.907  1.00  0.00     0.074 A 
ATOM     55  C   UNL     1       6.001  14.345   0.298  1.00  0.00     0.031 C 
ATOM     56  C   UNL     1       7.576  12.998   1.655  1.00  0.00     0.037 A 
BRANCH  43  57
ATOM     57  C   UNL     1       8.629   7.256   3.625  1.00  0.00     0.058 A 
ATOM     58  C   UNL     1       9.492   6.395   2.935  1.00  0.00     0.135 A 
ATOM     59  C   UNL     1       8.726   7.296   5.027  1.00  0.00     0.135 A 
ATOM     60  F   UNL     1       9.448   6.330   1.596  1.00  0.00    -0.206 F 
ATOM     61  C   UNL     1      10.407   5.589   3.611  1.00  0.00     0.059 A 
ATOM     62  C   UNL     1       9.652   6.522   5.721  1.00  0.00     0.059 A 
ATOM     63  F   UNL     1       7.933   8.116   5.736  1.00  0.00    -0.206 F 
ATOM     64  C   UNL     1      10.482   5.662   5.004  1.00  0.00     0.060 A 
BRANCH  64  65
ATOM     65  S   UNL     1      11.709   4.657   5.871  1.00  0.00     0.124 S 
ATOM     66  O   UNL     1      11.083   3.339   5.846  1.00  0.00    -0.237 OA
ATOM     67  O   UNL     1      12.896   4.811   5.035  1.00  0.00    -0.237 OA
ATOM     68  O   UNL     1      11.793   5.284   7.187  1.00  0.00    -0.744 OA
ENDBRANCH  64  65
ENDBRANCH  43  57
BRANCH  44  69
ATOM     69  C   UNL     1       2.383  13.065  -1.435  1.00  0.00     0.058 A 
ATOM     70  C   UNL     1       2.705  13.457  -2.742  1.00  0.00     0.135 A 
ATOM     71  C   UNL     1       1.156  13.498  -0.906  1.00  0.00     0.135 A 
ATOM     72  F   UNL     1       3.878  13.091  -3.282  1.00  0.00    -0.206 F 
ATOM     73  C   UNL     1       1.837  14.231  -3.505  1.00  0.00     0.059 A 
ATOM     74  C   UNL     1       0.259  14.246  -1.659  1.00  0.00     0.059 A 
ATOM     75  F   UNL     1       0.801  13.150   0.341  1.00  0.00    -0.206 F 
ATOM     76  C   UNL     1       0.610  14.611  -2.958  1.00  0.00     0.060 A 
BRANCH  76  77
ATOM     77  S   UNL     1      -0.560  15.525  -3.986  1.00  0.00     0.124 S 
ATOM     78  O   UNL     1      -0.014  16.876  -3.922  1.00  0.00    -0.237 OA
ATOM     79  O   UNL     1      -0.438  14.848  -5.274  1.00  0.00    -0.237 OA
ATOM     80  O   UNL     1      -1.833  15.322  -3.301  1.00  0.00    -0.744 OA
ENDBRANCH  76  77
ENDBRANCH  44  69
BRANCH  56  81
ATOM     81  C   UNL     1       8.405  14.232   1.856  1.00  0.00     0.058 A 
ATOM     82  C   UNL     1       8.025  15.222   2.774  1.00  0.00     0.135 A 
ATOM     83  C   UNL     1       9.613  14.406   1.163  1.00  0.00     0.135 A 
ATOM     84  F   UNL     1       6.875  15.106   3.456  1.00  0.00    -0.206 F 
ATOM     85  C   UNL     1       8.808  16.352   2.989  1.00  0.00     0.059 A 
ATOM     86  C   UNL     1      10.421  15.519   1.374  1.00  0.00     0.059 A 
ATOM     87  F   UNL     1      10.023  13.483   0.277  1.00  0.00    -0.206 F 
ATOM     88  C   UNL     1      10.005  16.492   2.284  1.00  0.00     0.060 A 
BRANCH  88  89
ATOM     89  S   UNL     1      11.025  17.950   2.592  1.00  0.00     0.124 S 
ATOM     90  O   UNL     1      10.261  18.992   1.913  1.00  0.00    -0.237 OA
ATOM     91  O   UNL     1      11.037  18.022   4.050  1.00  0.00    -0.237 OA
ATOM     92  O   UNL     1      12.304  17.608   1.976  1.00  0.00    -0.744 OA
ENDBRANCH  88  89
ENDBRANCH  56  81
ENDBRANCH  30  31
ENDBRANCH  23  25
ENDBRANCH  22  23
ENDBRANCH   1  22
TORSDOF 16
