REMARK SMILES C[C@H](C(=O)OCCOC(=O)c1ccc(-c2c3nc(c(-c4c(F)cc(S(=O)(=O)[O-])cc4F)c4ccc([nH]4)c(-c4c(F)cc(S(=O)(=O)[O-])cc4F)c4nc(c(-c5c(F)cc(S(=O)(=O)[O-])cc5F)c5ccc2[nH]5)C=C4)C=C3)cc1)[C@H](C)[NH+]1CCN(c2ccccc2Cl)CC1
REMARK SMILES IDX 6 1 5 2 3 3 4 4 2 5 1 6 77 7 78 8 79 9 80 10 91 11 81 13
REMARK SMILES IDX 90 14 82 15 83 16 84 17 88 18 85 19 87 20 89 21 86 22 7 23
REMARK SMILES IDX 8 24 9 25 10 26 11 27 12 28 76 29 13 30 75 31 14 32 15 33
REMARK SMILES IDX 16 34 69 35 17 36 74 37 68 38 70 39 18 40 73 41 67 42 66 43
REMARK SMILES IDX 19 45 53 46 32 47 52 48 33 49 36 50 51 51 71 52 34 53 35 54
REMARK SMILES IDX 50 56 72 57 37 58 20 59 21 60 30 61 22 62 23 63 29 64 31 65
REMARK SMILES IDX 24 66 25 67 26 68 27 69 28 70 54 71 55 72 64 73 56 74 57 75
REMARK SMILES IDX 63 76 65 77 58 78 59 79 60 80 61 81 62 82 38 83 39 84 48 85
REMARK SMILES IDX 40 86 41 87 47 88 49 89 42 90 43 91 44 92 45 93 46 94
REMARK H PARENT 79 12 70 44 36 55
REMARK Flexibility Score: inf
ROOT
ATOM      1  C   UNL     1      -0.626  -2.223  -2.312  1.00  0.00     0.274 C 
ENDROOT
BRANCH   1   2
ATOM      2  O   UNL     1      -1.485  -1.849  -1.209  1.00  0.00    -0.462 OA
BRANCH   2   3
ATOM      3  C   UNL     1      -1.182  -2.395   0.003  1.00  0.00     0.314 C 
ATOM      4  O   UNL     1      -0.249  -3.165   0.204  1.00  0.00    -0.252 OA
BRANCH   3   5
ATOM      5  C   UNL     1      -2.136  -1.905   1.097  1.00  0.00     0.154 C 
ATOM      6  C   UNL     1      -2.395  -3.094   2.023  1.00  0.00     0.026 C 
BRANCH   5   7
ATOM      7  C   UNL     1      -1.667  -0.547   1.750  1.00  0.00     0.195 C 
ATOM      8  C   UNL     1      -0.253  -0.174   1.353  1.00  0.00     0.076 C 
BRANCH   7   9
ATOM      9  N   UNL     1      -1.976  -0.288   3.175  1.00  0.00    -0.329 N 
ATOM     10  C   UNL     1      -1.240  -1.069   4.191  1.00  0.00     0.284 C 
ATOM     11  C   UNL     1      -1.927   1.156   3.569  1.00  0.00     0.284 C 
ATOM     12  H   UNL     1      -2.938  -0.626   3.189  1.00  0.00     0.348 HD
ATOM     13  C   UNL     1       0.133  -0.548   4.650  1.00  0.00     0.178 C 
ATOM     14  C   UNL     1      -0.597   1.754   4.139  1.00  0.00     0.178 C 
ATOM     15  N   UNL     1       0.025   0.837   5.102  1.00  0.00    -0.359 N 
BRANCH  15  16
ATOM     16  C   UNL     1       0.976   1.322   6.003  1.00  0.00     0.056 A 
ATOM     17  C   UNL     1       2.291   0.815   5.992  1.00  0.00     0.027 A 
ATOM     18  C   UNL     1       0.677   2.269   7.011  1.00  0.00     0.064 A 
ATOM     19  C   UNL     1       3.243   1.198   6.940  1.00  0.00     0.002 A 
ATOM     20  C   UNL     1       1.644   2.676   7.943  1.00  0.00     0.023 A 
ATOM     21  Cl  UNL     1      -0.927   2.887   7.254  1.00  0.00    -0.082 Cl
ATOM     22  C   UNL     1       2.925   2.135   7.912  1.00  0.00     0.002 A 
ENDBRANCH  15  16
ENDBRANCH   7   9
ENDBRANCH   5   7
ENDBRANCH   3   5
ENDBRANCH   2   3
ENDBRANCH   1   2
BRANCH   1  23
ATOM     23  C   UNL     1      -0.069  -0.973  -2.996  1.00  0.00     0.275 C 
BRANCH  23  24
ATOM     24  O   UNL     1       0.851  -0.316  -2.107  1.00  0.00    -0.458 OA
BRANCH  24  25
ATOM     25  C   UNL     1       1.086   0.998  -2.368  1.00  0.00     0.338 C 
ATOM     26  O   UNL     1       0.656   1.618  -3.326  1.00  0.00    -0.246 OA
BRANCH  25  27
ATOM     27  C   UNL     1       1.871   1.620  -1.259  1.00  0.00     0.060 A 
ATOM     28  C   UNL     1       2.224   0.898  -0.122  1.00  0.00     0.016 A 
ATOM     29  C   UNL     1       2.162   2.986  -1.294  1.00  0.00     0.016 A 
ATOM     30  C   UNL     1       2.669   1.562   1.027  1.00  0.00     0.010 A 
ATOM     31  C   UNL     1       2.756   3.618  -0.186  1.00  0.00     0.010 A 
ATOM     32  C   UNL     1       2.967   2.932   1.024  1.00  0.00    -0.014 A 
BRANCH  32  33
ATOM     33  C   UNL     1       3.442   3.640   2.266  1.00  0.00     0.031 A 
ATOM     34  C   UNL     1       2.862   4.986   2.656  1.00  0.00     0.074 A 
ATOM     35  C   UNL     1       4.379   3.107   3.085  1.00  0.00     0.049 A 
ATOM     36  N   UNL     1       3.349   5.893   3.467  1.00  0.00    -0.248 NA
ATOM     37  C   UNL     1       1.590   5.380   2.029  1.00  0.00     0.031 C 
ATOM     38  C   UNL     1       5.025   1.805   2.919  1.00  0.00     0.029 A 
ATOM     39  N   UNL     1       4.937   3.590   4.249  1.00  0.00    -0.354 N 
ATOM     40  C   UNL     1       2.522   7.006   3.344  1.00  0.00     0.074 A 
ATOM     41  C   UNL     1       1.470   6.642   2.419  1.00  0.00     0.031 C 
ATOM     42  C   UNL     1       5.789   1.543   3.989  1.00  0.00     0.029 A 
ATOM     43  C   UNL     1       5.817   2.718   4.850  1.00  0.00     0.049 A 
ATOM     44  H   UNL     1       4.725   4.478   4.617  1.00  0.00     0.167 HD
ATOM     45  C   UNL     1       2.651   8.224   3.926  1.00  0.00     0.037 A 
ATOM     46  C   UNL     1       6.602   2.851   5.939  1.00  0.00     0.037 A 
ATOM     47  C   UNL     1       3.621   8.534   4.947  1.00  0.00     0.049 A 
ATOM     48  C   UNL     1       6.669   4.179   6.638  1.00  0.00     0.074 A 
ATOM     49  C   UNL     1       3.850   9.744   5.583  1.00  0.00     0.029 A 
ATOM     50  N   UNL     1       4.482   7.614   5.525  1.00  0.00    -0.354 N 
ATOM     51  N   UNL     1       6.007   5.280   6.379  1.00  0.00    -0.248 NA
ATOM     52  C   UNL     1       7.633   4.300   7.742  1.00  0.00     0.031 C 
ATOM     53  C   UNL     1       4.859   9.558   6.535  1.00  0.00     0.029 A 
ATOM     54  C   UNL     1       5.235   8.225   6.515  1.00  0.00     0.049 A 
ATOM     55  H   UNL     1       4.549   6.666   5.269  1.00  0.00     0.167 HD
ATOM     56  C   UNL     1       6.501   6.233   7.261  1.00  0.00     0.074 A 
ATOM     57  C   UNL     1       7.473   5.566   8.101  1.00  0.00     0.031 C 
ATOM     58  C   UNL     1       6.202   7.553   7.341  1.00  0.00     0.037 A 
BRANCH  45  59
ATOM     59  C   UNL     1       1.771   9.342   3.434  1.00  0.00     0.058 A 
ATOM     60  C   UNL     1       0.415   9.448   3.772  1.00  0.00     0.135 A 
ATOM     61  C   UNL     1       2.330  10.365   2.647  1.00  0.00     0.135 A 
ATOM     62  F   UNL     1      -0.175   8.493   4.506  1.00  0.00    -0.206 F 
ATOM     63  C   UNL     1      -0.362  10.518   3.331  1.00  0.00     0.059 A 
ATOM     64  C   UNL     1       1.580  11.456   2.216  1.00  0.00     0.059 A 
ATOM     65  F   UNL     1       3.625  10.316   2.296  1.00  0.00    -0.206 F 
ATOM     66  C   UNL     1       0.230  11.517   2.553  1.00  0.00     0.060 A 
BRANCH  66  67
ATOM     67  S   UNL     1      -0.782  12.905   1.996  1.00  0.00     0.124 S 
ATOM     68  O   UNL     1      -1.542  12.293   0.910  1.00  0.00    -0.237 OA
ATOM     69  O   UNL     1      -1.546  13.240   3.193  1.00  0.00    -0.237 OA
ATOM     70  O   UNL     1       0.203  13.902   1.587  1.00  0.00    -0.744 OA
ENDBRANCH  66  67
ENDBRANCH  45  59
BRANCH  46  71
ATOM     71  C   UNL     1       7.433   1.705   6.407  1.00  0.00     0.058 A 
ATOM     72  C   UNL     1       7.154   1.069   7.625  1.00  0.00     0.135 A 
ATOM     73  C   UNL     1       8.491   1.198   5.636  1.00  0.00     0.135 A 
ATOM     74  F   UNL     1       6.176   1.535   8.418  1.00  0.00    -0.206 F 
ATOM     75  C   UNL     1       7.870  -0.045   8.051  1.00  0.00     0.059 A 
ATOM     76  C   UNL     1       9.204   0.069   6.026  1.00  0.00     0.059 A 
ATOM     77  F   UNL     1       8.806   1.771   4.464  1.00  0.00    -0.206 F 
ATOM     78  C   UNL     1       8.886  -0.545   7.237  1.00  0.00     0.060 A 
BRANCH  78  79
ATOM     79  S   UNL     1       9.744  -2.055   7.733  1.00  0.00     0.124 S 
ATOM     80  O   UNL     1      10.741  -1.533   8.660  1.00  0.00    -0.237 OA
ATOM     81  O   UNL     1       8.670  -2.844   8.327  1.00  0.00    -0.237 OA
ATOM     82  O   UNL     1      10.260  -2.570   6.468  1.00  0.00    -0.744 OA
ENDBRANCH  78  79
ENDBRANCH  46  71
BRANCH  58  83
ATOM     83  C   UNL     1       6.945   8.361   8.365  1.00  0.00     0.058 A 
ATOM     84  C   UNL     1       8.281   8.740   8.160  1.00  0.00     0.135 A 
ATOM     85  C   UNL     1       6.314   8.782   9.545  1.00  0.00     0.135 A 
ATOM     86  F   UNL     1       8.930   8.355   7.050  1.00  0.00    -0.206 F 
ATOM     87  C   UNL     1       8.975   9.490   9.103  1.00  0.00     0.059 A 
ATOM     88  C   UNL     1       6.984   9.549  10.493  1.00  0.00     0.059 A 
ATOM     89  F   UNL     1       5.036   8.450   9.784  1.00  0.00    -0.206 F 
ATOM     90  C   UNL     1       8.319   9.887  10.269  1.00  0.00     0.060 A 
BRANCH  90  91
ATOM     91  S   UNL     1       9.226  10.872  11.481  1.00  0.00     0.124 S 
ATOM     92  O   UNL     1      10.063   9.859  12.113  1.00  0.00    -0.237 OA
ATOM     93  O   UNL     1       9.926  11.839  10.640  1.00  0.00    -0.237 OA
ATOM     94  O   UNL     1       8.170  11.430  12.321  1.00  0.00    -0.744 OA
ENDBRANCH  90  91
ENDBRANCH  58  83
ENDBRANCH  32  33
ENDBRANCH  25  27
ENDBRANCH  24  25
ENDBRANCH  23  24
ENDBRANCH   1  23
TORSDOF 17
