REMARK SMILES O=C(OCCOC(=O)c1cc(-c2ccccn2)nc2ccc(F)cc12)c1ccc(-c2c3nc(c(-c4c(F)cc(S(=O)(=O)[O-])cc4F)c4ccc([nH]4)c(-c4c(F)cc(S(=O)(=O)[O-])cc4F)c4nc(c(-c5c(F)cc(S(=O)(=O)[O-])cc5F)c5ccc2[nH]5)C=C4)C=C3)cc1
REMARK SMILES IDX 4 1 3 2 2 3 1 4 26 5 27 6 91 7 28 8 90 9 29 10 30 11 31 12
REMARK SMILES IDX 84 13 32 14 89 15 83 16 85 17 33 18 88 19 82 20 81 21 34 23
REMARK SMILES IDX 68 24 47 25 67 26 48 27 51 28 66 29 86 30 49 31 50 32 65 34
REMARK SMILES IDX 87 35 52 36 35 37 36 38 45 39 37 40 38 41 44 42 46 43 39 44
REMARK SMILES IDX 40 45 41 46 42 47 43 48 69 49 70 50 79 51 71 52 72 53 78 54
REMARK SMILES IDX 80 55 73 56 74 57 75 58 76 59 77 60 53 61 54 62 63 63 55 64
REMARK SMILES IDX 56 65 62 66 64 67 57 68 58 69 59 70 60 71 61 72 5 73 6 74
REMARK SMILES IDX 7 75 8 76 9 77 10 78 25 79 11 80 19 81 24 82 18 83 20 84
REMARK SMILES IDX 22 85 21 86 23 87 12 88 13 89 17 90 14 91 16 92 15 93
REMARK H PARENT 85 22 51 33
REMARK Flexibility Score: inf
ROOT
ATOM      1  C   UNL     1       4.305   1.409  -0.395  1.00  0.00     0.275 C 
ENDROOT
BRANCH   1   2
ATOM      2  O   UNL     1       3.380   0.443  -0.922  1.00  0.00    -0.458 OA
BRANCH   2   3
ATOM      3  C   UNL     1       3.635  -0.892  -0.978  1.00  0.00     0.338 C 
ATOM      4  O   UNL     1       3.166  -1.589  -1.869  1.00  0.00    -0.246 OA
BRANCH   3   5
ATOM      5  C   UNL     1       4.232  -1.536   0.219  1.00  0.00     0.060 A 
ATOM      6  C   UNL     1       3.442  -2.478   0.881  1.00  0.00     0.016 A 
ATOM      7  C   UNL     1       5.525  -1.282   0.686  1.00  0.00     0.016 A 
ATOM      8  C   UNL     1       3.883  -3.057   2.072  1.00  0.00     0.010 A 
ATOM      9  C   UNL     1       5.984  -1.889   1.863  1.00  0.00     0.010 A 
ATOM     10  C   UNL     1       5.163  -2.772   2.574  1.00  0.00    -0.014 A 
BRANCH  10  11
ATOM     11  C   UNL     1       5.711  -3.601   3.679  1.00  0.00     0.031 A 
ATOM     12  C   UNL     1       5.969  -3.053   5.059  1.00  0.00     0.074 A 
ATOM     13  C   UNL     1       5.976  -4.888   3.374  1.00  0.00     0.049 A 
ATOM     14  N   UNL     1       6.370  -3.685   6.135  1.00  0.00    -0.248 NA
ATOM     15  C   UNL     1       5.767  -1.609   5.270  1.00  0.00     0.031 C 
ATOM     16  C   UNL     1       5.806  -5.485   2.041  1.00  0.00     0.029 A 
ATOM     17  N   UNL     1       6.437  -5.926   4.137  1.00  0.00    -0.354 N 
ATOM     18  C   UNL     1       6.399  -2.741   7.160  1.00  0.00     0.074 A 
ATOM     19  C   UNL     1       6.047  -1.470   6.564  1.00  0.00     0.031 C 
ATOM     20  C   UNL     1       6.141  -6.780   2.087  1.00  0.00     0.029 A 
ATOM     21  C   UNL     1       6.585  -7.099   3.435  1.00  0.00     0.049 A 
ATOM     22  H   UNL     1       6.643  -5.840   5.096  1.00  0.00     0.167 HD
ATOM     23  C   UNL     1       6.651  -2.949   8.478  1.00  0.00     0.037 A 
ATOM     24  C   UNL     1       7.045  -8.300   3.830  1.00  0.00     0.037 A 
ATOM     25  C   UNL     1       6.978  -4.245   9.018  1.00  0.00     0.049 A 
ATOM     26  C   UNL     1       7.417  -8.469   5.271  1.00  0.00     0.074 A 
ATOM     27  C   UNL     1       7.180  -4.598  10.341  1.00  0.00     0.029 A 
ATOM     28  N   UNL     1       7.172  -5.394   8.261  1.00  0.00    -0.354 N 
ATOM     29  N   UNL     1       7.317  -7.596   6.245  1.00  0.00    -0.248 NA
ATOM     30  C   UNL     1       7.963  -9.769   5.673  1.00  0.00     0.031 C 
ATOM     31  C   UNL     1       7.516  -5.952  10.382  1.00  0.00     0.029 A 
ATOM     32  C   UNL     1       7.526  -6.446   9.087  1.00  0.00     0.049 A 
ATOM     33  H   UNL     1       7.072  -5.450   7.284  1.00  0.00     0.167 HD
ATOM     34  C   UNL     1       7.772  -8.245   7.382  1.00  0.00     0.074 A 
ATOM     35  C   UNL     1       8.141  -9.588   6.976  1.00  0.00     0.031 C 
ATOM     36  C   UNL     1       7.876  -7.774   8.647  1.00  0.00     0.037 A 
BRANCH  23  37
ATOM     37  C   UNL     1       6.530  -1.806   9.458  1.00  0.00     0.058 A 
ATOM     38  C   UNL     1       5.413  -1.713  10.306  1.00  0.00     0.135 A 
ATOM     39  C   UNL     1       7.570  -0.893   9.681  1.00  0.00     0.135 A 
ATOM     40  F   UNL     1       4.451  -2.640  10.265  1.00  0.00    -0.206 F 
ATOM     41  C   UNL     1       5.284  -0.723  11.273  1.00  0.00     0.059 A 
ATOM     42  C   UNL     1       7.483   0.089  10.674  1.00  0.00     0.059 A 
ATOM     43  F   UNL     1       8.696  -0.966   8.956  1.00  0.00    -0.206 F 
ATOM     44  C   UNL     1       6.323   0.182  11.447  1.00  0.00     0.060 A 
BRANCH  44  45
ATOM     45  S   UNL     1       6.177   1.434  12.742  1.00  0.00     0.124 S 
ATOM     46  O   UNL     1       5.551   2.530  12.009  1.00  0.00    -0.237 OA
ATOM     47  O   UNL     1       5.331   0.780  13.737  1.00  0.00    -0.237 OA
ATOM     48  O   UNL     1       7.561   1.651  13.148  1.00  0.00    -0.744 OA
ENDBRANCH  44  45
ENDBRANCH  23  37
BRANCH  24  49
ATOM     49  C   UNL     1       7.183  -9.398   2.837  1.00  0.00     0.058 A 
ATOM     50  C   UNL     1       6.351 -10.525   2.870  1.00  0.00     0.135 A 
ATOM     51  C   UNL     1       8.120  -9.308   1.793  1.00  0.00     0.135 A 
ATOM     52  F   UNL     1       5.442 -10.659   3.847  1.00  0.00    -0.206 F 
ATOM     53  C   UNL     1       6.442 -11.525   1.906  1.00  0.00     0.059 A 
ATOM     54  C   UNL     1       8.213 -10.281   0.804  1.00  0.00     0.059 A 
ATOM     55  F   UNL     1       8.929  -8.240   1.705  1.00  0.00    -0.206 F 
ATOM     56  C   UNL     1       7.374 -11.391   0.873  1.00  0.00     0.060 A 
BRANCH  56  57
ATOM     57  S   UNL     1       7.449 -12.667  -0.403  1.00  0.00     0.124 S 
ATOM     58  O   UNL     1       8.085 -13.764   0.317  1.00  0.00    -0.237 OA
ATOM     59  O   UNL     1       6.040 -12.853  -0.736  1.00  0.00    -0.237 OA
ATOM     60  O   UNL     1       8.256 -12.048  -1.450  1.00  0.00    -0.744 OA
ENDBRANCH  56  57
ENDBRANCH  24  49
BRANCH  36  61
ATOM     61  C   UNL     1       8.409  -8.713   9.683  1.00  0.00     0.058 A 
ATOM     62  C   UNL     1       9.785  -8.959   9.789  1.00  0.00     0.135 A 
ATOM     63  C   UNL     1       7.554  -9.281  10.639  1.00  0.00     0.135 A 
ATOM     64  F   UNL     1      10.636  -8.444   8.888  1.00  0.00    -0.206 F 
ATOM     65  C   UNL     1      10.299  -9.734  10.820  1.00  0.00     0.059 A 
ATOM     66  C   UNL     1       8.049 -10.043  11.691  1.00  0.00     0.059 A 
ATOM     67  F   UNL     1       6.230  -9.063  10.577  1.00  0.00    -0.206 F 
ATOM     68  C   UNL     1       9.424 -10.261  11.773  1.00  0.00     0.060 A 
BRANCH  68  69
ATOM     69  S   UNL     1      10.119 -11.188  13.156  1.00  0.00     0.124 S 
ATOM     70  O   UNL     1      10.521 -12.430  12.504  1.00  0.00    -0.237 OA
ATOM     71  O   UNL     1      11.208 -10.320  13.595  1.00  0.00    -0.237 OA
ATOM     72  O   UNL     1       9.000 -11.300  14.086  1.00  0.00    -0.744 OA
ENDBRANCH  68  69
ENDBRANCH  36  61
ENDBRANCH  10  11
ENDBRANCH   3   5
ENDBRANCH   2   3
ENDBRANCH   1   2
BRANCH   1  73
ATOM     73  C   UNL     1       3.984   1.892   1.022  1.00  0.00     0.275 C 
BRANCH  73  74
ATOM     74  O   UNL     1       3.401   0.877   1.851  1.00  0.00    -0.458 OA
BRANCH  74  75
ATOM     75  C   UNL     1       2.040   0.896   1.912  1.00  0.00     0.339 C 
ATOM     76  O   UNL     1       1.302   1.709   1.401  1.00  0.00    -0.246 OA
BRANCH  75  77
ATOM     77  C   UNL     1       1.574  -0.306   2.642  1.00  0.00     0.071 A 
ATOM     78  C   UNL     1       2.127  -0.590   3.897  1.00  0.00     0.047 A 
ATOM     79  C   UNL     1       0.640  -1.185   2.030  1.00  0.00     0.018 A 
ATOM     80  C   UNL     1       1.734  -1.760   4.519  1.00  0.00     0.090 A 
ATOM     81  C   UNL     1       0.327  -2.345   2.758  1.00  0.00     0.072 A 
ATOM     82  C   UNL     1       0.064  -1.043   0.741  1.00  0.00     0.050 A 
ATOM     83  N   UNL     1       0.829  -2.599   3.958  1.00  0.00    -0.246 NA
ATOM     84  C   UNL     1      -0.491  -3.321   2.216  1.00  0.00     0.032 A 
ATOM     85  C   UNL     1      -0.759  -2.038   0.220  1.00  0.00     0.123 A 
ATOM     86  C   UNL     1      -1.035  -3.185   0.945  1.00  0.00     0.041 A 
ATOM     87  F   UNL     1      -1.278  -1.896  -1.005  1.00  0.00    -0.207 F 
BRANCH  80  88
ATOM     88  C   UNL     1       2.256  -2.246   5.800  1.00  0.00     0.089 A 
ATOM     89  C   UNL     1       2.182  -1.499   6.970  1.00  0.00     0.030 A 
ATOM     90  N   UNL     1       2.695  -3.534   5.780  1.00  0.00    -0.255 NA
ATOM     91  C   UNL     1       2.483  -2.131   8.171  1.00  0.00     0.004 A 
ATOM     92  C   UNL     1       3.002  -4.114   6.955  1.00  0.00     0.112 A 
ATOM     93  C   UNL     1       2.873  -3.468   8.166  1.00  0.00     0.020 A 
ENDBRANCH  80  88
ENDBRANCH  75  77
ENDBRANCH  74  75
ENDBRANCH  73  74
ENDBRANCH   1  73
TORSDOF 15
