REMARK SMILES C[C@H](Oc1cc2oc(=O)cc(-c3ccccc3)c2cc1Cl)C(=O)OCCOC(=O)c1ccc(-c2c3nc(c(-c4c(F)cc(S(=O)(=O)[O-])cc4F)c4ccc([nH]4)c(-c4c(F)cc(S(=O)(=O)[O-])cc4F)c4nc(c(-c5c(F)cc(S(=O)(=O)[O-])cc5F)c5ccc2[nH]5)C=C4)C=C3)cc1
REMARK SMILES IDX 25 1 24 2 22 3 23 4 2 5 1 6 3 7 4 8 5 9 20 10 6 11 19 12
REMARK SMILES IDX 21 13 7 14 18 15 8 16 11 17 9 18 10 19 12 20 13 21 17 22
REMARK SMILES IDX 14 23 16 24 15 25 26 26 27 27 28 28 29 29 30 30 31 31 95 32
REMARK SMILES IDX 32 33 94 34 33 35 34 36 35 37 88 38 36 39 93 40 87 41 89 42
REMARK SMILES IDX 37 43 92 44 86 45 85 46 38 48 72 49 51 50 71 51 52 52 55 53
REMARK SMILES IDX 70 54 90 55 53 56 54 57 69 59 91 60 56 61 39 62 40 63 49 64
REMARK SMILES IDX 41 65 42 66 48 67 50 68 43 69 44 70 45 71 46 72 47 73 73 74
REMARK SMILES IDX 74 75 83 76 75 77 76 78 82 79 84 80 77 81 78 82 79 83 80 84
REMARK SMILES IDX 81 85 57 86 58 87 67 88 59 89 60 90 66 91 68 92 61 93 62 94
REMARK SMILES IDX 63 95 64 96 65 97
REMARK H PARENT 89 47 55 58
REMARK Flexibility Score: inf
ROOT
ATOM      1  C   UNL     1      -3.181   0.992  -0.436  1.00  0.00     0.274 C 
ENDROOT
BRANCH   1   2
ATOM      2  O   UNL     1      -1.763   1.012  -0.682  1.00  0.00    -0.459 OA
BRANCH   2   3
ATOM      3  C   UNL     1      -1.027   1.879   0.072  1.00  0.00     0.347 C 
ATOM      4  O   UNL     1      -1.494   2.649   0.903  1.00  0.00    -0.248 OA
BRANCH   3   5
ATOM      5  C   UNL     1       0.455   1.869  -0.318  1.00  0.00     0.279 C 
ATOM      6  C   UNL     1       0.599   2.841  -1.492  1.00  0.00     0.066 C 
BRANCH   5   7
ATOM      7  O   UNL     1       0.853   0.528  -0.603  1.00  0.00    -0.477 OA
BRANCH   7   8
ATOM      8  C   UNL     1       2.132   0.214  -0.964  1.00  0.00     0.142 A 
ATOM      9  C   UNL     1       3.176   1.127  -1.067  1.00  0.00     0.096 A 
ATOM     10  C   UNL     1       2.383  -1.124  -1.317  1.00  0.00     0.084 A 
ATOM     11  C   UNL     1       4.377   0.738  -1.670  1.00  0.00     0.142 A 
ATOM     12  C   UNL     1       3.621  -1.516  -1.849  1.00  0.00     0.037 A 
ATOM     13  Cl  UNL     1       1.161  -2.339  -1.162  1.00  0.00    -0.080 Cl
ATOM     14  O   UNL     1       5.312   1.766  -1.890  1.00  0.00    -0.423 OA
ATOM     15  C   UNL     1       4.618  -0.568  -2.094  1.00  0.00     0.027 A 
ATOM     16  C   UNL     1       6.433   1.541  -2.664  1.00  0.00     0.336 A 
ATOM     17  C   UNL     1       5.875  -0.876  -2.802  1.00  0.00    -0.000 A 
ATOM     18  O   UNL     1       7.193   2.443  -2.998  1.00  0.00    -0.246 OA
ATOM     19  C   UNL     1       6.691   0.156  -3.077  1.00  0.00     0.103 A 
BRANCH  17  20
ATOM     20  C   UNL     1       6.303  -2.193  -3.328  1.00  0.00    -0.017 A 
ATOM     21  C   UNL     1       7.508  -2.772  -2.901  1.00  0.00     0.009 A 
ATOM     22  C   UNL     1       5.527  -2.872  -4.279  1.00  0.00     0.009 A 
ATOM     23  C   UNL     1       7.928  -4.000  -3.416  1.00  0.00     0.001 A 
ATOM     24  C   UNL     1       5.942  -4.107  -4.782  1.00  0.00     0.001 A 
ATOM     25  C   UNL     1       7.144  -4.669  -4.353  1.00  0.00     0.000 A 
ENDBRANCH  17  20
ENDBRANCH   7   8
ENDBRANCH   5   7
ENDBRANCH   3   5
ENDBRANCH   2   3
ENDBRANCH   1   2
BRANCH   1  26
ATOM     26  C   UNL     1      -3.588  -0.121   0.534  1.00  0.00     0.275 C 
BRANCH  26  27
ATOM     27  O   UNL     1      -3.141   0.151   1.873  1.00  0.00    -0.458 OA
BRANCH  27  28
ATOM     28  C   UNL     1      -1.920  -0.353   2.175  1.00  0.00     0.338 C 
ATOM     29  O   UNL     1      -1.220  -1.049   1.460  1.00  0.00    -0.246 OA
BRANCH  28  30
ATOM     30  C   UNL     1      -1.458   0.176   3.468  1.00  0.00     0.060 A 
ATOM     31  C   UNL     1      -0.176   0.734   3.520  1.00  0.00     0.016 A 
ATOM     32  C   UNL     1      -2.232   0.064   4.625  1.00  0.00     0.016 A 
ATOM     33  C   UNL     1       0.345   1.170   4.734  1.00  0.00     0.010 A 
ATOM     34  C   UNL     1      -1.704   0.495   5.846  1.00  0.00     0.010 A 
ATOM     35  C   UNL     1      -0.406   1.032   5.909  1.00  0.00    -0.014 A 
BRANCH  35  36
ATOM     36  C   UNL     1       0.212   1.375   7.212  1.00  0.00     0.031 A 
ATOM     37  C   UNL     1       0.737   0.277   8.092  1.00  0.00     0.074 A 
ATOM     38  C   UNL     1       0.337   2.663   7.580  1.00  0.00     0.049 A 
ATOM     39  N   UNL     1       1.297   0.358   9.271  1.00  0.00    -0.248 NA
ATOM     40  C   UNL     1       0.618  -1.096   7.575  1.00  0.00     0.031 C 
ATOM     41  C   UNL     1      -0.102   3.813   6.789  1.00  0.00     0.029 A 
ATOM     42  N   UNL     1       0.875   3.219   8.713  1.00  0.00    -0.354 N 
ATOM     43  C   UNL     1       1.587  -0.949   9.644  1.00  0.00     0.074 A 
ATOM     44  C   UNL     1       1.123  -1.806   8.573  1.00  0.00     0.031 C 
ATOM     45  C   UNL     1       0.189   4.940   7.460  1.00  0.00     0.029 A 
ATOM     46  C   UNL     1       0.803   4.590   8.739  1.00  0.00     0.049 A 
ATOM     47  H   UNL     1       1.274   2.685   9.438  1.00  0.00     0.167 HD
ATOM     48  C   UNL     1       2.192  -1.392  10.772  1.00  0.00     0.037 A 
ATOM     49  C   UNL     1       1.178   5.463   9.695  1.00  0.00     0.037 A 
ATOM     50  C   UNL     1       2.657  -0.533  11.830  1.00  0.00     0.049 A 
ATOM     51  C   UNL     1       1.804   4.943  10.961  1.00  0.00     0.074 A 
ATOM     52  C   UNL     1       3.288  -0.883  13.011  1.00  0.00     0.029 A 
ATOM     53  N   UNL     1       2.540   0.850  11.835  1.00  0.00    -0.354 N 
ATOM     54  N   UNL     1       2.075   3.705  11.299  1.00  0.00    -0.248 NA
ATOM     55  C   UNL     1       2.175   5.939  11.976  1.00  0.00     0.031 C 
ATOM     56  C   UNL     1       3.521   0.285  13.746  1.00  0.00     0.029 A 
ATOM     57  C   UNL     1       3.072   1.366  13.005  1.00  0.00     0.049 A 
ATOM     58  H   UNL     1       2.138   1.385  11.113  1.00  0.00     0.167 HD
ATOM     59  C   UNL     1       2.667   3.774  12.555  1.00  0.00     0.074 A 
ATOM     60  C   UNL     1       2.724   5.177  12.912  1.00  0.00     0.031 C 
ATOM     61  C   UNL     1       3.123   2.767  13.342  1.00  0.00     0.037 A 
BRANCH  48  62
ATOM     62  C   UNL     1       2.357  -2.877  10.929  1.00  0.00     0.058 A 
ATOM     63  C   UNL     1       3.305  -3.598  10.186  1.00  0.00     0.135 A 
ATOM     64  C   UNL     1       1.563  -3.588  11.844  1.00  0.00     0.135 A 
ATOM     65  F   UNL     1       4.077  -2.970   9.285  1.00  0.00    -0.206 F 
ATOM     66  C   UNL     1       3.441  -4.976  10.323  1.00  0.00     0.059 A 
ATOM     67  C   UNL     1       1.697  -4.963  12.013  1.00  0.00     0.059 A 
ATOM     68  F   UNL     1       0.639  -2.947  12.578  1.00  0.00    -0.206 F 
ATOM     69  C   UNL     1       2.628  -5.651  11.236  1.00  0.00     0.060 A 
BRANCH  69  70
ATOM     70  S   UNL     1       2.804  -7.440  11.396  1.00  0.00     0.124 S 
ATOM     71  O   UNL     1       2.129  -7.908  10.189  1.00  0.00    -0.237 OA
ATOM     72  O   UNL     1       4.253  -7.614  11.418  1.00  0.00    -0.237 OA
ATOM     73  O   UNL     1       2.122  -7.737  12.652  1.00  0.00    -0.744 OA
ENDBRANCH  69  70
ENDBRANCH  48  62
BRANCH  49  74
ATOM     74  C   UNL     1       0.967   6.920   9.492  1.00  0.00     0.058 A 
ATOM     75  C   UNL     1       2.048   7.785   9.273  1.00  0.00     0.135 A 
ATOM     76  C   UNL     1      -0.323   7.474   9.504  1.00  0.00     0.135 A 
ATOM     77  F   UNL     1       3.300   7.304   9.263  1.00  0.00    -0.206 F 
ATOM     78  C   UNL     1       1.861   9.151   9.084  1.00  0.00     0.059 A 
ATOM     79  C   UNL     1      -0.537   8.832   9.294  1.00  0.00     0.059 A 
ATOM     80  F   UNL     1      -1.392   6.686   9.700  1.00  0.00    -0.206 F 
ATOM     81  C   UNL     1       0.563   9.665   9.094  1.00  0.00     0.060 A 
BRANCH  81  82
ATOM     82  S   UNL     1       0.324  11.430   8.795  1.00  0.00     0.124 S 
ATOM     83  O   UNL     1       0.721  12.001  10.077  1.00  0.00    -0.237 OA
ATOM     84  O   UNL     1       1.229  11.680   7.677  1.00  0.00    -0.237 OA
ATOM     85  O   UNL     1      -1.097  11.524   8.473  1.00  0.00    -0.744 OA
ENDBRANCH  81  82
ENDBRANCH  49  74
BRANCH  61  86
ATOM     86  C   UNL     1       3.751   3.151  14.652  1.00  0.00     0.058 A 
ATOM     87  C   UNL     1       2.976   3.572  15.744  1.00  0.00     0.135 A 
ATOM     88  C   UNL     1       5.141   3.058  14.829  1.00  0.00     0.135 A 
ATOM     89  F   UNL     1       1.644   3.683  15.625  1.00  0.00    -0.206 F 
ATOM     90  C   UNL     1       3.561   3.913  16.960  1.00  0.00     0.059 A 
ATOM     91  C   UNL     1       5.744   3.373  16.042  1.00  0.00     0.059 A 
ATOM     92  F   UNL     1       5.925   2.651  13.818  1.00  0.00    -0.206 F 
ATOM     93  C   UNL     1       4.947   3.812  17.098  1.00  0.00     0.060 A 
BRANCH  93  94
ATOM     94  S   UNL     1       5.695   4.234  18.687  1.00  0.00     0.124 S 
ATOM     95  O   UNL     1       5.676   5.692  18.642  1.00  0.00    -0.237 OA
ATOM     96  O   UNL     1       4.779   3.617  19.641  1.00  0.00    -0.237 OA
ATOM     97  O   UNL     1       7.017   3.620  18.611  1.00  0.00    -0.744 OA
ENDBRANCH  93  94
ENDBRANCH  61  86
ENDBRANCH  35  36
ENDBRANCH  28  30
ENDBRANCH  27  28
ENDBRANCH  26  27
ENDBRANCH   1  26
TORSDOF 17
