REMARK SMILES O=C(OCCOC(=O)[C@]12COc3ccccc3[C@H]1C[N@H+](CCO)C2)c1ccc(-c2c3nc(c(-c4c(F)cc(S(=O)(=O)[O-])cc4F)c4ccc([nH]4)c(-c4c(F)cc(S(=O)(=O)[O-])cc4F)c4nc(c(-c5c(F)cc(S(=O)(=O)[O-])cc5F)c5ccc2[nH]5)C=C4)C=C3)cc1
REMARK SMILES IDX 4 1 3 2 2 3 1 4 25 5 26 6 90 7 27 8 89 9 28 10 29 11 30 12
REMARK SMILES IDX 83 13 31 14 88 15 82 16 84 17 32 18 87 19 81 20 80 21 33 23
REMARK SMILES IDX 67 24 46 25 66 26 47 27 50 28 65 29 85 30 48 31 49 32 64 34
REMARK SMILES IDX 86 35 51 36 34 37 35 38 44 39 36 40 37 41 43 42 45 43 38 44
REMARK SMILES IDX 39 45 40 46 41 47 42 48 68 49 69 50 78 51 70 52 71 53 77 54
REMARK SMILES IDX 79 55 72 56 73 57 74 58 75 59 76 60 52 61 53 62 62 63 54 64
REMARK SMILES IDX 55 65 61 66 63 67 56 68 57 69 58 70 59 71 60 72 5 73 6 74
REMARK SMILES IDX 7 75 8 76 9 77 10 78 18 79 24 80 11 81 17 82 19 83 20 84
REMARK SMILES IDX 12 85 16 86 13 88 15 89 14 90 21 91 22 92 23 93
REMARK H PARENT 84 22 50 33 20 87 23 94
REMARK Flexibility Score: inf
ROOT
ATOM      1  C   UNL     1       4.000   1.188  -1.235  1.00  0.00     0.275 C 
ENDROOT
BRANCH   1   2
ATOM      2  O   UNL     1       2.888   0.300  -1.412  1.00  0.00    -0.458 OA
BRANCH   2   3
ATOM      3  C   UNL     1       2.822  -0.978  -0.944  1.00  0.00     0.338 C 
ATOM      4  O   UNL     1       1.953  -1.754  -1.318  1.00  0.00    -0.246 OA
BRANCH   3   5
ATOM      5  C   UNL     1       3.625  -1.295   0.251  1.00  0.00     0.060 A 
ATOM      6  C   UNL     1       2.734  -1.237   1.735  1.00  0.00     0.016 A 
ATOM      7  C   UNL     1       5.345  -1.380   0.364  1.00  0.00     0.016 A 
ATOM      8  C   UNL     1       3.726  -1.252   3.434  1.00  0.00     0.010 A 
ATOM      9  C   UNL     1       6.216  -1.397   1.882  1.00  0.00     0.010 A 
ATOM     10  C   UNL     1       5.459  -1.355   3.427  1.00  0.00    -0.014 A 
BRANCH  10  11
ATOM     11  C   UNL     1       6.025  -1.531   4.780  1.00  0.00     0.031 A 
ATOM     12  C   UNL     1       5.888  -0.487   5.870  1.00  0.00     0.074 A 
ATOM     13  C   UNL     1       6.235  -2.811   5.121  1.00  0.00     0.049 A 
ATOM     14  N   UNL     1       6.024  -0.620   7.167  1.00  0.00    -0.248 NA
ATOM     15  C   UNL     1       5.517   0.877   5.469  1.00  0.00     0.031 C 
ATOM     16  C   UNL     1       6.161  -3.929   4.187  1.00  0.00     0.029 A 
ATOM     17  N   UNL     1       6.460  -3.401   6.333  1.00  0.00    -0.354 N 
ATOM     18  C   UNL     1       5.731   0.624   7.727  1.00  0.00     0.074 A 
ATOM     19  C   UNL     1       5.376   1.498   6.635  1.00  0.00     0.031 C 
ATOM     20  C   UNL     1       6.266  -5.077   4.863  1.00  0.00     0.029 A 
ATOM     21  C   UNL     1       6.565  -4.766   6.252  1.00  0.00     0.049 A 
ATOM     22  H   UNL     1       6.538  -2.898   7.176  1.00  0.00     0.167 HD
ATOM     23  C   UNL     1       5.811   1.008   9.025  1.00  0.00     0.037 A 
ATOM     24  C   UNL     1       6.947  -5.668   7.173  1.00  0.00     0.037 A 
ATOM     25  C   UNL     1       6.289   0.144  10.076  1.00  0.00     0.049 A 
ATOM     26  C   UNL     1       7.271  -5.169   8.547  1.00  0.00     0.074 A 
ATOM     27  C   UNL     1       6.553   0.461  11.398  1.00  0.00     0.029 A 
ATOM     28  N   UNL     1       6.614  -1.195   9.915  1.00  0.00    -0.354 N 
ATOM     29  N   UNL     1       7.067  -3.977   9.056  1.00  0.00    -0.248 NA
ATOM     30  C   UNL     1       7.913  -6.117   9.463  1.00  0.00     0.031 C 
ATOM     31  C   UNL     1       7.136  -0.654  12.003  1.00  0.00     0.029 A 
ATOM     32  C   UNL     1       7.143  -1.697  11.091  1.00  0.00     0.049 A 
ATOM     33  H   UNL     1       6.488  -1.711   9.086  1.00  0.00     0.167 HD
ATOM     34  C   UNL     1       7.555  -4.032  10.354  1.00  0.00     0.074 A 
ATOM     35  C   UNL     1       8.033  -5.384  10.561  1.00  0.00     0.031 C 
ATOM     36  C   UNL     1       7.613  -3.047  11.282  1.00  0.00     0.037 A 
BRANCH  23  37
ATOM     37  C   UNL     1       5.521   2.444   9.392  1.00  0.00     0.058 A 
ATOM     38  C   UNL     1       4.217   2.937   9.541  1.00  0.00     0.135 A 
ATOM     39  C   UNL     1       6.582   3.303   9.733  1.00  0.00     0.135 A 
ATOM     40  F   UNL     1       3.162   2.171   9.222  1.00  0.00    -0.206 F 
ATOM     41  C   UNL     1       3.975   4.225  10.025  1.00  0.00     0.059 A 
ATOM     42  C   UNL     1       6.365   4.583  10.237  1.00  0.00     0.059 A 
ATOM     43  F   UNL     1       7.852   2.886   9.611  1.00  0.00    -0.206 F 
ATOM     44  C   UNL     1       5.056   5.037  10.380  1.00  0.00     0.060 A 
BRANCH  44  45
ATOM     45  S   UNL     1       4.726   6.691  11.032  1.00  0.00     0.124 S 
ATOM     46  O   UNL     1       4.097   7.338   9.884  1.00  0.00    -0.237 OA
ATOM     47  O   UNL     1       3.846   6.409  12.161  1.00  0.00    -0.237 OA
ATOM     48  O   UNL     1       6.051   7.194  11.380  1.00  0.00    -0.744 OA
ENDBRANCH  44  45
ENDBRANCH  23  37
BRANCH  24  49
ATOM     49  C   UNL     1       7.188  -7.075   6.761  1.00  0.00     0.058 A 
ATOM     50  C   UNL     1       6.506  -8.145   7.351  1.00  0.00     0.135 A 
ATOM     51  C   UNL     1       8.121  -7.375   5.748  1.00  0.00     0.135 A 
ATOM     52  F   UNL     1       5.616  -7.918   8.329  1.00  0.00    -0.206 F 
ATOM     53  C   UNL     1       6.749  -9.460   6.964  1.00  0.00     0.059 A 
ATOM     54  C   UNL     1       8.341  -8.671   5.309  1.00  0.00     0.059 A 
ATOM     55  F   UNL     1       8.809  -6.391   5.147  1.00  0.00    -0.206 F 
ATOM     56  C   UNL     1       7.664  -9.710   5.938  1.00  0.00     0.060 A 
BRANCH  56  57
ATOM     57  S   UNL     1       7.965 -11.416   5.436  1.00  0.00     0.124 S 
ATOM     58  O   UNL     1       8.633 -11.952   6.617  1.00  0.00    -0.237 OA
ATOM     59  O   UNL     1       6.612 -11.902   5.189  1.00  0.00    -0.237 OA
ATOM     60  O   UNL     1       8.802 -11.275   4.248  1.00  0.00    -0.744 OA
ENDBRANCH  56  57
ENDBRANCH  24  49
BRANCH  36  61
ATOM     61  C   UNL     1       8.201  -3.390  12.621  1.00  0.00     0.058 A 
ATOM     62  C   UNL     1       9.575  -3.624  12.782  1.00  0.00     0.135 A 
ATOM     63  C   UNL     1       7.392  -3.397  13.769  1.00  0.00     0.135 A 
ATOM     64  F   UNL     1      10.390  -3.638  11.715  1.00  0.00    -0.206 F 
ATOM     65  C   UNL     1      10.126  -3.866  14.035  1.00  0.00     0.059 A 
ATOM     66  C   UNL     1       7.927  -3.599  15.035  1.00  0.00     0.059 A 
ATOM     67  F   UNL     1       6.073  -3.170  13.669  1.00  0.00    -0.206 F 
ATOM     68  C   UNL     1       9.295  -3.839  15.157  1.00  0.00     0.060 A 
BRANCH  68  69
ATOM     69  S   UNL     1      10.038  -4.098  16.780  1.00  0.00     0.124 S 
ATOM     70  O   UNL     1      10.464  -5.491  16.691  1.00  0.00    -0.237 OA
ATOM     71  O   UNL     1      11.108  -3.106  16.789  1.00  0.00    -0.237 OA
ATOM     72  O   UNL     1       8.939  -3.838  17.705  1.00  0.00    -0.744 OA
ENDBRANCH  68  69
ENDBRANCH  36  61
ENDBRANCH  10  11
ENDBRANCH   3   5
ENDBRANCH   2   3
ENDBRANCH   1   2
BRANCH   1  73
ATOM     73  C   UNL     1       3.787   2.356  -0.242  1.00  0.00     0.274 C 
BRANCH  73  74
ATOM     74  O   UNL     1       3.321   2.101   1.114  1.00  0.00    -0.461 OA
BRANCH  74  75
ATOM     75  C   UNL     1       2.196   1.395   1.487  1.00  0.00     0.322 C 
ATOM     76  O   UNL     1       1.153   1.351   0.864  1.00  0.00    -0.251 OA
BRANCH  75  77
ATOM     77  C   UNL     1       2.583   0.609   2.792  1.00  0.00     0.162 C 
ATOM     78  C   UNL     1       4.243  -0.075   2.060  1.00  0.00     0.255 C 
ATOM     79  C   UNL     1       1.498  -0.694   3.623  1.00  0.00     0.105 C 
ATOM     80  C   UNL     1       2.490   1.700   3.866  1.00  0.00     0.285 C 
ATOM     81  O   UNL     1       4.290  -2.128   1.960  1.00  0.00    -0.492 OA
ATOM     82  C   UNL     1       1.816  -2.506   3.512  1.00  0.00     0.004 A 
ATOM     83  C   UNL     1       1.628  -0.252   5.110  1.00  0.00     0.272 C 
ATOM     84  N   UNL     1       2.078   1.128   5.149  1.00  0.00    -0.331 N 
ATOM     85  C   UNL     1       3.024  -3.168   2.637  1.00  0.00     0.123 A 
ATOM     86  C   UNL     1       1.283  -3.351   4.473  1.00  0.00     0.008 A 
ATOM     87  H   UNL     1       2.984   1.086   5.617  1.00  0.00     0.348 HD
ATOM     88  C   UNL     1       3.403  -4.489   2.647  1.00  0.00     0.047 A 
ATOM     89  C   UNL     1       1.800  -4.674   4.542  1.00  0.00     0.001 A 
ATOM     90  C   UNL     1       2.774  -5.231   3.643  1.00  0.00     0.004 A 
BRANCH  84  91
ATOM     91  C   UNL     1       1.306   1.987   6.053  1.00  0.00     0.290 C 
BRANCH  91  92
ATOM     92  C   UNL     1      -0.209   2.107   5.767  1.00  0.00     0.217 C 
BRANCH  92  93
ATOM     93  O   UNL     1      -0.968   0.966   6.163  1.00  0.00    -0.391 OA
ATOM     94  H   UNL     1      -0.672   0.191   5.660  1.00  0.00     0.210 HD
ENDBRANCH  92  93
ENDBRANCH  91  92
ENDBRANCH  84  91
ENDBRANCH  75  77
ENDBRANCH  74  75
ENDBRANCH  73  74
ENDBRANCH   1  73
TORSDOF 17
