REMARK SMILES COc1ccc(-c2nc(NCC(=O)OCCOC(=O)c3ccc(-c4c5nc(c(-c6c(F)cc(S(=O)(=O)[O-])cc6F)c6ccc([nH]6)c(-c6c(F)cc(S(=O)(=O)[O-])cc6F)c6nc(c(-c7c(F)cc(S(=O)(=O)[O-])cc7F)c7ccc4[nH]7)C=C6)C=C5)cc3)sc2-c2ccc(OC)cc2)cc1
REMARK SMILES IDX 15 1 14 2 12 3 13 4 11 5 10 6 9 8 7 9 8 10 87 11 86 12 6 13
REMARK SMILES IDX 3 14 4 15 97 16 5 17 96 18 2 19 1 20 88 21 89 22 95 23 90 24
REMARK SMILES IDX 94 25 91 26 92 27 93 28 16 29 17 30 18 31 19 32 20 33 21 34
REMARK SMILES IDX 85 35 22 36 84 37 23 38 24 39 25 40 78 41 26 42 83 43 77 44
REMARK SMILES IDX 79 45 27 46 82 47 76 48 75 49 28 51 62 52 41 53 61 54 42 55
REMARK SMILES IDX 45 56 60 57 80 58 43 59 44 60 59 62 81 63 46 64 29 65 30 66
REMARK SMILES IDX 39 67 31 68 32 69 38 70 40 71 33 72 34 73 35 74 36 75 37 76
REMARK SMILES IDX 63 77 64 78 73 79 65 80 66 81 72 82 74 83 67 84 68 85 69 86
REMARK SMILES IDX 70 87 71 88 47 89 48 90 57 91 49 92 50 93 56 94 58 95 51 96
REMARK SMILES IDX 52 97 53 98 54 99 55 100
REMARK H PARENT 10 7 79 50 45 61
REMARK Flexibility Score: inf
ROOT
ATOM      1  C   UNL     1       7.506  10.360   0.530  1.00  0.00     0.274 C 
ENDROOT
BRANCH   1   2
ATOM      2  O   UNL     1       6.145  10.011   0.232  1.00  0.00    -0.461 OA
BRANCH   2   3
ATOM      3  C   UNL     1       5.356  11.018  -0.235  1.00  0.00     0.325 C 
ATOM      4  O   UNL     1       5.688  12.197  -0.288  1.00  0.00    -0.250 OA
BRANCH   3   5
ATOM      5  C   UNL     1       3.977  10.531  -0.653  1.00  0.00     0.238 C 
BRANCH   5   6
ATOM      6  N   UNL     1       3.944   9.125  -1.038  1.00  0.00    -0.351 N 
ATOM      7  H   UNL     1       4.690   8.775  -1.577  1.00  0.00     0.163 HD
BRANCH   6   8
ATOM      8  C   UNL     1       2.953   8.275  -0.701  1.00  0.00     0.184 A 
ATOM      9  C   UNL     1       1.822   6.367  -0.545  1.00  0.00     0.091 A 
ATOM     10  N   UNL     1       2.919   7.020  -1.093  1.00  0.00    -0.220 NA
ATOM     11  C   UNL     1       1.069   7.126   0.337  1.00  0.00     0.064 A 
ATOM     12  S   UNL     1       1.638   8.733   0.314  1.00  0.00    -0.096 S 
BRANCH   9  13
ATOM     13  C   UNL     1       1.549   4.961  -0.809  1.00  0.00     0.002 A 
ATOM     14  C   UNL     1       0.943   2.231  -1.042  1.00  0.00     0.118 A 
ATOM     15  C   UNL     1      -0.029   3.188  -1.323  1.00  0.00     0.047 A 
ATOM     16  C   UNL     1       2.240   2.635  -0.718  1.00  0.00     0.047 A 
ATOM     17  C   UNL     1       0.269   4.547  -1.202  1.00  0.00     0.014 A 
ATOM     18  C   UNL     1       2.543   3.998  -0.607  1.00  0.00     0.014 A 
BRANCH  14  19
ATOM     19  O   UNL     1       0.541   0.927  -1.150  1.00  0.00    -0.497 OA
ATOM     20  C   UNL     1       1.095   0.061  -0.164  1.00  0.00     0.278 C 
ENDBRANCH  14  19
ENDBRANCH   9  13
BRANCH  11  21
ATOM     21  C   UNL     1       0.009   6.774   1.276  1.00  0.00    -0.006 A 
ATOM     22  C   UNL     1      -1.215   7.452   1.284  1.00  0.00     0.013 A 
ATOM     23  C   UNL     1       0.243   5.783   2.238  1.00  0.00     0.013 A 
ATOM     24  C   UNL     1      -2.177   7.150   2.249  1.00  0.00     0.047 A 
ATOM     25  C   UNL     1      -0.723   5.480   3.200  1.00  0.00     0.047 A 
ATOM     26  C   UNL     1      -1.937   6.165   3.210  1.00  0.00     0.118 A 
BRANCH  26  27
ATOM     27  O   UNL     1      -2.955   5.975   4.104  1.00  0.00    -0.497 OA
ATOM     28  C   UNL     1      -2.781   4.925   5.045  1.00  0.00     0.278 C 
ENDBRANCH  26  27
ENDBRANCH  11  21
ENDBRANCH   6   8
ENDBRANCH   5   6
ENDBRANCH   3   5
ENDBRANCH   2   3
ENDBRANCH   1   2
BRANCH   1  29
ATOM     29  C   UNL     1       8.438   9.983  -0.626  1.00  0.00     0.275 C 
BRANCH  29  30
ATOM     30  O   UNL     1       8.247  10.820  -1.783  1.00  0.00    -0.458 OA
BRANCH  30  31
ATOM     31  C   UNL     1       7.286  10.411  -2.648  1.00  0.00     0.338 C 
ATOM     32  O   UNL     1       6.585   9.418  -2.554  1.00  0.00    -0.246 OA
BRANCH  31  33
ATOM     33  C   UNL     1       7.070  11.451  -3.669  1.00  0.00     0.060 A 
ATOM     34  C   UNL     1       5.790  12.000  -3.779  1.00  0.00     0.016 A 
ATOM     35  C   UNL     1       8.089  11.853  -4.534  1.00  0.00     0.016 A 
ATOM     36  C   UNL     1       5.520  12.963  -4.744  1.00  0.00     0.010 A 
ATOM     37  C   UNL     1       7.817  12.822  -5.505  1.00  0.00     0.010 A 
ATOM     38  C   UNL     1       6.533  13.384  -5.613  1.00  0.00    -0.014 A 
BRANCH  38  39
ATOM     39  C   UNL     1       6.238  14.413  -6.637  1.00  0.00     0.031 A 
ATOM     40  C   UNL     1       6.115  14.023  -8.079  1.00  0.00     0.074 A 
ATOM     41  C   UNL     1       6.071  15.694  -6.257  1.00  0.00     0.049 A 
ATOM     42  N   UNL     1       5.980  14.786  -9.132  1.00  0.00    -0.248 NA
ATOM     43  C   UNL     1       6.148  12.582  -8.378  1.00  0.00     0.031 C 
ATOM     44  C   UNL     1       6.115  16.176  -4.875  1.00  0.00     0.029 A 
ATOM     45  N   UNL     1       5.840  16.824  -6.998  1.00  0.00    -0.354 N 
ATOM     46  C   UNL     1       5.933  13.925 -10.221  1.00  0.00     0.074 A 
ATOM     47  C   UNL     1       6.063  12.580  -9.701  1.00  0.00     0.031 C 
ATOM     48  C   UNL     1       5.925  17.505  -4.869  1.00  0.00     0.029 A 
ATOM     49  C   UNL     1       5.803  17.974  -6.246  1.00  0.00     0.049 A 
ATOM     50  H   UNL     1       5.713  16.813  -7.975  1.00  0.00     0.167 HD
ATOM     51  C   UNL     1       5.796  14.236 -11.532  1.00  0.00     0.037 A 
ATOM     52  C   UNL     1       5.723  19.263  -6.627  1.00  0.00     0.037 A 
ATOM     53  C   UNL     1       5.657  15.579 -12.031  1.00  0.00     0.049 A 
ATOM     54  C   UNL     1       5.644  19.587  -8.093  1.00  0.00     0.074 A 
ATOM     55  C   UNL     1       5.500  16.001 -13.340  1.00  0.00     0.029 A 
ATOM     56  N   UNL     1       5.662  16.722 -11.243  1.00  0.00    -0.354 N 
ATOM     57  N   UNL     1       5.619  18.765  -9.116  1.00  0.00    -0.248 NA
ATOM     58  C   UNL     1       5.599  21.008  -8.459  1.00  0.00     0.031 C 
ATOM     59  C   UNL     1       5.452  17.399 -13.347  1.00  0.00     0.029 A 
ATOM     60  C   UNL     1       5.537  17.849 -12.038  1.00  0.00     0.049 A 
ATOM     61  H   UNL     1       5.743  16.730 -10.262  1.00  0.00     0.167 HD
ATOM     62  C   UNL     1       5.547  19.570 -10.247  1.00  0.00     0.074 A 
ATOM     63  C   UNL     1       5.514  20.942  -9.781  1.00  0.00     0.031 C 
ATOM     64  C   UNL     1       5.514  19.206 -11.553  1.00  0.00     0.037 A 
BRANCH  51  65
ATOM     65  C   UNL     1       5.828  13.105 -12.521  1.00  0.00     0.058 A 
ATOM     66  C   UNL     1       4.747  12.223 -12.675  1.00  0.00     0.135 A 
ATOM     67  C   UNL     1       6.949  12.918 -13.347  1.00  0.00     0.135 A 
ATOM     68  F   UNL     1       3.659  12.346 -11.899  1.00  0.00    -0.206 F 
ATOM     69  C   UNL     1       4.785  11.182 -13.598  1.00  0.00     0.059 A 
ATOM     70  C   UNL     1       7.000  11.898 -14.291  1.00  0.00     0.059 A 
ATOM     71  F   UNL     1       8.011  13.732 -13.238  1.00  0.00    -0.206 F 
ATOM     72  C   UNL     1       5.917  11.025 -14.400  1.00  0.00     0.060 A 
BRANCH  72  73
ATOM     73  S   UNL     1       5.954   9.670 -15.592  1.00  0.00     0.124 S 
ATOM     74  O   UNL     1       6.173   8.521 -14.719  1.00  0.00    -0.237 OA
ATOM     75  O   UNL     1       4.634   9.756 -16.207  1.00  0.00    -0.237 OA
ATOM     76  O   UNL     1       7.072  10.016 -16.465  1.00  0.00    -0.744 OA
ENDBRANCH  72  73
ENDBRANCH  51  65
BRANCH  52  77
ATOM     77  C   UNL     1       5.762  20.340  -5.603  1.00  0.00     0.058 A 
ATOM     78  C   UNL     1       4.627  21.109  -5.314  1.00  0.00     0.135 A 
ATOM     79  C   UNL     1       6.935  20.605  -4.878  1.00  0.00     0.135 A 
ATOM     80  F   UNL     1       3.486  20.900  -5.989  1.00  0.00    -0.206 F 
ATOM     81  C   UNL     1       4.652  22.107  -4.345  1.00  0.00     0.059 A 
ATOM     82  C   UNL     1       6.978  21.580  -3.887  1.00  0.00     0.059 A 
ATOM     83  F   UNL     1       8.046  19.890  -5.111  1.00  0.00    -0.206 F 
ATOM     84  C   UNL     1       5.832  22.332  -3.634  1.00  0.00     0.060 A 
BRANCH  84  85
ATOM     85  S   UNL     1       5.840  23.588  -2.336  1.00  0.00     0.124 S 
ATOM     86  O   UNL     1       5.892  24.818  -3.118  1.00  0.00    -0.237 OA
ATOM     87  O   UNL     1       4.583  23.325  -1.643  1.00  0.00    -0.237 OA
ATOM     88  O   UNL     1       7.045  23.273  -1.573  1.00  0.00    -0.744 OA
ENDBRANCH  84  85
ENDBRANCH  52  77
BRANCH  64  89
ATOM     89  C   UNL     1       5.429  20.310 -12.569  1.00  0.00     0.058 A 
ATOM     90  C   UNL     1       6.543  21.103 -12.883  1.00  0.00     0.135 A 
ATOM     91  C   UNL     1       4.234  20.546 -13.268  1.00  0.00     0.135 A 
ATOM     92  F   UNL     1       7.705  20.923 -12.235  1.00  0.00    -0.206 F 
ATOM     93  C   UNL     1       6.471  22.106 -13.844  1.00  0.00     0.059 A 
ATOM     94  C   UNL     1       4.146  21.528 -14.249  1.00  0.00     0.059 A 
ATOM     95  F   UNL     1       3.143  19.808 -13.010  1.00  0.00    -0.206 F 
ATOM     96  C   UNL     1       5.268  22.310 -14.523  1.00  0.00     0.060 A 
BRANCH  96  97
ATOM     97  S   UNL     1       5.197  23.590 -15.794  1.00  0.00     0.124 S 
ATOM     98  O   UNL     1       5.132  24.803 -14.986  1.00  0.00    -0.237 OA
ATOM     99  O   UNL     1       6.444  23.380 -16.523  1.00  0.00    -0.237 OA
ATOM    100  O   UNL     1       3.982  23.264 -16.536  1.00  0.00    -0.744 OA
ENDBRANCH  96  97
ENDBRANCH  64  89
ENDBRANCH  38  39
ENDBRANCH  31  33
ENDBRANCH  30  31
ENDBRANCH  29  30
ENDBRANCH   1  29
TORSDOF 20
