REMARK SMILES Cc1cccc(-c2cccc(C(=O)OCCOC(=O)c3ccc(-c4c5nc(c(-c6c(F)cc(S(=O)(=O)[O-])cc6F)c6ccc([nH]6)c(-c6c(F)cc(S(=O)(=O)[O-])cc6F)c6nc(c(-c7c(F)cc(S(=O)(=O)[O-])cc7F)c7ccc4[nH]7)C=C6)C=C5)cc3)c2)c1
REMARK SMILES IDX 16 1 15 2 14 3 12 4 13 5 11 6 7 7 8 8 86 9 9 10 10 11 6 12
REMARK SMILES IDX 1 13 2 14 3 15 87 16 4 17 5 18 17 19 18 20 19 21 20 22 21 23
REMARK SMILES IDX 85 24 22 25 84 26 23 27 24 28 25 29 78 30 26 31 83 32 77 33
REMARK SMILES IDX 79 34 27 35 82 36 76 37 75 38 28 40 62 41 41 42 61 43 42 44
REMARK SMILES IDX 45 45 60 46 80 47 43 48 44 49 59 51 81 52 46 53 29 54 30 55
REMARK SMILES IDX 39 56 31 57 32 58 38 59 40 60 33 61 34 62 35 63 36 64 37 65
REMARK SMILES IDX 63 66 64 67 73 68 65 69 66 70 72 71 74 72 67 73 68 74 69 75
REMARK SMILES IDX 70 76 71 77 47 78 48 79 57 80 49 81 50 82 56 83 58 84 51 85
REMARK SMILES IDX 52 86 53 87 54 88 55 89
REMARK H PARENT 79 39 45 50
REMARK Flexibility Score: inf
ROOT
ATOM      1  C   UNL     1      -8.190   4.619   1.547  1.00  0.00     0.275 C 
ENDROOT
BRANCH   1   2
ATOM      2  C   UNL     1      -6.999   5.327   0.874  1.00  0.00     0.275 C 
BRANCH   2   3
ATOM      3  O   UNL     1      -5.926   4.497   0.393  1.00  0.00    -0.458 OA
BRANCH   3   4
ATOM      4  C   UNL     1      -4.843   5.260   0.058  1.00  0.00     0.338 C 
ATOM      5  O   UNL     1      -4.808   6.485   0.145  1.00  0.00    -0.246 OA
BRANCH   4   6
ATOM      6  C   UNL     1      -3.715   4.547  -0.598  1.00  0.00     0.060 A 
ATOM      7  C   UNL     1      -1.989   2.825  -0.829  1.00  0.00    -0.018 A 
ATOM      8  C   UNL     1      -1.453   3.566  -1.903  1.00  0.00     0.009 A 
ATOM      9  C   UNL     1      -3.153   3.324  -0.188  1.00  0.00     0.024 A 
ATOM     10  C   UNL     1      -2.010   4.770  -2.315  1.00  0.00     0.002 A 
ATOM     11  C   UNL     1      -3.127   5.261  -1.656  1.00  0.00     0.016 A 
BRANCH   7  12
ATOM     12  C   UNL     1      -1.306   1.563  -0.453  1.00  0.00    -0.018 A 
ATOM     13  C   UNL     1       2.277   0.258   0.020  1.00  0.00     0.044 C 
ATOM     14  C   UNL     1       0.781   0.301  -0.073  1.00  0.00    -0.051 A 
ATOM     15  C   UNL     1       0.043  -0.879   0.039  1.00  0.00     0.003 A 
ATOM     16  C   UNL     1       0.099   1.509  -0.307  1.00  0.00     0.012 A 
ATOM     17  C   UNL     1      -1.345  -0.845  -0.071  1.00  0.00     0.001 A 
ATOM     18  C   UNL     1      -2.009   0.361  -0.323  1.00  0.00     0.009 A 
ENDBRANCH   7  12
ENDBRANCH   4   6
ENDBRANCH   3   4
ENDBRANCH   2   3
ENDBRANCH   1   2
BRANCH   1  19
ATOM     19  O   UNL     1      -7.976   3.467   2.393  1.00  0.00    -0.458 OA
BRANCH  19  20
ATOM     20  C   UNL     1      -7.471   3.590   3.645  1.00  0.00     0.338 C 
ATOM     21  O   UNL     1      -7.943   3.122   4.664  1.00  0.00    -0.246 OA
BRANCH  20  22
ATOM     22  C   UNL     1      -6.291   4.435   3.668  1.00  0.00     0.060 A 
ATOM     23  C   UNL     1      -5.070   3.926   3.207  1.00  0.00     0.016 A 
ATOM     24  C   UNL     1      -6.477   5.764   4.046  1.00  0.00     0.016 A 
ATOM     25  C   UNL     1      -3.959   4.743   3.207  1.00  0.00     0.010 A 
ATOM     26  C   UNL     1      -5.407   6.611   3.932  1.00  0.00     0.010 A 
ATOM     27  C   UNL     1      -4.146   6.053   3.634  1.00  0.00    -0.014 A 
BRANCH  27  28
ATOM     28  C   UNL     1      -3.090   6.741   4.348  1.00  0.00     0.031 A 
ATOM     29  C   UNL     1      -2.332   7.808   3.702  1.00  0.00     0.074 A 
ATOM     30  C   UNL     1      -3.211   6.469   5.666  1.00  0.00     0.049 A 
ATOM     31  N   UNL     1      -1.351   8.429   4.244  1.00  0.00    -0.248 NA
ATOM     32  C   UNL     1      -2.588   8.236   2.330  1.00  0.00     0.031 C 
ATOM     33  C   UNL     1      -2.839   7.207   6.853  1.00  0.00     0.029 A 
ATOM     34  N   UNL     1      -3.678   5.240   6.172  1.00  0.00    -0.354 N 
ATOM     35  C   UNL     1      -1.128   9.563   3.488  1.00  0.00     0.074 A 
ATOM     36  C   UNL     1      -1.776   9.292   2.230  1.00  0.00     0.031 C 
ATOM     37  C   UNL     1      -2.785   6.341   7.888  1.00  0.00     0.029 A 
ATOM     38  C   UNL     1      -2.958   4.997   7.336  1.00  0.00     0.049 A 
ATOM     39  H   UNL     1      -4.375   4.668   5.780  1.00  0.00     0.167 HD
ATOM     40  C   UNL     1      -0.620  10.660   4.126  1.00  0.00     0.037 A 
ATOM     41  C   UNL     1      -1.980   4.042   7.262  1.00  0.00     0.037 A 
ATOM     42  C   UNL     1      -0.274  10.283   5.505  1.00  0.00     0.049 A 
ATOM     43  C   UNL     1      -0.628   4.712   7.406  1.00  0.00     0.074 A 
ATOM     44  C   UNL     1      -0.959  10.428   6.701  1.00  0.00     0.029 A 
ATOM     45  N   UNL     1       0.684   9.291   5.723  1.00  0.00    -0.354 N 
ATOM     46  N   UNL     1      -0.314   5.883   6.905  1.00  0.00    -0.248 NA
ATOM     47  C   UNL     1       0.386   4.193   8.316  1.00  0.00     0.031 C 
ATOM     48  C   UNL     1      -0.493   9.421   7.593  1.00  0.00     0.029 A 
ATOM     49  C   UNL     1       0.472   8.667   6.941  1.00  0.00     0.049 A 
ATOM     50  H   UNL     1       1.411   9.067   5.097  1.00  0.00     0.167 HD
ATOM     51  C   UNL     1       0.835   6.332   7.512  1.00  0.00     0.074 A 
ATOM     52  C   UNL     1       1.252   5.219   8.353  1.00  0.00     0.031 C 
ATOM     53  C   UNL     1       1.352   7.594   7.384  1.00  0.00     0.037 A 
BRANCH  40  54
ATOM     54  C   UNL     1      -0.763  12.104   3.653  1.00  0.00     0.058 A 
ATOM     55  C   UNL     1      -0.645  13.172   4.575  1.00  0.00     0.135 A 
ATOM     56  C   UNL     1      -1.075  12.521   2.341  1.00  0.00     0.135 A 
ATOM     57  F   UNL     1      -0.286  12.959   5.849  1.00  0.00    -0.206 F 
ATOM     58  C   UNL     1      -0.890  14.511   4.244  1.00  0.00     0.059 A 
ATOM     59  C   UNL     1      -1.354  13.848   1.990  1.00  0.00     0.059 A 
ATOM     60  F   UNL     1      -1.079  11.673   1.309  1.00  0.00    -0.206 F 
ATOM     61  C   UNL     1      -1.265  14.841   2.950  1.00  0.00     0.060 A 
BRANCH  61  62
ATOM     62  S   UNL     1      -1.578  16.566   2.532  1.00  0.00     0.124 S 
ATOM     63  O   UNL     1      -2.703  16.893   3.403  1.00  0.00    -0.237 OA
ATOM     64  O   UNL     1      -0.308  17.199   2.869  1.00  0.00    -0.237 OA
ATOM     65  O   UNL     1      -1.891  16.522   1.106  1.00  0.00    -0.744 OA
ENDBRANCH  61  62
ENDBRANCH  40  54
BRANCH  41  66
ATOM     66  C   UNL     1      -2.340   2.842   6.416  1.00  0.00     0.058 A 
ATOM     67  C   UNL     1      -3.560   2.172   6.692  1.00  0.00     0.135 A 
ATOM     68  C   UNL     1      -1.706   2.480   5.218  1.00  0.00     0.135 A 
ATOM     69  F   UNL     1      -4.225   2.439   7.830  1.00  0.00    -0.206 F 
ATOM     70  C   UNL     1      -4.173   1.295   5.793  1.00  0.00     0.059 A 
ATOM     71  C   UNL     1      -2.293   1.579   4.304  1.00  0.00     0.059 A 
ATOM     72  F   UNL     1      -0.541   3.047   4.874  1.00  0.00    -0.206 F 
ATOM     73  C   UNL     1      -3.542   1.016   4.587  1.00  0.00     0.060 A 
BRANCH  73  74
ATOM     74  S   UNL     1      -4.467   0.084   3.329  1.00  0.00     0.124 S 
ATOM     75  O   UNL     1      -4.246  -1.298   3.735  1.00  0.00    -0.237 OA
ATOM     76  O   UNL     1      -5.827   0.584   3.489  1.00  0.00    -0.237 OA
ATOM     77  O   UNL     1      -3.832   0.496   2.083  1.00  0.00    -0.744 OA
ENDBRANCH  73  74
ENDBRANCH  41  66
BRANCH  53  78
ATOM     78  C   UNL     1       2.769   7.977   7.743  1.00  0.00     0.058 A 
ATOM     79  C   UNL     1       3.842   7.074   7.683  1.00  0.00     0.135 A 
ATOM     80  C   UNL     1       3.119   9.337   7.941  1.00  0.00     0.135 A 
ATOM     81  F   UNL     1       3.655   5.777   7.403  1.00  0.00    -0.206 F 
ATOM     82  C   UNL     1       5.163   7.479   7.849  1.00  0.00     0.059 A 
ATOM     83  C   UNL     1       4.435   9.771   8.032  1.00  0.00     0.059 A 
ATOM     84  F   UNL     1       2.193  10.303   8.020  1.00  0.00    -0.206 F 
ATOM     85  C   UNL     1       5.452   8.830   8.007  1.00  0.00     0.060 A 
BRANCH  85  86
ATOM     86  S   UNL     1       7.164   9.367   8.111  1.00  0.00     0.124 S 
ATOM     87  O   UNL     1       7.399   9.295   9.550  1.00  0.00    -0.237 OA
ATOM     88  O   UNL     1       7.864   8.370   7.306  1.00  0.00    -0.237 OA
ATOM     89  O   UNL     1       7.128  10.709   7.540  1.00  0.00    -0.744 OA
ENDBRANCH  85  86
ENDBRANCH  53  78
ENDBRANCH  27  28
ENDBRANCH  20  22
ENDBRANCH  19  20
ENDBRANCH   1  19
TORSDOF 15
