REMARK SMILES C[C@@H]1SCCC[C@@]1(CC(=O)OCCOC(=O)c1ccc(-c2c3nc(c(-c4c(F)cc(S(=O)(=O)[O-])cc4F)c4ccc([nH]4)c(-c4c(F)cc(S(=O)(=O)[O-])cc4F)c4nc(c(-c5c(F)cc(S(=O)(=O)[O-])cc5F)c5ccc2[nH]5)C=C4)C=C3)cc1)[NH+]1CCCC1
REMARK SMILES IDX 13 1 12 2 11 3 9 4 10 5 8 6 7 7 1 8 2 9 3 10 4 11 6 12 5 13
REMARK SMILES IDX 83 14 84 15 87 16 85 18 86 19 14 20 15 21 16 22 17 23 18 24
REMARK SMILES IDX 82 25 19 26 81 27 20 28 21 29 22 30 75 31 23 32 80 33 74 34
REMARK SMILES IDX 76 35 24 36 79 37 73 38 72 39 25 41 59 42 38 43 58 44 39 45
REMARK SMILES IDX 42 46 57 47 77 48 40 49 41 50 56 52 78 53 43 54 26 55 27 56
REMARK SMILES IDX 36 57 28 58 29 59 35 60 37 61 30 62 31 63 32 64 33 65 34 66
REMARK SMILES IDX 60 67 61 68 70 69 62 70 63 71 69 72 71 73 64 74 65 75 66 76
REMARK SMILES IDX 67 77 68 78 44 79 45 80 54 81 46 82 47 83 53 84 55 85 48 86
REMARK SMILES IDX 49 87 50 88 51 89 52 90
REMARK H PARENT 83 17 76 40 42 51
REMARK Flexibility Score: inf
ROOT
ATOM      1  C   UNL     1      -3.575  -0.499  -3.428  1.00  0.00     0.275 C 
ENDROOT
BRANCH   1   2
ATOM      2  C   UNL     1      -3.865   0.715  -2.557  1.00  0.00     0.274 C 
BRANCH   2   3
ATOM      3  O   UNL     1      -2.677   1.142  -1.856  1.00  0.00    -0.462 OA
BRANCH   3   4
ATOM      4  C   UNL     1      -2.700   0.997  -0.512  1.00  0.00     0.312 C 
ATOM      5  O   UNL     1      -3.602   0.435   0.104  1.00  0.00    -0.252 OA
BRANCH   4   6
ATOM      6  C   UNL     1      -1.549   1.634   0.240  1.00  0.00     0.192 C 
BRANCH   6   7
ATOM      7  C   UNL     1      -0.331   2.301  -0.500  1.00  0.00     0.120 C 
ATOM      8  C   UNL     1       1.022   0.006  -0.227  1.00  0.00     0.026 C 
ATOM      9  C   UNL     1       0.601   1.179  -1.147  1.00  0.00     0.105 C 
ATOM     10  S   UNL     1       2.220   1.777  -1.819  1.00  0.00    -0.152 SA
ATOM     11  C   UNL     1       2.830   2.680  -0.365  1.00  0.00     0.070 C 
ATOM     12  C   UNL     1       0.492   3.022   0.621  1.00  0.00     0.071 C 
ATOM     13  C   UNL     1       1.811   3.663   0.189  1.00  0.00     0.017 C 
BRANCH   7  14
ATOM     14  N   UNL     1      -0.846   3.357  -1.400  1.00  0.00    -0.329 N 
ATOM     15  C   UNL     1      -0.210   3.885  -2.584  1.00  0.00     0.262 C 
ATOM     16  C   UNL     1      -2.004   4.169  -1.069  1.00  0.00     0.262 C 
ATOM     17  H   UNL     1      -0.800   2.341  -1.475  1.00  0.00     0.348 HD
ATOM     18  C   UNL     1      -0.437   5.384  -2.454  1.00  0.00     0.067 C 
ATOM     19  C   UNL     1      -1.741   5.529  -1.696  1.00  0.00     0.067 C 
ENDBRANCH   7  14
ENDBRANCH   6   7
ENDBRANCH   4   6
ENDBRANCH   3   4
ENDBRANCH   2   3
ENDBRANCH   1   2
BRANCH   1  20
ATOM     20  O   UNL     1      -3.072  -1.556  -2.599  1.00  0.00    -0.458 OA
BRANCH  20  21
ATOM     21  C   UNL     1      -1.794  -1.918  -2.837  1.00  0.00     0.338 C 
ATOM     22  O   UNL     1      -1.068  -1.547  -3.748  1.00  0.00    -0.246 OA
BRANCH  21  23
ATOM     23  C   UNL     1      -1.360  -2.852  -1.793  1.00  0.00     0.060 A 
ATOM     24  C   UNL     1      -1.329  -2.436  -0.461  1.00  0.00     0.016 A 
ATOM     25  C   UNL     1      -0.879  -4.109  -2.156  1.00  0.00     0.016 A 
ATOM     26  C   UNL     1      -0.744  -3.250   0.504  1.00  0.00     0.010 A 
ATOM     27  C   UNL     1      -0.378  -4.960  -1.171  1.00  0.00     0.010 A 
ATOM     28  C   UNL     1      -0.280  -4.529   0.164  1.00  0.00    -0.014 A 
BRANCH  28  29
ATOM     29  C   UNL     1       0.304  -5.422   1.198  1.00  0.00     0.031 A 
ATOM     30  C   UNL     1       1.724  -5.902   1.076  1.00  0.00     0.074 A 
ATOM     31  C   UNL     1      -0.457  -5.822   2.236  1.00  0.00     0.049 A 
ATOM     32  N   UNL     1       2.348  -6.817   1.772  1.00  0.00    -0.248 NA
ATOM     33  C   UNL     1       2.545  -5.284   0.023  1.00  0.00     0.031 C 
ATOM     34  C   UNL     1      -1.842  -5.411   2.478  1.00  0.00     0.029 A 
ATOM     35  N   UNL     1      -0.176  -6.671   3.276  1.00  0.00    -0.354 N 
ATOM     36  C   UNL     1       3.619  -6.917   1.216  1.00  0.00     0.074 A 
ATOM     37  C   UNL     1       3.673  -5.974   0.119  1.00  0.00     0.031 C 
ATOM     38  C   UNL     1      -2.284  -5.994   3.601  1.00  0.00     0.029 A 
ATOM     39  C   UNL     1      -1.243  -6.875   4.118  1.00  0.00     0.049 A 
ATOM     40  H   UNL     1       0.703  -7.092   3.407  1.00  0.00     0.167 HD
ATOM     41  C   UNL     1       4.643  -7.723   1.588  1.00  0.00     0.037 A 
ATOM     42  C   UNL     1      -1.388  -7.710   5.163  1.00  0.00     0.037 A 
ATOM     43  C   UNL     1       4.589  -8.637   2.701  1.00  0.00     0.049 A 
ATOM     44  C   UNL     1      -0.247  -8.603   5.550  1.00  0.00     0.074 A 
ATOM     45  C   UNL     1       5.577  -9.486   3.170  1.00  0.00     0.029 A 
ATOM     46  N   UNL     1       3.488  -8.813   3.528  1.00  0.00    -0.354 N 
ATOM     47  N   UNL     1       0.935  -8.714   4.992  1.00  0.00    -0.248 NA
ATOM     48  C   UNL     1      -0.460  -9.491   6.699  1.00  0.00     0.031 C 
ATOM     49  C   UNL     1       5.063 -10.196   4.262  1.00  0.00     0.029 A 
ATOM     50  C   UNL     1       3.768  -9.764   4.497  1.00  0.00     0.049 A 
ATOM     51  H   UNL     1       2.633  -8.334   3.439  1.00  0.00     0.167 HD
ATOM     52  C   UNL     1       1.607  -9.687   5.719  1.00  0.00     0.074 A 
ATOM     53  C   UNL     1       0.708 -10.114   6.774  1.00  0.00     0.031 C 
ATOM     54  C   UNL     1       2.853 -10.187   5.528  1.00  0.00     0.037 A 
BRANCH  41  55
ATOM     55  C   UNL     1       5.899  -7.672   0.762  1.00  0.00     0.058 A 
ATOM     56  C   UNL     1       6.784  -6.585   0.825  1.00  0.00     0.135 A 
ATOM     57  C   UNL     1       6.226  -8.733  -0.099  1.00  0.00     0.135 A 
ATOM     58  F   UNL     1       6.512  -5.537   1.619  1.00  0.00    -0.206 F 
ATOM     59  C   UNL     1       7.933  -6.536   0.041  1.00  0.00     0.059 A 
ATOM     60  C   UNL     1       7.381  -8.715  -0.876  1.00  0.00     0.059 A 
ATOM     61  F   UNL     1       5.414  -9.798  -0.198  1.00  0.00    -0.206 F 
ATOM     62  C   UNL     1       8.219  -7.603  -0.813  1.00  0.00     0.060 A 
BRANCH  62  63
ATOM     63  S   UNL     1       9.704  -7.524  -1.837  1.00  0.00     0.124 S 
ATOM     64  O   UNL     1       9.280  -6.609  -2.892  1.00  0.00    -0.237 OA
ATOM     65  O   UNL     1      10.701  -6.999  -0.908  1.00  0.00    -0.237 OA
ATOM     66  O   UNL     1       9.906  -8.909  -2.249  1.00  0.00    -0.744 OA
ENDBRANCH  62  63
ENDBRANCH  41  55
BRANCH  42  67
ATOM     67  C   UNL     1      -2.684  -7.750   5.886  1.00  0.00     0.058 A 
ATOM     68  C   UNL     1      -2.817  -7.179   7.159  1.00  0.00     0.135 A 
ATOM     69  C   UNL     1      -3.830  -8.298   5.288  1.00  0.00     0.135 A 
ATOM     70  F   UNL     1      -1.747  -6.651   7.772  1.00  0.00    -0.206 F 
ATOM     71  C   UNL     1      -4.044  -7.142   7.813  1.00  0.00     0.059 A 
ATOM     72  C   UNL     1      -5.072  -8.251   5.912  1.00  0.00     0.059 A 
ATOM     73  F   UNL     1      -3.755  -8.841   4.063  1.00  0.00    -0.206 F 
ATOM     74  C   UNL     1      -5.168  -7.672   7.176  1.00  0.00     0.060 A 
BRANCH  74  75
ATOM     75  S   UNL     1      -6.776  -7.533   7.988  1.00  0.00     0.124 S 
ATOM     76  O   UNL     1      -6.698  -8.600   8.978  1.00  0.00    -0.237 OA
ATOM     77  O   UNL     1      -6.741  -6.171   8.513  1.00  0.00    -0.237 OA
ATOM     78  O   UNL     1      -7.721  -7.749   6.896  1.00  0.00    -0.744 OA
ENDBRANCH  74  75
ENDBRANCH  42  67
BRANCH  54  79
ATOM     79  C   UNL     1       3.311 -11.248   6.487  1.00  0.00     0.058 A 
ATOM     80  C   UNL     1       2.834 -12.565   6.401  1.00  0.00     0.135 A 
ATOM     81  C   UNL     1       4.246 -10.949   7.490  1.00  0.00     0.135 A 
ATOM     82  F   UNL     1       1.932 -12.897   5.464  1.00  0.00    -0.206 F 
ATOM     83  C   UNL     1       3.247 -13.546   7.297  1.00  0.00     0.059 A 
ATOM     84  C   UNL     1       4.689 -11.919   8.383  1.00  0.00     0.059 A 
ATOM     85  F   UNL     1       4.737  -9.706   7.607  1.00  0.00    -0.206 F 
ATOM     86  C   UNL     1       4.172 -13.211   8.288  1.00  0.00     0.060 A 
BRANCH  86  87
ATOM     87  S   UNL     1       4.711 -14.491   9.441  1.00  0.00     0.124 S 
ATOM     88  O   UNL     1       3.576 -14.558  10.355  1.00  0.00    -0.237 OA
ATOM     89  O   UNL     1       4.891 -15.648   8.569  1.00  0.00    -0.237 OA
ATOM     90  O   UNL     1       5.941 -13.942  10.004  1.00  0.00    -0.744 OA
ENDBRANCH  86  87
ENDBRANCH  54  79
ENDBRANCH  28  29
ENDBRANCH  21  23
ENDBRANCH  20  21
ENDBRANCH   1  20
TORSDOF 16
