REMARK SMILES CCOC[C@@H](O)C[C@]1(C(=O)OCCOC(=O)c2ccc(-c3c4nc(c(-c5c(F)cc(S(=O)(=O)[O-])cc5F)c5ccc([nH]5)c(-c5c(F)cc(S(=O)(=O)[O-])cc5F)c5nc(c(-c6c(F)cc(S(=O)(=O)[O-])cc6F)c6ccc3[nH]6)C=C5)C=C4)cc2)CCc2ccccc21
REMARK SMILES IDX 12 1 11 2 9 3 10 4 8 5 83 6 90 7 84 8 85 9 89 10 86 11 88 12
REMARK SMILES IDX 87 13 7 14 5 15 4 16 3 17 2 18 1 19 6 20 13 22 14 23 15 24
REMARK SMILES IDX 16 25 17 26 18 27 82 28 19 29 81 30 20 31 21 32 22 33 75 34
REMARK SMILES IDX 23 35 80 36 74 37 76 38 24 39 79 40 73 41 72 42 25 44 59 45
REMARK SMILES IDX 38 46 58 47 39 48 42 49 57 50 77 51 40 52 41 53 56 55 78 56
REMARK SMILES IDX 43 57 26 58 27 59 36 60 28 61 29 62 35 63 37 64 30 65 31 66
REMARK SMILES IDX 32 67 33 68 34 69 60 70 61 71 70 72 62 73 63 74 69 75 71 76
REMARK SMILES IDX 64 77 65 78 66 79 67 80 68 81 44 82 45 83 54 84 46 85 47 86
REMARK SMILES IDX 53 87 55 88 48 89 49 90 50 91 51 92 52 93
REMARK H PARENT 6 21 76 43 42 54
REMARK Flexibility Score: inf
ROOT
ATOM      1  C   UNL     1       8.273   3.566  -2.043  1.00  0.00     0.274 C 
ENDROOT
BRANCH   1   2
ATOM      2  O   UNL     1       6.939   4.065  -1.806  1.00  0.00    -0.461 OA
BRANCH   2   3
ATOM      3  C   UNL     1       5.979   3.115  -1.635  1.00  0.00     0.316 C 
ATOM      4  O   UNL     1       6.205   1.907  -1.662  1.00  0.00    -0.251 OA
BRANCH   3   5
ATOM      5  C   UNL     1       4.556   3.693  -1.459  1.00  0.00     0.096 C 
ATOM      6  C   UNL     1       4.506   5.234  -1.249  1.00  0.00     0.028 C 
ATOM      7  C   UNL     1       3.823   3.534  -2.768  1.00  0.00    -0.027 A 
ATOM      8  C   UNL     1       4.225   5.886  -2.609  1.00  0.00     0.037 C 
ATOM      9  C   UNL     1       3.588   4.771  -3.373  1.00  0.00    -0.044 A 
ATOM     10  C   UNL     1       3.452   2.354  -3.403  1.00  0.00     0.005 A 
ATOM     11  C   UNL     1       2.913   4.857  -4.579  1.00  0.00     0.004 A 
ATOM     12  C   UNL     1       2.768   2.432  -4.615  1.00  0.00     0.000 A 
ATOM     13  C   UNL     1       2.487   3.677  -5.192  1.00  0.00     0.000 A 
BRANCH   5  14
ATOM     14  C   UNL     1       3.919   2.974  -0.244  1.00  0.00     0.057 C 
BRANCH  14  15
ATOM     15  C   UNL     1       2.432   3.157   0.110  1.00  0.00     0.141 C 
BRANCH  15  16
ATOM     16  C   UNL     1       1.475   2.379  -0.807  1.00  0.00     0.191 C 
BRANCH  16  17
ATOM     17  O   UNL     1       0.150   2.236  -0.290  1.00  0.00    -0.379 OA
BRANCH  17  18
ATOM     18  C   UNL     1      -0.114   1.096   0.533  1.00  0.00     0.157 C 
ATOM     19  C   UNL     1       0.426  -0.232   0.027  1.00  0.00     0.035 C 
ENDBRANCH  17  18
ENDBRANCH  16  17
ENDBRANCH  15  16
BRANCH  15  20
ATOM     20  O   UNL     1       2.315   2.685   1.460  1.00  0.00    -0.391 OA
ATOM     21  H   UNL     1       2.583   1.754   1.501  1.00  0.00     0.211 HD
ENDBRANCH  15  20
ENDBRANCH  14  15
ENDBRANCH   5  14
ENDBRANCH   3   5
ENDBRANCH   2   3
ENDBRANCH   1   2
BRANCH   1  22
ATOM     22  C   UNL     1       9.112   3.623  -0.771  1.00  0.00     0.275 C 
BRANCH  22  23
ATOM     23  O   UNL     1       8.527   2.784   0.239  1.00  0.00    -0.458 OA
BRANCH  23  24
ATOM     24  C   UNL     1       8.361   3.360   1.449  1.00  0.00     0.338 C 
ATOM     25  O   UNL     1       8.703   4.491   1.777  1.00  0.00    -0.246 OA
BRANCH  24  26
ATOM     26  C   UNL     1       7.673   2.444   2.374  1.00  0.00     0.060 A 
ATOM     27  C   UNL     1       6.458   1.867   2.011  1.00  0.00     0.016 A 
ATOM     28  C   UNL     1       8.151   2.297   3.675  1.00  0.00     0.016 A 
ATOM     29  C   UNL     1       5.644   1.285   2.982  1.00  0.00     0.010 A 
ATOM     30  C   UNL     1       7.386   1.605   4.620  1.00  0.00     0.010 A 
ATOM     31  C   UNL     1       6.091   1.154   4.306  1.00  0.00    -0.014 A 
BRANCH  31  32
ATOM     32  C   UNL     1       5.184   0.647   5.379  1.00  0.00     0.031 A 
ATOM     33  C   UNL     1       4.903   1.503   6.593  1.00  0.00     0.074 A 
ATOM     34  C   UNL     1       4.590  -0.559   5.284  1.00  0.00     0.049 A 
ATOM     35  N   UNL     1       4.318   1.181   7.719  1.00  0.00    -0.248 NA
ATOM     36  C   UNL     1       5.366   2.899   6.540  1.00  0.00     0.031 C 
ATOM     37  C   UNL     1       4.730  -1.491   4.166  1.00  0.00     0.029 A 
ATOM     38  N   UNL     1       3.736  -1.203   6.147  1.00  0.00    -0.354 N 
ATOM     39  C   UNL     1       4.422   2.301   8.537  1.00  0.00     0.074 A 
ATOM     40  C   UNL     1       5.114   3.317   7.772  1.00  0.00     0.031 C 
ATOM     41  C   UNL     1       3.955  -2.564   4.388  1.00  0.00     0.029 A 
ATOM     42  C   UNL     1       3.321  -2.433   5.696  1.00  0.00     0.049 A 
ATOM     43  H   UNL     1       3.449  -0.820   7.007  1.00  0.00     0.167 HD
ATOM     44  C   UNL     1       3.988   2.470   9.810  1.00  0.00     0.037 A 
ATOM     45  C   UNL     1       2.541  -3.366   6.276  1.00  0.00     0.037 A 
ATOM     46  C   UNL     1       3.219   1.499  10.542  1.00  0.00     0.049 A 
ATOM     47  C   UNL     1       1.997  -3.130   7.655  1.00  0.00     0.074 A 
ATOM     48  C   UNL     1       2.732   1.577  11.836  1.00  0.00     0.029 A 
ATOM     49  N   UNL     1       2.790   0.284  10.028  1.00  0.00    -0.354 N 
ATOM     50  N   UNL     1       2.185  -2.103   8.448  1.00  0.00    -0.248 NA
ATOM     51  C   UNL     1       1.148  -4.186   8.224  1.00  0.00     0.031 C 
ATOM     52  C   UNL     1       2.011   0.406  12.105  1.00  0.00     0.029 A 
ATOM     53  C   UNL     1       2.033  -0.391  10.972  1.00  0.00     0.049 A 
ATOM     54  H   UNL     1       2.994  -0.050   9.125  1.00  0.00     0.167 HD
ATOM     55  C   UNL     1       1.490  -2.394   9.616  1.00  0.00     0.074 A 
ATOM     56  C   UNL     1       0.850  -3.679   9.414  1.00  0.00     0.031 C 
ATOM     57  C   UNL     1       1.405  -1.669  10.758  1.00  0.00     0.037 A 
BRANCH  44  58
ATOM     58  C   UNL     1       4.381   3.746  10.501  1.00  0.00     0.058 A 
ATOM     59  C   UNL     1       3.765   4.972  10.211  1.00  0.00     0.135 A 
ATOM     60  C   UNL     1       5.414   3.738  11.452  1.00  0.00     0.135 A 
ATOM     61  F   UNL     1       2.785   5.037   9.296  1.00  0.00    -0.206 F 
ATOM     62  C   UNL     1       4.190   6.157  10.807  1.00  0.00     0.059 A 
ATOM     63  C   UNL     1       5.841   4.906  12.076  1.00  0.00     0.059 A 
ATOM     64  F   UNL     1       6.034   2.591  11.768  1.00  0.00    -0.206 F 
ATOM     65  C   UNL     1       5.239   6.115  11.728  1.00  0.00     0.060 A 
BRANCH  65  66
ATOM     66  S   UNL     1       5.821   7.656  12.468  1.00  0.00     0.124 S 
ATOM     67  O   UNL     1       6.725   8.150  11.433  1.00  0.00    -0.237 OA
ATOM     68  O   UNL     1       4.586   8.415  12.642  1.00  0.00    -0.237 OA
ATOM     69  O   UNL     1       6.459   7.215  13.704  1.00  0.00    -0.744 OA
ENDBRANCH  65  66
ENDBRANCH  44  58
BRANCH  45  70
ATOM     70  C   UNL     1       2.251  -4.624   5.542  1.00  0.00     0.058 A 
ATOM     71  C   UNL     1       1.003  -4.834   4.940  1.00  0.00     0.135 A 
ATOM     72  C   UNL     1       3.240  -5.604   5.368  1.00  0.00     0.135 A 
ATOM     73  F   UNL     1       0.025  -3.928   5.089  1.00  0.00    -0.206 F 
ATOM     74  C   UNL     1       0.747  -5.969   4.178  1.00  0.00     0.059 A 
ATOM     75  C   UNL     1       3.014  -6.736   4.593  1.00  0.00     0.059 A 
ATOM     76  F   UNL     1       4.454  -5.438   5.915  1.00  0.00    -0.206 F 
ATOM     77  C   UNL     1       1.763  -6.910   4.001  1.00  0.00     0.060 A 
BRANCH  77  78
ATOM     78  S   UNL     1       1.470  -8.325   2.917  1.00  0.00     0.124 S 
ATOM     79  O   UNL     1       0.779  -9.243   3.814  1.00  0.00    -0.237 OA
ATOM     80  O   UNL     1       0.659  -7.742   1.852  1.00  0.00    -0.237 OA
ATOM     81  O   UNL     1       2.818  -8.720   2.518  1.00  0.00    -0.744 OA
ENDBRANCH  77  78
ENDBRANCH  45  70
BRANCH  57  82
ATOM     82  C   UNL     1       0.587  -2.249  11.874  1.00  0.00     0.058 A 
ATOM     83  C   UNL     1       1.094  -3.270  12.693  1.00  0.00     0.135 A 
ATOM     84  C   UNL     1      -0.702  -1.765  12.145  1.00  0.00     0.135 A 
ATOM     85  F   UNL     1       2.320  -3.768  12.470  1.00  0.00    -0.206 F 
ATOM     86  C   UNL     1       0.340  -3.808  13.731  1.00  0.00     0.059 A 
ATOM     87  C   UNL     1      -1.468  -2.280  13.186  1.00  0.00     0.059 A 
ATOM     88  F   UNL     1      -1.228  -0.785  11.393  1.00  0.00    -0.206 F 
ATOM     89  C   UNL     1      -0.943  -3.311  13.966  1.00  0.00     0.060 A 
BRANCH  89  90
ATOM     90  S   UNL     1      -1.913  -4.003  15.323  1.00  0.00     0.124 S 
ATOM     91  O   UNL     1      -2.443  -5.218  14.714  1.00  0.00    -0.237 OA
ATOM     92  O   UNL     1      -0.910  -4.202  16.364  1.00  0.00    -0.237 OA
ATOM     93  O   UNL     1      -2.894  -2.958  15.601  1.00  0.00    -0.744 OA
ENDBRANCH  89  90
ENDBRANCH  57  82
ENDBRANCH  31  32
ENDBRANCH  24  26
ENDBRANCH  23  24
ENDBRANCH  22  23
ENDBRANCH   1  22
TORSDOF 20
