REMARK SMILES CC[C@@H](C)c1ccccc1NC(=O)[C@@H]1[C@@H](C(=O)OCCOC(=O)c2ccc(-c3c4nc(c(-c5c(F)cc(S(=O)(=O)[O-])cc5F)c5ccc([nH]5)c(-c5c(F)cc(S(=O)(=O)[O-])cc5F)c5nc(c(-c6c(F)cc(S(=O)(=O)[O-])cc6F)c6ccc3[nH]6)C=C5)C=C4)cc2)[C@@H]2C=C[C@H]1C2
REMARK SMILES IDX 19 1 18 2 16 3 17 4 15 5 14 6 93 7 90 8 92 9 94 10 91 11
REMARK SMILES IDX 12 12 11 13 13 15 10 16 5 17 6 18 7 19 9 20 8 21 3 22 4 23
REMARK SMILES IDX 2 24 1 25 20 26 21 27 22 28 23 29 24 30 25 31 89 32 26 33
REMARK SMILES IDX 88 34 27 35 28 36 29 37 82 38 30 39 87 40 81 41 83 42 31 43
REMARK SMILES IDX 86 44 80 45 79 46 32 48 66 49 45 50 65 51 46 52 49 53 64 54
REMARK SMILES IDX 84 55 47 56 48 57 63 59 85 60 50 61 33 62 34 63 43 64 35 65
REMARK SMILES IDX 36 66 42 67 44 68 37 69 38 70 39 71 40 72 41 73 67 74 68 75
REMARK SMILES IDX 77 76 69 77 70 78 76 79 78 80 71 81 72 82 73 83 74 84 75 85
REMARK SMILES IDX 51 86 52 87 61 88 53 89 54 90 60 91 62 92 55 93 56 94 57 95
REMARK SMILES IDX 58 96 59 97
REMARK H PARENT 11 14 83 47 49 58
REMARK Flexibility Score: inf
ROOT
ATOM      1  C   UNL     1       1.041  -7.028   6.735  1.00  0.00     0.274 C 
ENDROOT
BRANCH   1   2
ATOM      2  O   UNL     1       0.717  -5.685   6.320  1.00  0.00    -0.462 OA
BRANCH   2   3
ATOM      3  C   UNL     1      -0.184  -5.582   5.308  1.00  0.00     0.310 C 
ATOM      4  O   UNL     1      -0.736  -6.539   4.775  1.00  0.00    -0.252 OA
BRANCH   3   5
ATOM      5  C   UNL     1      -0.531  -4.155   4.945  1.00  0.00     0.119 C 
ATOM      6  C   UNL     1       0.539  -3.041   5.287  1.00  0.00     0.100 C 
ATOM      7  C   UNL     1      -0.334  -2.060   6.115  1.00  0.00     0.025 C 
ATOM      8  C   UNL     1      -1.785  -3.692   5.721  1.00  0.00     0.027 C 
ATOM      9  C   UNL     1      -1.446  -1.475   5.278  1.00  0.00    -0.027 C 
ATOM     10  C   UNL     1      -1.170  -3.039   6.950  1.00  0.00     0.017 C 
ATOM     11  C   UNL     1      -2.323  -2.458   5.045  1.00  0.00    -0.027 C 
BRANCH   6  12
ATOM     12  C   UNL     1       1.262  -2.670   3.981  1.00  0.00     0.228 C 
ATOM     13  N   UNL     1       1.601  -1.418   3.565  1.00  0.00    -0.326 N 
ATOM     14  H   UNL     1       2.025  -1.383   2.677  1.00  0.00     0.169 HD
ATOM     15  O   UNL     1       1.596  -3.590   3.217  1.00  0.00    -0.274 OA
BRANCH  13  16
ATOM     16  C   UNL     1       1.447  -0.175   4.184  1.00  0.00     0.044 A 
ATOM     17  C   UNL     1       0.973   0.941   3.457  1.00  0.00    -0.022 A 
ATOM     18  C   UNL     1       0.544   2.050   4.215  1.00  0.00     0.006 A 
ATOM     19  C   UNL     1       0.738   2.118   5.597  1.00  0.00     0.000 A 
ATOM     20  C   UNL     1       1.768  -0.044   5.538  1.00  0.00     0.026 A 
ATOM     21  C   UNL     1       1.409   1.096   6.249  1.00  0.00     0.002 A 
BRANCH  17  22
ATOM     22  C   UNL     1       1.018   1.017   1.922  1.00  0.00     0.018 C 
ATOM     23  C   UNL     1       0.838   2.450   1.372  1.00  0.00     0.013 C 
BRANCH  22  24
ATOM     24  C   UNL     1       0.071   0.059   1.164  1.00  0.00     0.005 C 
ATOM     25  C   UNL     1       0.454  -0.071  -0.313  1.00  0.00     0.004 C 
ENDBRANCH  22  24
ENDBRANCH  17  22
ENDBRANCH  13  16
ENDBRANCH   6  12
ENDBRANCH   3   5
ENDBRANCH   2   3
ENDBRANCH   1   2
BRANCH   1  26
ATOM     26  C   UNL     1       0.260  -7.409   7.991  1.00  0.00     0.275 C 
BRANCH  26  27
ATOM     27  O   UNL     1      -1.147  -7.412   7.702  1.00  0.00    -0.458 OA
BRANCH  27  28
ATOM     28  C   UNL     1      -1.946  -6.921   8.679  1.00  0.00     0.338 C 
ATOM     29  O   UNL     1      -1.593  -6.540   9.782  1.00  0.00    -0.246 OA
BRANCH  28  30
ATOM     30  C   UNL     1      -3.355  -6.878   8.225  1.00  0.00     0.060 A 
ATOM     31  C   UNL     1      -3.674  -6.523   6.917  1.00  0.00     0.016 A 
ATOM     32  C   UNL     1      -4.379  -7.071   9.153  1.00  0.00     0.016 A 
ATOM     33  C   UNL     1      -4.991  -6.205   6.581  1.00  0.00     0.010 A 
ATOM     34  C   UNL     1      -5.715  -6.893   8.770  1.00  0.00     0.010 A 
ATOM     35  C   UNL     1      -6.040  -6.404   7.494  1.00  0.00    -0.014 A 
BRANCH  35  36
ATOM     36  C   UNL     1      -7.454  -6.090   7.120  1.00  0.00     0.031 A 
ATOM     37  C   UNL     1      -8.299  -5.176   7.979  1.00  0.00     0.074 A 
ATOM     38  C   UNL     1      -7.996  -6.620   6.002  1.00  0.00     0.049 A 
ATOM     39  N   UNL     1      -9.584  -4.927   7.910  1.00  0.00    -0.248 NA
ATOM     40  C   UNL     1      -7.618  -4.465   9.073  1.00  0.00     0.031 C 
ATOM     41  C   UNL     1      -7.310  -7.515   5.066  1.00  0.00     0.029 A 
ATOM     42  N   UNL     1      -9.248  -6.474   5.454  1.00  0.00    -0.354 N 
ATOM     43  C   UNL     1      -9.876  -4.095   8.987  1.00  0.00     0.074 A 
ATOM     44  C   UNL     1      -8.632  -3.876   9.693  1.00  0.00     0.031 C 
ATOM     45  C   UNL     1      -8.121  -7.783   4.033  1.00  0.00     0.029 A 
ATOM     46  C   UNL     1      -9.417  -7.162   4.274  1.00  0.00     0.049 A 
ATOM     47  H   UNL     1      -9.956  -5.929   5.866  1.00  0.00     0.167 HD
ATOM     48  C   UNL     1     -11.068  -3.563   9.354  1.00  0.00     0.037 A 
ATOM     49  C   UNL     1     -10.498  -7.311   3.485  1.00  0.00     0.037 A 
ATOM     50  C   UNL     1     -12.293  -3.718   8.609  1.00  0.00     0.049 A 
ATOM     51  C   UNL     1     -11.794  -6.674   3.886  1.00  0.00     0.074 A 
ATOM     52  C   UNL     1     -13.548  -3.206   8.893  1.00  0.00     0.029 A 
ATOM     53  N   UNL     1     -12.411  -4.415   7.415  1.00  0.00    -0.354 N 
ATOM     54  N   UNL     1     -12.063  -5.954   4.948  1.00  0.00    -0.248 NA
ATOM     55  C   UNL     1     -12.940  -6.885   2.991  1.00  0.00     0.031 C 
ATOM     56  C   UNL     1     -14.428  -3.606   7.880  1.00  0.00     0.029 A 
ATOM     57  C   UNL     1     -13.714  -4.341   6.948  1.00  0.00     0.049 A 
ATOM     58  H   UNL     1     -11.677  -4.891   6.965  1.00  0.00     0.167 HD
ATOM     59  C   UNL     1     -13.410  -5.629   4.852  1.00  0.00     0.074 A 
ATOM     60  C   UNL     1     -13.892  -6.204   3.612  1.00  0.00     0.031 C 
ATOM     61  C   UNL     1     -14.181  -4.926   5.718  1.00  0.00     0.037 A 
BRANCH  48  62
ATOM     62  C   UNL     1     -11.120  -2.781  10.640  1.00  0.00     0.058 A 
ATOM     63  C   UNL     1     -10.589  -1.487  10.748  1.00  0.00     0.135 A 
ATOM     64  C   UNL     1     -11.748  -3.325  11.773  1.00  0.00     0.135 A 
ATOM     65  F   UNL     1      -9.964  -0.923   9.702  1.00  0.00    -0.206 F 
ATOM     66  C   UNL     1     -10.656  -0.769  11.940  1.00  0.00     0.059 A 
ATOM     67  C   UNL     1     -11.847  -2.618  12.968  1.00  0.00     0.059 A 
ATOM     68  F   UNL     1     -12.277  -4.559  11.725  1.00  0.00    -0.206 F 
ATOM     69  C   UNL     1     -11.284  -1.345  13.046  1.00  0.00     0.060 A 
BRANCH  69  70
ATOM     70  S   UNL     1     -11.369  -0.406  14.587  1.00  0.00     0.124 S 
ATOM     71  O   UNL     1     -10.013  -0.569  15.102  1.00  0.00    -0.237 OA
ATOM     72  O   UNL     1     -11.712   0.934  14.121  1.00  0.00    -0.237 OA
ATOM     73  O   UNL     1     -12.415  -1.088  15.343  1.00  0.00    -0.744 OA
ENDBRANCH  69  70
ENDBRANCH  48  62
BRANCH  49  74
ATOM     74  C   UNL     1     -10.395  -8.125   2.245  1.00  0.00     0.058 A 
ATOM     75  C   UNL     1     -10.405  -7.518   0.982  1.00  0.00     0.135 A 
ATOM     76  C   UNL     1     -10.241  -9.519   2.302  1.00  0.00     0.135 A 
ATOM     77  F   UNL     1     -10.561  -6.189   0.878  1.00  0.00    -0.206 F 
ATOM     78  C   UNL     1     -10.264  -8.262  -0.185  1.00  0.00     0.059 A 
ATOM     79  C   UNL     1     -10.072 -10.282   1.152  1.00  0.00     0.059 A 
ATOM     80  F   UNL     1     -10.211 -10.145   3.489  1.00  0.00    -0.206 F 
ATOM     81  C   UNL     1     -10.092  -9.645  -0.088  1.00  0.00     0.060 A 
BRANCH  81  82
ATOM     82  S   UNL     1      -9.827 -10.600  -1.598  1.00  0.00     0.124 S 
ATOM     83  O   UNL     1     -11.190 -10.749  -2.093  1.00  0.00    -0.237 OA
ATOM     84  O   UNL     1      -8.957  -9.723  -2.375  1.00  0.00    -0.237 OA
ATOM     85  O   UNL     1      -9.194 -11.822  -1.109  1.00  0.00    -0.744 OA
ENDBRANCH  81  82
ENDBRANCH  49  74
BRANCH  61  86
ATOM     86  C   UNL     1     -15.619  -4.734   5.334  1.00  0.00     0.058 A 
ATOM     87  C   UNL     1     -16.549  -5.781   5.430  1.00  0.00     0.135 A 
ATOM     88  C   UNL     1     -16.067  -3.498   4.844  1.00  0.00     0.135 A 
ATOM     89  F   UNL     1     -16.166  -6.984   5.886  1.00  0.00    -0.206 F 
ATOM     90  C   UNL     1     -17.866  -5.622   5.012  1.00  0.00     0.059 A 
ATOM     91  C   UNL     1     -17.385  -3.310   4.439  1.00  0.00     0.059 A 
ATOM     92  F   UNL     1     -15.218  -2.463   4.742  1.00  0.00    -0.206 F 
ATOM     93  C   UNL     1     -18.271  -4.386   4.506  1.00  0.00     0.060 A 
BRANCH  93  94
ATOM     94  S   UNL     1     -19.974  -4.189   3.941  1.00  0.00     0.124 S 
ATOM     95  O   UNL     1     -19.912  -4.790   2.612  1.00  0.00    -0.237 OA
ATOM     96  O   UNL     1     -20.730  -4.938   4.940  1.00  0.00    -0.237 OA
ATOM     97  O   UNL     1     -20.173  -2.743   3.969  1.00  0.00    -0.744 OA
ENDBRANCH  93  94
ENDBRANCH  61  86
ENDBRANCH  35  36
ENDBRANCH  28  30
ENDBRANCH  27  28
ENDBRANCH  26  27
ENDBRANCH   1  26
TORSDOF 18
