REMARK SMILES CS(=O)(=O)c1ccc(C(=O)N2C[C@@H](C(=O)OCCOC(=O)c3ccc(-c4c5nc(c(-c6c(F)cc(S(=O)(=O)[O-])cc6F)c6ccc([nH]6)c(-c6c(F)cc(S(=O)(=O)[O-])cc6F)c6nc(c(-c7c(F)cc(S(=O)(=O)[O-])cc7F)c7ccc4[nH]7)C=C6)C=C5)cc3)[C@H](c3ccncc3)C2)cc1
REMARK SMILES IDX 17 1 16 2 14 3 15 4 13 5 11 6 12 7 95 8 88 9 9 10 10 11 8 12
REMARK SMILES IDX 5 13 6 14 97 15 7 16 96 17 2 18 1 19 3 20 4 21 89 22 90 23
REMARK SMILES IDX 94 24 91 25 93 26 92 27 18 28 19 29 20 30 21 31 22 32 23 33
REMARK SMILES IDX 87 34 24 35 86 36 25 37 26 38 27 39 80 40 28 41 85 42 79 43
REMARK SMILES IDX 81 44 29 45 84 46 78 47 77 48 30 50 64 51 43 52 63 53 44 54
REMARK SMILES IDX 47 55 62 56 82 57 45 58 46 59 61 61 83 62 48 63 31 64 32 65
REMARK SMILES IDX 41 66 33 67 34 68 40 69 42 70 35 71 36 72 37 73 38 74 39 75
REMARK SMILES IDX 65 76 66 77 75 78 67 79 68 80 74 81 76 82 69 83 70 84 71 85
REMARK SMILES IDX 72 86 73 87 49 88 50 89 59 90 51 91 52 92 58 93 60 94 53 95
REMARK SMILES IDX 54 96 55 97 56 98 57 99
REMARK H PARENT 81 49 47 60
REMARK Flexibility Score: inf
ROOT
ATOM      1  C   UNL     1      -1.112   8.063   6.341  1.00  0.00     0.274 C 
ENDROOT
BRANCH   1   2
ATOM      2  O   UNL     1      -0.150   7.010   6.121  1.00  0.00    -0.462 OA
BRANCH   2   3
ATOM      3  C   UNL     1       1.155   7.341   6.325  1.00  0.00     0.311 C 
ATOM      4  O   UNL     1       1.526   8.466   6.627  1.00  0.00    -0.252 OA
BRANCH   3   5
ATOM      5  C   UNL     1       2.092   6.184   6.036  1.00  0.00     0.128 C 
ATOM      6  N   UNL     1       2.497   3.930   6.364  1.00  0.00    -0.337 N 
ATOM      7  C   UNL     1       1.390   4.850   6.246  1.00  0.00     0.135 C 
ATOM      8  C   UNL     1       3.522   4.536   7.188  1.00  0.00     0.129 C 
ATOM      9  C   UNL     1       3.358   6.066   6.953  1.00  0.00     0.055 C 
BRANCH   6  10
ATOM     10  C   UNL     1       2.671   2.692   5.784  1.00  0.00     0.253 C 
ATOM     11  O   UNL     1       3.488   1.870   6.189  1.00  0.00    -0.269 OA
BRANCH  10  12
ATOM     12  C   UNL     1       1.928   2.371   4.537  1.00  0.00     0.040 A 
ATOM     13  C   UNL     1       0.807   1.679   2.077  1.00  0.00     0.067 A 
ATOM     14  C   UNL     1       0.924   0.712   3.081  1.00  0.00     0.021 A 
ATOM     15  C   UNL     1       1.234   2.990   2.295  1.00  0.00     0.021 A 
ATOM     16  C   UNL     1       1.493   1.060   4.311  1.00  0.00     0.015 A 
ATOM     17  C   UNL     1       1.815   3.326   3.516  1.00  0.00     0.015 A 
BRANCH  13  18
ATOM     18  S   UNL     1       0.189   1.237   0.471  1.00  0.00     0.175 S 
ATOM     19  C   UNL     1       1.104  -0.211   0.015  1.00  0.00     0.163 C 
ATOM     20  O   UNL     1       0.580   2.289  -0.450  1.00  0.00    -0.224 OA
ATOM     21  O   UNL     1      -1.204   0.872   0.638  1.00  0.00    -0.224 OA
ENDBRANCH  13  18
ENDBRANCH  10  12
ENDBRANCH   6  10
BRANCH   9  22
ATOM     22  C   UNL     1       4.571   6.831   6.432  1.00  0.00    -0.039 A 
ATOM     23  C   UNL     1       4.572   8.235   6.469  1.00  0.00     0.024 A 
ATOM     24  C   UNL     1       5.737   6.224   5.954  1.00  0.00     0.024 A 
ATOM     25  C   UNL     1       5.672   8.946   6.008  1.00  0.00     0.111 A 
ATOM     26  C   UNL     1       6.802   7.017   5.538  1.00  0.00     0.111 A 
ATOM     27  N   UNL     1       6.787   8.364   5.532  1.00  0.00    -0.265 NA
ENDBRANCH   9  22
ENDBRANCH   3   5
ENDBRANCH   2   3
ENDBRANCH   1   2
BRANCH   1  28
ATOM     28  C   UNL     1      -1.716   7.974   7.741  1.00  0.00     0.275 C 
BRANCH  28  29
ATOM     29  O   UNL     1      -0.715   8.237   8.741  1.00  0.00    -0.458 OA
BRANCH  29  30
ATOM     30  C   UNL     1      -0.380   7.189   9.529  1.00  0.00     0.338 C 
ATOM     31  O   UNL     1      -0.834   6.059   9.487  1.00  0.00    -0.246 OA
BRANCH  30  32
ATOM     32  C   UNL     1       0.693   7.585  10.456  1.00  0.00     0.060 A 
ATOM     33  C   UNL     1       1.956   7.873   9.948  1.00  0.00     0.016 A 
ATOM     34  C   UNL     1       0.488   7.542  11.834  1.00  0.00     0.016 A 
ATOM     35  C   UNL     1       3.043   8.018  10.805  1.00  0.00     0.010 A 
ATOM     36  C   UNL     1       1.560   7.803  12.697  1.00  0.00     0.010 A 
ATOM     37  C   UNL     1       2.857   8.012  12.194  1.00  0.00    -0.014 A 
BRANCH  37  38
ATOM     38  C   UNL     1       4.014   8.235  13.106  1.00  0.00     0.031 A 
ATOM     39  C   UNL     1       4.402   7.196  14.126  1.00  0.00     0.074 A 
ATOM     40  C   UNL     1       4.727   9.377  13.016  1.00  0.00     0.049 A 
ATOM     41  N   UNL     1       5.282   7.274  15.092  1.00  0.00    -0.248 NA
ATOM     42  C   UNL     1       3.699   5.905  14.062  1.00  0.00     0.031 C 
ATOM     43  C   UNL     1       4.478  10.460  12.060  1.00  0.00     0.029 A 
ATOM     44  N   UNL     1       5.810   9.818  13.735  1.00  0.00    -0.354 N 
ATOM     45  C   UNL     1       5.208   6.066  15.777  1.00  0.00     0.074 A 
ATOM     46  C   UNL     1       4.190   5.274  15.120  1.00  0.00     0.031 C 
ATOM     47  C   UNL     1       5.400  11.419  12.227  1.00  0.00     0.029 A 
ATOM     48  C   UNL     1       6.257  11.061  13.351  1.00  0.00     0.049 A 
ATOM     49  H   UNL     1       6.228   9.295  14.457  1.00  0.00     0.167 HD
ATOM     50  C   UNL     1       5.921   5.657  16.855  1.00  0.00     0.037 A 
ATOM     51  C   UNL     1       7.223  11.847  13.864  1.00  0.00     0.037 A 
ATOM     52  C   UNL     1       6.965   6.430  17.479  1.00  0.00     0.049 A 
ATOM     53  C   UNL     1       7.994  11.375  15.062  1.00  0.00     0.074 A 
ATOM     54  C   UNL     1       7.758   6.092  18.564  1.00  0.00     0.029 A 
ATOM     55  N   UNL     1       7.374   7.690  17.067  1.00  0.00    -0.354 N 
ATOM     56  N   UNL     1       7.876  10.249  15.725  1.00  0.00    -0.248 NA
ATOM     57  C   UNL     1       9.017  12.285  15.591  1.00  0.00     0.031 C 
ATOM     58  C   UNL     1       8.626   7.159  18.825  1.00  0.00     0.029 A 
ATOM     59  C   UNL     1       8.399   8.148  17.881  1.00  0.00     0.049 A 
ATOM     60  H   UNL     1       6.992   8.187  16.308  1.00  0.00     0.167 HD
ATOM     61  C   UNL     1       8.810  10.316  16.750  1.00  0.00     0.074 A 
ATOM     62  C   UNL     1       9.503  11.580  16.603  1.00  0.00     0.031 C 
ATOM     63  C   UNL     1       9.067   9.415  17.730  1.00  0.00     0.037 A 
BRANCH  50  64
ATOM     64  C   UNL     1       5.578   4.319  17.450  1.00  0.00     0.058 A 
ATOM     65  C   UNL     1       5.944   3.114  16.830  1.00  0.00     0.135 A 
ATOM     66  C   UNL     1       4.900   4.244  18.678  1.00  0.00     0.135 A 
ATOM     67  F   UNL     1       6.578   3.128  15.647  1.00  0.00    -0.206 F 
ATOM     68  C   UNL     1       5.628   1.881  17.394  1.00  0.00     0.059 A 
ATOM     69  C   UNL     1       4.594   3.022  19.271  1.00  0.00     0.059 A 
ATOM     70  F   UNL     1       4.527   5.365  19.313  1.00  0.00    -0.206 F 
ATOM     71  C   UNL     1       4.949   1.845  18.613  1.00  0.00     0.060 A 
BRANCH  71  72
ATOM     72  S   UNL     1       4.543   0.241  19.336  1.00  0.00     0.124 S 
ATOM     73  O   UNL     1       3.409  -0.169  18.514  1.00  0.00    -0.237 OA
ATOM     74  O   UNL     1       5.775  -0.515  19.137  1.00  0.00    -0.237 OA
ATOM     75  O   UNL     1       4.228   0.564  20.724  1.00  0.00    -0.744 OA
ENDBRANCH  71  72
ENDBRANCH  50  64
BRANCH  51  76
ATOM     76  C   UNL     1       7.485  13.180  13.262  1.00  0.00     0.058 A 
ATOM     77  C   UNL     1       8.650  13.421  12.520  1.00  0.00     0.135 A 
ATOM     78  C   UNL     1       6.559  14.227  13.389  1.00  0.00     0.135 A 
ATOM     79  F   UNL     1       9.568  12.453  12.381  1.00  0.00    -0.206 F 
ATOM     80  C   UNL     1       8.891  14.656  11.927  1.00  0.00     0.059 A 
ATOM     81  C   UNL     1       6.767  15.462  12.785  1.00  0.00     0.059 A 
ATOM     82  F   UNL     1       5.422  14.041  14.078  1.00  0.00    -0.206 F 
ATOM     83  C   UNL     1       7.941  15.669  12.062  1.00  0.00     0.060 A 
BRANCH  83  84
ATOM     84  S   UNL     1       8.222  17.248  11.231  1.00  0.00     0.124 S 
ATOM     85  O   UNL     1       9.170  17.889  12.134  1.00  0.00    -0.237 OA
ATOM     86  O   UNL     1       8.755  16.828   9.938  1.00  0.00    -0.237 OA
ATOM     87  O   UNL     1       6.889  17.842  11.185  1.00  0.00    -0.744 OA
ENDBRANCH  83  84
ENDBRANCH  51  76
BRANCH  63  88
ATOM     88  C   UNL     1      10.149   9.771  18.709  1.00  0.00     0.058 A 
ATOM     89  C   UNL     1       9.942  10.734  19.709  1.00  0.00     0.135 A 
ATOM     90  C   UNL     1      11.405   9.150  18.642  1.00  0.00     0.135 A 
ATOM     91  F   UNL     1       8.760  11.362  19.808  1.00  0.00    -0.206 F 
ATOM     92  C   UNL     1      10.957  11.095  20.589  1.00  0.00     0.059 A 
ATOM     93  C   UNL     1      12.428   9.480  19.526  1.00  0.00     0.059 A 
ATOM     94  F   UNL     1      11.650   8.216  17.709  1.00  0.00    -0.206 F 
ATOM     95  C   UNL     1      12.200  10.468  20.484  1.00  0.00     0.060 A 
BRANCH  95  96
ATOM     96  S   UNL     1      13.515  10.947  21.623  1.00  0.00     0.124 S 
ATOM     97  O   UNL     1      13.983  12.192  21.024  1.00  0.00    -0.237 OA
ATOM     98  O   UNL     1      12.804  11.082  22.891  1.00  0.00    -0.237 OA
ATOM     99  O   UNL     1      14.447   9.825  21.552  1.00  0.00    -0.744 OA
ENDBRANCH  95  96
ENDBRANCH  63  88
ENDBRANCH  37  38
ENDBRANCH  30  32
ENDBRANCH  29  30
ENDBRANCH  28  29
ENDBRANCH   1  28
TORSDOF 18
