REMARK SMILES CC(C)(C)c1ccc(C(=O)C[C@H](C(=O)OCCOC(=O)c2ccc(-c3c4nc(c(-c5c(F)cc(S(=O)(=O)[O-])cc5F)c5ccc([nH]5)c(-c5c(F)cc(S(=O)(=O)[O-])cc5F)c5nc(c(-c6c(F)cc(S(=O)(=O)[O-])cc6F)c6ccc3[nH]6)C=C5)C=C4)cc2)[NH+]2CCCC2)cc1
REMARK SMILES IDX 16 1 15 2 13 3 14 4 12 5 11 6 9 7 10 8 8 9 5 10 6 11 93 12
REMARK SMILES IDX 7 13 92 14 2 15 1 16 3 17 4 18 87 19 88 20 91 21 89 23 90 24
REMARK SMILES IDX 17 25 18 26 19 27 20 28 21 29 22 30 86 31 23 32 85 33 24 34
REMARK SMILES IDX 25 35 26 36 79 37 27 38 84 39 78 40 80 41 28 42 83 43 77 44
REMARK SMILES IDX 76 45 29 47 63 48 42 49 62 50 43 51 46 52 61 53 81 54 44 55
REMARK SMILES IDX 45 56 60 58 82 59 47 60 30 61 31 62 40 63 32 64 33 65 39 66
REMARK SMILES IDX 41 67 34 68 35 69 36 70 37 71 38 72 64 73 65 74 74 75 66 76
REMARK SMILES IDX 67 77 73 78 75 79 68 80 69 81 70 82 71 83 72 84 48 85 49 86
REMARK SMILES IDX 58 87 50 88 51 89 57 90 59 91 52 92 53 93 54 94 55 95 56 96
REMARK H PARENT 87 22 80 46 46 57
REMARK Flexibility Score: inf
ROOT
ATOM      1  C   UNL     1       2.712   7.747   1.026  1.00  0.00     0.274 C 
ENDROOT
BRANCH   1   2
ATOM      2  O   UNL     1       2.370   8.288  -0.268  1.00  0.00    -0.458 OA
BRANCH   2   3
ATOM      3  C   UNL     1       2.403   7.446  -1.334  1.00  0.00     0.365 C 
ATOM      4  O   UNL     1       2.851   6.305  -1.267  1.00  0.00    -0.245 OA
BRANCH   3   5
ATOM      5  C   UNL     1       1.823   8.035  -2.648  1.00  0.00     0.302 C 
BRANCH   5   6
ATOM      6  C   UNL     1       0.874   6.979  -3.271  1.00  0.00     0.158 C 
BRANCH   6   7
ATOM      7  C   UNL     1       0.847   6.980  -4.791  1.00  0.00     0.169 C 
ATOM      8  O   UNL     1       1.445   6.127  -5.445  1.00  0.00    -0.294 OA
BRANCH   7   9
ATOM      9  C   UNL     1       0.162   8.090  -5.495  1.00  0.00     0.018 A 
ATOM     10  C   UNL     1      -0.490  10.623  -6.489  1.00  0.00    -0.043 A 
ATOM     11  C   UNL     1       0.263   9.720  -7.262  1.00  0.00     0.005 A 
ATOM     12  C   UNL     1      -1.108  10.127  -5.334  1.00  0.00     0.005 A 
ATOM     13  C   UNL     1       0.608   8.465  -6.760  1.00  0.00     0.012 A 
ATOM     14  C   UNL     1      -0.806   8.855  -4.857  1.00  0.00     0.012 A 
BRANCH  10  15
ATOM     15  C   UNL     1      -0.560  12.110  -6.861  1.00  0.00    -0.013 C 
ATOM     16  C   UNL     1      -1.563  12.305  -8.005  1.00  0.00     0.016 C 
ATOM     17  C   UNL     1       0.839  12.612  -7.297  1.00  0.00     0.016 C 
ATOM     18  C   UNL     1      -0.981  13.008  -5.672  1.00  0.00     0.016 C 
ENDBRANCH  10  15
ENDBRANCH   7   9
ENDBRANCH   6   7
ENDBRANCH   5   6
BRANCH   5  19
ATOM     19  N   UNL     1       1.228   9.396  -2.560  1.00  0.00    -0.323 N 
ATOM     20  C   UNL     1       2.182  10.499  -2.419  1.00  0.00     0.263 C 
ATOM     21  C   UNL     1       0.133   9.631  -1.624  1.00  0.00     0.263 C 
ATOM     22  H   UNL     1       0.815   9.396  -3.493  1.00  0.00     0.348 HD
ATOM     23  C   UNL     1       1.488  11.536  -1.535  1.00  0.00     0.067 C 
ATOM     24  C   UNL     1       0.025  11.143  -1.590  1.00  0.00     0.067 C 
ENDBRANCH   5  19
ENDBRANCH   3   5
ENDBRANCH   2   3
ENDBRANCH   1   2
BRANCH   1  25
ATOM     25  C   UNL     1       1.476   7.711   1.925  1.00  0.00     0.275 C 
BRANCH  25  26
ATOM     26  O   UNL     1       0.705   6.531   1.623  1.00  0.00    -0.458 OA
BRANCH  26  27
ATOM     27  C   UNL     1      -0.351   6.747   0.815  1.00  0.00     0.338 C 
ATOM     28  O   UNL     1      -0.787   7.812   0.420  1.00  0.00    -0.246 OA
BRANCH  27  29
ATOM     29  C   UNL     1      -0.986   5.512   0.385  1.00  0.00     0.060 A 
ATOM     30  C   UNL     1      -0.512   4.881  -0.764  1.00  0.00     0.016 A 
ATOM     31  C   UNL     1      -2.209   5.170   0.961  1.00  0.00     0.016 A 
ATOM     32  C   UNL     1      -1.300   3.922  -1.380  1.00  0.00     0.010 A 
ATOM     33  C   UNL     1      -2.960   4.149   0.392  1.00  0.00     0.010 A 
ATOM     34  C   UNL     1      -2.501   3.518  -0.773  1.00  0.00    -0.014 A 
BRANCH  34  35
ATOM     35  C   UNL     1      -3.131   2.261  -1.215  1.00  0.00     0.031 A 
ATOM     36  C   UNL     1      -4.438   2.238  -1.933  1.00  0.00     0.074 A 
ATOM     37  C   UNL     1      -2.458   1.135  -0.916  1.00  0.00     0.049 A 
ATOM     38  N   UNL     1      -5.161   1.204  -2.267  1.00  0.00    -0.248 NA
ATOM     39  C   UNL     1      -5.011   3.533  -2.328  1.00  0.00     0.031 C 
ATOM     40  C   UNL     1      -1.153   1.097  -0.241  1.00  0.00     0.029 A 
ATOM     41  N   UNL     1      -2.748  -0.178  -1.146  1.00  0.00    -0.354 N 
ATOM     42  C   UNL     1      -6.288   1.714  -2.894  1.00  0.00     0.074 A 
ATOM     43  C   UNL     1      -6.151   3.157  -2.899  1.00  0.00     0.031 C 
ATOM     44  C   UNL     1      -0.732  -0.169  -0.163  1.00  0.00     0.029 A 
ATOM     45  C   UNL     1      -1.780  -1.034  -0.681  1.00  0.00     0.049 A 
ATOM     46  H   UNL     1      -3.568  -0.481  -1.598  1.00  0.00     0.167 HD
ATOM     47  C   UNL     1      -7.338   1.024  -3.401  1.00  0.00     0.037 A 
ATOM     48  C   UNL     1      -1.762  -2.375  -0.624  1.00  0.00     0.037 A 
ATOM     49  C   UNL     1      -7.430  -0.416  -3.365  1.00  0.00     0.049 A 
ATOM     50  C   UNL     1      -2.971  -3.105  -1.107  1.00  0.00     0.074 A 
ATOM     51  C   UNL     1      -8.437  -1.232  -3.847  1.00  0.00     0.029 A 
ATOM     52  N   UNL     1      -6.473  -1.254  -2.802  1.00  0.00    -0.354 N 
ATOM     53  N   UNL     1      -4.054  -2.613  -1.661  1.00  0.00    -0.248 NA
ATOM     54  C   UNL     1      -2.983  -4.557  -0.921  1.00  0.00     0.031 C 
ATOM     55  C   UNL     1      -8.107  -2.559  -3.538  1.00  0.00     0.029 A 
ATOM     56  C   UNL     1      -6.879  -2.574  -2.893  1.00  0.00     0.049 A 
ATOM     57  H   UNL     1      -5.628  -0.951  -2.397  1.00  0.00     0.167 HD
ATOM     58  C   UNL     1      -4.894  -3.693  -1.873  1.00  0.00     0.074 A 
ATOM     59  C   UNL     1      -4.175  -4.870  -1.413  1.00  0.00     0.031 C 
ATOM     60  C   UNL     1      -6.147  -3.712  -2.390  1.00  0.00     0.037 A 
BRANCH  47  61
ATOM     61  C   UNL     1      -8.479   1.815  -3.974  1.00  0.00     0.058 A 
ATOM     62  C   UNL     1      -8.392   2.453  -5.221  1.00  0.00     0.135 A 
ATOM     63  C   UNL     1      -9.683   1.939  -3.261  1.00  0.00     0.135 A 
ATOM     64  F   UNL     1      -7.260   2.381  -5.939  1.00  0.00    -0.206 F 
ATOM     65  C   UNL     1      -9.446   3.211  -5.727  1.00  0.00     0.059 A 
ATOM     66  C   UNL     1     -10.756   2.676  -3.755  1.00  0.00     0.059 A 
ATOM     67  F   UNL     1      -9.820   1.352  -2.061  1.00  0.00    -0.206 F 
ATOM     68  C   UNL     1     -10.621   3.325  -4.981  1.00  0.00     0.060 A 
BRANCH  68  69
ATOM     69  S   UNL     1     -11.971   4.337  -5.628  1.00  0.00     0.124 S 
ATOM     70  O   UNL     1     -11.486   5.684  -5.342  1.00  0.00    -0.237 OA
ATOM     71  O   UNL     1     -12.001   3.962  -7.038  1.00  0.00    -0.237 OA
ATOM     72  O   UNL     1     -13.124   3.905  -4.844  1.00  0.00    -0.744 OA
ENDBRANCH  68  69
ENDBRANCH  47  61
BRANCH  48  73
ATOM     73  C   UNL     1      -0.588  -3.055  -0.027  1.00  0.00     0.058 A 
ATOM     74  C   UNL     1       0.344  -3.719  -0.834  1.00  0.00     0.135 A 
ATOM     75  C   UNL     1      -0.307  -2.938   1.345  1.00  0.00     0.135 A 
ATOM     76  F   UNL     1       0.118  -3.850  -2.150  1.00  0.00    -0.206 F 
ATOM     77  C   UNL     1       1.525  -4.229  -0.306  1.00  0.00     0.059 A 
ATOM     78  C   UNL     1       0.878  -3.418   1.891  1.00  0.00     0.059 A 
ATOM     79  F   UNL     1      -1.157  -2.285   2.153  1.00  0.00    -0.206 F 
ATOM     80  C   UNL     1       1.789  -4.063   1.056  1.00  0.00     0.060 A 
BRANCH  80  81
ATOM     81  S   UNL     1       3.371  -4.631   1.716  1.00  0.00     0.124 S 
ATOM     82  O   UNL     1       3.138  -6.066   1.838  1.00  0.00    -0.237 OA
ATOM     83  O   UNL     1       4.309  -4.223   0.675  1.00  0.00    -0.237 OA
ATOM     84  O   UNL     1       3.489  -3.900   2.974  1.00  0.00    -0.744 OA
ENDBRANCH  80  81
ENDBRANCH  48  73
BRANCH  60  85
ATOM     85  C   UNL     1      -6.811  -5.053  -2.450  1.00  0.00     0.058 A 
ATOM     86  C   UNL     1      -7.364  -5.637  -1.301  1.00  0.00     0.135 A 
ATOM     87  C   UNL     1      -6.903  -5.751  -3.663  1.00  0.00     0.135 A 
ATOM     88  F   UNL     1      -7.281  -5.011  -0.117  1.00  0.00    -0.206 F 
ATOM     89  C   UNL     1      -7.977  -6.882  -1.350  1.00  0.00     0.059 A 
ATOM     90  C   UNL     1      -7.529  -6.989  -3.738  1.00  0.00     0.059 A 
ATOM     91  F   UNL     1      -6.386  -5.228  -4.785  1.00  0.00    -0.206 F 
ATOM     92  C   UNL     1      -8.053  -7.551  -2.574  1.00  0.00     0.060 A 
BRANCH  92  93
ATOM     93  S   UNL     1      -8.876  -9.155  -2.632  1.00  0.00     0.124 S 
ATOM     94  O   UNL     1      -7.856 -10.028  -2.062  1.00  0.00    -0.237 OA
ATOM     95  O   UNL     1     -10.057  -8.934  -1.804  1.00  0.00    -0.237 OA
ATOM     96  O   UNL     1      -9.143  -9.345  -4.055  1.00  0.00    -0.744 OA
ENDBRANCH  92  93
ENDBRANCH  60  85
ENDBRANCH  34  35
ENDBRANCH  27  29
ENDBRANCH  26  27
ENDBRANCH  25  26
ENDBRANCH   1  25
TORSDOF 19
