REMARK SMILES O=C(OCCOC(=O)[C@H]1[C@H]2CC[C@H](CC2)[C@@H]1C(=O)Nc1sc2c(c1C(=O)N1CCCCC1)CCCC2)c1ccc(-c2c3nc(c(-c4c(F)cc(S(=O)(=O)[O-])cc4F)c4ccc([nH]4)c(-c4c(F)cc(S(=O)(=O)[O-])cc4F)c4nc(c(-c5c(F)cc(S(=O)(=O)[O-])cc5F)c5ccc2[nH]5)C=C4)C=C3)cc1
REMARK SMILES IDX 4 1 3 2 2 3 1 4 37 5 38 6 102 7 39 8 101 9 40 10 41 11 42 12
REMARK SMILES IDX 95 13 43 14 100 15 94 16 96 17 44 18 99 19 93 20 92 21 45 23
REMARK SMILES IDX 79 24 58 25 78 26 59 27 62 28 77 29 97 30 60 31 61 32 76 34
REMARK SMILES IDX 98 35 63 36 46 37 47 38 56 39 48 40 49 41 55 42 57 43 50 44
REMARK SMILES IDX 51 45 52 46 53 47 54 48 80 49 81 50 90 51 82 52 83 53 89 54
REMARK SMILES IDX 91 55 84 56 85 57 86 58 87 59 88 60 64 61 65 62 74 63 66 64
REMARK SMILES IDX 67 65 73 66 75 67 68 68 69 69 70 70 71 71 72 72 5 73 6 74
REMARK SMILES IDX 7 75 8 76 9 77 10 78 16 79 15 80 11 81 13 82 14 83 12 84
REMARK SMILES IDX 17 85 18 86 19 87 20 89 21 90 24 91 22 92 23 93 36 94 33 95
REMARK SMILES IDX 35 96 34 97 25 98 26 99 27 100 28 101 32 102 29 103 31 104
REMARK SMILES IDX 30 105
REMARK H PARENT 96 22 62 33 19 88
REMARK Flexibility Score: inf
ROOT
ATOM      1  C   UNL     1       4.433  -0.976  -1.726  1.00  0.00     0.275 C 
ENDROOT
BRANCH   1   2
ATOM      2  O   UNL     1       3.562  -1.441  -0.682  1.00  0.00    -0.458 OA
BRANCH   2   3
ATOM      3  C   UNL     1       3.427  -0.978   0.581  1.00  0.00     0.338 C 
ATOM      4  O   UNL     1       2.478  -1.386   1.252  1.00  0.00    -0.246 OA
BRANCH   3   5
ATOM      5  C   UNL     1       4.327   0.053   1.199  1.00  0.00     0.060 A 
ATOM      6  C   UNL     1       5.678   0.299   0.913  1.00  0.00     0.016 A 
ATOM      7  C   UNL     1       3.731   0.840   2.188  1.00  0.00     0.016 A 
ATOM      8  C   UNL     1       6.395   1.330   1.562  1.00  0.00     0.010 A 
ATOM      9  C   UNL     1       4.434   1.863   2.825  1.00  0.00     0.010 A 
ATOM     10  C   UNL     1       5.777   2.113   2.535  1.00  0.00    -0.014 A 
BRANCH  10  11
ATOM     11  C   UNL     1       6.495   3.061   3.429  1.00  0.00     0.031 A 
ATOM     12  C   UNL     1       6.765   2.587   4.828  1.00  0.00     0.074 A 
ATOM     13  C   UNL     1       6.711   4.348   3.092  1.00  0.00     0.049 A 
ATOM     14  N   UNL     1       7.206   3.248   5.861  1.00  0.00    -0.248 NA
ATOM     15  C   UNL     1       6.442   1.177   5.107  1.00  0.00     0.031 C 
ATOM     16  C   UNL     1       6.440   4.928   1.784  1.00  0.00     0.029 A 
ATOM     17  N   UNL     1       7.135   5.422   3.834  1.00  0.00    -0.354 N 
ATOM     18  C   UNL     1       7.207   2.336   6.909  1.00  0.00     0.074 A 
ATOM     19  C   UNL     1       6.609   1.118   6.418  1.00  0.00     0.031 C 
ATOM     20  C   UNL     1       6.570   6.266   1.842  1.00  0.00     0.029 A 
ATOM     21  C   UNL     1       7.060   6.626   3.165  1.00  0.00     0.049 A 
ATOM     22  H   UNL     1       7.463   5.340   4.759  1.00  0.00     0.167 HD
ATOM     23  C   UNL     1       7.731   2.485   8.147  1.00  0.00     0.037 A 
ATOM     24  C   UNL     1       7.403   7.868   3.560  1.00  0.00     0.037 A 
ATOM     25  C   UNL     1       8.404   3.686   8.560  1.00  0.00     0.049 A 
ATOM     26  C   UNL     1       8.102   7.992   4.886  1.00  0.00     0.074 A 
ATOM     27  C   UNL     1       9.130   3.921   9.711  1.00  0.00     0.029 A 
ATOM     28  N   UNL     1       8.452   4.853   7.807  1.00  0.00    -0.354 N 
ATOM     29  N   UNL     1       8.223   7.091   5.835  1.00  0.00    -0.248 NA
ATOM     30  C   UNL     1       8.800   9.254   5.157  1.00  0.00     0.031 C 
ATOM     31  C   UNL     1       9.613   5.234   9.657  1.00  0.00     0.029 A 
ATOM     32  C   UNL     1       9.218   5.804   8.454  1.00  0.00     0.049 A 
ATOM     33  H   UNL     1       8.005   4.984   6.940  1.00  0.00     0.167 HD
ATOM     34  C   UNL     1       9.072   7.648   6.781  1.00  0.00     0.074 A 
ATOM     35  C   UNL     1       9.419   8.971   6.296  1.00  0.00     0.031 C 
ATOM     36  C   UNL     1       9.545   7.108   7.932  1.00  0.00     0.037 A 
BRANCH  23  37
ATOM     37  C   UNL     1       7.654   1.307   9.082  1.00  0.00     0.058 A 
ATOM     38  C   UNL     1       8.293   0.088   8.788  1.00  0.00     0.135 A 
ATOM     39  C   UNL     1       6.922   1.381  10.277  1.00  0.00     0.135 A 
ATOM     40  F   UNL     1       9.003  -0.050   7.656  1.00  0.00    -0.206 F 
ATOM     41  C   UNL     1       8.156  -1.028   9.605  1.00  0.00     0.059 A 
ATOM     42  C   UNL     1       6.809   0.289  11.135  1.00  0.00     0.059 A 
ATOM     43  F   UNL     1       6.293   2.517  10.617  1.00  0.00    -0.206 F 
ATOM     44  C   UNL     1       7.408  -0.918  10.777  1.00  0.00     0.060 A 
BRANCH  44  45
ATOM     45  S   UNL     1       7.241  -2.377  11.826  1.00  0.00     0.124 S 
ATOM     46  O   UNL     1       6.268  -3.164  11.075  1.00  0.00    -0.237 OA
ATOM     47  O   UNL     1       8.601  -2.905  11.846  1.00  0.00    -0.237 OA
ATOM     48  O   UNL     1       6.766  -1.829  13.092  1.00  0.00    -0.744 OA
ENDBRANCH  44  45
ENDBRANCH  23  37
BRANCH  24  49
ATOM     49  C   UNL     1       7.294   9.021   2.621  1.00  0.00     0.058 A 
ATOM     50  C   UNL     1       8.423   9.484   1.927  1.00  0.00     0.135 A 
ATOM     51  C   UNL     1       6.071   9.658   2.362  1.00  0.00     0.135 A 
ATOM     52  F   UNL     1       9.617   8.906   2.134  1.00  0.00    -0.206 F 
ATOM     53  C   UNL     1       8.353  10.546   1.032  1.00  0.00     0.059 A 
ATOM     54  C   UNL     1       5.971  10.715   1.455  1.00  0.00     0.059 A 
ATOM     55  F   UNL     1       4.953   9.243   2.979  1.00  0.00    -0.206 F 
ATOM     56  C   UNL     1       7.120  11.156   0.799  1.00  0.00     0.060 A 
BRANCH  56  57
ATOM     57  S   UNL     1       7.045  12.502  -0.406  1.00  0.00     0.124 S 
ATOM     58  O   UNL     1       7.787  13.555   0.279  1.00  0.00    -0.237 OA
ATOM     59  O   UNL     1       7.705  11.909  -1.565  1.00  0.00    -0.237 OA
ATOM     60  O   UNL     1       5.613  12.738  -0.561  1.00  0.00    -0.744 OA
ENDBRANCH  56  57
ENDBRANCH  24  49
BRANCH  36  61
ATOM     61  C   UNL     1      10.536   7.926   8.705  1.00  0.00     0.058 A 
ATOM     62  C   UNL     1      10.153   9.071   9.418  1.00  0.00     0.135 A 
ATOM     63  C   UNL     1      11.882   7.532   8.757  1.00  0.00     0.135 A 
ATOM     64  F   UNL     1       8.877   9.489   9.393  1.00  0.00    -0.206 F 
ATOM     65  C   UNL     1      11.081   9.821  10.128  1.00  0.00     0.059 A 
ATOM     66  C   UNL     1      12.821   8.248   9.487  1.00  0.00     0.059 A 
ATOM     67  F   UNL     1      12.293   6.435   8.100  1.00  0.00    -0.206 F 
ATOM     68  C   UNL     1      12.413   9.401  10.156  1.00  0.00     0.060 A 
BRANCH  68  69
ATOM     69  S   UNL     1      13.604  10.374  11.098  1.00  0.00     0.124 S 
ATOM     70  O   UNL     1      13.780  11.536  10.233  1.00  0.00    -0.237 OA
ATOM     71  O   UNL     1      12.891  10.614  12.348  1.00  0.00    -0.237 OA
ATOM     72  O   UNL     1      14.759   9.487  11.202  1.00  0.00    -0.744 OA
ENDBRANCH  68  69
ENDBRANCH  36  61
ENDBRANCH  10  11
ENDBRANCH   3   5
ENDBRANCH   2   3
ENDBRANCH   1   2
BRANCH   1  73
ATOM     73  C   UNL     1       4.041   0.373  -2.329  1.00  0.00     0.274 C 
BRANCH  73  74
ATOM     74  O   UNL     1       3.668   1.319  -1.318  1.00  0.00    -0.462 OA
BRANCH  74  75
ATOM     75  C   UNL     1       2.428   1.899  -1.398  1.00  0.00     0.310 C 
ATOM     76  O   UNL     1       1.619   1.660  -2.273  1.00  0.00    -0.252 OA
BRANCH  75  77
ATOM     77  C   UNL     1       2.195   2.836  -0.195  1.00  0.00     0.115 C 
ATOM     78  C   UNL     1       3.496   3.606   0.161  1.00  0.00     0.004 C 
ATOM     79  C   UNL     1       1.092   3.889  -0.429  1.00  0.00     0.096 C 
ATOM     80  C   UNL     1       3.981   4.440  -1.029  1.00  0.00     0.005 C 
ATOM     81  C   UNL     1       3.165   4.522   1.347  1.00  0.00     0.005 C 
ATOM     82  C   UNL     1       1.694   5.335  -0.458  1.00  0.00     0.002 C 
ATOM     83  C   UNL     1       2.887   5.418  -1.441  1.00  0.00     0.005 C 
ATOM     84  C   UNL     1       2.247   5.661   0.929  1.00  0.00     0.005 C 
BRANCH  79  85
ATOM     85  C   UNL     1      -0.225   3.857   0.397  1.00  0.00     0.229 C 
ATOM     86  O   UNL     1      -1.172   4.508  -0.089  1.00  0.00    -0.274 OA
ATOM     87  N   UNL     1      -0.565   3.150   1.508  1.00  0.00    -0.317 N 
ATOM     88  H   UNL     1      -1.542   3.057   1.583  1.00  0.00     0.170 HD
BRANCH  87  89
ATOM     89  C   UNL     1       0.076   2.523   2.566  1.00  0.00     0.108 A 
ATOM     90  S   UNL     1       0.834   3.520   3.731  1.00  0.00    -0.122 S 
ATOM     91  C   UNL     1      -0.182   1.249   3.105  1.00  0.00     0.078 A 
ATOM     92  C   UNL     1       1.320   2.185   4.661  1.00  0.00     0.011 A 
ATOM     93  C   UNL     1       0.699   1.020   4.254  1.00  0.00    -0.019 A 
ATOM     94  C   UNL     1       2.300   2.278   5.801  1.00  0.00     0.047 C 
ATOM     95  C   UNL     1       1.009  -0.274   4.951  1.00  0.00     0.037 C 
ATOM     96  C   UNL     1       3.013   0.929   5.988  1.00  0.00     0.006 C 
ATOM     97  C   UNL     1       2.022  -0.216   6.099  1.00  0.00     0.005 C 
BRANCH  91  98
ATOM     98  C   UNL     1      -1.107   0.325   2.405  1.00  0.00     0.257 C 
ATOM     99  O   UNL     1      -1.665   0.672   1.359  1.00  0.00    -0.269 OA
ATOM    100  N   UNL     1      -1.305  -0.971   2.878  1.00  0.00    -0.339 N 
ATOM    101  C   UNL     1      -1.507  -2.002   1.873  1.00  0.00     0.120 C 
ATOM    102  C   UNL     1      -1.895  -1.291   4.175  1.00  0.00     0.120 C 
ATOM    103  C   UNL     1      -0.851  -3.297   2.329  1.00  0.00     0.022 C 
ATOM    104  C   UNL     1      -1.354  -2.625   4.718  1.00  0.00     0.022 C 
ATOM    105  C   UNL     1      -1.406  -3.747   3.680  1.00  0.00     0.004 C 
ENDBRANCH  91  98
ENDBRANCH  87  89
ENDBRANCH  79  85
ENDBRANCH  75  77
ENDBRANCH  74  75
ENDBRANCH  73  74
ENDBRANCH   1  73
TORSDOF 17
