REMARK SMILES CCCCCCNC(=O)Oc1cccc(-c2ccc([C@@H](C)C(=O)OCCOC(=O)c3ccc(-c4c5nc(c(-c6c(F)cc(S(=O)(=O)[O-])cc6F)c6ccc([nH]6)c(-c6c(F)cc(S(=O)(=O)[O-])cc6F)c6nc(c(-c7c(F)cc(S(=O)(=O)[O-])cc7F)c7ccc4[nH]7)C=C6)C=C5)cc3)cc2O)c1
REMARK SMILES IDX 20 1 21 2 19 3 16 4 17 5 97 6 18 7 96 8 15 9 11 10 12 11
REMARK SMILES IDX 99 12 13 13 14 14 10 15 8 16 7 17 9 19 6 20 5 21 4 22 3 23
REMARK SMILES IDX 2 24 1 25 98 26 22 28 23 29 24 30 25 31 26 32 27 33 28 34
REMARK SMILES IDX 29 35 30 36 31 37 95 38 32 39 94 40 33 41 34 42 35 43 88 44
REMARK SMILES IDX 36 45 93 46 87 47 89 48 37 49 92 50 86 51 85 52 38 54 72 55
REMARK SMILES IDX 51 56 71 57 52 58 55 59 70 60 90 61 53 62 54 63 69 65 91 66
REMARK SMILES IDX 56 67 39 68 40 69 49 70 41 71 42 72 48 73 50 74 43 75 44 76
REMARK SMILES IDX 45 77 46 78 47 79 73 80 74 81 83 82 75 83 76 84 82 85 84 86
REMARK SMILES IDX 77 87 78 88 79 89 80 90 81 91 57 92 58 93 67 94 59 95 60 96
REMARK SMILES IDX 66 97 68 98 61 99 62 100 63 101 64 102 65 103
REMARK H PARENT 7 18 98 27 89 53 55 64
REMARK Flexibility Score: inf
ROOT
ATOM      1  C   UNL     1      -4.761  -8.234 -11.348  1.00  0.00     0.126 C 
ATOM      2  C   UNL     1      -5.962  -8.469 -12.262  1.00  0.00     0.025 C 
ENDROOT
BRANCH   1   3
ATOM      3  C   UNL     1      -4.864  -6.920 -10.588  1.00  0.00    -0.030 A 
ATOM      4  C   UNL     1      -5.044  -4.489  -9.106  1.00  0.00     0.024 A 
ATOM      5  C   UNL     1      -5.033  -4.494 -10.512  1.00  0.00     0.013 A 
ATOM      6  C   UNL     1      -4.973  -5.732  -8.460  1.00  0.00     0.123 A 
ATOM      7  C   UNL     1      -4.955  -5.686 -11.241  1.00  0.00     0.005 A 
ATOM      8  C   UNL     1      -4.882  -6.924  -9.184  1.00  0.00     0.051 A 
BRANCH   4   9
ATOM      9  C   UNL     1      -5.155  -3.206  -8.392  1.00  0.00    -0.011 A 
ATOM     10  C   UNL     1      -4.301  -1.544  -6.846  1.00  0.00     0.133 A 
ATOM     11  C   UNL     1      -5.428  -0.748  -7.037  1.00  0.00     0.047 A 
ATOM     12  C   UNL     1      -4.157  -2.766  -7.507  1.00  0.00     0.056 A 
ATOM     13  C   UNL     1      -6.418  -1.166  -7.920  1.00  0.00     0.004 A 
ATOM     14  C   UNL     1      -6.283  -2.385  -8.588  1.00  0.00     0.009 A 
BRANCH  10  15
ATOM     15  O   UNL     1      -3.388  -1.121  -5.867  1.00  0.00    -0.410 OA
BRANCH  15  16
ATOM     16  C   UNL     1      -2.054  -0.995  -6.224  1.00  0.00     0.412 C 
ATOM     17  N   UNL     1      -1.257  -0.595  -5.186  1.00  0.00    -0.321 N 
ATOM     18  H   UNL     1      -0.293  -0.523  -5.376  1.00  0.00     0.167 HD
ATOM     19  O   UNL     1      -1.588  -1.181  -7.342  1.00  0.00    -0.224 OA
BRANCH  17  20
ATOM     20  C   UNL     1      -1.677  -0.267  -3.838  1.00  0.00     0.119 C 
BRANCH  20  21
ATOM     21  C   UNL     1      -1.046  -1.180  -2.789  1.00  0.00     0.021 C 
BRANCH  21  22
ATOM     22  C   UNL     1       0.483  -1.102  -2.695  1.00  0.00     0.002 C 
BRANCH  22  23
ATOM     23  C   UNL     1       1.063   0.287  -2.407  1.00  0.00    -0.000 C 
BRANCH  23  24
ATOM     24  C   UNL     1       0.576   0.953  -1.117  1.00  0.00    -0.003 C 
ATOM     25  C   UNL     1       0.952   0.183   0.139  1.00  0.00     0.004 C 
ENDBRANCH  23  24
ENDBRANCH  22  23
ENDBRANCH  21  22
ENDBRANCH  20  21
ENDBRANCH  17  20
ENDBRANCH  15  16
ENDBRANCH  10  15
ENDBRANCH   4   9
BRANCH   6  26
ATOM     26  O   UNL     1      -5.021  -5.876  -7.099  1.00  0.00    -0.507 OA
ATOM     27  H   UNL     1      -5.083  -5.119  -6.550  1.00  0.00     0.293 HD
ENDBRANCH   6  26
ENDBRANCH   1   3
BRANCH   1  28
ATOM     28  C   UNL     1      -3.469  -8.462 -12.125  1.00  0.00     0.313 C 
ATOM     29  O   UNL     1      -3.033  -9.588 -12.350  1.00  0.00    -0.252 OA
BRANCH  28  30
ATOM     30  O   UNL     1      -2.896  -7.320 -12.588  1.00  0.00    -0.462 OA
BRANCH  30  31
ATOM     31  C   UNL     1      -1.645  -7.457 -13.289  1.00  0.00     0.274 C 
BRANCH  31  32
ATOM     32  C   UNL     1      -0.459  -7.093 -12.393  1.00  0.00     0.275 C 
BRANCH  32  33
ATOM     33  O   UNL     1      -0.271  -8.069 -11.353  1.00  0.00    -0.458 OA
BRANCH  33  34
ATOM     34  C   UNL     1      -0.848  -7.754 -10.169  1.00  0.00     0.338 C 
ATOM     35  O   UNL     1      -1.444  -6.729  -9.891  1.00  0.00    -0.246 OA
BRANCH  34  36
ATOM     36  C   UNL     1      -0.766  -8.904  -9.258  1.00  0.00     0.060 A 
ATOM     37  C   UNL     1      -1.960  -9.506  -8.857  1.00  0.00     0.016 A 
ATOM     38  C   UNL     1       0.455  -9.327  -8.730  1.00  0.00     0.016 A 
ATOM     39  C   UNL     1      -1.947 -10.520  -7.905  1.00  0.00     0.010 A 
ATOM     40  C   UNL     1       0.469 -10.353  -7.779  1.00  0.00     0.010 A 
ATOM     41  C   UNL     1      -0.733 -10.940  -7.346  1.00  0.00    -0.014 A 
BRANCH  41  42
ATOM     42  C   UNL     1      -0.747 -11.950  -6.262  1.00  0.00     0.031 A 
ATOM     43  C   UNL     1      -0.512 -11.526  -4.841  1.00  0.00     0.074 A 
ATOM     44  C   UNL     1      -1.007 -13.238  -6.551  1.00  0.00     0.049 A 
ATOM     45  N   UNL     1      -0.471 -12.255  -3.756  1.00  0.00    -0.248 NA
ATOM     46  C   UNL     1      -0.289 -10.091  -4.613  1.00  0.00     0.031 C 
ATOM     47  C   UNL     1      -1.269 -13.763  -7.892  1.00  0.00     0.029 A 
ATOM     48  N   UNL     1      -1.092 -14.338  -5.737  1.00  0.00    -0.354 N 
ATOM     49  C   UNL     1      -0.203 -11.373  -2.717  1.00  0.00     0.074 A 
ATOM     50  C   UNL     1      -0.065 -10.058  -3.307  1.00  0.00     0.031 C 
ATOM     51  C   UNL     1      -1.483 -15.086  -7.808  1.00  0.00     0.029 A 
ATOM     52  C   UNL     1      -1.344 -15.505  -6.415  1.00  0.00     0.049 A 
ATOM     53  H   UNL     1      -0.982 -14.295  -4.759  1.00  0.00     0.167 HD
ATOM     54  C   UNL     1      -0.090 -11.634  -1.392  1.00  0.00     0.037 A 
ATOM     55  C   UNL     1      -1.434 -16.773  -5.968  1.00  0.00     0.037 A 
ATOM     56  C   UNL     1      -0.237 -12.944  -0.812  1.00  0.00     0.049 A 
ATOM     57  C   UNL     1      -1.291 -17.046  -4.497  1.00  0.00     0.074 A 
ATOM     58  C   UNL     1      -0.159 -13.313   0.520  1.00  0.00     0.029 A 
ATOM     59  N   UNL     1      -0.490 -14.105  -1.532  1.00  0.00    -0.354 N 
ATOM     60  N   UNL     1      -1.054 -16.200  -3.523  1.00  0.00    -0.248 NA
ATOM     61  C   UNL     1      -1.434 -18.442  -4.063  1.00  0.00     0.031 C 
ATOM     62  C   UNL     1      -0.329 -14.700   0.601  1.00  0.00     0.029 A 
ATOM     63  C   UNL     1      -0.553 -15.192  -0.675  1.00  0.00     0.049 A 
ATOM     64  H   UNL     1      -0.607 -14.148  -2.508  1.00  0.00     0.167 HD
ATOM     65  C   UNL     1      -1.027 -16.958  -2.358  1.00  0.00     0.074 A 
ATOM     66  C   UNL     1      -1.289 -18.329  -2.748  1.00  0.00     0.031 C 
ATOM     67  C   UNL     1      -0.806 -16.553  -1.082  1.00  0.00     0.037 A 
BRANCH  54  68
ATOM     68  C   UNL     1       0.240 -10.475  -0.493  1.00  0.00     0.058 A 
ATOM     69  C   UNL     1      -0.698  -9.469  -0.209  1.00  0.00     0.135 A 
ATOM     70  C   UNL     1       1.520 -10.353   0.070  1.00  0.00     0.135 A 
ATOM     71  F   UNL     1      -1.933  -9.528  -0.733  1.00  0.00    -0.206 F 
ATOM     72  C   UNL     1      -0.363  -8.358   0.559  1.00  0.00     0.059 A 
ATOM     73  C   UNL     1       1.870  -9.263   0.862  1.00  0.00     0.059 A 
ATOM     74  F   UNL     1       2.454 -11.288  -0.166  1.00  0.00    -0.206 F 
ATOM     75  C   UNL     1       0.929  -8.257   1.079  1.00  0.00     0.060 A 
BRANCH  75  76
ATOM     76  S   UNL     1       1.370  -6.787   2.030  1.00  0.00     0.124 S 
ATOM     77  O   UNL     1       1.562  -5.802   0.970  1.00  0.00    -0.237 OA
ATOM     78  O   UNL     1       0.193  -6.588   2.871  1.00  0.00    -0.237 OA
ATOM     79  O   UNL     1       2.580  -7.192   2.738  1.00  0.00    -0.744 OA
ENDBRANCH  75  76
ENDBRANCH  54  68
BRANCH  55  80
ATOM     80  C   UNL     1      -1.669 -17.867  -6.944  1.00  0.00     0.058 A 
ATOM     81  C   UNL     1      -2.919 -18.492  -7.049  1.00  0.00     0.135 A 
ATOM     82  C   UNL     1      -0.663 -18.258  -7.842  1.00  0.00     0.135 A 
ATOM     83  F   UNL     1      -3.909 -18.159  -6.206  1.00  0.00    -0.206 F 
ATOM     84  C   UNL     1      -3.169 -19.459  -8.018  1.00  0.00     0.059 A 
ATOM     85  C   UNL     1      -0.894 -19.206  -8.832  1.00  0.00     0.059 A 
ATOM     86  F   UNL     1       0.547 -17.680  -7.787  1.00  0.00    -0.206 F 
ATOM     87  C   UNL     1      -2.152 -19.802  -8.912  1.00  0.00     0.060 A 
BRANCH  87  88
ATOM     88  S   UNL     1      -2.515 -20.982 -10.231  1.00  0.00     0.124 S 
ATOM     89  O   UNL     1      -2.505 -22.246  -9.505  1.00  0.00    -0.237 OA
ATOM     90  O   UNL     1      -3.820 -20.527 -10.703  1.00  0.00    -0.237 OA
ATOM     91  O   UNL     1      -1.415 -20.783 -11.170  1.00  0.00    -0.744 OA
ENDBRANCH  87  88
ENDBRANCH  55  80
BRANCH  67  92
ATOM     92  C   UNL     1      -0.847 -17.607  -0.010  1.00  0.00     0.058 A 
ATOM     93  C   UNL     1       0.208 -18.515   0.166  1.00  0.00     0.135 A 
ATOM     94  C   UNL     1      -1.929 -17.674   0.882  1.00  0.00     0.135 A 
ATOM     95  F   UNL     1       1.262 -18.496  -0.665  1.00  0.00    -0.206 F 
ATOM     96  C   UNL     1       0.184 -19.468   1.179  1.00  0.00     0.059 A 
ATOM     97  C   UNL     1      -1.964 -18.605   1.916  1.00  0.00     0.059 A 
ATOM     98  F   UNL     1      -2.959 -16.822   0.763  1.00  0.00    -0.206 F 
ATOM     99  C   UNL     1      -0.907 -19.505   2.050  1.00  0.00     0.060 A 
BRANCH  99 100
ATOM    100  S   UNL     1      -0.913 -20.722   3.385  1.00  0.00     0.124 S 
ATOM    101  O   UNL     1      -1.264 -21.943   2.667  1.00  0.00    -0.237 OA
ATOM    102  O   UNL     1       0.458 -20.651   3.882  1.00  0.00    -0.237 OA
ATOM    103  O   UNL     1      -1.931 -20.216   4.300  1.00  0.00    -0.744 OA
ENDBRANCH  99 100
ENDBRANCH  67  92
ENDBRANCH  41  42
ENDBRANCH  34  36
ENDBRANCH  33  34
ENDBRANCH  32  33
ENDBRANCH  31  32
ENDBRANCH  30  31
ENDBRANCH  28  30
ENDBRANCH   1  28
TORSDOF 24
