REMARK SMILES NS(=O)(=O)c1ccc(-n2nc(C(=O)NCCCCCCCCCCC(=O)OCCOC(=O)c3ccc(-c4c5nc(c(-c6c(F)cc(S(=O)(=O)[O-])cc6F)c6ccc([nH]6)c(-c6c(F)cc(S(=O)(=O)[O-])cc6F)c6nc(c(-c7c(F)cc(S(=O)(=O)[O-])cc7F)c7ccc4[nH]7)C=C6)C=C5)cc3)cc2-c2ccccc2)cc1
REMARK SMILES IDX 22 1 21 2 20 3 19 4 18 5 17 6 16 7 15 8 14 9 12 10 13 11
REMARK SMILES IDX 11 13 9 14 10 15 100 16 99 17 8 18 5 19 6 20 108 21 7 22
REMARK SMILES IDX 107 23 2 24 3 25 4 26 1 27 101 30 102 31 106 32 103 33
REMARK SMILES IDX 105 34 104 35 23 36 24 37 25 38 26 39 27 40 28 41 29 42
REMARK SMILES IDX 30 43 31 44 32 45 33 46 34 47 98 48 35 49 97 50 36 51 37 52
REMARK SMILES IDX 38 53 91 54 39 55 96 56 90 57 92 58 40 59 95 60 89 61 88 62
REMARK SMILES IDX 41 64 75 65 54 66 74 67 55 68 58 69 73 70 93 71 56 72 57 73
REMARK SMILES IDX 72 75 94 76 59 77 42 78 43 79 52 80 44 81 45 82 51 83 53 84
REMARK SMILES IDX 46 85 47 86 48 87 49 88 50 89 76 90 77 91 86 92 78 93 79 94
REMARK SMILES IDX 85 95 87 96 80 97 81 98 82 99 83 100 84 101 60 102 61 103
REMARK SMILES IDX 70 104 62 105 63 106 69 107 71 108 64 109 65 110 66 111
REMARK SMILES IDX 67 112 68 113
REMARK H PARENT 14 12 1 28 1 29 92 63 58 74
REMARK Flexibility Score: inf
ROOT
ATOM      1  C   UNL     1       5.473  15.810  -6.777  1.00  0.00     0.001 C 
ENDROOT
BRANCH   1   2
ATOM      2  C   UNL     1       4.024  15.396  -6.516  1.00  0.00     0.000 C 
BRANCH   2   3
ATOM      3  C   UNL     1       3.820  13.900  -6.766  1.00  0.00     0.000 C 
BRANCH   3   4
ATOM      4  C   UNL     1       4.698  13.045  -5.850  1.00  0.00     0.000 C 
BRANCH   4   5
ATOM      5  C   UNL     1       4.420  13.331  -4.370  1.00  0.00     0.000 C 
BRANCH   5   6
ATOM      6  C   UNL     1       3.002  12.918  -3.950  1.00  0.00     0.002 C 
BRANCH   6   7
ATOM      7  C   UNL     1       2.708  11.449  -4.257  1.00  0.00     0.021 C 
BRANCH   7   8
ATOM      8  C   UNL     1       3.714  10.546  -3.555  1.00  0.00     0.116 C 
BRANCH   8   9
ATOM      9  N   UNL     1       3.253  10.242  -2.226  1.00  0.00    -0.351 N 
ATOM     10  C   UNL     1       2.635   9.143  -1.689  1.00  0.00     0.271 C 
ATOM     11  O   UNL     1       2.233   9.272  -0.529  1.00  0.00    -0.267 OA
ATOM     12  H   UNL     1       3.414  10.963  -1.575  1.00  0.00     0.163 HD
BRANCH  10  13
ATOM     13  C   UNL     1       2.508   7.875  -2.436  1.00  0.00     0.151 A 
ATOM     14  N   UNL     1       2.163   5.767  -2.665  1.00  0.00    -0.232 N 
ATOM     15  N   UNL     1       1.932   6.809  -1.842  1.00  0.00    -0.162 NA
ATOM     16  C   UNL     1       2.713   6.155  -3.866  1.00  0.00     0.075 A 
ATOM     17  C   UNL     1       2.887   7.513  -3.749  1.00  0.00     0.065 A 
BRANCH  14  18
ATOM     18  C   UNL     1       1.806   4.461  -2.281  1.00  0.00     0.065 A 
ATOM     19  C   UNL     1       0.978   1.875  -1.804  1.00  0.00     0.082 A 
ATOM     20  C   UNL     1       2.255   2.099  -2.327  1.00  0.00     0.024 A 
ATOM     21  C   UNL     1       0.124   2.937  -1.484  1.00  0.00     0.024 A 
ATOM     22  C   UNL     1       2.669   3.399  -2.575  1.00  0.00     0.030 A 
ATOM     23  C   UNL     1       0.555   4.245  -1.692  1.00  0.00     0.030 A 
BRANCH  19  24
ATOM     24  S   UNL     1       0.441   0.207  -1.606  1.00  0.00     0.238 S 
ATOM     25  O   UNL     1       1.114  -0.626  -2.571  1.00  0.00    -0.207 OA
ATOM     26  O   UNL     1      -0.996   0.183  -1.429  1.00  0.00    -0.207 OA
BRANCH  24  27
ATOM     27  N   UNL     1       1.102  -0.174  -0.115  1.00  0.00    -0.225 NA
ATOM     28  H   UNL     1       0.862  -1.135   0.128  1.00  0.00     0.137 HD
ATOM     29  H   UNL     1       0.729   0.459   0.594  1.00  0.00     0.137 HD
ENDBRANCH  24  27
ENDBRANCH  19  24
ENDBRANCH  14  18
BRANCH  16  30
ATOM     30  C   UNL     1       2.909   5.351  -5.065  1.00  0.00     0.000 A 
ATOM     31  C   UNL     1       1.823   4.722  -5.683  1.00  0.00     0.010 A 
ATOM     32  C   UNL     1       4.174   5.288  -5.664  1.00  0.00     0.010 A 
ATOM     33  C   UNL     1       2.001   4.033  -6.881  1.00  0.00     0.001 A 
ATOM     34  C   UNL     1       4.350   4.598  -6.862  1.00  0.00     0.001 A 
ATOM     35  C   UNL     1       3.263   3.973  -7.471  1.00  0.00     0.000 A 
ENDBRANCH  16  30
ENDBRANCH  10  13
ENDBRANCH   8   9
ENDBRANCH   7   8
ENDBRANCH   6   7
ENDBRANCH   5   6
ENDBRANCH   4   5
ENDBRANCH   3   4
ENDBRANCH   2   3
ENDBRANCH   1   2
BRANCH   1  36
ATOM     36  C   UNL     1       5.813  15.753  -8.267  1.00  0.00     0.012 C 
BRANCH  36  37
ATOM     37  C   UNL     1       4.919  16.596  -9.185  1.00  0.00     0.123 C 
BRANCH  37  38
ATOM     38  C   UNL     1       4.787  18.083  -8.905  1.00  0.00     0.305 C 
ATOM     39  O   UNL     1       4.664  18.916  -9.796  1.00  0.00    -0.252 OA
BRANCH  38  40
ATOM     40  O   UNL     1       4.737  18.372  -7.582  1.00  0.00    -0.462 OA
BRANCH  40  41
ATOM     41  C   UNL     1       4.866  19.748  -7.191  1.00  0.00     0.274 C 
BRANCH  41  42
ATOM     42  C   UNL     1       6.328  20.144  -7.024  1.00  0.00     0.275 C 
BRANCH  42  43
ATOM     43  O   UNL     1       7.025  20.128  -8.271  1.00  0.00    -0.458 OA
BRANCH  43  44
ATOM     44  C   UNL     1       7.754  19.008  -8.466  1.00  0.00     0.338 C 
ATOM     45  O   UNL     1       7.668  17.967  -7.838  1.00  0.00    -0.246 OA
BRANCH  44  46
ATOM     46  C   UNL     1       8.863  19.261  -9.379  1.00  0.00     0.060 A 
ATOM     47  C   UNL     1       9.510  18.164  -9.957  1.00  0.00     0.016 A 
ATOM     48  C   UNL     1       9.426  20.541  -9.379  1.00  0.00     0.016 A 
ATOM     49  C   UNL     1      10.799  18.334 -10.424  1.00  0.00     0.010 A 
ATOM     50  C   UNL     1      10.717  20.701  -9.821  1.00  0.00     0.010 A 
ATOM     51  C   UNL     1      11.413  19.588 -10.289  1.00  0.00    -0.014 A 
BRANCH  51  52
ATOM     52  C   UNL     1      12.716  19.796 -10.900  1.00  0.00     0.031 A 
ATOM     53  C   UNL     1      12.603  19.728 -12.378  1.00  0.00     0.074 A 
ATOM     54  C   UNL     1      13.819  20.171 -10.217  1.00  0.00     0.049 A 
ATOM     55  N   UNL     1      13.038  18.789 -13.150  1.00  0.00    -0.248 NA
ATOM     56  C   UNL     1      11.694  20.674 -13.057  1.00  0.00     0.031 C 
ATOM     57  C   UNL     1      13.905  20.495  -8.789  1.00  0.00     0.029 A 
ATOM     58  N   UNL     1      15.084  20.441 -10.659  1.00  0.00    -0.354 N 
ATOM     59  C   UNL     1      12.743  19.223 -14.438  1.00  0.00     0.074 A 
ATOM     60  C   UNL     1      11.708  20.209 -14.309  1.00  0.00     0.031 C 
ATOM     61  C   UNL     1      15.072  21.133  -8.538  1.00  0.00     0.029 A 
ATOM     62  C   UNL     1      15.878  21.144  -9.748  1.00  0.00     0.049 A 
ATOM     63  H   UNL     1      15.409  20.164 -11.546  1.00  0.00     0.167 HD
ATOM     64  C   UNL     1      13.661  19.044 -15.426  1.00  0.00     0.037 A 
ATOM     65  C   UNL     1      17.096  21.706  -9.982  1.00  0.00     0.037 A 
ATOM     66  C   UNL     1      14.626  18.045 -15.040  1.00  0.00     0.049 A 
ATOM     67  C   UNL     1      17.664  21.019 -11.164  1.00  0.00     0.074 A 
ATOM     68  C   UNL     1      14.623  16.684 -14.819  1.00  0.00     0.029 A 
ATOM     69  N   UNL     1      15.708  18.564 -14.383  1.00  0.00    -0.354 N 
ATOM     70  N   UNL     1      18.041  19.771 -11.149  1.00  0.00    -0.248 NA
ATOM     71  C   UNL     1      17.489  21.604 -12.488  1.00  0.00     0.031 C 
ATOM     72  C   UNL     1      15.661  16.433 -13.871  1.00  0.00     0.029 A 
ATOM     73  C   UNL     1      16.312  17.631 -13.588  1.00  0.00     0.049 A 
ATOM     74  H   UNL     1      16.014  19.496 -14.473  1.00  0.00     0.167 HD
ATOM     75  C   UNL     1      17.707  19.304 -12.402  1.00  0.00     0.074 A 
ATOM     76  C   UNL     1      17.555  20.495 -13.229  1.00  0.00     0.031 C 
ATOM     77  C   UNL     1      17.246  18.029 -12.559  1.00  0.00     0.037 A 
BRANCH  64  78
ATOM     78  C   UNL     1      14.016  20.124 -16.432  1.00  0.00     0.058 A 
ATOM     79  C   UNL     1      14.873  19.810 -17.506  1.00  0.00     0.135 A 
ATOM     80  C   UNL     1      13.795  21.507 -16.224  1.00  0.00     0.135 A 
ATOM     81  F   UNL     1      15.198  18.533 -17.765  1.00  0.00    -0.206 F 
ATOM     82  C   UNL     1      15.473  20.793 -18.298  1.00  0.00     0.059 A 
ATOM     83  C   UNL     1      14.335  22.497 -17.033  1.00  0.00     0.059 A 
ATOM     84  F   UNL     1      13.127  21.980 -15.167  1.00  0.00    -0.206 F 
ATOM     85  C   UNL     1      15.193  22.135 -18.055  1.00  0.00     0.060 A 
BRANCH  85  86
ATOM     86  S   UNL     1      15.967  23.411 -19.062  1.00  0.00     0.124 S 
ATOM     87  O   UNL     1      17.357  23.319 -18.634  1.00  0.00    -0.237 OA
ATOM     88  O   UNL     1      15.677  22.942 -20.413  1.00  0.00    -0.237 OA
ATOM     89  O   UNL     1      15.260  24.625 -18.663  1.00  0.00    -0.744 OA
ENDBRANCH  85  86
ENDBRANCH  64  78
BRANCH  65  90
ATOM     90  C   UNL     1      17.751  22.921  -9.419  1.00  0.00     0.058 A 
ATOM     91  C   UNL     1      19.118  23.186  -9.652  1.00  0.00     0.135 A 
ATOM     92  C   UNL     1      16.991  24.000  -8.934  1.00  0.00     0.135 A 
ATOM     93  F   UNL     1      19.925  22.218 -10.114  1.00  0.00    -0.206 F 
ATOM     94  C   UNL     1      19.675  24.462  -9.502  1.00  0.00     0.059 A 
ATOM     95  C   UNL     1      17.527  25.281  -8.769  1.00  0.00     0.059 A 
ATOM     96  F   UNL     1      15.678  23.865  -8.700  1.00  0.00    -0.206 F 
ATOM     97  C   UNL     1      18.860  25.514  -9.090  1.00  0.00     0.060 A 
BRANCH  97  98
ATOM     98  S   UNL     1      19.514  27.203  -9.112  1.00  0.00     0.124 S 
ATOM     99  O   UNL     1      20.456  27.180  -7.999  1.00  0.00    -0.237 OA
ATOM    100  O   UNL     1      20.103  27.291 -10.444  1.00  0.00    -0.237 OA
ATOM    101  O   UNL     1      18.325  28.027  -8.905  1.00  0.00    -0.744 OA
ENDBRANCH  97  98
ENDBRANCH  65  90
BRANCH  77 102
ATOM    102  C   UNL     1      17.665  17.018 -11.532  1.00  0.00     0.058 A 
ATOM    103  C   UNL     1      17.309  17.035 -10.173  1.00  0.00     0.135 A 
ATOM    104  C   UNL     1      18.459  15.950 -11.976  1.00  0.00     0.135 A 
ATOM    105  F   UNL     1      16.478  17.969  -9.687  1.00  0.00    -0.206 F 
ATOM    106  C   UNL     1      17.777  16.065  -9.284  1.00  0.00     0.059 A 
ATOM    107  C   UNL     1      18.907  14.955 -11.118  1.00  0.00     0.059 A 
ATOM    108  F   UNL     1      18.791  15.853 -13.274  1.00  0.00    -0.206 F 
ATOM    109  C   UNL     1      18.584  15.033  -9.766  1.00  0.00     0.060 A 
BRANCH 109 110
ATOM    110  S   UNL     1      19.185  13.769  -8.627  1.00  0.00     0.124 S 
ATOM    111  O   UNL     1      20.157  14.511  -7.830  1.00  0.00    -0.237 OA
ATOM    112  O   UNL     1      17.967  13.367  -7.930  1.00  0.00    -0.237 OA
ATOM    113  O   UNL     1      19.750  12.753  -9.512  1.00  0.00    -0.744 OA
ENDBRANCH 109 110
ENDBRANCH  77 102
ENDBRANCH  51  52
ENDBRANCH  44  46
ENDBRANCH  43  44
ENDBRANCH  42  43
ENDBRANCH  41  42
ENDBRANCH  40  41
ENDBRANCH  38  40
ENDBRANCH  37  38
ENDBRANCH  36  37
ENDBRANCH   1  36
TORSDOF 29
