REMARK SMILES Cc1ccc(Sc2ccc(=O)n(-c3ccc(C(=O)OCCOC(=O)c4ccc(-c5c6nc(c(-c7c(F)cc(S(=O)(=O)[O-])cc7F)c7ccc([nH]7)c(-c7c(F)cc(S(=O)(=O)[O-])cc7F)c7nc(c(-c8c(F)cc(S(=O)(=O)[O-])cc8F)c8ccc5[nH]8)C=C7)C=C6)cc4)cc3)n2)cc1
REMARK SMILES IDX 20 1 19 2 17 3 18 4 16 5 13 6 14 7 92 8 15 9 91 10 12 11
REMARK SMILES IDX 7 12 8 13 93 14 9 15 10 16 11 17 6 18 5 19 1 20 2 21 3 22
REMARK SMILES IDX 95 23 4 24 94 25 21 26 22 27 23 28 24 29 25 30 26 31 90 32
REMARK SMILES IDX 27 33 89 34 28 35 29 36 30 37 83 38 31 39 88 40 82 41 84 42
REMARK SMILES IDX 32 43 87 44 81 45 80 46 33 48 67 49 46 50 66 51 47 52 50 53
REMARK SMILES IDX 65 54 85 55 48 56 49 57 64 59 86 60 51 61 34 62 35 63 44 64
REMARK SMILES IDX 36 65 37 66 43 67 45 68 38 69 39 70 40 71 41 72 42 73 68 74
REMARK SMILES IDX 69 75 78 76 70 77 71 78 77 79 79 80 72 81 73 82 74 83 75 84
REMARK SMILES IDX 76 85 52 86 53 87 62 88 54 89 55 90 61 91 63 92 56 93 57 94
REMARK SMILES IDX 58 95 59 96 60 97
REMARK H PARENT 84 47 50 58
REMARK Flexibility Score: inf
ROOT
ATOM      1  C   UNL     1      -5.982   7.164  -7.686  1.00  0.00     0.275 C 
ENDROOT
BRANCH   1   2
ATOM      2  O   UNL     1      -5.724   6.175  -6.684  1.00  0.00    -0.458 OA
BRANCH   2   3
ATOM      3  C   UNL     1      -6.508   6.290  -5.585  1.00  0.00     0.338 C 
ATOM      4  O   UNL     1      -7.492   6.975  -5.474  1.00  0.00    -0.246 OA
BRANCH   3   5
ATOM      5  C   UNL     1      -5.880   5.540  -4.476  1.00  0.00     0.060 A 
ATOM      6  C   UNL     1      -4.979   4.192  -2.174  1.00  0.00     0.069 A 
ATOM      7  C   UNL     1      -5.202   3.497  -3.382  1.00  0.00     0.029 A 
ATOM      8  C   UNL     1      -5.077   5.586  -2.200  1.00  0.00     0.029 A 
ATOM      9  C   UNL     1      -5.644   4.168  -4.535  1.00  0.00     0.018 A 
ATOM     10  C   UNL     1      -5.571   6.248  -3.320  1.00  0.00     0.018 A 
BRANCH   6  11
ATOM     11  N   UNL     1      -4.768   3.487  -0.942  1.00  0.00    -0.196 N 
ATOM     12  C   UNL     1      -4.271   1.451  -0.023  1.00  0.00     0.122 A 
ATOM     13  C   UNL     1      -4.625   1.872   1.336  1.00  0.00     0.043 A 
ATOM     14  N   UNL     1      -4.370   2.167  -1.092  1.00  0.00    -0.158 NA
ATOM     15  C   UNL     1      -4.983   3.146   1.470  1.00  0.00     0.076 A 
ATOM     16  C   UNL     1      -5.042   4.063   0.310  1.00  0.00     0.271 A 
ATOM     17  O   UNL     1      -5.396   5.213   0.564  1.00  0.00    -0.267 OA
BRANCH  12  18
ATOM     18  S   UNL     1      -3.703  -0.194  -0.120  1.00  0.00    -0.068 SA
BRANCH  18  19
ATOM     19  C   UNL     1      -1.922  -0.034  -0.046  1.00  0.00     0.014 A 
ATOM     20  C   UNL     1       2.405   0.031  -0.025  1.00  0.00     0.044 C 
ATOM     21  C   UNL     1       0.905   0.018   0.003  1.00  0.00    -0.051 A 
ATOM     22  C   UNL     1       0.217  -1.198   0.013  1.00  0.00     0.004 A 
ATOM     23  C   UNL     1       0.171   1.207  -0.021  1.00  0.00     0.004 A 
ATOM     24  C   UNL     1      -1.181  -1.222  -0.008  1.00  0.00     0.016 A 
ATOM     25  C   UNL     1      -1.230   1.182  -0.046  1.00  0.00     0.016 A 
ENDBRANCH  18  19
ENDBRANCH  12  18
ENDBRANCH   6  11
ENDBRANCH   3   5
ENDBRANCH   2   3
ENDBRANCH   1   2
BRANCH   1  26
ATOM     26  C   UNL     1      -5.721   8.639  -7.266  1.00  0.00     0.275 C 
BRANCH  26  27
ATOM     27  O   UNL     1      -5.235   8.929  -5.912  1.00  0.00    -0.458 OA
BRANCH  27  28
ATOM     28  C   UNL     1      -4.136   8.574  -5.191  1.00  0.00     0.338 C 
ATOM     29  O   UNL     1      -4.026   8.843  -4.000  1.00  0.00    -0.246 OA
BRANCH  28  30
ATOM     30  C   UNL     1      -3.179   7.618  -5.758  1.00  0.00     0.060 A 
ATOM     31  C   UNL     1      -2.398   6.782  -4.935  1.00  0.00     0.016 A 
ATOM     32  C   UNL     1      -3.153   7.456  -7.121  1.00  0.00     0.016 A 
ATOM     33  C   UNL     1      -1.643   5.780  -5.526  1.00  0.00     0.010 A 
ATOM     34  C   UNL     1      -2.799   6.250  -7.625  1.00  0.00     0.010 A 
ATOM     35  C   UNL     1      -1.875   5.540  -6.879  1.00  0.00    -0.014 A 
BRANCH  35  36
ATOM     36  C   UNL     1      -0.946   4.886  -7.781  1.00  0.00     0.031 A 
ATOM     37  C   UNL     1      -1.054   3.435  -7.807  1.00  0.00     0.074 A 
ATOM     38  C   UNL     1      -0.244   5.779  -8.524  1.00  0.00     0.049 A 
ATOM     39  N   UNL     1      -0.228   2.588  -7.294  1.00  0.00    -0.248 NA
ATOM     40  C   UNL     1      -2.314   2.819  -8.251  1.00  0.00     0.031 C 
ATOM     41  C   UNL     1       0.727   5.662  -9.587  1.00  0.00     0.029 A 
ATOM     42  N   UNL     1      -0.254   7.164  -8.272  1.00  0.00    -0.354 N 
ATOM     43  C   UNL     1      -0.606   1.392  -7.874  1.00  0.00     0.074 A 
ATOM     44  C   UNL     1      -2.026   1.522  -8.114  1.00  0.00     0.031 C 
ATOM     45  C   UNL     1       1.478   6.789  -9.590  1.00  0.00     0.029 A 
ATOM     46  C   UNL     1       0.988   7.701  -8.555  1.00  0.00     0.049 A 
ATOM     47  H   UNL     1      -1.029   7.674  -7.943  1.00  0.00     0.167 HD
ATOM     48  C   UNL     1       0.289   0.726  -8.671  1.00  0.00     0.037 A 
ATOM     49  C   UNL     1       1.653   8.182  -7.465  1.00  0.00     0.037 A 
ATOM     50  C   UNL     1       1.469   1.577  -8.899  1.00  0.00     0.049 A 
ATOM     51  C   UNL     1       2.614   7.112  -6.996  1.00  0.00     0.074 A 
ATOM     52  C   UNL     1       1.867   2.325  -9.997  1.00  0.00     0.029 A 
ATOM     53  N   UNL     1       2.199   2.072  -7.819  1.00  0.00    -0.354 N 
ATOM     54  N   UNL     1       2.442   5.826  -7.195  1.00  0.00    -0.248 NA
ATOM     55  C   UNL     1       3.938   7.422  -6.472  1.00  0.00     0.031 C 
ATOM     56  C   UNL     1       2.808   3.296  -9.556  1.00  0.00     0.029 A 
ATOM     57  C   UNL     1       2.940   3.185  -8.182  1.00  0.00     0.049 A 
ATOM     58  H   UNL     1       2.190   1.681  -6.915  1.00  0.00     0.167 HD
ATOM     59  C   UNL     1       3.618   5.163  -6.955  1.00  0.00     0.074 A 
ATOM     60  C   UNL     1       4.516   6.208  -6.484  1.00  0.00     0.031 C 
ATOM     61  C   UNL     1       3.825   3.834  -7.221  1.00  0.00     0.037 A 
BRANCH  48  62
ATOM     62  C   UNL     1      -0.096  -0.461  -9.541  1.00  0.00     0.058 A 
ATOM     63  C   UNL     1       0.658  -0.826 -10.676  1.00  0.00     0.135 A 
ATOM     64  C   UNL     1      -1.181  -1.324  -9.257  1.00  0.00     0.135 A 
ATOM     65  F   UNL     1       1.768  -0.160 -11.024  1.00  0.00    -0.206 F 
ATOM     66  C   UNL     1       0.329  -1.909 -11.496  1.00  0.00     0.059 A 
ATOM     67  C   UNL     1      -1.558  -2.386 -10.088  1.00  0.00     0.059 A 
ATOM     68  F   UNL     1      -1.891  -1.198  -8.126  1.00  0.00    -0.206 F 
ATOM     69  C   UNL     1      -0.787  -2.679 -11.202  1.00  0.00     0.060 A 
BRANCH  69  70
ATOM     70  S   UNL     1      -1.163  -4.100 -12.247  1.00  0.00     0.124 S 
ATOM     71  O   UNL     1      -1.278  -3.490 -13.568  1.00  0.00    -0.237 OA
ATOM     72  O   UNL     1       0.007  -4.946 -12.037  1.00  0.00    -0.237 OA
ATOM     73  O   UNL     1      -2.412  -4.613 -11.691  1.00  0.00    -0.744 OA
ENDBRANCH  69  70
ENDBRANCH  48  62
BRANCH  49  74
ATOM     74  C   UNL     1       0.848   9.222  -6.710  1.00  0.00     0.058 A 
ATOM     75  C   UNL     1       0.435  10.341  -7.477  1.00  0.00     0.135 A 
ATOM     76  C   UNL     1       0.238   9.112  -5.446  1.00  0.00     0.135 A 
ATOM     77  F   UNL     1       0.981  10.556  -8.686  1.00  0.00    -0.206 F 
ATOM     78  C   UNL     1      -0.583  11.210  -7.091  1.00  0.00     0.059 A 
ATOM     79  C   UNL     1      -0.791  10.000  -5.021  1.00  0.00     0.059 A 
ATOM     80  F   UNL     1       0.580   8.112  -4.620  1.00  0.00    -0.206 F 
ATOM     81  C   UNL     1      -1.217  11.025  -5.871  1.00  0.00     0.060 A 
BRANCH  81  82
ATOM     82  S   UNL     1      -2.639  12.111  -5.537  1.00  0.00     0.124 S 
ATOM     83  O   UNL     1      -1.986  13.396  -5.307  1.00  0.00    -0.237 OA
ATOM     84  O   UNL     1      -3.391  12.001  -6.787  1.00  0.00    -0.237 OA
ATOM     85  O   UNL     1      -3.277  11.526  -4.371  1.00  0.00    -0.744 OA
ENDBRANCH  81  82
ENDBRANCH  49  74
BRANCH  61  86
ATOM     86  C   UNL     1       4.978   3.013  -6.687  1.00  0.00     0.058 A 
ATOM     87  C   UNL     1       5.665   3.320  -5.503  1.00  0.00     0.135 A 
ATOM     88  C   UNL     1       5.312   1.765  -7.279  1.00  0.00     0.135 A 
ATOM     89  F   UNL     1       5.358   4.401  -4.772  1.00  0.00    -0.206 F 
ATOM     90  C   UNL     1       6.668   2.502  -4.992  1.00  0.00     0.059 A 
ATOM     91  C   UNL     1       6.245   0.893  -6.735  1.00  0.00     0.059 A 
ATOM     92  F   UNL     1       4.730   1.330  -8.406  1.00  0.00    -0.206 F 
ATOM     93  C   UNL     1       6.948   1.289  -5.612  1.00  0.00     0.060 A 
BRANCH  93  94
ATOM     94  S   UNL     1       8.213   0.216  -4.923  1.00  0.00     0.124 S 
ATOM     95  O   UNL     1       9.419   0.780  -5.520  1.00  0.00    -0.237 OA
ATOM     96  O   UNL     1       8.060   0.425  -3.487  1.00  0.00    -0.237 OA
ATOM     97  O   UNL     1       7.828  -1.108  -5.401  1.00  0.00    -0.744 OA
ENDBRANCH  93  94
ENDBRANCH  61  86
ENDBRANCH  35  36
ENDBRANCH  28  30
ENDBRANCH  27  28
ENDBRANCH  26  27
ENDBRANCH   1  26
TORSDOF 17
