REMARK SMILES Cc1cc(CNC(=O)C[C@H](C)CC(=O)OCCOC(=O)c2ccc(-c3c4nc(c(-c5c(F)cc(S(=O)(=O)[O-])cc5F)c5ccc([nH]5)c(-c5c(F)cc(S(=O)(=O)[O-])cc5F)c5nc(c(-c6c(F)cc(S(=O)(=O)[O-])cc6F)c6ccc3[nH]6)C=C5)C=C4)cc2)cc(C)c1F
REMARK SMILES IDX 16 1 15 2 13 3 14 4 12 5 10 6 11 7 9 8 7 9 6 10 8 12 5 13
REMARK SMILES IDX 4 14 1 15 2 16 3 17 90 18 88 19 91 20 87 21 89 22 17 23
REMARK SMILES IDX 18 24 19 25 20 26 21 27 22 28 86 29 23 30 85 31 24 32 25 33
REMARK SMILES IDX 26 34 79 35 27 36 84 37 78 38 80 39 28 40 83 41 77 42 76 43
REMARK SMILES IDX 29 45 63 46 42 47 62 48 43 49 46 50 61 51 81 52 44 53 45 54
REMARK SMILES IDX 60 56 82 57 47 58 30 59 31 60 40 61 32 62 33 63 39 64 41 65
REMARK SMILES IDX 34 66 35 67 36 68 37 69 38 70 64 71 65 72 74 73 66 74 67 75
REMARK SMILES IDX 73 76 75 77 68 78 69 79 70 80 71 81 72 82 48 83 49 84 58 85
REMARK SMILES IDX 50 86 51 87 57 88 59 89 52 90 53 91 54 92 55 93 56 94
REMARK H PARENT 6 11 80 44 46 55
REMARK Flexibility Score: inf
ROOT
ATOM      1  C   UNL     1       5.043  -7.588  -2.714  1.00  0.00     0.274 C 
ENDROOT
BRANCH   1   2
ATOM      2  O   UNL     1       4.175  -7.271  -1.598  1.00  0.00    -0.462 OA
BRANCH   2   3
ATOM      3  C   UNL     1       4.817  -6.878  -0.469  1.00  0.00     0.306 C 
ATOM      4  O   UNL     1       5.996  -7.135  -0.226  1.00  0.00    -0.252 OA
BRANCH   3   5
ATOM      5  C   UNL     1       3.975  -6.085   0.529  1.00  0.00     0.126 C 
BRANCH   5   6
ATOM      6  C   UNL     1       2.679  -5.312   0.147  1.00  0.00     0.006 C 
ATOM      7  C   UNL     1       1.549  -6.305  -0.117  1.00  0.00     0.009 C 
BRANCH   6   8
ATOM      8  C   UNL     1       2.272  -4.301   1.257  1.00  0.00     0.104 C 
BRANCH   8   9
ATOM      9  C   UNL     1       2.194  -2.823   0.863  1.00  0.00     0.220 C 
ATOM     10  N   UNL     1       3.322  -2.139   0.547  1.00  0.00    -0.352 N 
ATOM     11  H   UNL     1       3.225  -1.167   0.418  1.00  0.00     0.163 HD
ATOM     12  O   UNL     1       1.130  -2.203   0.900  1.00  0.00    -0.275 OA
BRANCH  10  13
ATOM     13  C   UNL     1       4.632  -2.676   0.380  1.00  0.00     0.151 C 
BRANCH  13  14
ATOM     14  C   UNL     1       4.940  -2.994  -1.074  1.00  0.00    -0.028 A 
ATOM     15  C   UNL     1       3.288  -3.342  -5.291  1.00  0.00     0.047 C 
ATOM     16  C   UNL     1       4.275  -3.288  -4.168  1.00  0.00    -0.015 A 
ATOM     17  C   UNL     1       3.733  -2.908  -2.461  1.00  0.00     0.012 A 
ATOM     18  C   UNL     1       6.066  -3.547  -4.530  1.00  0.00     0.129 A 
ATOM     19  C   UNL     1       7.268  -3.492  -3.157  1.00  0.00    -0.015 A 
ATOM     20  F   UNL     1       6.492  -3.631  -5.799  1.00  0.00    -0.206 F 
ATOM     21  C   UNL     1       6.697  -3.321  -1.450  1.00  0.00     0.012 A 
ATOM     22  C   UNL     1       8.728  -3.239  -3.392  1.00  0.00     0.047 C 
ENDBRANCH  13  14
ENDBRANCH  10  13
ENDBRANCH   8   9
ENDBRANCH   6   8
ENDBRANCH   5   6
ENDBRANCH   3   5
ENDBRANCH   2   3
ENDBRANCH   1   2
BRANCH   1  23
ATOM     23  C   UNL     1       5.064  -6.471  -3.765  1.00  0.00     0.275 C 
BRANCH  23  24
ATOM     24  O   UNL     1       5.955  -5.357  -3.454  1.00  0.00    -0.458 OA
BRANCH  24  25
ATOM     25  C   UNL     1       5.330  -4.217  -2.713  1.00  0.00     0.338 C 
ATOM     26  O   UNL     1       4.564  -4.870  -1.975  1.00  0.00    -0.246 OA
BRANCH  25  27
ATOM     27  C   UNL     1       5.651  -2.114  -2.985  1.00  0.00     0.060 A 
ATOM     28  C   UNL     1       5.893  -1.059  -1.971  1.00  0.00     0.016 A 
ATOM     29  C   UNL     1       5.681  -1.279  -4.275  1.00  0.00     0.016 A 
ATOM     30  C   UNL     1       6.475   0.164  -2.120  1.00  0.00     0.010 A 
ATOM     31  C   UNL     1       6.192  -0.015  -4.488  1.00  0.00     0.010 A 
ATOM     32  C   UNL     1       6.662   0.625  -3.389  1.00  0.00    -0.014 A 
BRANCH  32  33
ATOM     33  C   UNL     1       7.182   1.945  -3.433  1.00  0.00     0.031 A 
ATOM     34  C   UNL     1       6.161   2.989  -3.248  1.00  0.00     0.074 A 
ATOM     35  C   UNL     1       8.512   1.980  -3.321  1.00  0.00     0.049 A 
ATOM     36  N   UNL     1       6.349   4.250  -3.079  1.00  0.00    -0.248 NA
ATOM     37  C   UNL     1       4.738   2.566  -3.215  1.00  0.00     0.031 C 
ATOM     38  C   UNL     1       9.396   0.802  -3.369  1.00  0.00     0.029 A 
ATOM     39  N   UNL     1       9.340   3.006  -3.049  1.00  0.00    -0.354 N 
ATOM     40  C   UNL     1       5.081   4.784  -2.960  1.00  0.00     0.074 A 
ATOM     41  C   UNL     1       4.117   3.721  -3.060  1.00  0.00     0.031 C 
ATOM     42  C   UNL     1      10.647   1.179  -3.079  1.00  0.00     0.029 A 
ATOM     43  C   UNL     1      10.649   2.623  -2.930  1.00  0.00     0.049 A 
ATOM     44  H   UNL     1       9.035   3.937  -2.946  1.00  0.00     0.167 HD
ATOM     45  C   UNL     1       4.814   6.090  -2.801  1.00  0.00     0.037 A 
ATOM     46  C   UNL     1      11.713   3.418  -2.774  1.00  0.00     0.037 A 
ATOM     47  C   UNL     1       5.892   7.036  -2.744  1.00  0.00     0.049 A 
ATOM     48  C   UNL     1      11.378   4.879  -2.703  1.00  0.00     0.074 A 
ATOM     49  C   UNL     1       5.841   8.407  -2.692  1.00  0.00     0.029 A 
ATOM     50  N   UNL     1       7.243   6.670  -2.743  1.00  0.00    -0.354 N 
ATOM     51  N   UNL     1      10.182   5.437  -2.679  1.00  0.00    -0.248 NA
ATOM     52  C   UNL     1      12.491   5.819  -2.681  1.00  0.00     0.031 C 
ATOM     53  C   UNL     1       7.162   8.869  -2.719  1.00  0.00     0.029 A 
ATOM     54  C   UNL     1       8.042   7.788  -2.712  1.00  0.00     0.049 A 
ATOM     55  H   UNL     1       7.574   5.743  -2.762  1.00  0.00     0.167 HD
ATOM     56  C   UNL     1      10.388   6.800  -2.654  1.00  0.00     0.074 A 
ATOM     57  C   UNL     1      11.838   6.973  -2.619  1.00  0.00     0.031 C 
ATOM     58  C   UNL     1       9.491   7.821  -2.676  1.00  0.00     0.037 A 
BRANCH  45  59
ATOM     59  C   UNL     1       3.378   6.500  -2.797  1.00  0.00     0.058 A 
ATOM     60  C   UNL     1       2.505   6.160  -1.751  1.00  0.00     0.135 A 
ATOM     61  C   UNL     1       2.850   7.205  -3.889  1.00  0.00     0.135 A 
ATOM     62  F   UNL     1       2.939   5.417  -0.719  1.00  0.00    -0.206 F 
ATOM     63  C   UNL     1       1.164   6.526  -1.777  1.00  0.00     0.059 A 
ATOM     64  C   UNL     1       1.520   7.606  -3.924  1.00  0.00     0.059 A 
ATOM     65  F   UNL     1       3.626   7.494  -4.946  1.00  0.00    -0.206 F 
ATOM     66  C   UNL     1       0.686   7.267  -2.859  1.00  0.00     0.060 A 
BRANCH  66  67
ATOM     67  S   UNL     1      -1.035   7.804  -2.837  1.00  0.00     0.124 S 
ATOM     68  O   UNL     1      -1.745   6.531  -2.928  1.00  0.00    -0.237 OA
ATOM     69  O   UNL     1      -1.122   8.488  -1.551  1.00  0.00    -0.237 OA
ATOM     70  O   UNL     1      -1.140   8.664  -4.011  1.00  0.00    -0.744 OA
ENDBRANCH  66  67
ENDBRANCH  45  59
BRANCH  46  71
ATOM     71  C   UNL     1      13.076   2.841  -2.756  1.00  0.00     0.058 A 
ATOM     72  C   UNL     1      13.887   2.933  -1.621  1.00  0.00     0.135 A 
ATOM     73  C   UNL     1      13.563   2.089  -3.844  1.00  0.00     0.135 A 
ATOM     74  F   UNL     1      13.463   3.617  -0.547  1.00  0.00    -0.206 F 
ATOM     75  C   UNL     1      15.134   2.316  -1.565  1.00  0.00     0.059 A 
ATOM     76  C   UNL     1      14.787   1.433  -3.800  1.00  0.00     0.059 A 
ATOM     77  F   UNL     1      12.816   1.939  -4.950  1.00  0.00    -0.206 F 
ATOM     78  C   UNL     1      15.573   1.566  -2.659  1.00  0.00     0.060 A 
BRANCH  78  79
ATOM     79  S   UNL     1      17.188   0.766  -2.567  1.00  0.00     0.124 S 
ATOM     80  O   UNL     1      18.081   1.918  -2.525  1.00  0.00    -0.237 OA
ATOM     81  O   UNL     1      17.075  -0.003  -1.332  1.00  0.00    -0.237 OA
ATOM     82  O   UNL     1      17.242  -0.028  -3.791  1.00  0.00    -0.744 OA
ENDBRANCH  78  79
ENDBRANCH  46  71
BRANCH  58  83
ATOM     83  C   UNL     1      10.090   9.184  -2.633  1.00  0.00     0.058 A 
ATOM     84  C   UNL     1      10.738   9.727  -3.749  1.00  0.00     0.135 A 
ATOM     85  C   UNL     1       9.930   9.972  -1.485  1.00  0.00     0.135 A 
ATOM     86  F   UNL     1      10.912   8.992  -4.859  1.00  0.00    -0.206 F 
ATOM     87  C   UNL     1      11.240  11.014  -3.717  1.00  0.00     0.059 A 
ATOM     88  C   UNL     1      10.381  11.278  -1.449  1.00  0.00     0.059 A 
ATOM     89  F   UNL     1       9.294   9.483  -0.408  1.00  0.00    -0.206 F 
ATOM     90  C   UNL     1      11.046  11.783  -2.566  1.00  0.00     0.060 A 
BRANCH  90  91
ATOM     91  S   UNL     1      11.673  13.468  -2.558  1.00  0.00     0.124 S 
ATOM     92  O   UNL     1      13.114  13.241  -2.568  1.00  0.00    -0.237 OA
ATOM     93  O   UNL     1      11.105  14.010  -3.788  1.00  0.00    -0.237 OA
ATOM     94  O   UNL     1      11.133  14.026  -1.322  1.00  0.00    -0.744 OA
ENDBRANCH  90  91
ENDBRANCH  58  83
ENDBRANCH  32  33
ENDBRANCH  25  27
ENDBRANCH  24  25
ENDBRANCH  23  24
ENDBRANCH   1  23
TORSDOF 19
