REMARK SMILES Cc1nc(CN(C)C(=O)NCc2ccc(C(=O)OCCOC(=O)c3ccc(-c4c5nc(c(-c6c(F)cc(S(=O)(=O)[O-])cc6F)c6ccc([nH]6)c(-c6c(F)cc(S(=O)(=O)[O-])cc6F)c6nc(c(-c7c(F)cc(S(=O)(=O)[O-])cc7F)c7ccc4[nH]7)C=C6)C=C5)cc3)o2)n[nH]1
REMARK SMILES IDX 19 1 18 2 16 3 17 4 15 5 12 6 13 7 90 8 14 9 11 10 10 11
REMARK SMILES IDX 8 12 9 13 6 15 7 16 5 17 4 18 1 19 2 20 3 21 92 22 91 23
REMARK SMILES IDX 20 25 21 26 22 27 23 28 24 29 25 30 89 31 26 32 88 33 27 34
REMARK SMILES IDX 28 35 29 36 82 37 30 38 87 39 81 40 83 41 31 42 86 43 80 44
REMARK SMILES IDX 79 45 32 47 66 48 45 49 65 50 46 51 49 52 64 53 84 54 47 55
REMARK SMILES IDX 48 56 63 58 85 59 50 60 33 61 34 62 43 63 35 64 36 65 42 66
REMARK SMILES IDX 44 67 37 68 38 69 39 70 40 71 41 72 67 73 68 74 77 75 69 76
REMARK SMILES IDX 70 77 76 78 78 79 71 80 72 81 73 82 74 83 75 84 51 85 52 86
REMARK SMILES IDX 61 87 53 88 54 89 60 90 62 91 55 92 56 93 57 94 58 95 59 96
REMARK H PARENT 10 14 92 24 83 46 49 57
REMARK Flexibility Score: inf
ROOT
ATOM      1  C   UNL     1       9.985   4.685   7.258  1.00  0.00     0.275 C 
ENDROOT
BRANCH   1   2
ATOM      2  O   UNL     1       8.835   4.715   6.394  1.00  0.00    -0.456 OA
BRANCH   2   3
ATOM      3  C   UNL     1       8.750   3.690   5.492  1.00  0.00     0.374 C 
ATOM      4  O   UNL     1       9.644   2.883   5.280  1.00  0.00    -0.242 OA
BRANCH   3   5
ATOM      5  C   UNL     1       7.423   3.645   4.924  1.00  0.00     0.211 A 
ATOM      6  C   UNL     1       5.691   2.561   4.087  1.00  0.00     0.124 A 
ATOM      7  C   UNL     1       5.266   3.852   4.322  1.00  0.00     0.048 A 
ATOM      8  O   UNL     1       7.018   2.459   4.373  1.00  0.00    -0.452 OA
ATOM      9  C   UNL     1       6.374   4.544   4.874  1.00  0.00     0.058 A 
BRANCH   6  10
ATOM     10  C   UNL     1       5.034   1.291   3.676  1.00  0.00     0.193 C 
BRANCH  10  11
ATOM     11  N   UNL     1       3.622   1.516   3.477  1.00  0.00    -0.331 N 
ATOM     12  C   UNL     1       2.846   1.804   2.420  1.00  0.00     0.317 C 
ATOM     13  O   UNL     1       1.741   2.281   2.698  1.00  0.00    -0.249 OA
ATOM     14  H   UNL     1       3.107   1.440   4.313  1.00  0.00     0.165 HD
BRANCH  12  15
ATOM     15  N   UNL     1       3.244   1.596   1.131  1.00  0.00    -0.320 N 
ATOM     16  C   UNL     1       4.395   0.828   0.691  1.00  0.00     0.149 C 
BRANCH  15  17
ATOM     17  C   UNL     1       2.267   1.932   0.087  1.00  0.00     0.200 C 
BRANCH  17  18
ATOM     18  C   UNL     1       1.220   0.864  -0.049  1.00  0.00     0.170 A 
ATOM     19  C   UNL     1      -2.147  -0.309  -0.085  1.00  0.00     0.089 C 
ATOM     20  C   UNL     1      -0.701  -0.014  -0.105  1.00  0.00     0.121 A 
ATOM     21  N   UNL     1      -0.120   1.165  -0.140  1.00  0.00    -0.215 NA
ATOM     22  N   UNL     1       0.261  -0.982  -0.057  1.00  0.00    -0.263 N 
ATOM     23  N   UNL     1       1.493  -0.451  -0.085  1.00  0.00    -0.157 NA
ATOM     24  H   UNL     1       0.074  -1.947  -0.009  1.00  0.00     0.192 HD
ENDBRANCH  17  18
ENDBRANCH  15  17
ENDBRANCH  12  15
ENDBRANCH  10  11
ENDBRANCH   6  10
ENDBRANCH   3   5
ENDBRANCH   2   3
ENDBRANCH   1   2
BRANCH   1  25
ATOM     25  C   UNL     1       9.663   4.010   8.598  1.00  0.00     0.275 C 
BRANCH  25  26
ATOM     26  O   UNL     1       9.544   2.579   8.475  1.00  0.00    -0.458 OA
BRANCH  26  27
ATOM     27  C   UNL     1       8.288   2.116   8.260  1.00  0.00     0.338 C 
ATOM     28  O   UNL     1       7.272   2.786   8.174  1.00  0.00    -0.246 OA
BRANCH  27  29
ATOM     29  C   UNL     1       8.318   0.660   8.014  1.00  0.00     0.060 A 
ATOM     30  C   UNL     1       7.679   0.180   6.868  1.00  0.00     0.016 A 
ATOM     31  C   UNL     1       8.907  -0.231   8.914  1.00  0.00     0.016 A 
ATOM     32  C   UNL     1       7.627  -1.187   6.609  1.00  0.00     0.010 A 
ATOM     33  C   UNL     1       8.844  -1.607   8.661  1.00  0.00     0.010 A 
ATOM     34  C   UNL     1       8.198  -2.092   7.511  1.00  0.00    -0.014 A 
BRANCH  34  35
ATOM     35  C   UNL     1       8.068  -3.547   7.260  1.00  0.00     0.031 A 
ATOM     36  C   UNL     1       7.011  -4.337   7.976  1.00  0.00     0.074 A 
ATOM     37  C   UNL     1       8.868  -4.148   6.361  1.00  0.00     0.049 A 
ATOM     38  N   UNL     1       6.755  -5.619   7.917  1.00  0.00    -0.248 NA
ATOM     39  C   UNL     1       6.121  -3.585   8.874  1.00  0.00     0.031 C 
ATOM     40  C   UNL     1       9.902  -3.477   5.571  1.00  0.00     0.029 A 
ATOM     41  N   UNL     1       8.935  -5.458   5.958  1.00  0.00    -0.354 N 
ATOM     42  C   UNL     1       5.684  -5.831   8.776  1.00  0.00     0.074 A 
ATOM     43  C   UNL     1       5.344  -4.547   9.353  1.00  0.00     0.031 C 
ATOM     44  C   UNL     1      10.501  -4.382   4.779  1.00  0.00     0.029 A 
ATOM     45  C   UNL     1       9.916  -5.698   5.027  1.00  0.00     0.049 A 
ATOM     46  H   UNL     1       8.337  -6.159   6.305  1.00  0.00     0.167 HD
ATOM     47  C   UNL     1       5.043  -6.991   9.056  1.00  0.00     0.037 A 
ATOM     48  C   UNL     1      10.309  -6.851   4.452  1.00  0.00     0.037 A 
ATOM     49  C   UNL     1       5.378  -8.266   8.479  1.00  0.00     0.049 A 
ATOM     50  C   UNL     1       9.610  -8.133   4.813  1.00  0.00     0.074 A 
ATOM     51  C   UNL     1       4.786  -9.497   8.704  1.00  0.00     0.029 A 
ATOM     52  N   UNL     1       6.397  -8.474   7.561  1.00  0.00    -0.354 N 
ATOM     53  N   UNL     1       8.606  -8.320   5.636  1.00  0.00    -0.248 NA
ATOM     54  C   UNL     1      10.102  -9.361   4.173  1.00  0.00     0.031 C 
ATOM     55  C   UNL     1       5.464 -10.455   7.940  1.00  0.00     0.029 A 
ATOM     56  C   UNL     1       6.460  -9.815   7.219  1.00  0.00     0.049 A 
ATOM     57  H   UNL     1       6.988  -7.772   7.205  1.00  0.00     0.167 HD
ATOM     58  C   UNL     1       8.340  -9.684   5.606  1.00  0.00     0.074 A 
ATOM     59  C   UNL     1       9.280 -10.274   4.674  1.00  0.00     0.031 C 
ATOM     60  C   UNL     1       7.403 -10.384   6.291  1.00  0.00     0.037 A 
BRANCH  47  61
ATOM     61  C   UNL     1       3.926  -6.931  10.057  1.00  0.00     0.058 A 
ATOM     62  C   UNL     1       2.660  -6.434   9.715  1.00  0.00     0.135 A 
ATOM     63  C   UNL     1       4.123  -7.388  11.369  1.00  0.00     0.135 A 
ATOM     64  F   UNL     1       2.428  -5.970   8.477  1.00  0.00    -0.206 F 
ATOM     65  C   UNL     1       1.631  -6.368  10.649  1.00  0.00     0.059 A 
ATOM     66  C   UNL     1       3.104  -7.346  12.315  1.00  0.00     0.059 A 
ATOM     67  F   UNL     1       5.319  -7.869  11.745  1.00  0.00    -0.206 F 
ATOM     68  C   UNL     1       1.865  -6.820  11.949  1.00  0.00     0.060 A 
BRANCH  68  69
ATOM     69  S   UNL     1       0.529  -6.720  13.159  1.00  0.00     0.124 S 
ATOM     70  O   UNL     1       0.582  -5.309  13.531  1.00  0.00    -0.237 OA
ATOM     71  O   UNL     1      -0.636  -7.126  12.381  1.00  0.00    -0.237 OA
ATOM     72  O   UNL     1       0.943  -7.659  14.197  1.00  0.00    -0.744 OA
ENDBRANCH  68  69
ENDBRANCH  47  61
BRANCH  48  73
ATOM     73  C   UNL     1      11.437  -6.846   3.487  1.00  0.00     0.058 A 
ATOM     74  C   UNL     1      11.214  -7.009   2.113  1.00  0.00     0.135 A 
ATOM     75  C   UNL     1      12.758  -6.663   3.922  1.00  0.00     0.135 A 
ATOM     76  F   UNL     1       9.968  -7.198   1.653  1.00  0.00    -0.206 F 
ATOM     77  C   UNL     1      12.264  -6.995   1.200  1.00  0.00     0.059 A 
ATOM     78  C   UNL     1      13.822  -6.627   3.028  1.00  0.00     0.059 A 
ATOM     79  F   UNL     1      13.019  -6.495   5.228  1.00  0.00    -0.206 F 
ATOM     80  C   UNL     1      13.565  -6.802   1.668  1.00  0.00     0.060 A 
BRANCH  80  81
ATOM     81  S   UNL     1      14.921  -6.723   0.476  1.00  0.00     0.124 S 
ATOM     82  O   UNL     1      15.167  -8.136   0.220  1.00  0.00    -0.237 OA
ATOM     83  O   UNL     1      14.327  -5.968  -0.623  1.00  0.00    -0.237 OA
ATOM     84  O   UNL     1      15.968  -6.020   1.213  1.00  0.00    -0.744 OA
ENDBRANCH  80  81
ENDBRANCH  48  73
BRANCH  60  85
ATOM     85  C   UNL     1       7.340 -11.864   6.048  1.00  0.00     0.058 A 
ATOM     86  C   UNL     1       8.260 -12.740   6.644  1.00  0.00     0.135 A 
ATOM     87  C   UNL     1       6.325 -12.415   5.251  1.00  0.00     0.135 A 
ATOM     88  F   UNL     1       9.252 -12.260   7.410  1.00  0.00    -0.206 F 
ATOM     89  C   UNL     1       8.185 -14.115   6.445  1.00  0.00     0.059 A 
ATOM     90  C   UNL     1       6.222 -13.788   5.051  1.00  0.00     0.059 A 
ATOM     91  F   UNL     1       5.418 -11.617   4.665  1.00  0.00    -0.206 F 
ATOM     92  C   UNL     1       7.163 -14.629   5.644  1.00  0.00     0.060 A 
BRANCH  92  93
ATOM     93  S   UNL     1       7.048 -16.417   5.417  1.00  0.00     0.124 S 
ATOM     94  O   UNL     1       8.053 -16.646   4.384  1.00  0.00    -0.237 OA
ATOM     95  O   UNL     1       7.376 -16.929   6.744  1.00  0.00    -0.237 OA
ATOM     96  O   UNL     1       5.662 -16.615   5.002  1.00  0.00    -0.744 OA
ENDBRANCH  92  93
ENDBRANCH  60  85
ENDBRANCH  34  35
ENDBRANCH  27  29
ENDBRANCH  26  27
ENDBRANCH  25  26
ENDBRANCH   1  25
TORSDOF 19
