REMARK SMILES O=C(OCCOC(=O)[C@@H]1C[N@@H+](C2CCN(C(=O)c3ccccc3)CC2)C[C@H]1C1CC1)c1ccc(-c2c3nc(c(-c4c(F)cc(S(=O)(=O)[O-])cc4F)c4ccc([nH]4)c(-c4c(F)cc(S(=O)(=O)[O-])cc4F)c4nc(c(-c5c(F)cc(S(=O)(=O)[O-])cc5F)c5ccc2[nH]5)C=C4)C=C3)cc1
REMARK SMILES IDX 4 1 3 2 2 3 1 4 31 5 32 6 96 7 33 8 95 9 34 10 35 11 36 12
REMARK SMILES IDX 89 13 37 14 94 15 88 16 90 17 38 18 93 19 87 20 86 21 39 23
REMARK SMILES IDX 73 24 52 25 72 26 53 27 56 28 71 29 91 30 54 31 55 32 70 34
REMARK SMILES IDX 92 35 57 36 40 37 41 38 50 39 42 40 43 41 49 42 51 43 44 44
REMARK SMILES IDX 45 45 46 46 47 47 48 48 74 49 75 50 84 51 76 52 77 53 83 54
REMARK SMILES IDX 85 55 78 56 79 57 80 58 81 59 82 60 58 61 59 62 68 63 60 64
REMARK SMILES IDX 61 65 67 66 69 67 62 68 63 69 64 70 65 71 66 72 5 73 6 74
REMARK SMILES IDX 7 75 8 76 9 77 10 78 27 79 11 80 26 81 28 83 29 84 30 85
REMARK SMILES IDX 12 86 13 87 25 88 14 89 24 90 15 91 16 92 17 93 18 94 19 95
REMARK SMILES IDX 23 96 20 97 22 98 21 99
REMARK H PARENT 90 22 56 33 11 82
REMARK Flexibility Score: inf
ROOT
ATOM      1  C   UNL     1       4.321   0.834  -2.014  1.00  0.00     0.275 C 
ENDROOT
BRANCH   1   2
ATOM      2  O   UNL     1       3.608  -0.337  -1.604  1.00  0.00    -0.458 OA
BRANCH   2   3
ATOM      3  C   UNL     1       3.498  -0.840  -0.357  1.00  0.00     0.338 C 
ATOM      4  O   UNL     1       2.517  -1.548  -0.118  1.00  0.00    -0.246 OA
BRANCH   3   5
ATOM      5  C   UNL     1       4.481  -0.611   0.766  1.00  0.00     0.060 A 
ATOM      6  C   UNL     1       5.497   0.352   0.880  1.00  0.00     0.016 A 
ATOM      7  C   UNL     1       4.258  -1.413   1.885  1.00  0.00     0.016 A 
ATOM      8  C   UNL     1       6.162   0.597   2.104  1.00  0.00     0.010 A 
ATOM      9  C   UNL     1       4.935  -1.184   3.080  1.00  0.00     0.010 A 
ATOM     10  C   UNL     1       5.850  -0.139   3.243  1.00  0.00    -0.014 A 
BRANCH  10  11
ATOM     11  C   UNL     1       6.427   0.128   4.601  1.00  0.00     0.031 A 
ATOM     12  C   UNL     1       7.080  -0.999   5.356  1.00  0.00     0.074 A 
ATOM     13  C   UNL     1       6.184   1.279   5.270  1.00  0.00     0.049 A 
ATOM     14  N   UNL     1       7.424  -1.062   6.614  1.00  0.00    -0.248 NA
ATOM     15  C   UNL     1       7.259  -2.256   4.616  1.00  0.00     0.031 C 
ATOM     16  C   UNL     1       5.347   2.367   4.783  1.00  0.00     0.029 A 
ATOM     17  N   UNL     1       6.566   1.714   6.518  1.00  0.00    -0.354 N 
ATOM     18  C   UNL     1       7.680  -2.407   6.855  1.00  0.00     0.074 A 
ATOM     19  C   UNL     1       7.459  -3.107   5.609  1.00  0.00     0.031 C 
ATOM     20  C   UNL     1       5.347   3.378   5.669  1.00  0.00     0.029 A 
ATOM     21  C   UNL     1       6.153   2.995   6.822  1.00  0.00     0.049 A 
ATOM     22  H   UNL     1       7.090   1.159   7.141  1.00  0.00     0.167 HD
ATOM     23  C   UNL     1       8.070  -3.001   8.008  1.00  0.00     0.037 A 
ATOM     24  C   UNL     1       6.402   3.772   7.898  1.00  0.00     0.037 A 
ATOM     25  C   UNL     1       8.415  -2.270   9.198  1.00  0.00     0.049 A 
ATOM     26  C   UNL     1       7.187   3.183   9.042  1.00  0.00     0.074 A 
ATOM     27  C   UNL     1       9.021  -2.738  10.350  1.00  0.00     0.029 A 
ATOM     28  N   UNL     1       8.213  -0.909   9.375  1.00  0.00    -0.354 N 
ATOM     29  N   UNL     1       7.549   1.937   9.225  1.00  0.00    -0.248 NA
ATOM     30  C   UNL     1       7.600   4.090  10.124  1.00  0.00     0.031 C 
ATOM     31  C   UNL     1       9.205  -1.655  11.217  1.00  0.00     0.029 A 
ATOM     32  C   UNL     1       8.745  -0.509  10.590  1.00  0.00     0.049 A 
ATOM     33  H   UNL     1       7.759  -0.316   8.734  1.00  0.00     0.167 HD
ATOM     34  C   UNL     1       8.250   1.913  10.424  1.00  0.00     0.074 A 
ATOM     35  C   UNL     1       8.281   3.273  10.918  1.00  0.00     0.031 C 
ATOM     36  C   UNL     1       8.808   0.853  11.057  1.00  0.00     0.037 A 
BRANCH  23  37
ATOM     37  C   UNL     1       8.195  -4.502   8.016  1.00  0.00     0.058 A 
ATOM     38  C   UNL     1       9.111  -5.174   7.190  1.00  0.00     0.135 A 
ATOM     39  C   UNL     1       7.397  -5.283   8.869  1.00  0.00     0.135 A 
ATOM     40  F   UNL     1       9.910  -4.485   6.358  1.00  0.00    -0.206 F 
ATOM     41  C   UNL     1       9.178  -6.561   7.151  1.00  0.00     0.059 A 
ATOM     42  C   UNL     1       7.486  -6.672   8.886  1.00  0.00     0.059 A 
ATOM     43  F   UNL     1       6.515  -4.702   9.698  1.00  0.00    -0.206 F 
ATOM     44  C   UNL     1       8.359  -7.302   8.000  1.00  0.00     0.060 A 
BRANCH  44  45
ATOM     45  S   UNL     1       8.466  -9.101   7.945  1.00  0.00     0.124 S 
ATOM     46  O   UNL     1       7.641  -9.403   6.779  1.00  0.00    -0.237 OA
ATOM     47  O   UNL     1       9.898  -9.331   7.782  1.00  0.00    -0.237 OA
ATOM     48  O   UNL     1       7.912  -9.512   9.231  1.00  0.00    -0.744 OA
ENDBRANCH  44  45
ENDBRANCH  23  37
BRANCH  24  49
ATOM     49  C   UNL     1       6.009   5.211   7.920  1.00  0.00     0.058 A 
ATOM     50  C   UNL     1       6.993   6.208   7.793  1.00  0.00     0.135 A 
ATOM     51  C   UNL     1       4.682   5.633   8.080  1.00  0.00     0.135 A 
ATOM     52  F   UNL     1       8.281   5.862   7.644  1.00  0.00    -0.206 F 
ATOM     53  C   UNL     1       6.683   7.564   7.852  1.00  0.00     0.059 A 
ATOM     54  C   UNL     1       4.342   6.987   8.117  1.00  0.00     0.059 A 
ATOM     55  F   UNL     1       3.696   4.729   8.184  1.00  0.00    -0.206 F 
ATOM     56  C   UNL     1       5.351   7.945   8.013  1.00  0.00     0.060 A 
BRANCH  56  57
ATOM     57  S   UNL     1       4.960   9.710   8.039  1.00  0.00     0.124 S 
ATOM     58  O   UNL     1       5.513  10.118   9.325  1.00  0.00    -0.237 OA
ATOM     59  O   UNL     1       5.668  10.195   6.857  1.00  0.00    -0.237 OA
ATOM     60  O   UNL     1       3.504   9.732   7.940  1.00  0.00    -0.744 OA
ENDBRANCH  56  57
ENDBRANCH  24  49
BRANCH  36  61
ATOM     61  C   UNL     1       9.582   1.117  12.318  1.00  0.00     0.058 A 
ATOM     62  C   UNL     1       8.953   1.432  13.531  1.00  0.00     0.135 A 
ATOM     63  C   UNL     1      10.980   0.975  12.320  1.00  0.00     0.135 A 
ATOM     64  F   UNL     1       7.620   1.585  13.582  1.00  0.00    -0.206 F 
ATOM     65  C   UNL     1       9.684   1.612  14.701  1.00  0.00     0.059 A 
ATOM     66  C   UNL     1      11.728   1.126  13.482  1.00  0.00     0.059 A 
ATOM     67  F   UNL     1      11.630   0.668  11.186  1.00  0.00    -0.206 F 
ATOM     68  C   UNL     1      11.071   1.452  14.667  1.00  0.00     0.060 A 
BRANCH  68  69
ATOM     69  S   UNL     1      12.003   1.642  16.201  1.00  0.00     0.124 S 
ATOM     70  O   UNL     1      11.937   3.084  16.410  1.00  0.00    -0.237 OA
ATOM     71  O   UNL     1      11.233   0.829  17.138  1.00  0.00    -0.237 OA
ATOM     72  O   UNL     1      13.324   1.117  15.866  1.00  0.00    -0.744 OA
ENDBRANCH  68  69
ENDBRANCH  36  61
ENDBRANCH  10  11
ENDBRANCH   3   5
ENDBRANCH   2   3
ENDBRANCH   1   2
BRANCH   1  73
ATOM     73  C   UNL     1       3.686   2.132  -1.503  1.00  0.00     0.274 C 
BRANCH  73  74
ATOM     74  O   UNL     1       3.458   2.107  -0.082  1.00  0.00    -0.462 OA
BRANCH  74  75
ATOM     75  C   UNL     1       2.169   2.025   0.373  1.00  0.00     0.315 C 
ATOM     76  O   UNL     1       1.185   2.030  -0.344  1.00  0.00    -0.252 OA
BRANCH  75  77
ATOM     77  C   UNL     1       2.155   1.977   1.895  1.00  0.00     0.163 C 
ATOM     78  C   UNL     1       1.167   0.943   2.448  1.00  0.00     0.278 C 
ATOM     79  C   UNL     1       1.699   3.313   2.471  1.00  0.00     0.067 C 
ATOM     80  N   UNL     1       0.695   1.483   3.710  1.00  0.00    -0.331 N 
ATOM     81  C   UNL     1       0.978   2.916   3.777  1.00  0.00     0.267 C 
ATOM     82  H   UNL     1      -0.294   1.249   3.624  1.00  0.00     0.348 HD
BRANCH  79  83
ATOM     83  C   UNL     1       2.790   4.346   2.710  1.00  0.00    -0.001 C 
ATOM     84  C   UNL     1       4.241   4.222   2.283  1.00  0.00     0.004 C 
ATOM     85  C   UNL     1       3.331   5.140   1.539  1.00  0.00     0.004 C 
ENDBRANCH  79  83
BRANCH  80  86
ATOM     86  C   UNL     1       0.607   0.747   4.981  1.00  0.00     0.187 C 
ATOM     87  C   UNL     1       1.860   0.763   5.869  1.00  0.00     0.086 C 
ATOM     88  C   UNL     1       0.086  -0.713   4.950  1.00  0.00     0.086 C 
ATOM     89  C   UNL     1       2.882  -0.233   5.386  1.00  0.00     0.126 C 
ATOM     90  C   UNL     1       1.118  -1.809   4.630  1.00  0.00     0.126 C 
ATOM     91  N   UNL     1       2.391  -1.613   5.313  1.00  0.00    -0.338 N 
ATOM     92  C   UNL     1       3.254  -2.605   5.805  1.00  0.00     0.253 C 
ATOM     93  O   UNL     1       4.161  -2.305   6.584  1.00  0.00    -0.269 OA
BRANCH  92  94
ATOM     94  C   UNL     1       3.272  -4.029   5.338  1.00  0.00     0.040 A 
ATOM     95  C   UNL     1       3.925  -4.954   6.178  1.00  0.00     0.014 A 
ATOM     96  C   UNL     1       2.933  -4.440   4.043  1.00  0.00     0.014 A 
ATOM     97  C   UNL     1       4.230  -6.247   5.745  1.00  0.00     0.001 A 
ATOM     98  C   UNL     1       3.236  -5.741   3.609  1.00  0.00     0.001 A 
ATOM     99  C   UNL     1       3.888  -6.639   4.456  1.00  0.00     0.000 A 
ENDBRANCH  92  94
ENDBRANCH  80  86
ENDBRANCH  75  77
ENDBRANCH  74  75
ENDBRANCH  73  74
ENDBRANCH   1  73
TORSDOF 17
