REMARK SMILES C[C@H]1[C@@H](C(=O)OCCOC(=O)c2ccc(-c3c4nc(c(-c5c(F)cc(S(=O)(=O)[O-])cc5F)c5ccc([nH]5)c(-c5c(F)cc(S(=O)(=O)[O-])cc5F)c5nc(c(-c6c(F)cc(S(=O)(=O)[O-])cc6F)c6ccc3[nH]6)C=C5)C=C4)cc2)CCN1C(=O)c1cncc(O)c1
REMARK SMILES IDX 7 1 6 2 4 3 5 4 3 5 1 6 2 7 80 8 78 9 79 10 81 11 82 12
REMARK SMILES IDX 83 13 84 14 89 15 85 16 87 17 86 18 88 19 8 21 9 22 10 23
REMARK SMILES IDX 11 24 12 25 13 26 77 27 14 28 76 29 15 30 16 31 17 32 70 33
REMARK SMILES IDX 18 34 75 35 69 36 71 37 19 38 74 39 68 40 67 41 20 43 54 44
REMARK SMILES IDX 33 45 53 46 34 47 37 48 52 49 72 50 35 51 36 52 51 54 73 55
REMARK SMILES IDX 38 56 21 57 22 58 31 59 23 60 24 61 30 62 32 63 25 64 26 65
REMARK SMILES IDX 27 66 28 67 29 68 55 69 56 70 65 71 57 72 58 73 64 74 66 75
REMARK SMILES IDX 59 76 60 77 61 78 62 79 63 80 39 81 40 82 49 83 41 84 42 85
REMARK SMILES IDX 48 86 50 87 43 88 44 89 45 90 46 91 47 92
REMARK H PARENT 88 20 71 42 37 53
REMARK Flexibility Score: inf
ROOT
ATOM      1  C   UNL     1       1.884   2.603  -2.617  1.00  0.00     0.274 C 
ENDROOT
BRANCH   1   2
ATOM      2  O   UNL     1       1.477   1.625  -1.637  1.00  0.00    -0.462 OA
BRANCH   2   3
ATOM      3  C   UNL     1       0.812   2.069  -0.550  1.00  0.00     0.311 C 
ATOM      4  O   UNL     1       0.442   3.230  -0.398  1.00  0.00    -0.252 OA
BRANCH   3   5
ATOM      5  C   UNL     1       0.523   1.011   0.499  1.00  0.00     0.123 C 
ATOM      6  C   UNL     1       2.546  -0.468  -0.310  1.00  0.00     0.032 C 
ATOM      7  C   UNL     1       1.378  -0.265   0.650  1.00  0.00     0.096 C 
ATOM      8  N   UNL     1       0.413  -1.375   0.571  1.00  0.00    -0.335 N 
ATOM      9  C   UNL     1      -0.927   0.512   0.442  1.00  0.00     0.039 C 
ATOM     10  C   UNL     1      -0.829  -0.926  -0.018  1.00  0.00     0.121 C 
BRANCH   8  11
ATOM     11  C   UNL     1       0.570  -2.699   0.937  1.00  0.00     0.255 C 
ATOM     12  O   UNL     1      -0.252  -3.581   0.711  1.00  0.00    -0.269 OA
BRANCH  11  13
ATOM     13  C   UNL     1       1.798  -3.082   1.643  1.00  0.00     0.062 A 
ATOM     14  C   UNL     1       2.647  -4.011   1.061  1.00  0.00     0.125 A 
ATOM     15  C   UNL     1       2.136  -2.523   2.876  1.00  0.00     0.063 A 
ATOM     16  N   UNL     1       3.843  -4.360   1.595  1.00  0.00    -0.260 NA
ATOM     17  C   UNL     1       3.358  -2.862   3.436  1.00  0.00     0.134 A 
ATOM     18  C   UNL     1       4.173  -3.767   2.768  1.00  0.00     0.157 A 
BRANCH  17  19
ATOM     19  O   UNL     1       3.781  -2.317   4.610  1.00  0.00    -0.506 OA
ATOM     20  H   UNL     1       4.612  -2.563   4.968  1.00  0.00     0.293 HD
ENDBRANCH  17  19
ENDBRANCH  11  13
ENDBRANCH   8  11
ENDBRANCH   3   5
ENDBRANCH   2   3
ENDBRANCH   1   2
BRANCH   1  21
ATOM     21  C   UNL     1       1.211   2.329  -3.957  1.00  0.00     0.275 C 
BRANCH  21  22
ATOM     22  O   UNL     1      -0.192   2.620  -3.861  1.00  0.00    -0.458 OA
BRANCH  22  23
ATOM     23  C   UNL     1      -0.975   1.552  -3.594  1.00  0.00     0.338 C 
ATOM     24  O   UNL     1      -0.642   0.385  -3.497  1.00  0.00    -0.246 OA
BRANCH  23  25
ATOM     25  C   UNL     1      -2.342   2.019  -3.352  1.00  0.00     0.060 A 
ATOM     26  C   UNL     1      -2.650   2.590  -2.118  1.00  0.00     0.016 A 
ATOM     27  C   UNL     1      -3.335   1.778  -4.297  1.00  0.00     0.016 A 
ATOM     28  C   UNL     1      -3.978   2.834  -1.782  1.00  0.00     0.010 A 
ATOM     29  C   UNL     1      -4.653   2.124  -3.997  1.00  0.00     0.010 A 
ATOM     30  C   UNL     1      -4.992   2.628  -2.727  1.00  0.00    -0.014 A 
BRANCH  30  31
ATOM     31  C   UNL     1      -6.410   2.937  -2.411  1.00  0.00     0.031 A 
ATOM     32  C   UNL     1      -7.452   1.858  -2.522  1.00  0.00     0.074 A 
ATOM     33  C   UNL     1      -6.771   4.192  -2.077  1.00  0.00     0.049 A 
ATOM     34  N   UNL     1      -8.752   1.970  -2.593  1.00  0.00    -0.248 NA
ATOM     35  C   UNL     1      -6.962   0.471  -2.581  1.00  0.00     0.031 C 
ATOM     36  C   UNL     1      -5.854   5.317  -1.880  1.00  0.00     0.029 A 
ATOM     37  N   UNL     1      -8.012   4.738  -1.863  1.00  0.00    -0.354 N 
ATOM     38  C   UNL     1      -9.233   0.678  -2.773  1.00  0.00     0.074 A 
ATOM     39  C   UNL     1      -8.086  -0.204  -2.782  1.00  0.00     0.031 C 
ATOM     40  C   UNL     1      -6.560   6.413  -1.566  1.00  0.00     0.029 A 
ATOM     41  C   UNL     1      -7.981   6.093  -1.635  1.00  0.00     0.049 A 
ATOM     42  H   UNL     1      -8.844   4.210  -1.873  1.00  0.00     0.167 HD
ATOM     43  C   UNL     1     -10.516   0.276  -2.931  1.00  0.00     0.037 A 
ATOM     44  C   UNL     1      -8.978   6.995  -1.558  1.00  0.00     0.037 A 
ATOM     45  C   UNL     1     -11.647   1.165  -2.868  1.00  0.00     0.049 A 
ATOM     46  C   UNL     1     -10.392   6.533  -1.755  1.00  0.00     0.074 A 
ATOM     47  C   UNL     1     -12.990   0.864  -3.013  1.00  0.00     0.029 A 
ATOM     48  N   UNL     1     -11.566   2.528  -2.621  1.00  0.00    -0.354 N 
ATOM     49  N   UNL     1     -10.832   5.323  -2.005  1.00  0.00    -0.248 NA
ATOM     50  C   UNL     1     -11.443   7.557  -1.687  1.00  0.00     0.031 C 
ATOM     51  C   UNL     1     -13.720   2.050  -2.874  1.00  0.00     0.029 A 
ATOM     52  C   UNL     1     -12.833   3.083  -2.611  1.00  0.00     0.049 A 
ATOM     53  H   UNL     1     -10.730   3.026  -2.475  1.00  0.00     0.167 HD
ATOM     54  C   UNL     1     -12.212   5.437  -2.112  1.00  0.00     0.074 A 
ATOM     55  C   UNL     1     -12.535   6.832  -1.893  1.00  0.00     0.031 C 
ATOM     56  C   UNL     1     -13.128   4.473  -2.372  1.00  0.00     0.037 A 
BRANCH  43  57
ATOM     57  C   UNL     1     -10.765  -1.175  -3.229  1.00  0.00     0.058 A 
ATOM     58  C   UNL     1     -10.669  -2.166  -2.241  1.00  0.00     0.135 A 
ATOM     59  C   UNL     1     -11.140  -1.574  -4.523  1.00  0.00     0.135 A 
ATOM     60  F   UNL     1     -10.297  -1.841  -0.993  1.00  0.00    -0.206 F 
ATOM     61  C   UNL     1     -10.917  -3.506  -2.529  1.00  0.00     0.059 A 
ATOM     62  C   UNL     1     -11.414  -2.904  -4.828  1.00  0.00     0.059 A 
ATOM     63  F   UNL     1     -11.245  -0.666  -5.506  1.00  0.00    -0.206 F 
ATOM     64  C   UNL     1     -11.286  -3.865  -3.827  1.00  0.00     0.060 A 
BRANCH  64  65
ATOM     65  S   UNL     1     -11.612  -5.604  -4.190  1.00  0.00     0.124 S 
ATOM     66  O   UNL     1     -10.257  -6.139  -4.286  1.00  0.00    -0.237 OA
ATOM     67  O   UNL     1     -12.381  -6.032  -3.026  1.00  0.00    -0.237 OA
ATOM     68  O   UNL     1     -12.357  -5.554  -5.444  1.00  0.00    -0.744 OA
ENDBRANCH  64  65
ENDBRANCH  43  57
BRANCH  44  69
ATOM     69  C   UNL     1      -8.653   8.427  -1.337  1.00  0.00     0.058 A 
ATOM     70  C   UNL     1      -8.908   9.041  -0.103  1.00  0.00     0.135 A 
ATOM     71  C   UNL     1      -8.027   9.192  -2.334  1.00  0.00     0.135 A 
ATOM     72  F   UNL     1      -9.511   8.352   0.877  1.00  0.00    -0.206 F 
ATOM     73  C   UNL     1      -8.548  10.364   0.138  1.00  0.00     0.059 A 
ATOM     74  C   UNL     1      -7.636  10.508  -2.109  1.00  0.00     0.059 A 
ATOM     75  F   UNL     1      -7.748   8.643  -3.527  1.00  0.00    -0.206 F 
ATOM     76  C   UNL     1      -7.906  11.086  -0.869  1.00  0.00     0.060 A 
BRANCH  76  77
ATOM     77  S   UNL     1      -7.362  12.774  -0.522  1.00  0.00     0.124 S 
ATOM     78  O   UNL     1      -8.608  13.517  -0.664  1.00  0.00    -0.237 OA
ATOM     79  O   UNL     1      -6.837  12.659   0.835  1.00  0.00    -0.237 OA
ATOM     80  O   UNL     1      -6.357  13.018  -1.554  1.00  0.00    -0.744 OA
ENDBRANCH  76  77
ENDBRANCH  44  69
BRANCH  56  81
ATOM     81  C   UNL     1     -14.570   4.882  -2.394  1.00  0.00     0.058 A 
ATOM     82  C   UNL     1     -15.137   5.505  -3.514  1.00  0.00     0.135 A 
ATOM     83  C   UNL     1     -15.408   4.571  -1.312  1.00  0.00     0.135 A 
ATOM     84  F   UNL     1     -14.370   5.829  -4.568  1.00  0.00    -0.206 F 
ATOM     85  C   UNL     1     -16.493   5.807  -3.563  1.00  0.00     0.059 A 
ATOM     86  C   UNL     1     -16.770   4.850  -1.346  1.00  0.00     0.059 A 
ATOM     87  F   UNL     1     -14.908   3.971  -0.220  1.00  0.00    -0.206 F 
ATOM     88  C   UNL     1     -17.302   5.470  -2.475  1.00  0.00     0.060 A 
BRANCH  88  89
ATOM     89  S   UNL     1     -19.074   5.805  -2.575  1.00  0.00     0.124 S 
ATOM     90  O   UNL     1     -19.116   7.240  -2.318  1.00  0.00    -0.237 OA
ATOM     91  O   UNL     1     -19.396   5.394  -3.938  1.00  0.00    -0.237 OA
ATOM     92  O   UNL     1     -19.636   4.961  -1.524  1.00  0.00    -0.744 OA
ENDBRANCH  88  89
ENDBRANCH  56  81
ENDBRANCH  30  31
ENDBRANCH  23  25
ENDBRANCH  22  23
ENDBRANCH  21  22
ENDBRANCH   1  21
TORSDOF 17
