REMARK SMILES COc1ccc(OCCNc2c(Cl)cccc2C(=O)OCCOC(=O)c2ccc(-c3c4nc(c(-c5c(F)cc(S(=O)(=O)[O-])cc5F)c5ccc([nH]5)c(-c5c(F)cc(S(=O)(=O)[O-])cc5F)c5nc(c(-c6c(F)cc(S(=O)(=O)[O-])cc6F)c6ccc3[nH]6)C=C5)C=C4)cc2)cc1
REMARK SMILES IDX 20 1 18 2 19 3 17 4 11 5 12 6 13 7 14 8 16 9 15 10 10 11
REMARK SMILES IDX 9 13 8 14 7 15 6 16 3 17 4 18 93 19 5 20 92 21 2 22 1 23
REMARK SMILES IDX 21 24 22 25 23 26 24 27 25 28 26 29 27 30 91 31 28 32 90 33
REMARK SMILES IDX 29 34 30 35 31 36 84 37 32 38 89 39 83 40 85 41 33 42 88 43
REMARK SMILES IDX 82 44 81 45 34 47 68 48 47 49 67 50 48 51 51 52 66 53 86 54
REMARK SMILES IDX 49 55 50 56 65 58 87 59 52 60 35 61 36 62 45 63 37 64 38 65
REMARK SMILES IDX 44 66 46 67 39 68 40 69 41 70 42 71 43 72 69 73 70 74 79 75
REMARK SMILES IDX 71 76 72 77 78 78 80 79 73 80 74 81 75 82 76 83 77 84 53 85
REMARK SMILES IDX 54 86 63 87 55 88 56 89 62 90 64 91 57 92 58 93 59 94 60 95
REMARK SMILES IDX 61 96
REMARK H PARENT 10 12 85 46 51 57
REMARK Flexibility Score: inf
ROOT
ATOM      1  O   UNL     1       4.088  -6.670   1.160  1.00  0.00    -0.458 OA
ENDROOT
BRANCH   1   2
ATOM      2  C   UNL     1       5.333  -6.156   1.316  1.00  0.00     0.340 C 
ATOM      3  O   UNL     1       6.322  -6.759   1.689  1.00  0.00    -0.246 OA
BRANCH   2   4
ATOM      4  C   UNL     1       5.408  -4.722   0.968  1.00  0.00     0.084 A 
ATOM      5  C   UNL     1       4.933  -3.724   1.826  1.00  0.00     0.068 A 
ATOM      6  C   UNL     1       5.396  -2.403   1.562  1.00  0.00     0.065 A 
ATOM      7  Cl  UNL     1       5.087  -1.096   2.658  1.00  0.00    -0.082 Cl
ATOM      8  C   UNL     1       6.184  -2.080   0.453  1.00  0.00     0.023 A 
ATOM      9  C   UNL     1       6.186  -4.383  -0.157  1.00  0.00     0.018 A 
ATOM     10  C   UNL     1       6.547  -3.070  -0.436  1.00  0.00     0.003 A 
BRANCH   5  11
ATOM     11  N   UNL     1       3.900  -3.888   2.739  1.00  0.00    -0.380 N 
ATOM     12  H   UNL     1       3.238  -3.160   2.758  1.00  0.00     0.160 HD
BRANCH  11  13
ATOM     13  C   UNL     1       3.651  -4.978   3.671  1.00  0.00     0.154 C 
BRANCH  13  14
ATOM     14  C   UNL     1       2.993  -4.439   4.965  1.00  0.00     0.250 C 
BRANCH  14  15
ATOM     15  O   UNL     1       1.577  -4.185   4.858  1.00  0.00    -0.492 OA
BRANCH  15  16
ATOM     16  C   UNL     1       1.149  -3.097   4.149  1.00  0.00     0.119 A 
ATOM     17  C   UNL     1       0.199  -1.171   2.341  1.00  0.00     0.119 A 
ATOM     18  C   UNL     1      -0.654  -2.161   2.822  1.00  0.00     0.050 A 
ATOM     19  C   UNL     1       1.480  -1.064   2.869  1.00  0.00     0.050 A 
ATOM     20  C   UNL     1      -0.174  -3.132   3.711  1.00  0.00     0.050 A 
ATOM     21  C   UNL     1       1.931  -1.999   3.808  1.00  0.00     0.050 A 
BRANCH  17  22
ATOM     22  O   UNL     1      -0.305  -0.297   1.417  1.00  0.00    -0.497 OA
ATOM     23  C   UNL     1       0.543  -0.122   0.279  1.00  0.00     0.278 C 
ENDBRANCH  17  22
ENDBRANCH  15  16
ENDBRANCH  14  15
ENDBRANCH  13  14
ENDBRANCH  11  13
ENDBRANCH   5  11
ENDBRANCH   2   4
ENDBRANCH   1   2
BRANCH   1  24
ATOM     24  C   UNL     1       3.927  -8.040   1.593  1.00  0.00     0.275 C 
BRANCH  24  25
ATOM     25  C   UNL     1       3.517  -8.945   0.435  1.00  0.00     0.275 C 
BRANCH  25  26
ATOM     26  O   UNL     1       4.601  -9.045  -0.500  1.00  0.00    -0.458 OA
BRANCH  26  27
ATOM     27  C   UNL     1       4.484  -8.248  -1.581  1.00  0.00     0.338 C 
ATOM     28  O   UNL     1       3.525  -7.560  -1.904  1.00  0.00    -0.246 OA
BRANCH  27  29
ATOM     29  C   UNL     1       5.757  -8.208  -2.303  1.00  0.00     0.060 A 
ATOM     30  C   UNL     1       6.799  -7.486  -1.738  1.00  0.00     0.016 A 
ATOM     31  C   UNL     1       5.855  -8.682  -3.606  1.00  0.00     0.016 A 
ATOM     32  C   UNL     1       7.856  -7.061  -2.532  1.00  0.00     0.010 A 
ATOM     33  C   UNL     1       7.008  -8.400  -4.346  1.00  0.00     0.010 A 
ATOM     34  C   UNL     1       7.997  -7.533  -3.842  1.00  0.00    -0.014 A 
BRANCH  34  35
ATOM     35  C   UNL     1       9.148  -7.105  -4.689  1.00  0.00     0.031 A 
ATOM     36  C   UNL     1       8.901  -6.554  -6.073  1.00  0.00     0.074 A 
ATOM     37  C   UNL     1      10.414  -7.208  -4.230  1.00  0.00     0.049 A 
ATOM     38  N   UNL     1       9.742  -6.390  -7.061  1.00  0.00    -0.248 NA
ATOM     39  C   UNL     1       7.519  -6.159  -6.396  1.00  0.00     0.031 C 
ATOM     40  C   UNL     1      10.804  -7.662  -2.892  1.00  0.00     0.029 A 
ATOM     41  N   UNL     1      11.615  -6.939  -4.841  1.00  0.00    -0.354 N 
ATOM     42  C   UNL     1       8.982  -5.950  -8.141  1.00  0.00     0.074 A 
ATOM     43  C   UNL     1       7.612  -5.869  -7.687  1.00  0.00     0.031 C 
ATOM     44  C   UNL     1      12.136  -7.599  -2.768  1.00  0.00     0.029 A 
ATOM     45  C   UNL     1      12.707  -7.228  -4.054  1.00  0.00     0.049 A 
ATOM     46  H   UNL     1      11.688  -6.575  -5.753  1.00  0.00     0.167 HD
ATOM     47  C   UNL     1       9.397  -5.650  -9.396  1.00  0.00     0.037 A 
ATOM     48  C   UNL     1      14.021  -7.267  -4.346  1.00  0.00     0.037 A 
ATOM     49  C   UNL     1      10.778  -5.673  -9.807  1.00  0.00     0.049 A 
ATOM     50  C   UNL     1      14.454  -6.968  -5.752  1.00  0.00     0.074 A 
ATOM     51  C   UNL     1      11.313  -5.377 -11.049  1.00  0.00     0.029 A 
ATOM     52  N   UNL     1      11.845  -5.990  -8.978  1.00  0.00    -0.354 N 
ATOM     53  N   UNL     1      13.718  -6.636  -6.786  1.00  0.00    -0.248 NA
ATOM     54  C   UNL     1      15.890  -7.073  -6.038  1.00  0.00     0.031 C 
ATOM     55  C   UNL     1      12.699  -5.551 -10.980  1.00  0.00     0.029 A 
ATOM     56  C   UNL     1      13.034  -5.906  -9.683  1.00  0.00     0.049 A 
ATOM     57  H   UNL     1      11.768  -6.238  -8.029  1.00  0.00     0.167 HD
ATOM     58  C   UNL     1      14.604  -6.476  -7.844  1.00  0.00     0.074 A 
ATOM     59  C   UNL     1      15.931  -6.730  -7.318  1.00  0.00     0.031 C 
ATOM     60  C   UNL     1      14.344  -6.152  -9.134  1.00  0.00     0.037 A 
BRANCH  47  61
ATOM     61  C   UNL     1       8.352  -5.307 -10.426  1.00  0.00     0.058 A 
ATOM     62  C   UNL     1       7.644  -4.096 -10.403  1.00  0.00     0.135 A 
ATOM     63  C   UNL     1       8.088  -6.195 -11.483  1.00  0.00     0.135 A 
ATOM     64  F   UNL     1       7.841  -3.216  -9.408  1.00  0.00    -0.206 F 
ATOM     65  C   UNL     1       6.696  -3.787 -11.376  1.00  0.00     0.059 A 
ATOM     66  C   UNL     1       7.165  -5.896 -12.482  1.00  0.00     0.059 A 
ATOM     67  F   UNL     1       8.734  -7.370 -11.556  1.00  0.00    -0.206 F 
ATOM     68  C   UNL     1       6.465  -4.694 -12.413  1.00  0.00     0.060 A 
BRANCH  68  69
ATOM     69  S   UNL     1       5.241  -4.273 -13.673  1.00  0.00     0.124 S 
ATOM     70  O   UNL     1       3.993  -4.434 -12.932  1.00  0.00    -0.237 OA
ATOM     71  O   UNL     1       5.602  -2.901 -14.013  1.00  0.00    -0.237 OA
ATOM     72  O   UNL     1       5.479  -5.260 -14.722  1.00  0.00    -0.744 OA
ENDBRANCH  68  69
ENDBRANCH  47  61
BRANCH  48  73
ATOM     73  C   UNL     1      15.004  -7.668  -3.303  1.00  0.00     0.058 A 
ATOM     74  C   UNL     1      15.931  -6.749  -2.792  1.00  0.00     0.135 A 
ATOM     75  C   UNL     1      15.021  -8.972  -2.778  1.00  0.00     0.135 A 
ATOM     76  F   UNL     1      15.962  -5.494  -3.267  1.00  0.00    -0.206 F 
ATOM     77  C   UNL     1      16.846  -7.108  -1.807  1.00  0.00     0.059 A 
ATOM     78  C   UNL     1      15.903  -9.345  -1.769  1.00  0.00     0.059 A 
ATOM     79  F   UNL     1      14.145  -9.887  -3.220  1.00  0.00    -0.206 F 
ATOM     80  C   UNL     1      16.821  -8.408  -1.299  1.00  0.00     0.060 A 
BRANCH  80  81
ATOM     81  S   UNL     1      17.980  -8.851   0.012  1.00  0.00     0.124 S 
ATOM     82  O   UNL     1      19.232  -8.956  -0.728  1.00  0.00    -0.237 OA
ATOM     83  O   UNL     1      17.868  -7.714   0.920  1.00  0.00    -0.237 OA
ATOM     84  O   UNL     1      17.442 -10.108   0.525  1.00  0.00    -0.744 OA
ENDBRANCH  80  81
ENDBRANCH  48  73
BRANCH  60  85
ATOM     85  C   UNL     1      15.524  -6.008 -10.052  1.00  0.00     0.058 A 
ATOM     86  C   UNL     1      16.237  -7.123 -10.517  1.00  0.00     0.135 A 
ATOM     87  C   UNL     1      15.919  -4.738 -10.500  1.00  0.00     0.135 A 
ATOM     88  F   UNL     1      15.905  -8.358 -10.108  1.00  0.00    -0.206 F 
ATOM     89  C   UNL     1      17.319  -6.981 -11.379  1.00  0.00     0.059 A 
ATOM     90  C   UNL     1      16.979  -4.575 -11.384  1.00  0.00     0.059 A 
ATOM     91  F   UNL     1      15.262  -3.641 -10.089  1.00  0.00    -0.206 F 
ATOM     92  C   UNL     1      17.681  -5.702 -11.808  1.00  0.00     0.060 A 
BRANCH  92  93
ATOM     93  S   UNL     1      19.066  -5.534 -12.952  1.00  0.00     0.124 S 
ATOM     94  O   UNL     1      20.204  -5.780 -12.073  1.00  0.00    -0.237 OA
ATOM     95  O   UNL     1      18.787  -6.576 -13.936  1.00  0.00    -0.237 OA
ATOM     96  O   UNL     1      18.936  -4.166 -13.444  1.00  0.00    -0.744 OA
ENDBRANCH  92  93
ENDBRANCH  60  85
ENDBRANCH  34  35
ENDBRANCH  27  29
ENDBRANCH  26  27
ENDBRANCH  25  26
ENDBRANCH  24  25
ENDBRANCH   1  24
TORSDOF 20
