REMARK SMILES CCCC[C@@H](Sc1nc(OCCC2CCCCC2)cc(OCCC2CCCCC2)n1)C(=O)OCCOC(=O)c1ccc(-c2c3nc(c(-c4c(F)cc(S(=O)(=O)[O-])cc4F)c4ccc([nH]4)c(-c4c(F)cc(S(=O)(=O)[O-])cc4F)c4nc(c(-c5c(F)cc(S(=O)(=O)[O-])cc5F)c5ccc2[nH]5)C=C4)C=C3)cc1
REMARK SMILES IDX 33 1 31 2 32 3 5 4 4 5 3 6 2 7 1 8 6 9 7 10 8 11 30 12 9 13
REMARK SMILES IDX 20 14 19 15 10 16 11 17 12 18 13 19 14 20 18 21 15 22 17 23
REMARK SMILES IDX 16 24 21 25 22 26 23 27 24 28 25 29 29 30 26 31 28 32 27 33
REMARK SMILES IDX 34 34 35 35 36 36 37 37 38 38 39 39 40 40 104 41 41 42
REMARK SMILES IDX 103 43 42 44 43 45 44 46 97 47 45 48 102 49 96 50 98 51
REMARK SMILES IDX 46 52 101 53 95 54 94 55 47 57 81 58 60 59 80 60 61 61 64 62
REMARK SMILES IDX 79 63 99 64 62 65 63 66 78 68 100 69 65 70 48 71 49 72 58 73
REMARK SMILES IDX 50 74 51 75 57 76 59 77 52 78 53 79 54 80 55 81 56 82 82 83
REMARK SMILES IDX 83 84 92 85 84 86 85 87 91 88 93 89 86 90 87 91 88 92 89 93
REMARK SMILES IDX 90 94 66 95 67 96 76 97 68 98 69 99 75 100 77 101 70 102
REMARK SMILES IDX 71 103 72 104 73 105 74 106
REMARK H PARENT 98 56 64 67
REMARK Flexibility Score: inf
ROOT
ATOM      1  O   UNL     1      -1.141   5.134  -1.676  1.00  0.00    -0.461 OA
ENDROOT
BRANCH   1   2
ATOM      2  C   UNL     1      -1.891   4.292  -0.912  1.00  0.00     0.319 C 
ATOM      3  O   UNL     1      -3.067   4.021  -1.130  1.00  0.00    -0.251 OA
BRANCH   2   4
ATOM      4  C   UNL     1      -1.110   3.717   0.265  1.00  0.00     0.164 C 
BRANCH   4   5
ATOM      5  C   UNL     1       0.383   3.517  -0.079  1.00  0.00     0.027 C 
BRANCH   5   6
ATOM      6  C   UNL     1       1.164   2.510   0.775  1.00  0.00     0.001 C 
BRANCH   6   7
ATOM      7  C   UNL     1       0.753   1.041   0.609  1.00  0.00    -0.003 C 
ATOM      8  C   UNL     1       1.313   0.387  -0.644  1.00  0.00     0.004 C 
ENDBRANCH   6   7
ENDBRANCH   5   6
ENDBRANCH   4   5
BRANCH   4   9
ATOM      9  S   UNL     1      -1.407   4.840   1.705  1.00  0.00    -0.071 SA
BRANCH   9  10
ATOM     10  C   UNL     1      -1.574   3.654   3.018  1.00  0.00     0.195 A 
ATOM     11  N   UNL     1      -1.929   4.105   4.236  1.00  0.00    -0.187 NA
ATOM     12  N   UNL     1      -1.225   2.392   2.735  1.00  0.00    -0.187 NA
ATOM     13  C   UNL     1      -1.917   3.191   5.213  1.00  0.00     0.221 A 
ATOM     14  C   UNL     1      -1.194   1.515   3.733  1.00  0.00     0.221 A 
ATOM     15  C   UNL     1      -1.560   1.885   4.987  1.00  0.00     0.136 A 
BRANCH  13  16
ATOM     16  O   UNL     1      -2.390   3.593   6.448  1.00  0.00    -0.477 OA
BRANCH  16  17
ATOM     17  C   UNL     1      -1.505   3.369   7.558  1.00  0.00     0.231 C 
BRANCH  17  18
ATOM     18  C   UNL     1      -2.101   2.463   8.678  1.00  0.00     0.045 C 
BRANCH  18  19
ATOM     19  C   UNL     1      -2.399   1.042   8.182  1.00  0.00    -0.008 C 
ATOM     20  C   UNL     1      -2.187  -0.129   9.143  1.00  0.00     0.004 C 
ATOM     21  C   UNL     1      -3.801   0.928   7.566  1.00  0.00     0.004 C 
ATOM     22  C   UNL     1      -2.223  -1.429   8.314  1.00  0.00     0.000 C 
ATOM     23  C   UNL     1      -3.939  -0.349   6.744  1.00  0.00     0.000 C 
ATOM     24  C   UNL     1      -3.523  -1.595   7.521  1.00  0.00     0.000 C 
ENDBRANCH  18  19
ENDBRANCH  17  18
ENDBRANCH  16  17
ENDBRANCH  13  16
BRANCH  14  25
ATOM     25  O   UNL     1      -0.688   0.298   3.377  1.00  0.00    -0.477 OA
BRANCH  25  26
ATOM     26  C   UNL     1      -0.363  -0.689   4.357  1.00  0.00     0.231 C 
BRANCH  26  27
ATOM     27  C   UNL     1       1.149  -0.917   4.558  1.00  0.00     0.045 C 
BRANCH  27  28
ATOM     28  C   UNL     1       2.042   0.224   5.113  1.00  0.00    -0.008 C 
ATOM     29  C   UNL     1       2.244   1.348   4.090  1.00  0.00     0.004 C 
ATOM     30  C   UNL     1       1.598   0.714   6.499  1.00  0.00     0.004 C 
ATOM     31  C   UNL     1       2.959   2.578   4.629  1.00  0.00     0.000 C 
ATOM     32  C   UNL     1       2.334   1.970   6.968  1.00  0.00     0.000 C 
ATOM     33  C   UNL     1       2.308   3.068   5.913  1.00  0.00     0.000 C 
ENDBRANCH  27  28
ENDBRANCH  26  27
ENDBRANCH  25  26
ENDBRANCH  14  25
ENDBRANCH   9  10
ENDBRANCH   4   9
ENDBRANCH   2   4
ENDBRANCH   1   2
BRANCH   1  34
ATOM     34  C   UNL     1      -1.776   5.639  -2.864  1.00  0.00     0.274 C 
BRANCH  34  35
ATOM     35  C   UNL     1      -1.385   4.811  -4.088  1.00  0.00     0.275 C 
BRANCH  35  36
ATOM     36  O   UNL     1      -1.900   3.470  -3.996  1.00  0.00    -0.458 OA
BRANCH  36  37
ATOM     37  C   UNL     1      -0.992   2.514  -3.703  1.00  0.00     0.338 C 
ATOM     38  O   UNL     1       0.212   2.658  -3.546  1.00  0.00    -0.246 OA
BRANCH  37  39
ATOM     39  C   UNL     1      -1.667   1.221  -3.530  1.00  0.00     0.060 A 
ATOM     40  C   UNL     1      -1.899   0.743  -2.239  1.00  0.00     0.016 A 
ATOM     41  C   UNL     1      -1.963   0.433  -4.642  1.00  0.00     0.016 A 
ATOM     42  C   UNL     1      -2.403  -0.543  -2.049  1.00  0.00     0.010 A 
ATOM     43  C   UNL     1      -2.493  -0.847  -4.451  1.00  0.00     0.010 A 
ATOM     44  C   UNL     1      -2.699  -1.351  -3.154  1.00  0.00    -0.014 A 
BRANCH  44  45
ATOM     45  C   UNL     1      -3.194  -2.737  -2.963  1.00  0.00     0.031 A 
ATOM     46  C   UNL     1      -2.301  -3.904  -3.283  1.00  0.00     0.074 A 
ATOM     47  C   UNL     1      -4.448  -2.947  -2.520  1.00  0.00     0.049 A 
ATOM     48  N   UNL     1      -2.584  -5.181  -3.307  1.00  0.00    -0.248 NA
ATOM     49  C   UNL     1      -0.905  -3.591  -3.626  1.00  0.00     0.031 C 
ATOM     50  C   UNL     1      -5.397  -1.899  -2.143  1.00  0.00     0.029 A 
ATOM     51  N   UNL     1      -5.143  -4.114  -2.326  1.00  0.00    -0.354 N 
ATOM     52  C   UNL     1      -1.413  -5.823  -3.688  1.00  0.00     0.074 A 
ATOM     53  C   UNL     1      -0.417  -4.793  -3.900  1.00  0.00     0.031 C 
ATOM     54  C   UNL     1      -6.554  -2.470  -1.770  1.00  0.00     0.029 A 
ATOM     55  C   UNL     1      -6.444  -3.918  -1.926  1.00  0.00     0.049 A 
ATOM     56  H   UNL     1      -4.749  -5.006  -2.461  1.00  0.00     0.167 HD
ATOM     57  C   UNL     1      -1.189  -7.151  -3.845  1.00  0.00     0.037 A 
ATOM     58  C   UNL     1      -7.443  -4.801  -1.738  1.00  0.00     0.037 A 
ATOM     59  C   UNL     1      -2.180  -8.171  -3.618  1.00  0.00     0.049 A 
ATOM     60  C   UNL     1      -7.185  -6.266  -1.968  1.00  0.00     0.074 A 
ATOM     61  C   UNL     1      -2.045  -9.544  -3.734  1.00  0.00     0.029 A 
ATOM     62  N   UNL     1      -3.490  -7.931  -3.228  1.00  0.00    -0.354 N 
ATOM     63  N   UNL     1      -6.074  -6.859  -2.335  1.00  0.00    -0.248 NA
ATOM     64  C   UNL     1      -8.317  -7.180  -1.765  1.00  0.00     0.031 C 
ATOM     65  C   UNL     1      -3.283 -10.132  -3.447  1.00  0.00     0.029 A 
ATOM     66  C   UNL     1      -4.178  -9.128  -3.115  1.00  0.00     0.049 A 
ATOM     67  H   UNL     1      -3.874  -7.041  -3.057  1.00  0.00     0.167 HD
ATOM     68  C   UNL     1      -6.369  -8.217  -2.390  1.00  0.00     0.074 A 
ATOM     69  C   UNL     1      -7.759  -8.358  -2.007  1.00  0.00     0.031 C 
ATOM     70  C   UNL     1      -5.561  -9.252  -2.728  1.00  0.00     0.037 A 
BRANCH  57  71
ATOM     71  C   UNL     1       0.177  -7.575  -4.306  1.00  0.00     0.058 A 
ATOM     72  C   UNL     1       1.288  -7.542  -3.450  1.00  0.00     0.135 A 
ATOM     73  C   UNL     1       0.370  -8.053  -5.613  1.00  0.00     0.135 A 
ATOM     74  F   UNL     1       1.162  -7.081  -2.195  1.00  0.00    -0.206 F 
ATOM     75  C   UNL     1       2.549  -7.944  -3.880  1.00  0.00     0.059 A 
ATOM     76  C   UNL     1       1.617  -8.480  -6.058  1.00  0.00     0.059 A 
ATOM     77  F   UNL     1      -0.660  -8.105  -6.472  1.00  0.00    -0.206 F 
ATOM     78  C   UNL     1       2.704  -8.409  -5.188  1.00  0.00     0.060 A 
BRANCH  78  79
ATOM     79  S   UNL     1       4.346  -8.927  -5.733  1.00  0.00     0.124 S 
ATOM     80  O   UNL     1       5.009  -7.640  -5.921  1.00  0.00    -0.237 OA
ATOM     81  O   UNL     1       4.817  -9.722  -4.604  1.00  0.00    -0.237 OA
ATOM     82  O   UNL     1       4.076  -9.678  -6.955  1.00  0.00    -0.744 OA
ENDBRANCH  78  79
ENDBRANCH  57  71
BRANCH  58  83
ATOM     83  C   UNL     1      -8.788  -4.321  -1.329  1.00  0.00     0.058 A 
ATOM     84  C   UNL     1      -9.277  -4.560  -0.037  1.00  0.00     0.135 A 
ATOM     85  C   UNL     1      -9.605  -3.605  -2.217  1.00  0.00     0.135 A 
ATOM     86  F   UNL     1      -8.536  -5.250   0.844  1.00  0.00    -0.206 F 
ATOM     87  C   UNL     1     -10.535  -4.116   0.358  1.00  0.00     0.059 A 
ATOM     88  C   UNL     1     -10.856  -3.131  -1.839  1.00  0.00     0.059 A 
ATOM     89  F   UNL     1      -9.176  -3.342  -3.462  1.00  0.00    -0.206 F 
ATOM     90  C   UNL     1     -11.317  -3.400  -0.550  1.00  0.00     0.060 A 
BRANCH  90  91
ATOM     91  S   UNL     1     -12.928  -2.786  -0.015  1.00  0.00     0.124 S 
ATOM     92  O   UNL     1     -13.734  -4.000  -0.057  1.00  0.00    -0.237 OA
ATOM     93  O   UNL     1     -12.633  -2.262   1.315  1.00  0.00    -0.237 OA
ATOM     94  O   UNL     1     -13.252  -1.777  -1.019  1.00  0.00    -0.744 OA
ENDBRANCH  90  91
ENDBRANCH  58  83
BRANCH  70  95
ATOM     95  C   UNL     1      -6.153 -10.632  -2.672  1.00  0.00     0.058 A 
ATOM     96  C   UNL     1      -7.038 -11.093  -3.659  1.00  0.00     0.135 A 
ATOM     97  C   UNL     1      -5.795 -11.518  -1.644  1.00  0.00     0.135 A 
ATOM     98  F   UNL     1      -7.418 -10.281  -4.658  1.00  0.00    -0.206 F 
ATOM     99  C   UNL     1      -7.565 -12.380  -3.617  1.00  0.00     0.059 A 
ATOM    100  C   UNL     1      -6.292 -12.817  -1.594  1.00  0.00     0.059 A 
ATOM    101  F   UNL     1      -4.944 -11.129  -0.681  1.00  0.00    -0.206 F 
ATOM    102  C   UNL     1      -7.186 -13.235  -2.580  1.00  0.00     0.060 A 
BRANCH 102 103
ATOM    103  S   UNL     1      -7.849 -14.914  -2.551  1.00  0.00     0.124 S 
ATOM    104  O   UNL     1      -9.202 -14.687  -2.055  1.00  0.00    -0.237 OA
ATOM    105  O   UNL     1      -7.747 -15.318  -3.950  1.00  0.00    -0.237 OA
ATOM    106  O   UNL     1      -6.953 -15.616  -1.637  1.00  0.00    -0.744 OA
ENDBRANCH 102 103
ENDBRANCH  70  95
ENDBRANCH  44  45
ENDBRANCH  37  39
ENDBRANCH  36  37
ENDBRANCH  35  36
ENDBRANCH  34  35
ENDBRANCH   1  34
TORSDOF 27
