REMARK SMILES Cc1ccc(O[C@H](C)C(=O)NNC(=O)[C@@H]2[C@@H](C(=O)OCCOC(=O)c3ccc(-c4c5nc(c(-c6c(F)cc(S(=O)(=O)[O-])cc6F)c6ccc([nH]6)c(-c6c(F)cc(S(=O)(=O)[O-])cc6F)c6nc(c(-c7c(F)cc(S(=O)(=O)[O-])cc7F)c7ccc4[nH]7)C=C6)C=C5)cc3)[C@@H]3C=C[C@H]2C3)cc1C
REMARK SMILES IDX 20 1 19 2 17 3 18 4 16 5 15 6 94 7 91 8 93 9 95 10 92 11
REMARK SMILES IDX 13 12 12 13 14 15 11 16 9 17 10 18 7 20 8 21 6 22 5 23 1 24
REMARK SMILES IDX 2 25 3 26 97 27 4 28 96 29 98 30 21 31 22 32 23 33 24 34
REMARK SMILES IDX 25 35 26 36 90 37 27 38 89 39 28 40 29 41 30 42 83 43 31 44
REMARK SMILES IDX 88 45 82 46 84 47 32 48 87 49 81 50 80 51 33 53 67 54 46 55
REMARK SMILES IDX 66 56 47 57 50 58 65 59 85 60 48 61 49 62 64 64 86 65 51 66
REMARK SMILES IDX 34 67 35 68 44 69 36 70 37 71 43 72 45 73 38 74 39 75 40 76
REMARK SMILES IDX 41 77 42 78 68 79 69 80 78 81 70 82 71 83 77 84 79 85 72 86
REMARK SMILES IDX 73 87 74 88 75 89 76 90 52 91 53 92 62 93 54 94 55 95 61 96
REMARK SMILES IDX 63 97 56 98 57 99 58 100 59 101 60 102
REMARK H PARENT 12 14 11 19 84 52 50 63
REMARK Flexibility Score: inf
ROOT
ATOM      1  C   UNL     1       1.605   5.726  -1.444  1.00  0.00     0.274 C 
ENDROOT
BRANCH   1   2
ATOM      2  O   UNL     1       0.411   4.926  -1.321  1.00  0.00    -0.462 OA
BRANCH   2   3
ATOM      3  C   UNL     1      -0.754   5.622  -1.254  1.00  0.00     0.310 C 
ATOM      4  O   UNL     1      -0.832   6.842  -1.345  1.00  0.00    -0.252 OA
BRANCH   3   5
ATOM      5  C   UNL     1      -1.951   4.749  -0.944  1.00  0.00     0.119 C 
ATOM      6  C   UNL     1      -1.909   3.272  -1.496  1.00  0.00     0.102 C 
ATOM      7  C   UNL     1      -3.226   3.200  -2.314  1.00  0.00     0.025 C 
ATOM      8  C   UNL     1      -3.222   5.323  -1.625  1.00  0.00     0.027 C 
ATOM      9  C   UNL     1      -4.420   3.374  -1.409  1.00  0.00    -0.027 C 
ATOM     10  C   UNL     1      -3.224   4.583  -2.962  1.00  0.00     0.017 C 
ATOM     11  C   UNL     1      -4.419   4.649  -0.995  1.00  0.00    -0.027 C 
BRANCH   6  12
ATOM     12  C   UNL     1      -1.719   2.294  -0.336  1.00  0.00     0.242 C 
ATOM     13  N   UNL     1      -2.074   0.977  -0.437  1.00  0.00    -0.267 N 
ATOM     14  H   UNL     1      -1.817   0.385   0.307  1.00  0.00     0.191 HD
ATOM     15  O   UNL     1      -1.134   2.640   0.697  1.00  0.00    -0.273 OA
BRANCH  13  16
ATOM     16  N   UNL     1      -2.760   0.402  -1.489  1.00  0.00    -0.264 N 
ATOM     17  C   UNL     1      -3.781  -0.506  -1.339  1.00  0.00     0.279 C 
ATOM     18  O   UNL     1      -4.480  -0.784  -2.317  1.00  0.00    -0.269 OA
ATOM     19  H   UNL     1      -2.501   0.658  -2.404  1.00  0.00     0.191 HD
BRANCH  17  20
ATOM     20  C   UNL     1      -3.933  -1.276  -0.012  1.00  0.00     0.260 C 
ATOM     21  C   UNL     1      -2.721  -2.212   0.105  1.00  0.00     0.064 C 
BRANCH  20  22
ATOM     22  O   UNL     1      -4.046  -0.407   1.114  1.00  0.00    -0.481 OA
BRANCH  22  23
ATOM     23  C   UNL     1      -4.412  -0.944   2.321  1.00  0.00     0.120 A 
ATOM     24  C   UNL     1      -5.235  -2.380   6.325  1.00  0.00     0.044 C 
ATOM     25  C   UNL     1      -4.974  -1.837   4.948  1.00  0.00    -0.048 A 
ATOM     26  C   UNL     1      -5.065  -2.704   3.851  1.00  0.00     0.007 A 
ATOM     27  C   UNL     1      -4.646  -0.488   4.720  1.00  0.00    -0.045 A 
ATOM     28  C   UNL     1      -4.803  -2.260   2.552  1.00  0.00     0.047 A 
ATOM     29  C   UNL     1      -4.364  -0.062   3.405  1.00  0.00     0.050 A 
ATOM     30  C   UNL     1      -4.605   0.541   5.817  1.00  0.00     0.045 C 
ENDBRANCH  22  23
ENDBRANCH  20  22
ENDBRANCH  17  20
ENDBRANCH  13  16
ENDBRANCH   6  12
ENDBRANCH   3   5
ENDBRANCH   2   3
ENDBRANCH   1   2
BRANCH   1  31
ATOM     31  C   UNL     1       2.097   5.792  -2.888  1.00  0.00     0.275 C 
BRANCH  31  32
ATOM     32  O   UNL     1       1.138   6.463  -3.724  1.00  0.00    -0.458 OA
BRANCH  32  33
ATOM     33  C   UNL     1       0.504   5.675  -4.622  1.00  0.00     0.338 C 
ATOM     34  O   UNL     1       0.664   4.479  -4.800  1.00  0.00    -0.246 OA
BRANCH  33  35
ATOM     35  C   UNL     1      -0.467   6.465  -5.395  1.00  0.00     0.060 A 
ATOM     36  C   UNL     1      -1.583   7.005  -4.757  1.00  0.00     0.016 A 
ATOM     37  C   UNL     1      -0.356   6.517  -6.784  1.00  0.00     0.016 A 
ATOM     38  C   UNL     1      -2.648   7.489  -5.516  1.00  0.00     0.010 A 
ATOM     39  C   UNL     1      -1.379   7.103  -7.535  1.00  0.00     0.010 A 
ATOM     40  C   UNL     1      -2.557   7.555  -6.915  1.00  0.00    -0.014 A 
BRANCH  40  41
ATOM     41  C   UNL     1      -3.692   8.062  -7.737  1.00  0.00     0.031 A 
ATOM     42  C   UNL     1      -4.306   7.188  -8.802  1.00  0.00     0.074 A 
ATOM     43  C   UNL     1      -4.170   9.308  -7.548  1.00  0.00     0.049 A 
ATOM     44  N   UNL     1      -5.125   7.513  -9.769  1.00  0.00    -0.248 NA
ATOM     45  C   UNL     1      -3.936   5.763  -8.786  1.00  0.00     0.031 C 
ATOM     46  C   UNL     1      -3.706  10.251  -6.528  1.00  0.00     0.029 A 
ATOM     47  N   UNL     1      -5.151  10.000  -8.214  1.00  0.00    -0.354 N 
ATOM     48  C   UNL     1      -5.317   6.354 -10.514  1.00  0.00     0.074 A 
ATOM     49  C   UNL     1      -4.537   5.313  -9.879  1.00  0.00     0.031 C 
ATOM     50  C   UNL     1      -4.418  11.384  -6.618  1.00  0.00     0.029 A 
ATOM     51  C   UNL     1      -5.327  11.283  -7.755  1.00  0.00     0.049 A 
ATOM     52  H   UNL     1      -5.678   9.614  -8.950  1.00  0.00     0.167 HD
ATOM     53  C   UNL     1      -6.069   6.179 -11.628  1.00  0.00     0.037 A 
ATOM     54  C   UNL     1      -6.093  12.288  -8.221  1.00  0.00     0.037 A 
ATOM     55  C   UNL     1      -6.893   7.202 -12.218  1.00  0.00     0.049 A 
ATOM     56  C   UNL     1      -6.918  12.074  -9.456  1.00  0.00     0.074 A 
ATOM     57  C   UNL     1      -7.693   7.122 -13.345  1.00  0.00     0.029 A 
ATOM     58  N   UNL     1      -7.041   8.486 -11.715  1.00  0.00    -0.354 N 
ATOM     59  N   UNL     1      -7.024  10.998 -10.197  1.00  0.00    -0.248 NA
ATOM     60  C   UNL     1      -7.710  13.216  -9.932  1.00  0.00     0.031 C 
ATOM     61  C   UNL     1      -8.313   8.363 -13.532  1.00  0.00     0.029 A 
ATOM     62  C   UNL     1      -7.920   9.207 -12.506  1.00  0.00     0.049 A 
ATOM     63  H   UNL     1      -6.588   8.834 -10.913  1.00  0.00     0.167 HD
ATOM     64  C   UNL     1      -7.896  11.331 -11.225  1.00  0.00     0.074 A 
ATOM     65  C   UNL     1      -8.302  12.704 -11.002  1.00  0.00     0.031 C 
ATOM     66  C   UNL     1      -8.316  10.570 -12.265  1.00  0.00     0.037 A 
BRANCH  53  67
ATOM     67  C   UNL     1      -6.009   4.839 -12.305  1.00  0.00     0.058 A 
ATOM     68  C   UNL     1      -6.680   3.717 -11.797  1.00  0.00     0.135 A 
ATOM     69  C   UNL     1      -5.293   4.688 -13.504  1.00  0.00     0.135 A 
ATOM     70  F   UNL     1      -7.365   3.805 -10.646  1.00  0.00    -0.206 F 
ATOM     71  C   UNL     1      -6.625   2.484 -12.441  1.00  0.00     0.059 A 
ATOM     72  C   UNL     1      -5.240   3.470 -14.176  1.00  0.00     0.059 A 
ATOM     73  F   UNL     1      -4.633   5.730 -14.034  1.00  0.00    -0.206 F 
ATOM     74  C   UNL     1      -5.897   2.369 -13.628  1.00  0.00     0.060 A 
BRANCH  74  75
ATOM     75  S   UNL     1      -5.828   0.766 -14.457  1.00  0.00     0.124 S 
ATOM     76  O   UNL     1      -4.831   0.067 -13.652  1.00  0.00    -0.237 OA
ATOM     77  O   UNL     1      -7.198   0.282 -14.328  1.00  0.00    -0.237 OA
ATOM     78  O   UNL     1      -5.413   1.106 -15.815  1.00  0.00    -0.744 OA
ENDBRANCH  74  75
ENDBRANCH  53  67
BRANCH  54  79
ATOM     79  C   UNL     1      -6.072  13.604  -7.532  1.00  0.00     0.058 A 
ATOM     80  C   UNL     1      -7.157  14.026  -6.753  1.00  0.00     0.135 A 
ATOM     81  C   UNL     1      -4.948  14.441  -7.603  1.00  0.00     0.135 A 
ATOM     82  F   UNL     1      -8.257  13.262  -6.665  1.00  0.00    -0.206 F 
ATOM     83  C   UNL     1      -7.131  15.234  -6.064  1.00  0.00     0.059 A 
ATOM     84  C   UNL     1      -4.888  15.642  -6.905  1.00  0.00     0.059 A 
ATOM     85  F   UNL     1      -3.878  14.072  -8.325  1.00  0.00    -0.206 F 
ATOM     86  C   UNL     1      -5.988  16.033  -6.142  1.00  0.00     0.060 A 
BRANCH  86  87
ATOM     87  S   UNL     1      -5.922  17.562  -5.182  1.00  0.00     0.124 S 
ATOM     88  O   UNL     1      -6.676  18.474  -6.034  1.00  0.00    -0.237 OA
ATOM     89  O   UNL     1      -6.567  17.175  -3.932  1.00  0.00    -0.237 OA
ATOM     90  O   UNL     1      -4.490  17.827  -5.081  1.00  0.00    -0.744 OA
ENDBRANCH  86  87
ENDBRANCH  54  79
BRANCH  66  91
ATOM     91  C   UNL     1      -9.283  11.198 -13.225  1.00  0.00     0.058 A 
ATOM     92  C   UNL     1      -8.853  12.094 -14.214  1.00  0.00     0.135 A 
ATOM     93  C   UNL     1     -10.646  10.868 -13.179  1.00  0.00     0.135 A 
ATOM     94  F   UNL     1      -7.559  12.445 -14.291  1.00  0.00    -0.206 F 
ATOM     95  C   UNL     1      -9.746  12.655 -15.121  1.00  0.00     0.059 A 
ATOM     96  C   UNL     1     -11.555  11.405 -14.085  1.00  0.00     0.059 A 
ATOM     97  F   UNL     1     -11.104  10.011 -12.253  1.00  0.00    -0.206 F 
ATOM     98  C   UNL     1     -11.096  12.306 -15.047  1.00  0.00     0.060 A 
BRANCH  98  99
ATOM     99  S   UNL     1     -12.245  13.012 -16.247  1.00  0.00     0.124 S 
ATOM    100  O   UNL     1     -12.467  14.343 -15.692  1.00  0.00    -0.237 OA
ATOM    101  O   UNL     1     -11.479  12.962 -17.488  1.00  0.00    -0.237 OA
ATOM    102  O   UNL     1     -13.390  12.108 -16.190  1.00  0.00    -0.744 OA
ENDBRANCH  98  99
ENDBRANCH  66  91
ENDBRANCH  40  41
ENDBRANCH  33  35
ENDBRANCH  32  33
ENDBRANCH  31  32
ENDBRANCH   1  31
TORSDOF 19
