REMARK SMILES O=C(/C=C/c1ccc(O)cc1)NC[C@@H]1CC[C@H](C(=O)OCCOC(=O)c2ccc(-c3c4nc(c(-c5c(F)cc(S(=O)(=O)[O-])cc5F)c5ccc([nH]5)c(-c5c(F)cc(S(=O)(=O)[O-])cc5F)c5nc(c(-c6c(F)cc(S(=O)(=O)[O-])cc6F)c6ccc3[nH]6)C=C5)C=C4)cc2)O1
REMARK SMILES IDX 21 1 20 2 18 3 19 4 17 5 14 6 15 7 92 8 16 9 13 10 12 11
REMARK SMILES IDX 1 12 2 13 3 15 4 16 5 17 6 18 11 19 7 20 10 21 8 22 9 23
REMARK SMILES IDX 22 25 23 26 24 27 25 28 26 29 27 30 91 31 28 32 90 33 29 34
REMARK SMILES IDX 30 35 31 36 84 37 32 38 89 39 83 40 85 41 33 42 88 43 82 44
REMARK SMILES IDX 81 45 34 47 68 48 47 49 67 50 48 51 51 52 66 53 86 54 49 55
REMARK SMILES IDX 50 56 65 58 87 59 52 60 35 61 36 62 45 63 37 64 38 65 44 66
REMARK SMILES IDX 46 67 39 68 40 69 41 70 42 71 43 72 69 73 70 74 79 75 71 76
REMARK SMILES IDX 72 77 78 78 80 79 73 80 74 81 75 82 76 83 77 84 53 85 54 86
REMARK SMILES IDX 63 87 55 88 56 89 62 90 64 91 57 92 58 93 59 94 60 95 61 96
REMARK H PARENT 12 14 9 24 85 46 51 57
REMARK Flexibility Score: inf
ROOT
ATOM      1  C   UNL     1      -1.181   5.298  -3.616  1.00  0.00     0.274 C 
ENDROOT
BRANCH   1   2
ATOM      2  O   UNL     1       0.069   4.827  -3.081  1.00  0.00    -0.460 OA
BRANCH   2   3
ATOM      3  C   UNL     1       1.059   4.600  -3.986  1.00  0.00     0.335 C 
ATOM      4  O   UNL     1       0.914   4.678  -5.202  1.00  0.00    -0.249 OA
BRANCH   3   5
ATOM      5  C   UNL     1       2.395   4.227  -3.333  1.00  0.00     0.228 C 
ATOM      6  C   UNL     1       2.948   2.264  -2.215  1.00  0.00     0.138 C 
ATOM      7  C   UNL     1       2.330   3.206  -1.197  1.00  0.00     0.037 C 
ATOM      8  O   UNL     1       2.647   2.823  -3.500  1.00  0.00    -0.361 OA
ATOM      9  C   UNL     1       2.550   4.546  -1.853  1.00  0.00     0.047 C 
BRANCH   6  10
ATOM     10  C   UNL     1       2.434   0.828  -2.156  1.00  0.00     0.148 C 
BRANCH  10  11
ATOM     11  N   UNL     1       2.998   0.095  -1.042  1.00  0.00    -0.350 N 
ATOM     12  O   UNL     1       1.209   0.376   0.372  1.00  0.00    -0.270 OA
ATOM     13  C   UNL     1       2.345  -0.023   0.154  1.00  0.00     0.244 C 
ATOM     14  H   UNL     1       3.878  -0.333  -1.149  1.00  0.00     0.163 HD
BRANCH  13  15
ATOM     15  C   UNL     1       3.095  -0.736   1.214  1.00  0.00     0.072 C 
ATOM     16  C   UNL     1       4.428  -0.673   1.351  1.00  0.00     0.014 C 
BRANCH  16  17
ATOM     17  C   UNL     1       5.147  -1.318   2.456  1.00  0.00    -0.025 A 
ATOM     18  C   UNL     1       4.816  -2.602   2.910  1.00  0.00     0.012 A 
ATOM     19  C   UNL     1       6.221  -0.642   3.049  1.00  0.00     0.012 A 
ATOM     20  C   UNL     1       5.522  -3.187   3.964  1.00  0.00     0.047 A 
ATOM     21  C   UNL     1       6.928  -1.225   4.103  1.00  0.00     0.047 A 
ATOM     22  C   UNL     1       6.569  -2.488   4.556  1.00  0.00     0.115 A 
BRANCH  22  23
ATOM     23  O   UNL     1       7.276  -3.016   5.596  1.00  0.00    -0.508 OA
ATOM     24  H   UNL     1       7.060  -3.866   5.926  1.00  0.00     0.293 HD
ENDBRANCH  22  23
ENDBRANCH  16  17
ENDBRANCH  13  15
ENDBRANCH  10  11
ENDBRANCH   6  10
ENDBRANCH   3   5
ENDBRANCH   2   3
ENDBRANCH   1   2
BRANCH   1  25
ATOM     25  C   UNL     1      -1.313   6.818  -3.477  1.00  0.00     0.275 C 
BRANCH  25  26
ATOM     26  O   UNL     1      -0.404   7.526  -4.339  1.00  0.00    -0.458 OA
BRANCH  26  27
ATOM     27  C   UNL     1       0.805   7.801  -3.795  1.00  0.00     0.338 C 
ATOM     28  O   UNL     1       1.188   7.528  -2.671  1.00  0.00    -0.246 OA
BRANCH  27  29
ATOM     29  C   UNL     1       1.694   8.383  -4.809  1.00  0.00     0.060 A 
ATOM     30  C   UNL     1       2.827   7.656  -5.181  1.00  0.00     0.016 A 
ATOM     31  C   UNL     1       1.479   9.669  -5.303  1.00  0.00     0.016 A 
ATOM     32  C   UNL     1       3.771   8.216  -6.033  1.00  0.00     0.010 A 
ATOM     33  C   UNL     1       2.423  10.228  -6.169  1.00  0.00     0.010 A 
ATOM     34  C   UNL     1       3.580   9.511  -6.524  1.00  0.00    -0.014 A 
BRANCH  34  35
ATOM     35  C   UNL     1       4.622  10.139  -7.367  1.00  0.00     0.031 A 
ATOM     36  C   UNL     1       5.478  11.229  -6.796  1.00  0.00     0.074 A 
ATOM     37  C   UNL     1       4.790   9.730  -8.636  1.00  0.00     0.049 A 
ATOM     38  N   UNL     1       6.340  12.004  -7.399  1.00  0.00    -0.248 NA
ATOM     39  C   UNL     1       5.340  11.484  -5.353  1.00  0.00     0.031 C 
ATOM     40  C   UNL     1       4.048   8.644  -9.277  1.00  0.00     0.029 A 
ATOM     41  N   UNL     1       5.627  10.194  -9.619  1.00  0.00    -0.354 N 
ATOM     42  C   UNL     1       6.821  12.865  -6.421  1.00  0.00     0.074 A 
ATOM     43  C   UNL     1       6.153  12.517  -5.184  1.00  0.00     0.031 C 
ATOM     44  C   UNL     1       4.449   8.537 -10.554  1.00  0.00     0.029 A 
ATOM     45  C   UNL     1       5.436   9.578 -10.831  1.00  0.00     0.049 A 
ATOM     46  H   UNL     1       6.298  10.898  -9.469  1.00  0.00     0.167 HD
ATOM     47  C   UNL     1       7.731  13.860  -6.549  1.00  0.00     0.037 A 
ATOM     48  C   UNL     1       5.963   9.852 -12.040  1.00  0.00     0.037 A 
ATOM     49  C   UNL     1       8.398  14.184  -7.782  1.00  0.00     0.049 A 
ATOM     50  C   UNL     1       6.946  10.979 -12.171  1.00  0.00     0.074 A 
ATOM     51  C   UNL     1       9.347  15.162  -8.020  1.00  0.00     0.029 A 
ATOM     52  N   UNL     1       8.182  13.534  -8.990  1.00  0.00    -0.354 N 
ATOM     53  N   UNL     1       7.385  11.797 -11.244  1.00  0.00    -0.248 NA
ATOM     54  C   UNL     1       7.504  11.226 -13.507  1.00  0.00     0.031 C 
ATOM     55  C   UNL     1       9.681  15.125  -9.379  1.00  0.00     0.029 A 
ATOM     56  C   UNL     1       8.967  14.100  -9.981  1.00  0.00     0.049 A 
ATOM     57  H   UNL     1       7.561  12.782  -9.123  1.00  0.00     0.167 HD
ATOM     58  C   UNL     1       8.279  12.649 -11.880  1.00  0.00     0.074 A 
ATOM     59  C   UNL     1       8.325  12.242 -13.271  1.00  0.00     0.031 C 
ATOM     60  C   UNL     1       8.998  13.674 -11.359  1.00  0.00     0.037 A 
BRANCH  47  61
ATOM     61  C   UNL     1       8.009  14.693  -5.330  1.00  0.00     0.058 A 
ATOM     62  C   UNL     1       8.752  14.200  -4.246  1.00  0.00     0.135 A 
ATOM     63  C   UNL     1       7.497  15.997  -5.235  1.00  0.00     0.135 A 
ATOM     64  F   UNL     1       9.249  12.953  -4.279  1.00  0.00    -0.206 F 
ATOM     65  C   UNL     1       8.939  14.954  -3.091  1.00  0.00     0.059 A 
ATOM     66  C   UNL     1       7.690  16.777  -4.099  1.00  0.00     0.059 A 
ATOM     67  F   UNL     1       6.779  16.516  -6.244  1.00  0.00    -0.206 F 
ATOM     68  C   UNL     1       8.392  16.236  -3.023  1.00  0.00     0.060 A 
BRANCH  68  69
ATOM     69  S   UNL     1       8.594  17.189  -1.502  1.00  0.00     0.124 S 
ATOM     70  O   UNL     1       7.579  16.583  -0.645  1.00  0.00    -0.237 OA
ATOM     71  O   UNL     1       9.979  16.912  -1.135  1.00  0.00    -0.237 OA
ATOM     72  O   UNL     1       8.323  18.560  -1.924  1.00  0.00    -0.744 OA
ENDBRANCH  68  69
ENDBRANCH  47  61
BRANCH  48  73
ATOM     73  C   UNL     1       5.531   9.049 -13.212  1.00  0.00     0.058 A 
ATOM     74  C   UNL     1       6.365   8.069 -13.765  1.00  0.00     0.135 A 
ATOM     75  C   UNL     1       4.239   9.190 -13.745  1.00  0.00     0.135 A 
ATOM     76  F   UNL     1       7.611   7.904 -13.294  1.00  0.00    -0.206 F 
ATOM     77  C   UNL     1       5.930   7.243 -14.797  1.00  0.00     0.059 A 
ATOM     78  C   UNL     1       3.775   8.364 -14.762  1.00  0.00     0.059 A 
ATOM     79  F   UNL     1       3.400  10.107 -13.238  1.00  0.00    -0.206 F 
ATOM     80  C   UNL     1       4.628   7.391 -15.281  1.00  0.00     0.060 A 
BRANCH  80  81
ATOM     81  S   UNL     1       4.035   6.244 -16.544  1.00  0.00     0.124 S 
ATOM     82  O   UNL     1       4.687   6.763 -17.741  1.00  0.00    -0.237 OA
ATOM     83  O   UNL     1       4.529   4.961 -16.054  1.00  0.00    -0.237 OA
ATOM     84  O   UNL     1       2.585   6.409 -16.492  1.00  0.00    -0.744 OA
ENDBRANCH  80  81
ENDBRANCH  48  73
BRANCH  60  85
ATOM     85  C   UNL     1       9.917  14.415 -12.287  1.00  0.00     0.058 A 
ATOM     86  C   UNL     1       9.432  15.374 -13.188  1.00  0.00     0.135 A 
ATOM     87  C   UNL     1      11.306  14.220 -12.214  1.00  0.00     0.135 A 
ATOM     88  F   UNL     1       8.112  15.590 -13.299  1.00  0.00    -0.206 F 
ATOM     89  C   UNL     1      10.293  16.114 -13.991  1.00  0.00     0.059 A 
ATOM     90  C   UNL     1      12.186  14.962 -12.995  1.00  0.00     0.059 A 
ATOM     91  F   UNL     1      11.818  13.318 -11.362  1.00  0.00    -0.206 F 
ATOM     92  C   UNL     1      11.670  15.904 -13.884  1.00  0.00     0.060 A 
BRANCH  92  93
ATOM     93  S   UNL     1      12.784  16.913 -14.884  1.00  0.00     0.124 S 
ATOM     94  O   UNL     1      12.658  16.280 -16.193  1.00  0.00    -0.237 OA
ATOM     95  O   UNL     1      12.197  18.244 -14.764  1.00  0.00    -0.237 OA
ATOM     96  O   UNL     1      14.076  16.745 -14.226  1.00  0.00    -0.744 OA
ENDBRANCH  92  93
ENDBRANCH  60  85
ENDBRANCH  34  35
ENDBRANCH  27  29
ENDBRANCH  26  27
ENDBRANCH  25  26
ENDBRANCH   1  25
TORSDOF 19
