REMARK SMILES C[C@@H](C(=O)OCCOC(=O)c1ccc(-c2c3nc(c(-c4c(F)cc(S(=O)(=O)[O-])cc4F)c4ccc([nH]4)c(-c4c(F)cc(S(=O)(=O)[O-])cc4F)c4nc(c(-c5c(F)cc(S(=O)(=O)[O-])cc5F)c5ccc2[nH]5)C=C4)C=C3)cc1)c1ccc(-c2ccc3[nH]ccc3c2)cc1
REMARK SMILES IDX 7 1 6 2 5 3 3 4 4 5 2 6 1 7 77 8 78 9 91 10 79 11 90 12
REMARK SMILES IDX 80 13 81 14 82 15 89 16 83 17 88 18 84 19 87 20 85 21 86 22
REMARK SMILES IDX 8 24 9 25 10 26 11 27 12 28 76 29 13 30 75 31 14 32 15 33
REMARK SMILES IDX 16 34 69 35 17 36 74 37 68 38 70 39 18 40 73 41 67 42 66 43
REMARK SMILES IDX 19 45 53 46 32 47 52 48 33 49 36 50 51 51 71 52 34 53 35 54
REMARK SMILES IDX 50 56 72 57 37 58 20 59 21 60 30 61 22 62 23 63 29 64 31 65
REMARK SMILES IDX 24 66 25 67 26 68 27 69 28 70 54 71 55 72 64 73 56 74 57 75
REMARK SMILES IDX 63 76 65 77 58 78 59 79 60 80 61 81 62 82 38 83 39 84 48 85
REMARK SMILES IDX 40 86 41 87 47 88 49 89 42 90 43 91 44 92 45 93 46 94
REMARK H PARENT 85 23 70 44 36 55
REMARK Flexibility Score: inf
ROOT
ATOM      1  C   UNL     1       2.308  -0.085   4.403  1.00  0.00     0.275 C 
ENDROOT
BRANCH   1   2
ATOM      2  C   UNL     1       2.775  -1.232   3.512  1.00  0.00     0.274 C 
BRANCH   2   3
ATOM      3  O   UNL     1       2.328  -1.021   2.158  1.00  0.00    -0.462 OA
BRANCH   3   4
ATOM      4  C   UNL     1       1.299  -1.800   1.720  1.00  0.00     0.313 C 
ATOM      5  O   UNL     1       0.793  -2.699   2.383  1.00  0.00    -0.252 OA
BRANCH   4   6
ATOM      6  C   UNL     1       0.885  -1.472   0.278  1.00  0.00     0.126 C 
ATOM      7  C   UNL     1       1.646  -0.278  -0.311  1.00  0.00     0.025 C 
BRANCH   6   8
ATOM      8  C   UNL     1      -0.630  -1.350   0.137  1.00  0.00    -0.034 A 
ATOM      9  C   UNL     1      -1.292  -0.119   0.117  1.00  0.00     0.005 A 
ATOM     10  C   UNL     1      -1.419  -2.506   0.066  1.00  0.00     0.005 A 
ATOM     11  C   UNL     1      -2.693  -0.052   0.046  1.00  0.00     0.009 A 
ATOM     12  C   UNL     1      -2.820  -2.430  -0.015  1.00  0.00     0.009 A 
ATOM     13  C   UNL     1      -3.505  -1.201  -0.010  1.00  0.00    -0.018 A 
BRANCH  13  14
ATOM     14  C   UNL     1      -4.999  -1.112   0.011  1.00  0.00    -0.018 A 
ATOM     15  C   UNL     1      -5.676   0.082  -0.311  1.00  0.00     0.011 A 
ATOM     16  C   UNL     1      -5.802  -2.207   0.400  1.00  0.00     0.019 A 
ATOM     17  C   UNL     1      -7.070   0.232  -0.211  1.00  0.00     0.027 A 
ATOM     18  C   UNL     1      -7.210  -2.105   0.465  1.00  0.00    -0.000 A 
ATOM     19  C   UNL     1      -7.808  -0.881   0.186  1.00  0.00     0.045 A 
ATOM     20  C   UNL     1      -8.254  -3.015   0.781  1.00  0.00     0.028 A 
ATOM     21  N   UNL     1      -9.160  -1.025   0.404  1.00  0.00    -0.361 N 
ATOM     22  C   UNL     1      -9.444  -2.328   0.715  1.00  0.00     0.083 A 
ATOM     23  H   UNL     1      -9.823  -0.300   0.344  1.00  0.00     0.166 HD
ENDBRANCH  13  14
ENDBRANCH   6   8
ENDBRANCH   4   6
ENDBRANCH   3   4
ENDBRANCH   2   3
ENDBRANCH   1   2
BRANCH   1  24
ATOM     24  O   UNL     1       0.877  -0.126   4.521  1.00  0.00    -0.458 OA
BRANCH  24  25
ATOM     25  C   UNL     1       0.208   0.932   4.008  1.00  0.00     0.338 C 
ATOM     26  O   UNL     1       0.682   1.941   3.515  1.00  0.00    -0.246 OA
BRANCH  25  27
ATOM     27  C   UNL     1      -1.240   0.695   4.131  1.00  0.00     0.060 A 
ATOM     28  C   UNL     1      -1.812  -0.419   3.523  1.00  0.00     0.016 A 
ATOM     29  C   UNL     1      -2.048   1.646   4.756  1.00  0.00     0.016 A 
ATOM     30  C   UNL     1      -3.199  -0.529   3.453  1.00  0.00     0.010 A 
ATOM     31  C   UNL     1      -3.439   1.481   4.758  1.00  0.00     0.010 A 
ATOM     32  C   UNL     1      -4.038   0.418   4.061  1.00  0.00    -0.014 A 
BRANCH  32  33
ATOM     33  C   UNL     1      -5.522   0.327   3.900  1.00  0.00     0.031 A 
ATOM     34  C   UNL     1      -6.297   1.477   3.301  1.00  0.00     0.074 A 
ATOM     35  C   UNL     1      -6.185  -0.797   4.245  1.00  0.00     0.049 A 
ATOM     36  N   UNL     1      -7.592   1.656   3.222  1.00  0.00    -0.248 NA
ATOM     37  C   UNL     1      -5.512   2.590   2.740  1.00  0.00     0.031 C 
ATOM     38  C   UNL     1      -5.571  -2.013   4.782  1.00  0.00     0.029 A 
ATOM     39  N   UNL     1      -7.518  -1.119   4.155  1.00  0.00    -0.354 N 
ATOM     40  C   UNL     1      -7.773   2.925   2.685  1.00  0.00     0.074 A 
ATOM     41  C   UNL     1      -6.456   3.473   2.444  1.00  0.00     0.031 C 
ATOM     42  C   UNL     1      -6.501  -2.976   4.869  1.00  0.00     0.029 A 
ATOM     43  C   UNL     1      -7.798  -2.423   4.492  1.00  0.00     0.049 A 
ATOM     44  H   UNL     1      -8.208  -0.476   3.874  1.00  0.00     0.167 HD
ATOM     45  C   UNL     1      -8.932   3.575   2.423  1.00  0.00     0.037 A 
ATOM     46  C   UNL     1      -8.965  -3.098   4.506  1.00  0.00     0.037 A 
ATOM     47  C   UNL     1     -10.239   2.984   2.555  1.00  0.00     0.049 A 
ATOM     48  C   UNL     1     -10.236  -2.365   4.175  1.00  0.00     0.074 A 
ATOM     49  C   UNL     1     -11.471   3.554   2.285  1.00  0.00     0.029 A 
ATOM     50  N   UNL     1     -10.481   1.682   2.968  1.00  0.00    -0.354 N 
ATOM     51  N   UNL     1     -10.402  -1.122   3.790  1.00  0.00    -0.248 NA
ATOM     52  C   UNL     1     -11.489  -3.121   4.316  1.00  0.00     0.031 C 
ATOM     53  C   UNL     1     -12.461   2.600   2.541  1.00  0.00     0.029 A 
ATOM     54  C   UNL     1     -11.843   1.426   2.941  1.00  0.00     0.049 A 
ATOM     55  H   UNL     1      -9.790   1.037   3.240  1.00  0.00     0.167 HD
ATOM     56  C   UNL     1     -11.771  -0.950   3.639  1.00  0.00     0.074 A 
ATOM     57  C   UNL     1     -12.392  -2.220   3.953  1.00  0.00     0.031 C 
ATOM     58  C   UNL     1     -12.451   0.165   3.279  1.00  0.00     0.037 A 
BRANCH  45  59
ATOM     59  C   UNL     1      -8.848   5.014   2.000  1.00  0.00     0.058 A 
ATOM     60  C   UNL     1      -8.464   5.395   0.706  1.00  0.00     0.135 A 
ATOM     61  C   UNL     1      -9.197   6.030   2.906  1.00  0.00     0.135 A 
ATOM     62  F   UNL     1      -8.108   4.464  -0.194  1.00  0.00    -0.206 F 
ATOM     63  C   UNL     1      -8.405   6.734   0.331  1.00  0.00     0.059 A 
ATOM     64  C   UNL     1      -9.165   7.374   2.547  1.00  0.00     0.059 A 
ATOM     65  F   UNL     1      -9.575   5.719   4.156  1.00  0.00    -0.206 F 
ATOM     66  C   UNL     1      -8.753   7.717   1.261  1.00  0.00     0.060 A 
BRANCH  66  67
ATOM     67  S   UNL     1      -8.674   9.453   0.766  1.00  0.00     0.124 S 
ATOM     68  O   UNL     1      -7.237   9.704   0.822  1.00  0.00    -0.237 OA
ATOM     69  O   UNL     1      -9.261   9.426  -0.569  1.00  0.00    -0.237 OA
ATOM     70  O   UNL     1      -9.470  10.132   1.784  1.00  0.00    -0.744 OA
ENDBRANCH  66  67
ENDBRANCH  45  59
BRANCH  46  71
ATOM     71  C   UNL     1      -8.984  -4.550   4.835  1.00  0.00     0.058 A 
ATOM     72  C   UNL     1      -9.309  -5.502   3.856  1.00  0.00     0.135 A 
ATOM     73  C   UNL     1      -8.655  -5.024   6.114  1.00  0.00     0.135 A 
ATOM     74  F   UNL     1      -9.675  -5.108   2.628  1.00  0.00    -0.206 F 
ATOM     75  C   UNL     1      -9.287  -6.867   4.123  1.00  0.00     0.059 A 
ATOM     76  C   UNL     1      -8.604  -6.385   6.401  1.00  0.00     0.059 A 
ATOM     77  F   UNL     1      -8.343  -4.160   7.093  1.00  0.00    -0.206 F 
ATOM     78  C   UNL     1      -8.925  -7.299   5.398  1.00  0.00     0.060 A 
BRANCH  78  79
ATOM     79  S   UNL     1      -8.822  -9.073   5.719  1.00  0.00     0.124 S 
ATOM     80  O   UNL     1     -10.224  -9.414   5.929  1.00  0.00    -0.237 OA
ATOM     81  O   UNL     1      -8.220  -9.580   4.489  1.00  0.00    -0.237 OA
ATOM     82  O   UNL     1      -7.967  -9.147   6.900  1.00  0.00    -0.744 OA
ENDBRANCH  78  79
ENDBRANCH  46  71
BRANCH  58  83
ATOM     83  C   UNL     1     -13.948   0.064   3.217  1.00  0.00     0.058 A 
ATOM     84  C   UNL     1     -14.725   0.038   4.385  1.00  0.00     0.135 A 
ATOM     85  C   UNL     1     -14.614   0.035   1.981  1.00  0.00     0.135 A 
ATOM     86  F   UNL     1     -14.134   0.057   5.590  1.00  0.00    -0.206 F 
ATOM     87  C   UNL     1     -16.113  -0.034   4.331  1.00  0.00     0.059 A 
ATOM     88  C   UNL     1     -16.002  -0.015   1.904  1.00  0.00     0.059 A 
ATOM     89  F   UNL     1     -13.913   0.067   0.836  1.00  0.00    -0.206 F 
ATOM     90  C   UNL     1     -16.742  -0.062   3.086  1.00  0.00     0.060 A 
BRANCH  90  91
ATOM     91  S   UNL     1     -18.546  -0.122   3.025  1.00  0.00     0.124 S 
ATOM     92  O   UNL     1     -18.801  -1.532   3.303  1.00  0.00    -0.237 OA
ATOM     93  O   UNL     1     -18.929   0.811   4.080  1.00  0.00    -0.237 OA
ATOM     94  O   UNL     1     -18.852   0.317   1.667  1.00  0.00    -0.744 OA
ENDBRANCH  90  91
ENDBRANCH  58  83
ENDBRANCH  32  33
ENDBRANCH  25  27
ENDBRANCH  24  25
ENDBRANCH   1  24
TORSDOF 16
