REMARK SMILES CC[C@@H](C)[C@H](C(=O)OCCOC(=O)c1ccc(-c2c3nc(c(-c4c(F)cc(S(=O)(=O)[O-])cc4F)c4ccc([nH]4)c(-c4c(F)cc(S(=O)(=O)[O-])cc4F)c4nc(c(-c5c(F)cc(S(=O)(=O)[O-])cc5F)c5ccc2[nH]5)C=C4)C=C3)cc1)N1C(=O)/C(=C/c2ccc3c(c2)OCO3)SC1=S
REMARK SMILES IDX 10 1 9 2 8 3 6 4 7 5 5 6 3 7 4 8 2 9 1 10 80 11 81 12 95 13
REMARK SMILES IDX 82 14 83 15 94 16 96 17 84 18 85 19 86 20 90 21 87 22 89 23
REMARK SMILES IDX 88 24 91 25 93 26 92 27 11 28 12 29 13 30 14 31 15 32 79 33
REMARK SMILES IDX 16 34 78 35 17 36 18 37 19 38 72 39 20 40 77 41 71 42 73 43
REMARK SMILES IDX 21 44 76 45 70 46 69 47 22 49 56 50 35 51 55 52 36 53 39 54
REMARK SMILES IDX 54 55 74 56 37 57 38 58 53 60 75 61 40 62 23 63 24 64 33 65
REMARK SMILES IDX 25 66 26 67 32 68 34 69 27 70 28 71 29 72 30 73 31 74 57 75
REMARK SMILES IDX 58 76 67 77 59 78 60 79 66 80 68 81 61 82 62 83 63 84 64 85
REMARK SMILES IDX 65 86 41 87 42 88 51 89 43 90 44 91 50 92 52 93 45 94 46 95
REMARK SMILES IDX 47 96 48 97 49 98
REMARK H PARENT 73 48 39 59
REMARK Flexibility Score: inf
ROOT
ATOM      1  C   UNL     1       2.850   0.167  -0.204  1.00  0.00     0.275 C 
ENDROOT
BRANCH   1   2
ATOM      2  C   UNL     1       3.309  -0.958   0.724  1.00  0.00     0.274 C 
BRANCH   2   3
ATOM      3  O   UNL     1       2.522  -2.149   0.544  1.00  0.00    -0.461 OA
BRANCH   3   4
ATOM      4  C   UNL     1       1.450  -2.312   1.362  1.00  0.00     0.329 C 
ATOM      5  O   UNL     1       1.037  -1.467   2.151  1.00  0.00    -0.250 OA
BRANCH   4   6
ATOM      6  C   UNL     1       0.898  -3.752   1.342  1.00  0.00     0.204 C 
BRANCH   6   7
ATOM      7  C   UNL     1       1.179  -4.574   0.042  1.00  0.00     0.020 C 
ATOM      8  C   UNL     1       2.651  -4.894  -0.220  1.00  0.00     0.010 C 
BRANCH   7   9
ATOM      9  C   UNL     1       0.495  -3.886  -1.167  1.00  0.00     0.002 C 
ATOM     10  C   UNL     1       0.562  -4.669  -2.468  1.00  0.00     0.004 C 
ENDBRANCH   7   9
ENDBRANCH   6   7
BRANCH   6  11
ATOM     11  N   UNL     1       1.138  -4.420   2.656  1.00  0.00    -0.278 N 
ATOM     12  C   UNL     1       1.997  -3.828   3.573  1.00  0.00     0.267 C 
ATOM     13  C   UNL     1       0.521  -5.571   3.114  1.00  0.00     0.149 C 
ATOM     14  O   UNL     1       2.917  -3.055   3.336  1.00  0.00    -0.268 OA
ATOM     15  C   UNL     1       1.805  -4.404   4.918  1.00  0.00     0.081 C 
ATOM     16  S   UNL     1       1.053  -5.932   4.762  1.00  0.00    -0.054 SA
ATOM     17  S   UNL     1      -0.587  -6.557   2.351  1.00  0.00    -0.052 S 
ATOM     18  C   UNL     1       2.361  -3.815   5.989  1.00  0.00     0.029 C 
BRANCH  18  19
ATOM     19  C   UNL     1       2.879  -4.648   7.070  1.00  0.00    -0.020 A 
ATOM     20  C   UNL     1       2.202  -4.934   8.268  1.00  0.00     0.012 A 
ATOM     21  C   UNL     1       4.077  -5.302   6.743  1.00  0.00     0.058 A 
ATOM     22  C   UNL     1       2.682  -5.949   9.109  1.00  0.00     0.051 A 
ATOM     23  C   UNL     1       4.474  -6.333   7.545  1.00  0.00     0.166 A 
ATOM     24  C   UNL     1       3.787  -6.663   8.689  1.00  0.00     0.165 A 
ATOM     25  O   UNL     1       5.483  -7.197   7.261  1.00  0.00    -0.454 OA
ATOM     26  O   UNL     1       4.294  -7.792   9.260  1.00  0.00    -0.454 OA
ATOM     27  C   UNL     1       5.154  -8.244   8.191  1.00  0.00     0.468 C 
ENDBRANCH  18  19
ENDBRANCH   6  11
ENDBRANCH   4   6
ENDBRANCH   3   4
ENDBRANCH   2   3
ENDBRANCH   1   2
BRANCH   1  28
ATOM     28  O   UNL     1       1.697   0.841   0.330  1.00  0.00    -0.458 OA
BRANCH  28  29
ATOM     29  C   UNL     1       0.501   0.321  -0.029  1.00  0.00     0.338 C 
ATOM     30  O   UNL     1       0.306  -0.566  -0.849  1.00  0.00    -0.246 OA
BRANCH  29  31
ATOM     31  C   UNL     1      -0.561   0.858   0.840  1.00  0.00     0.060 A 
ATOM     32  C   UNL     1      -1.502  -0.040   1.360  1.00  0.00     0.016 A 
ATOM     33  C   UNL     1      -0.648   2.222   1.125  1.00  0.00     0.016 A 
ATOM     34  C   UNL     1      -2.545   0.423   2.153  1.00  0.00     0.010 A 
ATOM     35  C   UNL     1      -1.701   2.688   1.914  1.00  0.00     0.010 A 
ATOM     36  C   UNL     1      -2.666   1.794   2.411  1.00  0.00    -0.014 A 
BRANCH  36  37
ATOM     37  C   UNL     1      -3.868   2.297   3.111  1.00  0.00     0.031 A 
ATOM     38  C   UNL     1      -4.957   2.952   2.311  1.00  0.00     0.074 A 
ATOM     39  C   UNL     1      -3.992   2.134   4.440  1.00  0.00     0.049 A 
ATOM     40  N   UNL     1      -6.088   3.465   2.717  1.00  0.00    -0.248 NA
ATOM     41  C   UNL     1      -4.740   3.046   0.858  1.00  0.00     0.031 C 
ATOM     42  C   UNL     1      -3.006   1.489   5.307  1.00  0.00     0.029 A 
ATOM     43  N   UNL     1      -5.002   2.500   5.293  1.00  0.00    -0.354 N 
ATOM     44  C   UNL     1      -6.716   3.946   1.574  1.00  0.00     0.074 A 
ATOM     45  C   UNL     1      -5.823   3.698   0.463  1.00  0.00     0.031 C 
ATOM     46  C   UNL     1      -3.460   1.506   6.572  1.00  0.00     0.029 A 
ATOM     47  C   UNL     1      -4.751   2.188   6.607  1.00  0.00     0.049 A 
ATOM     48  H   UNL     1      -5.827   2.944   4.992  1.00  0.00     0.167 HD
ATOM     49  C   UNL     1      -7.933   4.529   1.464  1.00  0.00     0.037 A 
ATOM     50  C   UNL     1      -5.478   2.441   7.713  1.00  0.00     0.037 A 
ATOM     51  C   UNL     1      -8.810   4.773   2.581  1.00  0.00     0.049 A 
ATOM     52  C   UNL     1      -6.805   3.140   7.570  1.00  0.00     0.074 A 
ATOM     53  C   UNL     1     -10.069   5.345   2.578  1.00  0.00     0.029 A 
ATOM     54  N   UNL     1      -8.514   4.466   3.902  1.00  0.00    -0.354 N 
ATOM     55  N   UNL     1      -7.401   3.566   6.481  1.00  0.00    -0.248 NA
ATOM     56  C   UNL     1      -7.562   3.382   8.804  1.00  0.00     0.031 C 
ATOM     57  C   UNL     1     -10.511   5.435   3.902  1.00  0.00     0.029 A 
ATOM     58  C   UNL     1      -9.557   4.859   4.726  1.00  0.00     0.049 A 
ATOM     59  H   UNL     1      -7.685   4.033   4.209  1.00  0.00     0.167 HD
ATOM     60  C   UNL     1      -8.617   4.099   6.896  1.00  0.00     0.074 A 
ATOM     61  C   UNL     1      -8.676   3.925   8.333  1.00  0.00     0.031 C 
ATOM     62  C   UNL     1      -9.598   4.679   6.157  1.00  0.00     0.037 A 
BRANCH  49  63
ATOM     63  C   UNL     1      -8.375   4.967   0.093  1.00  0.00     0.058 A 
ATOM     64  C   UNL     1      -8.705   4.043  -0.912  1.00  0.00     0.135 A 
ATOM     65  C   UNL     1      -8.498   6.333  -0.212  1.00  0.00     0.135 A 
ATOM     66  F   UNL     1      -8.586   2.725  -0.684  1.00  0.00    -0.206 F 
ATOM     67  C   UNL     1      -9.115   4.456  -2.176  1.00  0.00     0.059 A 
ATOM     68  C   UNL     1      -8.936   6.768  -1.459  1.00  0.00     0.059 A 
ATOM     69  F   UNL     1      -8.192   7.261   0.708  1.00  0.00    -0.206 F 
ATOM     70  C   UNL     1      -9.230   5.822  -2.439  1.00  0.00     0.060 A 
BRANCH  70  71
ATOM     71  S   UNL     1      -9.772   6.341  -4.081  1.00  0.00     0.124 S 
ATOM     72  O   UNL     1      -8.607   6.005  -4.893  1.00  0.00    -0.237 OA
ATOM     73  O   UNL     1     -10.954   5.511  -4.295  1.00  0.00    -0.237 OA
ATOM     74  O   UNL     1     -10.033   7.768  -3.919  1.00  0.00    -0.744 OA
ENDBRANCH  70  71
ENDBRANCH  49  63
BRANCH  50  75
ATOM     75  C   UNL     1      -4.968   2.029   9.049  1.00  0.00     0.058 A 
ATOM     76  C   UNL     1      -5.598   1.016   9.787  1.00  0.00     0.135 A 
ATOM     77  C   UNL     1      -3.837   2.640   9.614  1.00  0.00     0.135 A 
ATOM     78  F   UNL     1      -6.688   0.407   9.295  1.00  0.00    -0.206 F 
ATOM     79  C   UNL     1      -5.138   0.635  11.043  1.00  0.00     0.059 A 
ATOM     80  C   UNL     1      -3.340   2.255  10.855  1.00  0.00     0.059 A 
ATOM     81  F   UNL     1      -3.189   3.607   8.945  1.00  0.00    -0.206 F 
ATOM     82  C   UNL     1      -4.005   1.258  11.567  1.00  0.00     0.060 A 
BRANCH  82  83
ATOM     83  S   UNL     1      -3.389   0.721  13.177  1.00  0.00     0.124 S 
ATOM     84  O   UNL     1      -4.408   1.252  14.075  1.00  0.00    -0.237 OA
ATOM     85  O   UNL     1      -3.363  -0.730  13.025  1.00  0.00    -0.237 OA
ATOM     86  O   UNL     1      -2.077   1.357  13.265  1.00  0.00    -0.744 OA
ENDBRANCH  82  83
ENDBRANCH  50  75
BRANCH  62  87
ATOM     87  C   UNL     1     -10.836   5.128   6.888  1.00  0.00     0.058 A 
ATOM     88  C   UNL     1     -10.823   6.219   7.771  1.00  0.00     0.135 A 
ATOM     89  C   UNL     1     -12.058   4.466   6.685  1.00  0.00     0.135 A 
ATOM     90  F   UNL     1      -9.682   6.887   8.005  1.00  0.00    -0.206 F 
ATOM     91  C   UNL     1     -11.967   6.609   8.461  1.00  0.00     0.059 A 
ATOM     92  C   UNL     1     -13.222   4.861   7.337  1.00  0.00     0.059 A 
ATOM     93  F   UNL     1     -12.133   3.426   5.839  1.00  0.00    -0.206 F 
ATOM     94  C   UNL     1     -13.161   5.921   8.240  1.00  0.00     0.060 A 
BRANCH  94  95
ATOM     95  S   UNL     1     -14.637   6.435   9.142  1.00  0.00     0.124 S 
ATOM     96  O   UNL     1     -14.345   5.948  10.486  1.00  0.00    -0.237 OA
ATOM     97  O   UNL     1     -14.617   7.885   8.975  1.00  0.00    -0.237 OA
ATOM     98  O   UNL     1     -15.720   5.746   8.446  1.00  0.00    -0.744 OA
ENDBRANCH  94  95
ENDBRANCH  62  87
ENDBRANCH  36  37
ENDBRANCH  29  31
ENDBRANCH  28  29
ENDBRANCH   1  28
TORSDOF 18
