REMARK SMILES Nn1c(Cc2ccc(F)c(F)c2)nnc1SCC(=O)OCCOC(=O)c1ccc(-c2c3nc(c(-c4c(F)cc(S(=O)(=O)[O-])cc4F)c4ccc([nH]4)c(-c4c(F)cc(S(=O)(=O)[O-])cc4F)c4nc(c(-c5c(F)cc(S(=O)(=O)[O-])cc5F)c5ccc2[nH]5)C=C4)C=C3)cc1
REMARK SMILES IDX 21 1 20 2 18 3 19 4 17 5 16 6 15 7 2 8 3 9 13 10 14 11 1 12
REMARK SMILES IDX 4 15 5 16 6 17 12 18 7 19 10 20 8 21 11 22 9 23 22 24 23 25
REMARK SMILES IDX 24 26 25 27 26 28 27 29 91 30 28 31 90 32 29 33 30 34 31 35
REMARK SMILES IDX 84 36 32 37 89 38 83 39 85 40 33 41 88 42 82 43 81 44 34 46
REMARK SMILES IDX 68 47 47 48 67 49 48 50 51 51 66 52 86 53 49 54 50 55 65 57
REMARK SMILES IDX 87 58 52 59 35 60 36 61 45 62 37 63 38 64 44 65 46 66 39 67
REMARK SMILES IDX 40 68 41 69 42 70 43 71 69 72 70 73 79 74 71 75 72 76 78 77
REMARK SMILES IDX 80 78 73 79 74 80 75 81 76 82 77 83 53 84 54 85 63 86 55 87
REMARK SMILES IDX 56 88 62 89 64 90 57 91 58 92 59 93 60 94 61 95
REMARK H PARENT 1 13 1 14 85 45 51 56
REMARK Flexibility Score: inf
ROOT
ATOM      1  C   UNL     1       2.783  -2.329  -3.476  1.00  0.00     0.274 C 
ENDROOT
BRANCH   1   2
ATOM      2  O   UNL     1       1.867  -2.551  -2.386  1.00  0.00    -0.461 OA
BRANCH   2   3
ATOM      3  C   UNL     1       2.418  -2.995  -1.230  1.00  0.00     0.316 C 
ATOM      4  O   UNL     1       3.622  -3.185  -1.073  1.00  0.00    -0.251 OA
BRANCH   3   5
ATOM      5  C   UNL     1       1.448  -3.226  -0.098  1.00  0.00     0.200 C 
BRANCH   5   6
ATOM      6  S   UNL     1      -0.310  -3.167  -0.481  1.00  0.00    -0.073 SA
BRANCH   6   7
ATOM      7  C   UNL     1      -0.648  -1.498  -0.792  1.00  0.00     0.210 A 
ATOM      8  N   UNL     1      -0.289  -0.427  -0.005  1.00  0.00    -0.221 N 
ATOM      9  C   UNL     1      -0.860   0.678  -0.598  1.00  0.00     0.157 A 
ATOM     10  N   UNL     1      -1.567   0.280  -1.641  1.00  0.00    -0.132 NA
ATOM     11  N   UNL     1      -1.433  -1.083  -1.761  1.00  0.00    -0.121 NA
BRANCH   8  12
ATOM     12  N   UNL     1       0.449  -0.449   1.225  1.00  0.00    -0.336 N 
ATOM     13  H   UNL     1       0.644   0.393   1.697  1.00  0.00     0.178 HD
ATOM     14  H   UNL     1       0.760  -1.305   1.598  1.00  0.00     0.178 HD
ENDBRANCH   8  12
BRANCH   9  15
ATOM     15  C   UNL     1      -0.715   2.072  -0.081  1.00  0.00     0.115 C 
BRANCH  15  16
ATOM     16  C   UNL     1      -1.006   3.139  -1.115  1.00  0.00    -0.037 A 
ATOM     17  C   UNL     1      -2.325   3.555  -1.362  1.00  0.00     0.007 A 
ATOM     18  C   UNL     1       0.033   3.693  -1.879  1.00  0.00     0.046 A 
ATOM     19  C   UNL     1      -2.597   4.496  -2.359  1.00  0.00     0.043 A 
ATOM     20  C   UNL     1      -0.247   4.622  -2.876  1.00  0.00     0.159 A 
ATOM     21  C   UNL     1      -1.555   5.019  -3.116  1.00  0.00     0.158 A 
ATOM     22  F   UNL     1       0.758   5.123  -3.608  1.00  0.00    -0.204 F 
ATOM     23  F   UNL     1      -1.823   5.906  -4.085  1.00  0.00    -0.204 F 
ENDBRANCH  15  16
ENDBRANCH   9  15
ENDBRANCH   6   7
ENDBRANCH   5   6
ENDBRANCH   3   5
ENDBRANCH   2   3
ENDBRANCH   1   2
BRANCH   1  24
ATOM     24  C   UNL     1       3.143  -0.853  -3.601  1.00  0.00     0.275 C 
BRANCH  24  25
ATOM     25  O   UNL     1       3.702  -0.363  -2.367  1.00  0.00    -0.458 OA
BRANCH  25  26
ATOM     26  C   UNL     1       3.042   0.670  -1.817  1.00  0.00     0.338 C 
ATOM     27  O   UNL     1       2.042   1.234  -2.265  1.00  0.00    -0.246 OA
BRANCH  26  28
ATOM     28  C   UNL     1       3.635   1.106  -0.550  1.00  0.00     0.060 A 
ATOM     29  C   UNL     1       3.785   0.213   0.512  1.00  0.00     0.016 A 
ATOM     30  C   UNL     1       3.861   2.474  -0.363  1.00  0.00     0.016 A 
ATOM     31  C   UNL     1       4.080   0.706   1.786  1.00  0.00     0.010 A 
ATOM     32  C   UNL     1       4.213   2.955   0.898  1.00  0.00     0.010 A 
ATOM     33  C   UNL     1       4.278   2.082   1.993  1.00  0.00    -0.014 A 
BRANCH  33  34
ATOM     34  C   UNL     1       4.510   2.618   3.359  1.00  0.00     0.031 A 
ATOM     35  C   UNL     1       3.470   3.477   4.030  1.00  0.00     0.074 A 
ATOM     36  C   UNL     1       5.656   2.332   4.005  1.00  0.00     0.049 A 
ATOM     37  N   UNL     1       3.517   4.074   5.193  1.00  0.00    -0.248 NA
ATOM     38  C   UNL     1       2.213   3.698   3.295  1.00  0.00     0.031 C 
ATOM     39  C   UNL     1       6.747   1.518   3.469  1.00  0.00     0.029 A 
ATOM     40  N   UNL     1       6.088   2.694   5.255  1.00  0.00    -0.354 N 
ATOM     41  C   UNL     1       2.317   4.763   5.320  1.00  0.00     0.074 A 
ATOM     42  C   UNL     1       1.558   4.511   4.113  1.00  0.00     0.031 C 
ATOM     43  C   UNL     1       7.713   1.419   4.396  1.00  0.00     0.029 A 
ATOM     44  C   UNL     1       7.325   2.190   5.574  1.00  0.00     0.049 A 
ATOM     45  H   UNL     1       5.563   3.261   5.864  1.00  0.00     0.167 HD
ATOM     46  C   UNL     1       1.886   5.538   6.344  1.00  0.00     0.037 A 
ATOM     47  C   UNL     1       8.069   2.338   6.686  1.00  0.00     0.037 A 
ATOM     48  C   UNL     1       2.623   5.779   7.556  1.00  0.00     0.049 A 
ATOM     49  C   UNL     1       7.558   3.176   7.819  1.00  0.00     0.074 A 
ATOM     50  C   UNL     1       2.262   6.551   8.648  1.00  0.00     0.029 A 
ATOM     51  N   UNL     1       3.869   5.244   7.842  1.00  0.00    -0.354 N 
ATOM     52  N   UNL     1       6.431   3.839   7.907  1.00  0.00    -0.248 NA
ATOM     53  C   UNL     1       8.425   3.292   8.999  1.00  0.00     0.031 C 
ATOM     54  C   UNL     1       3.295   6.488   9.592  1.00  0.00     0.029 A 
ATOM     55  C   UNL     1       4.291   5.666   9.092  1.00  0.00     0.049 A 
ATOM     56  H   UNL     1       4.380   4.652   7.244  1.00  0.00     0.167 HD
ATOM     57  C   UNL     1       6.457   4.462   9.148  1.00  0.00     0.074 A 
ATOM     58  C   UNL     1       7.701   4.078   9.786  1.00  0.00     0.031 C 
ATOM     59  C   UNL     1       5.536   5.286   9.705  1.00  0.00     0.037 A 
BRANCH  46  60
ATOM     60  C   UNL     1       0.547   6.195   6.188  1.00  0.00     0.058 A 
ATOM     61  C   UNL     1      -0.642   5.494   6.438  1.00  0.00     0.135 A 
ATOM     62  C   UNL     1       0.453   7.542   5.805  1.00  0.00     0.135 A 
ATOM     63  F   UNL     1      -0.603   4.198   6.783  1.00  0.00    -0.206 F 
ATOM     64  C   UNL     1      -1.884   6.104   6.298  1.00  0.00     0.059 A 
ATOM     65  C   UNL     1      -0.778   8.175   5.669  1.00  0.00     0.059 A 
ATOM     66  F   UNL     1       1.565   8.249   5.547  1.00  0.00    -0.206 F 
ATOM     67  C   UNL     1      -1.942   7.443   5.906  1.00  0.00     0.060 A 
BRANCH  67  68
ATOM     68  S   UNL     1      -3.557   8.228   5.715  1.00  0.00     0.124 S 
ATOM     69  O   UNL     1      -3.929   7.791   4.373  1.00  0.00    -0.237 OA
ATOM     70  O   UNL     1      -4.328   7.643   6.807  1.00  0.00    -0.237 OA
ATOM     71  O   UNL     1      -3.256   9.649   5.856  1.00  0.00    -0.744 OA
ENDBRANCH  67  68
ENDBRANCH  46  60
BRANCH  47  72
ATOM     72  C   UNL     1       9.384   1.662   6.768  1.00  0.00     0.058 A 
ATOM     73  C   UNL     1       9.524   0.454   7.465  1.00  0.00     0.135 A 
ATOM     74  C   UNL     1      10.503   2.174   6.097  1.00  0.00     0.135 A 
ATOM     75  F   UNL     1       8.476  -0.066   8.122  1.00  0.00    -0.206 F 
ATOM     76  C   UNL     1      10.731  -0.234   7.485  1.00  0.00     0.059 A 
ATOM     77  C   UNL     1      11.717   1.498   6.093  1.00  0.00     0.059 A 
ATOM     78  F   UNL     1      10.406   3.322   5.409  1.00  0.00    -0.206 F 
ATOM     79  C   UNL     1      11.821   0.293   6.790  1.00  0.00     0.060 A 
BRANCH  79  80
ATOM     80  S   UNL     1      13.363  -0.644   6.715  1.00  0.00     0.124 S 
ATOM     81  O   UNL     1      14.072  -0.134   7.882  1.00  0.00    -0.237 OA
ATOM     82  O   UNL     1      12.902  -2.027   6.804  1.00  0.00    -0.237 OA
ATOM     83  O   UNL     1      13.911  -0.260   5.418  1.00  0.00    -0.744 OA
ENDBRANCH  79  80
ENDBRANCH  47  72
BRANCH  59  84
ATOM     84  C   UNL     1       5.854   5.830  11.064  1.00  0.00     0.058 A 
ATOM     85  C   UNL     1       6.700   6.938  11.219  1.00  0.00     0.135 A 
ATOM     86  C   UNL     1       5.313   5.243  12.217  1.00  0.00     0.135 A 
ATOM     87  F   UNL     1       7.244   7.527  10.142  1.00  0.00    -0.206 F 
ATOM     88  C   UNL     1       7.022   7.433  12.478  1.00  0.00     0.059 A 
ATOM     89  C   UNL     1       5.614   5.728  13.486  1.00  0.00     0.059 A 
ATOM     90  F   UNL     1       4.495   4.183  12.117  1.00  0.00    -0.206 F 
ATOM     91  C   UNL     1       6.483   6.814  13.606  1.00  0.00     0.060 A 
BRANCH  91  92
ATOM     92  S   UNL     1       6.900   7.447  15.245  1.00  0.00     0.124 S 
ATOM     93  O   UNL     1       8.128   6.715  15.536  1.00  0.00    -0.237 OA
ATOM     94  O   UNL     1       7.058   8.879  15.009  1.00  0.00    -0.237 OA
ATOM     95  O   UNL     1       5.738   7.077  16.048  1.00  0.00    -0.744 OA
ENDBRANCH  91  92
ENDBRANCH  59  84
ENDBRANCH  33  34
ENDBRANCH  26  28
ENDBRANCH  25  26
ENDBRANCH  24  25
ENDBRANCH   1  24
TORSDOF 19
