REMARK SMILES O=C(OCCOC(=O)c1cccc(Oc2ncc([N+](=O)[O-])cc2Br)c1)c1ccc(-c2c3nc(c(-c4c(F)cc(S(=O)(=O)[O-])cc4F)c4ccc([nH]4)c(-c4c(F)cc(S(=O)(=O)[O-])cc4F)c4nc(c(-c5c(F)cc(S(=O)(=O)[O-])cc5F)c5ccc2[nH]5)C=C4)C=C3)cc1
REMARK SMILES IDX 4 1 3 2 2 3 1 4 26 5 27 6 91 7 28 8 90 9 29 10 30 11 31 12
REMARK SMILES IDX 84 13 32 14 89 15 83 16 85 17 33 18 88 19 82 20 81 21 34 23
REMARK SMILES IDX 68 24 47 25 67 26 48 27 51 28 66 29 86 30 49 31 50 32 65 34
REMARK SMILES IDX 87 35 52 36 35 37 36 38 45 39 37 40 38 41 44 42 46 43 39 44
REMARK SMILES IDX 40 45 41 46 42 47 43 48 69 49 70 50 79 51 71 52 72 53 78 54
REMARK SMILES IDX 80 55 73 56 74 57 75 58 76 59 77 60 53 61 54 62 63 63 55 64
REMARK SMILES IDX 56 65 62 66 64 67 57 68 58 69 59 70 60 71 61 72 5 73 6 74
REMARK SMILES IDX 7 75 8 76 9 77 10 78 25 79 11 80 13 81 12 82 14 83 15 84
REMARK SMILES IDX 16 85 23 86 17 87 22 88 24 89 18 90 19 91 20 92 21 93
REMARK H PARENT 85 22 51 33
REMARK Flexibility Score: inf
ROOT
ATOM      1  C   UNL     1       4.353   0.887   0.977  1.00  0.00     0.275 C 
ENDROOT
BRANCH   1   2
ATOM      2  O   UNL     1       3.283   1.139   0.051  1.00  0.00    -0.458 OA
BRANCH   2   3
ATOM      3  C   UNL     1       2.971   0.570  -1.136  1.00  0.00     0.338 C 
ATOM      4  O   UNL     1       1.999   1.024  -1.742  1.00  0.00    -0.246 OA
BRANCH   3   5
ATOM      5  C   UNL     1       3.679  -0.605  -1.762  1.00  0.00     0.060 A 
ATOM      6  C   UNL     1       4.817  -1.260  -1.282  1.00  0.00     0.016 A 
ATOM      7  C   UNL     1       3.092  -1.122  -2.938  1.00  0.00     0.016 A 
ATOM      8  C   UNL     1       5.337  -2.390  -1.927  1.00  0.00     0.010 A 
ATOM      9  C   UNL     1       3.602  -2.254  -3.584  1.00  0.00     0.010 A 
ATOM     10  C   UNL     1       4.734  -2.894  -3.081  1.00  0.00    -0.014 A 
BRANCH  10  11
ATOM     11  C   UNL     1       5.324  -4.069  -3.761  1.00  0.00     0.031 A 
ATOM     12  C   UNL     1       6.216  -3.863  -4.928  1.00  0.00     0.074 A 
ATOM     13  C   UNL     1       5.032  -5.316  -3.352  1.00  0.00     0.049 A 
ATOM     14  N   UNL     1       6.862  -4.761  -5.614  1.00  0.00    -0.248 NA
ATOM     15  C   UNL     1       6.368  -2.484  -5.415  1.00  0.00     0.031 C 
ATOM     16  C   UNL     1       4.064  -5.588  -2.312  1.00  0.00     0.029 A 
ATOM     17  N   UNL     1       5.471  -6.563  -3.723  1.00  0.00    -0.354 N 
ATOM     18  C   UNL     1       7.447  -4.071  -6.658  1.00  0.00     0.074 A 
ATOM     19  C   UNL     1       7.106  -2.674  -6.499  1.00  0.00     0.031 C 
ATOM     20  C   UNL     1       3.990  -6.908  -2.103  1.00  0.00     0.029 A 
ATOM     21  C   UNL     1       4.954  -7.581  -2.945  1.00  0.00     0.049 A 
ATOM     22  H   UNL     1       6.094  -6.716  -4.470  1.00  0.00     0.167 HD
ATOM     23  C   UNL     1       8.171  -4.586  -7.673  1.00  0.00     0.037 A 
ATOM     24  C   UNL     1       5.250  -8.895  -2.881  1.00  0.00     0.037 A 
ATOM     25  C   UNL     1       8.472  -5.987  -7.811  1.00  0.00     0.049 A 
ATOM     26  C   UNL     1       6.210  -9.410  -3.913  1.00  0.00     0.074 A 
ATOM     27  C   UNL     1       9.220  -6.608  -8.792  1.00  0.00     0.029 A 
ATOM     28  N   UNL     1       8.026  -6.985  -6.953  1.00  0.00    -0.354 N 
ATOM     29  N   UNL     1       6.849  -8.728  -4.835  1.00  0.00    -0.248 NA
ATOM     30  C   UNL     1       6.453 -10.857  -3.951  1.00  0.00     0.031 C 
ATOM     31  C   UNL     1       9.186  -7.986  -8.557  1.00  0.00     0.029 A 
ATOM     32  C   UNL     1       8.463  -8.222  -7.397  1.00  0.00     0.049 A 
ATOM     33  H   UNL     1       7.479  -6.835  -6.148  1.00  0.00     0.167 HD
ATOM     34  C   UNL     1       7.516  -9.666  -5.602  1.00  0.00     0.074 A 
ATOM     35  C   UNL     1       7.290 -10.955  -4.975  1.00  0.00     0.031 C 
ATOM     36  C   UNL     1       8.200  -9.486  -6.756  1.00  0.00     0.037 A 
BRANCH  23  37
ATOM     37  C   UNL     1       8.622  -3.634  -8.733  1.00  0.00     0.058 A 
ATOM     38  C   UNL     1       9.642  -2.700  -8.504  1.00  0.00     0.135 A 
ATOM     39  C   UNL     1       8.023  -3.664 -10.002  1.00  0.00     0.135 A 
ATOM     40  F   UNL     1      10.211  -2.601  -7.291  1.00  0.00    -0.206 F 
ATOM     41  C   UNL     1      10.059  -1.828  -9.501  1.00  0.00     0.059 A 
ATOM     42  C   UNL     1       8.442  -2.820 -11.022  1.00  0.00     0.059 A 
ATOM     43  F   UNL     1       7.020  -4.519 -10.257  1.00  0.00    -0.206 F 
ATOM     44  C   UNL     1       9.460  -1.905 -10.761  1.00  0.00     0.060 A 
BRANCH  44  45
ATOM     45  S   UNL     1      10.061  -0.810 -12.061  1.00  0.00     0.124 S 
ATOM     46  O   UNL     1       9.563   0.485 -11.607  1.00  0.00    -0.237 OA
ATOM     47  O   UNL     1      11.506  -0.998 -11.977  1.00  0.00    -0.237 OA
ATOM     48  O   UNL     1       9.431  -1.337 -13.268  1.00  0.00    -0.744 OA
ENDBRANCH  44  45
ENDBRANCH  23  37
BRANCH  24  49
ATOM     49  C   UNL     1       4.674  -9.800  -1.835  1.00  0.00     0.058 A 
ATOM     50  C   UNL     1       5.511 -10.472  -0.926  1.00  0.00     0.135 A 
ATOM     51  C   UNL     1       3.294 -10.037  -1.717  1.00  0.00     0.135 A 
ATOM     52  F   UNL     1       6.840 -10.289  -0.976  1.00  0.00    -0.206 F 
ATOM     53  C   UNL     1       5.014 -11.367   0.021  1.00  0.00     0.059 A 
ATOM     54  C   UNL     1       2.768 -10.890  -0.747  1.00  0.00     0.059 A 
ATOM     55  F   UNL     1       2.431  -9.426  -2.544  1.00  0.00    -0.206 F 
ATOM     56  C   UNL     1       3.637 -11.571   0.102  1.00  0.00     0.060 A 
BRANCH  56  57
ATOM     57  S   UNL     1       2.994 -12.719   1.341  1.00  0.00     0.124 S 
ATOM     58  O   UNL     1       3.288 -14.008   0.727  1.00  0.00    -0.237 OA
ATOM     59  O   UNL     1       3.784 -12.377   2.519  1.00  0.00    -0.237 OA
ATOM     60  O   UNL     1       1.580 -12.364   1.422  1.00  0.00    -0.744 OA
ENDBRANCH  56  57
ENDBRANCH  24  49
BRANCH  36  61
ATOM     61  C   UNL     1       8.697 -10.727  -7.432  1.00  0.00     0.058 A 
ATOM     62  C   UNL     1       7.809 -11.601  -8.079  1.00  0.00     0.135 A 
ATOM     63  C   UNL     1      10.068 -11.017  -7.479  1.00  0.00     0.135 A 
ATOM     64  F   UNL     1       6.486 -11.369  -8.045  1.00  0.00    -0.206 F 
ATOM     65  C   UNL     1       8.263 -12.732  -8.740  1.00  0.00     0.059 A 
ATOM     66  C   UNL     1      10.547 -12.127  -8.161  1.00  0.00     0.059 A 
ATOM     67  F   UNL     1      10.952 -10.207  -6.876  1.00  0.00    -0.206 F 
ATOM     68  C   UNL     1       9.636 -12.982  -8.782  1.00  0.00     0.060 A 
BRANCH  68  69
ATOM     69  S   UNL     1      10.216 -14.426  -9.693  1.00  0.00     0.124 S 
ATOM     70  O   UNL     1       9.795 -15.514  -8.817  1.00  0.00    -0.237 OA
ATOM     71  O   UNL     1       9.491 -14.309 -10.954  1.00  0.00    -0.237 OA
ATOM     72  O   UNL     1      11.658 -14.213  -9.782  1.00  0.00    -0.744 OA
ENDBRANCH  68  69
ENDBRANCH  36  61
ENDBRANCH  10  11
ENDBRANCH   3   5
ENDBRANCH   2   3
ENDBRANCH   1   2
BRANCH   1  73
ATOM     73  C   UNL     1       4.033  -0.209   1.999  1.00  0.00     0.275 C 
BRANCH  73  74
ATOM     74  O   UNL     1       3.513  -1.402   1.401  1.00  0.00    -0.458 OA
BRANCH  74  75
ATOM     75  C   UNL     1       2.159  -1.452   1.274  1.00  0.00     0.338 C 
ATOM     76  O   UNL     1       1.354  -0.618   1.632  1.00  0.00    -0.246 OA
BRANCH  75  77
ATOM     77  C   UNL     1       1.813  -2.688   0.550  1.00  0.00     0.063 A 
ATOM     78  C   UNL     1       0.954  -2.638  -0.550  1.00  0.00     0.016 A 
ATOM     79  C   UNL     1       2.341  -3.901   0.995  1.00  0.00     0.062 A 
ATOM     80  C   UNL     1       0.633  -3.819  -1.219  1.00  0.00     0.005 A 
ATOM     81  C   UNL     1       1.983  -5.088   0.362  1.00  0.00     0.130 A 
ATOM     82  C   UNL     1       1.121  -5.043  -0.745  1.00  0.00     0.047 A 
BRANCH  81  83
ATOM     83  O   UNL     1       2.404  -6.336   0.778  1.00  0.00    -0.438 OA
BRANCH  83  84
ATOM     84  C   UNL     1       3.624  -6.411   1.425  1.00  0.00     0.234 A 
ATOM     85  N   UNL     1       4.716  -6.528   0.630  1.00  0.00    -0.214 NA
ATOM     86  C   UNL     1       3.706  -6.421   2.811  1.00  0.00     0.087 A 
ATOM     87  C   UNL     1       5.932  -6.654   1.208  1.00  0.00     0.200 A 
ATOM     88  C   UNL     1       4.969  -6.493   3.399  1.00  0.00     0.108 A 
ATOM     89  Br  UNL     1       2.178  -6.274   3.916  1.00  0.00    -0.045 Br
ATOM     90  C   UNL     1       6.097  -6.617   2.578  1.00  0.00     0.288 A 
BRANCH  90  91
ATOM     91  N   UNL     1       7.435  -6.659   3.149  1.00  0.00     0.064 N 
ATOM     92  O   UNL     1       8.384  -6.899   2.392  1.00  0.00    -0.258 OA
ATOM     93  O   UNL     1       7.545  -6.405   4.357  1.00  0.00    -0.258 OA
ENDBRANCH  90  91
ENDBRANCH  83  84
ENDBRANCH  81  83
ENDBRANCH  75  77
ENDBRANCH  74  75
ENDBRANCH  73  74
ENDBRANCH   1  73
TORSDOF 17
