REMARK SMILES O=C(OCCOC(=O)c1ccc(-c2c3nc(c(-c4c(F)cc(S(=O)(=O)[O-])cc4F)c4ccc([nH]4)c(-c4c(F)cc(S(=O)(=O)[O-])cc4F)c4nc(c(-c5c(F)cc(S(=O)(=O)[O-])cc5F)c5ccc2[nH]5)C=C4)C=C3)cc1)C1=Cc2cc(S(F)(F)(F)(F)F)cc(Br)c2O[C@@H]1C(F)(F)F
REMARK SMILES IDX 5 1 4 2 3 3 2 4 1 5 75 6 76 7 91 8 77 9 90 10 78 11 89 12
REMARK SMILES IDX 79 13 87 14 86 15 88 16 92 17 93 18 94 19 95 20 80 21 81 22
REMARK SMILES IDX 82 23 83 24 84 25 85 26 6 27 7 28 8 29 9 30 10 31 74 32
REMARK SMILES IDX 11 33 73 34 12 35 13 36 14 37 67 38 15 39 72 40 66 41 68 42
REMARK SMILES IDX 16 43 71 44 65 45 64 46 17 48 51 49 30 50 50 51 31 52 34 53
REMARK SMILES IDX 49 54 69 55 32 56 33 57 48 59 70 60 35 61 18 62 19 63 28 64
REMARK SMILES IDX 20 65 21 66 27 67 29 68 22 69 23 70 24 71 25 72 26 73 52 74
REMARK SMILES IDX 53 75 62 76 54 77 55 78 61 79 63 80 56 81 57 82 58 83 59 84
REMARK SMILES IDX 60 85 36 86 37 87 46 88 38 89 39 90 45 91 47 92 40 93 41 94
REMARK SMILES IDX 42 95 43 96 44 97
REMARK H PARENT 68 47 34 58
REMARK Flexibility Score: inf
ROOT
ATOM      1  C   UNL     1       4.847   0.431  -1.281  1.00  0.00     0.275 C 
ENDROOT
BRANCH   1   2
ATOM      2  C   UNL     1       4.340  -0.950  -0.896  1.00  0.00     0.275 C 
BRANCH   2   3
ATOM      3  O   UNL     1       2.920  -0.950  -0.896  1.00  0.00    -0.459 OA
BRANCH   3   4
ATOM      4  C   UNL     1       2.210  -0.071  -0.035  1.00  0.00     0.338 C 
ATOM      5  O   UNL     1       0.939  -0.071  -0.035  1.00  0.00    -0.246 OA
BRANCH   4   6
ATOM      6  C   UNL     1       2.970   0.869   0.886  1.00  0.00     0.087 C 
ATOM      7  C   UNL     1       4.331   0.869   0.886  1.00  0.00     0.027 C 
ATOM      8  C   UNL     1       2.210   1.810   1.807  1.00  0.00     0.316 C 
ATOM      9  C   UNL     1       5.091  -0.071  -0.035  1.00  0.00     0.020 A 
ATOM     10  O   UNL     1       3.654   0.417  -1.865  1.00  0.00    -0.474 OA
ATOM     11  C   UNL     1       6.080  -0.823   0.577  1.00  0.00     0.036 A 
ATOM     12  C   UNL     1       4.777  -0.255  -1.313  1.00  0.00     0.142 A 
ATOM     13  C   UNL     1       6.887  -1.553  -0.327  1.00  0.00     0.109 A 
ATOM     14  C   UNL     1       5.529  -1.088  -2.105  1.00  0.00     0.062 A 
ATOM     15  C   UNL     1       6.559  -1.817  -1.579  1.00  0.00     0.044 A 
ATOM     16  Br  UNL     1       5.119  -1.234  -4.016  1.00  0.00    -0.047 Br
BRANCH   8  17
ATOM     17  C   UNL     1       2.577   3.248   1.478  1.00  0.00     0.430 C 
ATOM     18  F   UNL     1       2.256   3.509   0.214  1.00  0.00    -0.167 F 
ATOM     19  F   UNL     1       1.912   4.070   2.284  1.00  0.00    -0.167 F 
ATOM     20  F   UNL     1       3.885   3.421   1.648  1.00  0.00    -0.167 F 
ENDBRANCH   8  17
BRANCH  13  21
ATOM     21  S   UNL     1       8.480  -2.167   0.273  1.00  0.00     0.310 S 
ATOM     22  F   UNL     1       7.982  -2.123   1.778  1.00  0.00    -0.094 F 
ATOM     23  F   UNL     1       8.967  -0.681   0.463  1.00  0.00    -0.094 F 
ATOM     24  F   UNL     1       9.838  -2.709   0.803  1.00  0.00    -0.094 F 
ATOM     25  F   UNL     1       7.925  -3.644   0.209  1.00  0.00    -0.094 F 
ATOM     26  F   UNL     1       7.058  -1.629  -0.159  1.00  0.00    -0.094 F 
ENDBRANCH  13  21
ENDBRANCH   4   6
ENDBRANCH   3   4
ENDBRANCH   2   3
ENDBRANCH   1   2
BRANCH   1  27
ATOM     27  O   UNL     1       4.373   1.387  -0.344  1.00  0.00    -0.458 OA
BRANCH  27  28
ATOM     28  C   UNL     1       2.977   1.573  -0.163  1.00  0.00     0.338 C 
ATOM     29  O   UNL     1       2.152   0.882  -0.839  1.00  0.00    -0.246 OA
BRANCH  28  30
ATOM     30  C   UNL     1       2.471   2.596   0.840  1.00  0.00     0.060 A 
ATOM     31  C   UNL     1       1.327   2.285   1.557  1.00  0.00     0.016 A 
ATOM     32  C   UNL     1       3.010   3.809   0.895  1.00  0.00     0.016 A 
ATOM     33  C   UNL     1       0.655   3.414   2.083  1.00  0.00     0.010 A 
ATOM     34  C   UNL     1       2.362   4.833   1.543  1.00  0.00     0.010 A 
ATOM     35  C   UNL     1       1.197   4.610   2.223  1.00  0.00    -0.014 A 
BRANCH  35  36
ATOM     36  C   UNL     1       0.559   5.681   3.092  1.00  0.00     0.031 A 
ATOM     37  C   UNL     1       0.155   6.910   2.565  1.00  0.00     0.074 A 
ATOM     38  C   UNL     1       0.297   5.271   4.388  1.00  0.00     0.049 A 
ATOM     39  N   UNL     1      -0.556   7.860   3.173  1.00  0.00    -0.248 NA
ATOM     40  C   UNL     1       0.462   7.362   1.200  1.00  0.00     0.031 C 
ATOM     41  C   UNL     1       0.694   4.030   4.923  1.00  0.00     0.029 A 
ATOM     42  N   UNL     1      -0.374   5.960   5.373  1.00  0.00    -0.354 N 
ATOM     43  C   UNL     1      -0.763   8.884   2.341  1.00  0.00     0.074 A 
ATOM     44  C   UNL     1      -0.105   8.581   1.063  1.00  0.00     0.031 C 
ATOM     45  C   UNL     1       0.279   3.977   6.216  1.00  0.00     0.029 A 
ATOM     46  C   UNL     1      -0.385   5.183   6.510  1.00  0.00     0.049 A 
ATOM     47  H   UNL     1      -0.776   6.854   5.281  1.00  0.00     0.167 HD
ATOM     48  C   UNL     1      -1.474  10.056   2.598  1.00  0.00     0.037 A 
ATOM     49  C   UNL     1      -0.937   5.491   7.744  1.00  0.00     0.037 A 
ATOM     50  C   UNL     1      -2.063  10.346   3.819  1.00  0.00     0.049 A 
ATOM     51  C   UNL     1      -1.599   6.690   8.019  1.00  0.00     0.074 A 
ATOM     52  C   UNL     1      -2.791  11.520   4.092  1.00  0.00     0.029 A 
ATOM     53  N   UNL     1      -2.054   9.579   4.963  1.00  0.00    -0.354 N 
ATOM     54  N   UNL     1      -1.839   7.696   7.176  1.00  0.00    -0.248 NA
ATOM     55  C   UNL     1      -2.159   7.041   9.331  1.00  0.00     0.031 C 
ATOM     56  C   UNL     1      -3.207  11.467   5.386  1.00  0.00     0.029 A 
ATOM     57  C   UNL     1      -2.744  10.259   5.942  1.00  0.00     0.049 A 
ATOM     58  H   UNL     1      -1.627   8.698   5.064  1.00  0.00     0.167 HD
ATOM     59  C   UNL     1      -2.515   8.664   7.796  1.00  0.00     0.074 A 
ATOM     60  C   UNL     1      -2.724   8.261   9.194  1.00  0.00     0.031 C 
ATOM     61  C   UNL     1      -2.970   9.867   7.253  1.00  0.00     0.037 A 
BRANCH  48  62
ATOM     62  C   UNL     1      -1.612  11.073   1.476  1.00  0.00     0.058 A 
ATOM     63  C   UNL     1      -2.301  10.658   0.349  1.00  0.00     0.135 A 
ATOM     64  C   UNL     1      -1.153  12.315   1.585  1.00  0.00     0.135 A 
ATOM     65  F   UNL     1      -2.990   9.521   0.298  1.00  0.00    -0.206 F 
ATOM     66  C   UNL     1      -2.206  11.552  -0.743  1.00  0.00     0.059 A 
ATOM     67  C   UNL     1      -1.216  13.179   0.518  1.00  0.00     0.059 A 
ATOM     68  F   UNL     1      -0.630  12.725   2.736  1.00  0.00    -0.206 F 
ATOM     69  C   UNL     1      -1.831  12.814  -0.647  1.00  0.00     0.060 A 
BRANCH  69  70
ATOM     70  S   UNL     1      -2.115  13.998  -1.986  1.00  0.00     0.124 S 
ATOM     71  O   UNL     1      -1.396  13.521  -3.251  1.00  0.00    -0.237 OA
ATOM     72  O   UNL     1      -3.616  14.105  -2.263  1.00  0.00    -0.237 OA
ATOM     73  O   UNL     1      -1.508  15.531  -1.530  1.00  0.00    -0.744 OA
ENDBRANCH  69  70
ENDBRANCH  48  62
BRANCH  49  74
ATOM     74  C   UNL     1      -0.814   4.467   8.860  1.00  0.00     0.058 A 
ATOM     75  C   UNL     1      -1.930   3.968   9.512  1.00  0.00     0.135 A 
ATOM     76  C   UNL     1       0.413   4.120   9.231  1.00  0.00     0.135 A 
ATOM     77  F   UNL     1      -3.163   4.081   9.027  1.00  0.00    -0.206 F 
ATOM     78  C   UNL     1      -1.638   3.327  10.739  1.00  0.00     0.059 A 
ATOM     79  C   UNL     1       0.616   3.377  10.369  1.00  0.00     0.059 A 
ATOM     80  F   UNL     1       1.455   4.495   8.495  1.00  0.00    -0.206 F 
ATOM     81  C   UNL     1      -0.440   2.900  11.095  1.00  0.00     0.060 A 
BRANCH  81  82
ATOM     82  S   UNL     1      -0.209   1.746  12.470  1.00  0.00     0.124 S 
ATOM     83  O   UNL     1      -0.748   2.372  13.758  1.00  0.00    -0.237 OA
ATOM     84  O   UNL     1      -0.965   0.447  12.178  1.00  0.00    -0.237 OA
ATOM     85  O   UNL     1       1.457   1.406  12.654  1.00  0.00    -0.744 OA
ENDBRANCH  81  82
ENDBRANCH  49  74
BRANCH  61  86
ATOM     86  C   UNL     1      -3.759  10.804   8.152  1.00  0.00     0.058 A 
ATOM     87  C   UNL     1      -3.166  11.164   9.351  1.00  0.00     0.135 A 
ATOM     88  C   UNL     1      -5.005  11.162   7.864  1.00  0.00     0.135 A 
ATOM     89  F   UNL     1      -1.861  11.051   9.577  1.00  0.00    -0.206 F 
ATOM     90  C   UNL     1      -4.076  11.663  10.313  1.00  0.00     0.059 A 
ATOM     91  C   UNL     1      -5.794  11.769   8.811  1.00  0.00     0.059 A 
ATOM     92  F   UNL     1      -5.493  10.932   6.649  1.00  0.00    -0.206 F 
ATOM     93  C   UNL     1      -5.291  12.101  10.039  1.00  0.00     0.060 A 
BRANCH  93  94
ATOM     94  S   UNL     1      -6.240  13.087  11.224  1.00  0.00     0.124 S 
ATOM     95  O   UNL     1      -6.446  12.281  12.508  1.00  0.00    -0.237 OA
ATOM     96  O   UNL     1      -5.475  14.373  11.545  1.00  0.00    -0.237 OA
ATOM     97  O   UNL     1      -7.760  13.482  10.548  1.00  0.00    -0.744 OA
ENDBRANCH  93  94
ENDBRANCH  61  86
ENDBRANCH  35  36
ENDBRANCH  28  30
ENDBRANCH  27  28
ENDBRANCH   1  27
TORSDOF 16
