REMARK SMILES COc1ccc(CCN2C(=O)CC[C@@H](C(=O)OCCOC(=O)c3ccc(-c4c5nc(c(-c6c(F)cc(S(=O)(=O)[O-])cc6F)c6ccc([nH]6)c(-c6c(F)cc(S(=O)(=O)[O-])cc6F)c6nc(c(-c7c(F)cc(S(=O)(=O)[O-])cc7F)c7ccc4[nH]7)C=C6)C=C5)cc3)[C@@H]2c2ccc(Cl)cc2)cc1OC
REMARK SMILES IDX 18 1 17 2 15 3 16 4 14 5 9 6 10 7 89 8 11 9 12 10 13 11 8 12
REMARK SMILES IDX 7 13 6 14 3 15 4 16 98 17 5 18 97 19 2 20 1 21 99 22 100 23
REMARK SMILES IDX 90 24 91 25 96 26 92 27 95 28 93 29 94 30 19 31 20 32 21 33
REMARK SMILES IDX 22 34 23 35 24 36 88 37 25 38 87 39 26 40 27 41 28 42 81 43
REMARK SMILES IDX 29 44 86 45 80 46 82 47 30 48 85 49 79 50 78 51 31 53 65 54
REMARK SMILES IDX 44 55 64 56 45 57 48 58 63 59 83 60 46 61 47 62 62 64 84 65
REMARK SMILES IDX 49 66 32 67 33 68 42 69 34 70 35 71 41 72 43 73 36 74 37 75
REMARK SMILES IDX 38 76 39 77 40 78 66 79 67 80 76 81 68 82 69 83 75 84 77 85
REMARK SMILES IDX 70 86 71 87 72 88 73 89 74 90 50 91 51 92 60 93 52 94 53 95
REMARK SMILES IDX 59 96 61 97 54 98 55 99 56 100 57 101 58 102
REMARK H PARENT 82 52 48 63
REMARK Flexibility Score: inf
ROOT
ATOM      1  C   UNL     1      -0.312   4.973   1.659  1.00  0.00     0.274 C 
ENDROOT
BRANCH   1   2
ATOM      2  O   UNL     1      -0.489   4.704   3.064  1.00  0.00    -0.462 OA
BRANCH   2   3
ATOM      3  C   UNL     1      -1.493   5.363   3.696  1.00  0.00     0.311 C 
ATOM      4  O   UNL     1      -2.268   6.132   3.139  1.00  0.00    -0.252 OA
BRANCH   3   5
ATOM      5  C   UNL     1      -1.600   5.035   5.185  1.00  0.00     0.127 C 
ATOM      6  N   UNL     1       0.821   5.002   5.742  1.00  0.00    -0.334 N 
ATOM      7  C   UNL     1       0.833   6.378   5.952  1.00  0.00     0.223 C 
ATOM      8  C   UNL     1      -0.424   4.231   5.741  1.00  0.00     0.129 C 
ATOM      9  O   UNL     1       1.886   7.010   6.066  1.00  0.00    -0.275 OA
ATOM     10  C   UNL     1      -0.489   7.136   5.967  1.00  0.00     0.101 C 
ATOM     11  C   UNL     1      -1.762   6.313   5.994  1.00  0.00     0.028 C 
BRANCH   6  12
ATOM     12  C   UNL     1       2.124   4.333   5.548  1.00  0.00     0.125 C 
BRANCH  12  13
ATOM     13  C   UNL     1       2.227   2.791   5.557  1.00  0.00     0.057 C 
BRANCH  13  14
ATOM     14  C   UNL     1       2.039   2.096   4.224  1.00  0.00    -0.042 A 
ATOM     15  C   UNL     1       1.674   0.826   1.708  1.00  0.00     0.160 A 
ATOM     16  C   UNL     1       0.666   0.816   2.672  1.00  0.00     0.051 A 
ATOM     17  C   UNL     1       2.906   1.413   2.039  1.00  0.00     0.160 A 
ATOM     18  C   UNL     1       0.859   1.413   3.922  1.00  0.00     0.008 A 
ATOM     19  C   UNL     1       3.064   2.077   3.269  1.00  0.00     0.054 A 
BRANCH  15  20
ATOM     20  O   UNL     1       1.517   0.329   0.441  1.00  0.00    -0.493 OA
ATOM     21  C   UNL     1       0.319  -0.380   0.150  1.00  0.00     0.278 C 
ENDBRANCH  15  20
BRANCH  17  22
ATOM     22  O   UNL     1       4.029   1.434   1.246  1.00  0.00    -0.493 OA
ATOM     23  C   UNL     1       4.224   0.279   0.433  1.00  0.00     0.278 C 
ENDBRANCH  17  22
ENDBRANCH  13  14
ENDBRANCH  12  13
ENDBRANCH   6  12
BRANCH   8  24
ATOM     24  C   UNL     1      -0.738   3.609   7.111  1.00  0.00    -0.024 A 
ATOM     25  C   UNL     1      -0.161   4.073   8.306  1.00  0.00     0.007 A 
ATOM     26  C   UNL     1      -1.627   2.519   7.184  1.00  0.00     0.007 A 
ATOM     27  C   UNL     1      -0.446   3.458   9.529  1.00  0.00     0.021 A 
ATOM     28  C   UNL     1      -1.914   1.906   8.409  1.00  0.00     0.021 A 
ATOM     29  C   UNL     1      -1.317   2.375   9.575  1.00  0.00     0.041 A 
ATOM     30  Cl  UNL     1      -1.646   1.607  11.079  1.00  0.00    -0.084 Cl
ENDBRANCH   8  24
ENDBRANCH   3   5
ENDBRANCH   2   3
ENDBRANCH   1   2
BRANCH   1  31
ATOM     31  C   UNL     1      -0.909   3.876   0.773  1.00  0.00     0.275 C 
BRANCH  31  32
ATOM     32  O   UNL     1      -2.338   3.777   0.901  1.00  0.00    -0.458 OA
BRANCH  32  33
ATOM     33  C   UNL     1      -2.763   2.980   1.907  1.00  0.00     0.338 C 
ATOM     34  O   UNL     1      -2.085   2.333   2.687  1.00  0.00    -0.246 OA
BRANCH  33  35
ATOM     35  C   UNL     1      -4.213   3.099   2.072  1.00  0.00     0.060 A 
ATOM     36  C   UNL     1      -4.669   3.587   3.297  1.00  0.00     0.016 A 
ATOM     37  C   UNL     1      -5.107   2.646   1.105  1.00  0.00     0.016 A 
ATOM     38  C   UNL     1      -6.021   3.616   3.579  1.00  0.00     0.010 A 
ATOM     39  C   UNL     1      -6.476   2.689   1.381  1.00  0.00     0.010 A 
ATOM     40  C   UNL     1      -6.933   3.169   2.620  1.00  0.00    -0.014 A 
BRANCH  40  41
ATOM     41  C   UNL     1      -8.370   3.217   2.943  1.00  0.00     0.031 A 
ATOM     42  C   UNL     1      -9.103   1.955   3.273  1.00  0.00     0.074 A 
ATOM     43  C   UNL     1      -8.978   4.417   2.983  1.00  0.00     0.049 A 
ATOM     44  N   UNL     1     -10.375   1.780   3.506  1.00  0.00    -0.248 NA
ATOM     45  C   UNL     1      -8.298   0.724   3.352  1.00  0.00     0.031 C 
ATOM     46  C   UNL     1      -8.318   5.703   2.738  1.00  0.00     0.029 A 
ATOM     47  N   UNL     1     -10.277   4.753   3.248  1.00  0.00    -0.354 N 
ATOM     48  C   UNL     1     -10.533   0.419   3.732  1.00  0.00     0.074 A 
ATOM     49  C   UNL     1      -9.226  -0.188   3.607  1.00  0.00     0.031 C 
ATOM     50  C   UNL     1      -9.219   6.689   2.866  1.00  0.00     0.029 A 
ATOM     51  C   UNL     1     -10.524   6.101   3.145  1.00  0.00     0.049 A 
ATOM     52  H   UNL     1     -10.968   4.094   3.489  1.00  0.00     0.167 HD
ATOM     53  C   UNL     1     -11.675  -0.252   4.012  1.00  0.00     0.037 A 
ATOM     54  C   UNL     1     -11.683   6.777   3.228  1.00  0.00     0.037 A 
ATOM     55  C   UNL     1     -12.960   0.385   4.139  1.00  0.00     0.049 A 
ATOM     56  C   UNL     1     -12.942   6.003   3.493  1.00  0.00     0.074 A 
ATOM     57  C   UNL     1     -14.187  -0.192   4.410  1.00  0.00     0.029 A 
ATOM     58  N   UNL     1     -13.180   1.750   4.002  1.00  0.00    -0.354 N 
ATOM     59  N   UNL     1     -13.088   4.711   3.674  1.00  0.00    -0.248 NA
ATOM     60  C   UNL     1     -14.192   6.768   3.555  1.00  0.00     0.031 C 
ATOM     61  C   UNL     1     -15.154   0.820   4.403  1.00  0.00     0.029 A 
ATOM     62  C   UNL     1     -14.524   2.033   4.168  1.00  0.00     0.049 A 
ATOM     63  H   UNL     1     -12.481   2.418   3.815  1.00  0.00     0.167 HD
ATOM     64  C   UNL     1     -14.445   4.507   3.881  1.00  0.00     0.074 A 
ATOM     65  C   UNL     1     -15.074   5.813   3.819  1.00  0.00     0.031 C 
ATOM     66  C   UNL     1     -15.114   3.348   4.099  1.00  0.00     0.037 A 
BRANCH  53  67
ATOM     67  C   UNL     1     -11.587  -1.745   4.151  1.00  0.00     0.058 A 
ATOM     68  C   UNL     1     -11.016  -2.354   5.279  1.00  0.00     0.135 A 
ATOM     69  C   UNL     1     -12.091  -2.581   3.141  1.00  0.00     0.135 A 
ATOM     70  F   UNL     1     -10.499  -1.603   6.264  1.00  0.00    -0.206 F 
ATOM     71  C   UNL     1     -10.927  -3.739   5.391  1.00  0.00     0.059 A 
ATOM     72  C   UNL     1     -12.031  -3.968   3.240  1.00  0.00     0.059 A 
ATOM     73  F   UNL     1     -12.639  -2.050   2.037  1.00  0.00    -0.206 F 
ATOM     74  C   UNL     1     -11.433  -4.538   4.363  1.00  0.00     0.060 A 
BRANCH  74  75
ATOM     75  S   UNL     1     -11.299  -6.332   4.513  1.00  0.00     0.124 S 
ATOM     76  O   UNL     1      -9.881  -6.541   4.233  1.00  0.00    -0.237 OA
ATOM     77  O   UNL     1     -11.712  -6.565   5.893  1.00  0.00    -0.237 OA
ATOM     78  O   UNL     1     -12.219  -6.828   3.494  1.00  0.00    -0.744 OA
ENDBRANCH  74  75
ENDBRANCH  53  67
BRANCH  54  79
ATOM     79  C   UNL     1     -11.695   8.248   3.021  1.00  0.00     0.058 A 
ATOM     80  C   UNL     1     -11.928   9.129   4.086  1.00  0.00     0.135 A 
ATOM     81  C   UNL     1     -11.427   8.803   1.759  1.00  0.00     0.135 A 
ATOM     82  F   UNL     1     -12.192   8.647   5.310  1.00  0.00    -0.206 F 
ATOM     83  C   UNL     1     -11.899  10.509   3.908  1.00  0.00     0.059 A 
ATOM     84  C   UNL     1     -11.368  10.178   1.561  1.00  0.00     0.059 A 
ATOM     85  F   UNL     1     -11.181   8.001   0.711  1.00  0.00    -0.206 F 
ATOM     86  C   UNL     1     -11.614  11.024   2.641  1.00  0.00     0.060 A 
BRANCH  86  87
ATOM     87  S   UNL     1     -11.515  12.815   2.430  1.00  0.00     0.124 S 
ATOM     88  O   UNL     1     -12.925  13.186   2.425  1.00  0.00    -0.237 OA
ATOM     89  O   UNL     1     -10.752  13.223   3.606  1.00  0.00    -0.237 OA
ATOM     90  O   UNL     1     -10.816  12.963   1.157  1.00  0.00    -0.744 OA
ENDBRANCH  86  87
ENDBRANCH  54  79
BRANCH  66  91
ATOM     91  C   UNL     1     -16.596   3.450   4.304  1.00  0.00     0.058 A 
ATOM     92  C   UNL     1     -17.470   3.659   3.227  1.00  0.00     0.135 A 
ATOM     93  C   UNL     1     -17.147   3.289   5.584  1.00  0.00     0.135 A 
ATOM     94  F   UNL     1     -16.986   3.828   1.986  1.00  0.00    -0.206 F 
ATOM     95  C   UNL     1     -18.845   3.722   3.415  1.00  0.00     0.059 A 
ATOM     96  C   UNL     1     -18.521   3.326   5.792  1.00  0.00     0.059 A 
ATOM     97  F   UNL     1     -16.349   3.079   6.643  1.00  0.00    -0.206 F 
ATOM     98  C   UNL     1     -19.361   3.554   4.702  1.00  0.00     0.060 A 
BRANCH  98  99
ATOM     99  S   UNL     1     -21.151   3.597   4.930  1.00  0.00     0.124 S 
ATOM    100  O   UNL     1     -21.420   5.030   4.864  1.00  0.00    -0.237 OA
ATOM    101  O   UNL     1     -21.632   2.809   3.800  1.00  0.00    -0.237 OA
ATOM    102  O   UNL     1     -21.339   2.981   6.240  1.00  0.00    -0.744 OA
ENDBRANCH  98  99
ENDBRANCH  66  91
ENDBRANCH  40  41
ENDBRANCH  33  35
ENDBRANCH  32  33
ENDBRANCH  31  32
ENDBRANCH   1  31
TORSDOF 20
