REMARK SMILES O=C(COc1ccc(/C=C2\SC(=O)N(Cc3cc4c(cc3Cl)OCO4)C2=O)cc1)OCCOC(=O)c1ccc(-c2c3nc(c(-c4c(F)cc(S(=O)(=O)[O-])cc4F)c4ccc([nH]4)c(-c4c(F)cc(S(=O)(=O)[O-])cc4F)c4nc(c(-c5c(F)cc(S(=O)(=O)[O-])cc5F)c5ccc2[nH]5)C=C4)C=C3)cc1
REMARK SMILES IDX 31 1 30 2 2 3 1 4 3 5 4 6 5 7 6 8 29 9 7 10 28 11 8 12 9 13
REMARK SMILES IDX 10 14 11 15 26 16 12 17 14 18 27 19 13 20 15 21 16 22 17 23
REMARK SMILES IDX 21 24 18 25 20 26 22 27 19 28 25 29 23 30 24 31 32 32 33 33
REMARK SMILES IDX 34 34 35 35 36 36 37 37 101 38 38 39 100 40 39 41 40 42
REMARK SMILES IDX 41 43 94 44 42 45 99 46 93 47 95 48 43 49 98 50 92 51 91 52
REMARK SMILES IDX 44 54 78 55 57 56 77 57 58 58 61 59 76 60 96 61 59 62 60 63
REMARK SMILES IDX 75 65 97 66 62 67 45 68 46 69 55 70 47 71 48 72 54 73 56 74
REMARK SMILES IDX 49 75 50 76 51 77 52 78 53 79 79 80 80 81 89 82 81 83 82 84
REMARK SMILES IDX 88 85 90 86 83 87 84 88 85 89 86 90 87 91 63 92 64 93 73 94
REMARK SMILES IDX 65 95 66 96 72 97 74 98 67 99 68 100 69 101 70 102 71 103
REMARK H PARENT 95 53 61 64
REMARK Flexibility Score: inf
ROOT
ATOM      1  C   UNL     1       4.556  -0.126   1.249  1.00  0.00     0.274 C 
ENDROOT
BRANCH   1   2
ATOM      2  O   UNL     1       3.208   0.329   1.020  1.00  0.00    -0.460 OA
BRANCH   2   3
ATOM      3  C   UNL     1       2.552   0.131  -0.150  1.00  0.00     0.344 C 
ATOM      4  O   UNL     1       1.325   0.215  -0.189  1.00  0.00    -0.248 OA
BRANCH   3   5
ATOM      5  C   UNL     1       3.378  -0.116  -1.414  1.00  0.00     0.351 C 
BRANCH   5   6
ATOM      6  O   UNL     1       4.284   0.924  -1.778  1.00  0.00    -0.482 OA
BRANCH   6   7
ATOM      7  C   UNL     1       3.610   1.884  -2.478  1.00  0.00     0.120 A 
ATOM      8  C   UNL     1       3.876   2.034  -3.839  1.00  0.00     0.047 A 
ATOM      9  C   UNL     1       2.665   2.678  -1.838  1.00  0.00     0.047 A 
ATOM     10  C   UNL     1       3.146   2.965  -4.582  1.00  0.00     0.012 A 
ATOM     11  C   UNL     1       1.913   3.565  -2.580  1.00  0.00     0.012 A 
ATOM     12  C   UNL     1       2.165   3.729  -3.946  1.00  0.00    -0.024 A 
BRANCH  12  13
ATOM     13  C   UNL     1       1.363   4.731  -4.632  1.00  0.00     0.029 C 
ATOM     14  C   UNL     1       1.437   6.032  -4.330  1.00  0.00     0.083 C 
ATOM     15  S   UNL     1       2.588   6.872  -3.364  1.00  0.00    -0.022 SA
ATOM     16  C   UNL     1       0.451   6.989  -4.857  1.00  0.00     0.268 C 
ATOM     17  C   UNL     1       2.024   8.430  -3.945  1.00  0.00     0.293 C 
ATOM     18  N   UNL     1       0.984   8.248  -4.812  1.00  0.00    -0.264 N 
ATOM     19  O   UNL     1      -0.690   6.685  -5.168  1.00  0.00    -0.268 OA
ATOM     20  O   UNL     1       2.506   9.491  -3.577  1.00  0.00    -0.261 OA
BRANCH  18  21
ATOM     21  C   UNL     1       0.419   9.326  -5.589  1.00  0.00     0.167 C 
BRANCH  21  22
ATOM     22  C   UNL     1       1.140   9.433  -6.924  1.00  0.00    -0.005 A 
ATOM     23  C   UNL     1       2.124  10.431  -7.079  1.00  0.00     0.057 A 
ATOM     24  C   UNL     1       0.913   8.530  -7.999  1.00  0.00     0.050 A 
ATOM     25  C   UNL     1       2.805  10.497  -8.277  1.00  0.00     0.166 A 
ATOM     26  C   UNL     1       1.688   8.566  -9.161  1.00  0.00     0.071 A 
ATOM     27  Cl  UNL     1      -0.380   7.391  -8.013  1.00  0.00    -0.084 Cl
ATOM     28  C   UNL     1       2.607   9.576  -9.277  1.00  0.00     0.167 A 
ATOM     29  O   UNL     1       3.708  11.451  -8.635  1.00  0.00    -0.454 OA
ATOM     30  O   UNL     1       3.372   9.823 -10.373  1.00  0.00    -0.454 OA
ATOM     31  C   UNL     1       3.905  11.114 -10.026  1.00  0.00     0.468 C 
ENDBRANCH  21  22
ENDBRANCH  18  21
ENDBRANCH  12  13
ENDBRANCH   6   7
ENDBRANCH   5   6
ENDBRANCH   3   5
ENDBRANCH   2   3
ENDBRANCH   1   2
BRANCH   1  32
ATOM     32  C   UNL     1       4.560  -1.575   1.742  1.00  0.00     0.275 C 
BRANCH  32  33
ATOM     33  O   UNL     1       4.167  -2.461   0.677  1.00  0.00    -0.458 OA
BRANCH  33  34
ATOM     34  C   UNL     1       2.871  -2.870   0.672  1.00  0.00     0.338 C 
ATOM     35  O   UNL     1       2.042  -2.671   1.540  1.00  0.00    -0.246 OA
BRANCH  34  36
ATOM     36  C   UNL     1       2.564  -3.403  -0.678  1.00  0.00     0.060 A 
ATOM     37  C   UNL     1       1.362  -3.031  -1.298  1.00  0.00     0.016 A 
ATOM     38  C   UNL     1       3.482  -4.210  -1.356  1.00  0.00     0.016 A 
ATOM     39  C   UNL     1       1.069  -3.479  -2.590  1.00  0.00     0.010 A 
ATOM     40  C   UNL     1       3.182  -4.667  -2.639  1.00  0.00     0.010 A 
ATOM     41  C   UNL     1       1.966  -4.324  -3.255  1.00  0.00    -0.014 A 
BRANCH  41  42
ATOM     42  C   UNL     1       1.588  -5.020  -4.509  1.00  0.00     0.031 A 
ATOM     43  C   UNL     1       1.055  -6.421  -4.405  1.00  0.00     0.074 A 
ATOM     44  C   UNL     1       1.798  -4.467  -5.716  1.00  0.00     0.049 A 
ATOM     45  N   UNL     1       0.820  -7.293  -5.349  1.00  0.00    -0.248 NA
ATOM     46  C   UNL     1       0.769  -6.905  -3.045  1.00  0.00     0.031 C 
ATOM     47  C   UNL     1       2.294  -3.114  -5.953  1.00  0.00     0.029 A 
ATOM     48  N   UNL     1       1.655  -5.001  -6.974  1.00  0.00    -0.354 N 
ATOM     49  C   UNL     1       0.377  -8.438  -4.698  1.00  0.00     0.074 A 
ATOM     50  C   UNL     1       0.396  -8.154  -3.279  1.00  0.00     0.031 C 
ATOM     51  C   UNL     1       2.454  -2.936  -7.277  1.00  0.00     0.029 A 
ATOM     52  C   UNL     1       2.103  -4.174  -7.976  1.00  0.00     0.049 A 
ATOM     53  H   UNL     1       1.267  -5.890  -7.142  1.00  0.00     0.167 HD
ATOM     54  C   UNL     1      -0.007  -9.621  -5.232  1.00  0.00     0.037 A 
ATOM     55  C   UNL     1       2.252  -4.402  -9.297  1.00  0.00     0.037 A 
ATOM     56  C   UNL     1      -0.013  -9.906  -6.641  1.00  0.00     0.049 A 
ATOM     57  C   UNL     1       1.861  -5.739  -9.874  1.00  0.00     0.074 A 
ATOM     58  C   UNL     1      -0.416 -11.064  -7.282  1.00  0.00     0.029 A 
ATOM     59  N   UNL     1       0.424  -9.033  -7.627  1.00  0.00    -0.354 N 
ATOM     60  N   UNL     1       1.400  -6.800  -9.256  1.00  0.00    -0.248 NA
ATOM     61  C   UNL     1       2.009  -5.911 -11.328  1.00  0.00     0.031 C 
ATOM     62  C   UNL     1      -0.178 -10.908  -8.652  1.00  0.00     0.029 A 
ATOM     63  C   UNL     1       0.326  -9.635  -8.870  1.00  0.00     0.049 A 
ATOM     64  H   UNL     1       0.755  -8.120  -7.466  1.00  0.00     0.167 HD
ATOM     65  C   UNL     1       1.177  -7.754 -10.245  1.00  0.00     0.074 A 
ATOM     66  C   UNL     1       1.556  -7.146 -11.504  1.00  0.00     0.031 C 
ATOM     67  C   UNL     1       0.695  -9.016 -10.120  1.00  0.00     0.037 A 
BRANCH  54  68
ATOM     68  C   UNL     1      -0.404 -10.705  -4.271  1.00  0.00     0.058 A 
ATOM     69  C   UNL     1      -1.595 -10.638  -3.530  1.00  0.00     0.135 A 
ATOM     70  C   UNL     1       0.436 -11.811  -4.066  1.00  0.00     0.135 A 
ATOM     71  F   UNL     1      -2.424  -9.592  -3.676  1.00  0.00    -0.206 F 
ATOM     72  C   UNL     1      -1.915 -11.604  -2.583  1.00  0.00     0.059 A 
ATOM     73  C   UNL     1       0.122 -12.803  -3.144  1.00  0.00     0.059 A 
ATOM     74  F   UNL     1       1.587 -11.922  -4.748  1.00  0.00    -0.206 F 
ATOM     75  C   UNL     1      -1.043 -12.677  -2.389  1.00  0.00     0.060 A 
BRANCH  75  76
ATOM     76  S   UNL     1      -1.442 -13.899  -1.121  1.00  0.00     0.124 S 
ATOM     77  O   UNL     1      -1.099 -13.172   0.097  1.00  0.00    -0.237 OA
ATOM     78  O   UNL     1      -2.866 -14.129  -1.343  1.00  0.00    -0.237 OA
ATOM     79  O   UNL     1      -0.570 -15.023  -1.448  1.00  0.00    -0.744 OA
ENDBRANCH  75  76
ENDBRANCH  54  68
BRANCH  55  80
ATOM     80  C   UNL     1       2.820  -3.333 -10.161  1.00  0.00     0.058 A 
ATOM     81  C   UNL     1       2.012  -2.614 -11.052  1.00  0.00     0.135 A 
ATOM     82  C   UNL     1       4.177  -2.982 -10.077  1.00  0.00     0.135 A 
ATOM     83  F   UNL     1       0.713  -2.925 -11.180  1.00  0.00    -0.206 F 
ATOM     84  C   UNL     1       2.525  -1.575 -11.823  1.00  0.00     0.059 A 
ATOM     85  C   UNL     1       4.708  -1.934 -10.822  1.00  0.00     0.059 A 
ATOM     86  F   UNL     1       4.990  -3.637  -9.235  1.00  0.00    -0.206 F 
ATOM     87  C   UNL     1       3.873  -1.234 -11.692  1.00  0.00     0.060 A 
BRANCH  87  88
ATOM     88  S   UNL     1       4.504   0.181 -12.620  1.00  0.00     0.124 S 
ATOM     89  O   UNL     1       4.562  -0.355 -13.974  1.00  0.00    -0.237 OA
ATOM     90  O   UNL     1       3.478   1.190 -12.374  1.00  0.00    -0.237 OA
ATOM     91  O   UNL     1       5.794   0.447 -11.989  1.00  0.00    -0.744 OA
ENDBRANCH  87  88
ENDBRANCH  55  80
BRANCH  67  92
ATOM     92  C   UNL     1       0.504  -9.831 -11.371  1.00  0.00     0.058 A 
ATOM     93  C   UNL     1       1.585 -10.416 -12.045  1.00  0.00     0.135 A 
ATOM     94  C   UNL     1      -0.791 -10.117 -11.835  1.00  0.00     0.135 A 
ATOM     95  F   UNL     1       2.843 -10.171 -11.647  1.00  0.00    -0.206 F 
ATOM     96  C   UNL     1       1.390 -11.259 -13.137  1.00  0.00     0.059 A 
ATOM     97  C   UNL     1      -1.011 -10.974 -12.909  1.00  0.00     0.059 A 
ATOM     98  F   UNL     1      -1.861  -9.590 -11.219  1.00  0.00    -0.206 F 
ATOM     99  C   UNL     1       0.087 -11.539 -13.556  1.00  0.00     0.060 A 
BRANCH  99 100
ATOM    100  S   UNL     1      -0.156 -12.692 -14.925  1.00  0.00     0.124 S 
ATOM    101  O   UNL     1       0.239 -11.879 -16.070  1.00  0.00    -0.237 OA
ATOM    102  O   UNL     1       0.750 -13.784 -14.579  1.00  0.00    -0.237 OA
ATOM    103  O   UNL     1      -1.577 -13.017 -14.847  1.00  0.00    -0.744 OA
ENDBRANCH  99 100
ENDBRANCH  67  92
ENDBRANCH  41  42
ENDBRANCH  34  36
ENDBRANCH  33  34
ENDBRANCH  32  33
ENDBRANCH   1  32
TORSDOF 19
