REMARK SMILES CCOc1cc2c(cc1OCC)[C@@H](C(=O)OCCOC(=O)c1ccc(-c3c4nc(c(-c5c(F)cc(S(=O)(=O)[O-])cc5F)c5ccc([nH]5)c(-c5c(F)cc(S(=O)(=O)[O-])cc5F)c5nc(c(-c6c(F)cc(S(=O)(=O)[O-])cc6F)c6ccc3[nH]6)C=C5)C=C4)cc1)[C@H](c1ccc(F)cc1Cl)N(C)C2=O
REMARK SMILES IDX 18 1 17 2 16 3 14 4 15 5 13 6 4 7 5 8 9 9 6 10 8 11 7 12
REMARK SMILES IDX 99 13 97 14 100 15 88 16 98 17 3 18 2 19 1 20 10 21 11 22
REMARK SMILES IDX 12 23 89 24 90 25 95 26 91 27 94 28 96 29 92 30 93 31 19 32
REMARK SMILES IDX 20 33 21 34 22 35 23 36 87 37 24 38 86 39 25 40 26 41 27 42
REMARK SMILES IDX 80 43 28 44 85 45 79 46 81 47 29 48 84 49 78 50 77 51 30 53
REMARK SMILES IDX 64 54 43 55 63 56 44 57 47 58 62 59 82 60 45 61 46 62 61 64
REMARK SMILES IDX 83 65 48 66 31 67 32 68 41 69 33 70 34 71 40 72 42 73 35 74
REMARK SMILES IDX 36 75 37 76 38 77 39 78 65 79 66 80 75 81 67 82 68 83 74 84
REMARK SMILES IDX 76 85 69 86 70 87 71 88 72 89 73 90 49 91 50 92 59 93 51 94
REMARK SMILES IDX 52 95 58 96 60 97 53 98 54 99 55 100 56 101 57 102
REMARK H PARENT 81 52 47 63
REMARK Flexibility Score: inf
ROOT
ATOM      1  C   UNL     1       9.566  -1.764   2.227  1.00  0.00     0.275 C 
ENDROOT
BRANCH   1   2
ATOM      2  C   UNL     1       8.051  -1.891   2.034  1.00  0.00     0.274 C 
BRANCH   2   3
ATOM      3  O   UNL     1       7.410  -0.608   1.890  1.00  0.00    -0.462 OA
BRANCH   3   4
ATOM      4  C   UNL     1       6.821  -0.101   3.000  1.00  0.00     0.316 C 
ATOM      5  O   UNL     1       6.819  -0.664   4.091  1.00  0.00    -0.251 OA
BRANCH   4   6
ATOM      6  C   UNL     1       6.089   1.220   2.783  1.00  0.00     0.157 C 
ATOM      7  C   UNL     1       1.905   0.607   2.025  1.00  0.00     0.161 A 
ATOM      8  C   UNL     1       2.821   0.710   0.964  1.00  0.00     0.064 A 
ATOM      9  C   UNL     1       2.349   0.699   3.351  1.00  0.00     0.161 A 
ATOM     10  C   UNL     1       4.180   0.867   1.213  1.00  0.00     0.048 A 
ATOM     11  C   UNL     1       3.717   0.875   3.586  1.00  0.00     0.056 A 
ATOM     12  C   UNL     1       4.628   0.973   2.528  1.00  0.00    -0.015 A 
ATOM     13  C   UNL     1       5.155   0.931   0.087  1.00  0.00     0.254 C 
ATOM     14  N   UNL     1       6.375   1.550   0.362  1.00  0.00    -0.333 N 
ATOM     15  O   UNL     1       4.867   0.433  -0.997  1.00  0.00    -0.269 OA
ATOM     16  C   UNL     1       6.647   2.157   1.671  1.00  0.00     0.135 C 
ATOM     17  C   UNL     1       7.418   1.543  -0.648  1.00  0.00     0.147 C 
BRANCH   7  18
ATOM     18  O   UNL     1       0.574   0.525   1.716  1.00  0.00    -0.490 OA
BRANCH  18  19
ATOM     19  C   UNL     1       0.221  -0.708   1.074  1.00  0.00     0.226 C 
ATOM     20  C   UNL     1       0.103  -0.536  -0.431  1.00  0.00     0.049 C 
ENDBRANCH  18  19
ENDBRANCH   7  18
BRANCH   9  21
ATOM     21  O   UNL     1       1.651   0.652   4.521  1.00  0.00    -0.490 OA
BRANCH  21  22
ATOM     22  C   UNL     1       0.245   0.463   4.544  1.00  0.00     0.226 C 
ATOM     23  C   UNL     1      -0.479   1.792   4.432  1.00  0.00     0.049 C 
ENDBRANCH  21  22
ENDBRANCH   9  21
BRANCH  16  24
ATOM     24  C   UNL     1       6.138   3.617   1.862  1.00  0.00    -0.005 A 
ATOM     25  C   UNL     1       6.469   4.229   3.102  1.00  0.00     0.010 A 
ATOM     26  C   UNL     1       5.355   4.394   0.977  1.00  0.00     0.049 A 
ATOM     27  C   UNL     1       5.968   5.479   3.481  1.00  0.00     0.040 A 
ATOM     28  C   UNL     1       4.859   5.651   1.362  1.00  0.00     0.060 A 
ATOM     29  Cl  UNL     1       4.933   3.966  -0.641  1.00  0.00    -0.084 Cl
ATOM     30  C   UNL     1       5.151   6.171   2.610  1.00  0.00     0.124 A 
ATOM     31  F   UNL     1       4.649   7.360   2.965  1.00  0.00    -0.207 F 
ENDBRANCH  16  24
ENDBRANCH   4   6
ENDBRANCH   3   4
ENDBRANCH   2   3
ENDBRANCH   1   2
BRANCH   1  32
ATOM     32  O   UNL     1       9.906  -1.152   3.486  1.00  0.00    -0.458 OA
BRANCH  32  33
ATOM     33  C   UNL     1       9.975   0.199   3.451  1.00  0.00     0.338 C 
ATOM     34  O   UNL     1       9.826   0.916   2.475  1.00  0.00    -0.246 OA
BRANCH  33  35
ATOM     35  C   UNL     1      10.065   0.749   4.811  1.00  0.00     0.060 A 
ATOM     36  C   UNL     1       9.037   1.606   5.211  1.00  0.00     0.016 A 
ATOM     37  C   UNL     1      11.172   0.544   5.632  1.00  0.00     0.016 A 
ATOM     38  C   UNL     1       9.117   2.295   6.410  1.00  0.00     0.010 A 
ATOM     39  C   UNL     1      11.255   1.238   6.847  1.00  0.00     0.010 A 
ATOM     40  C   UNL     1      10.241   2.137   7.226  1.00  0.00    -0.014 A 
BRANCH  40  41
ATOM     41  C   UNL     1      10.372   3.014   8.413  1.00  0.00     0.031 A 
ATOM     42  C   UNL     1      11.328   4.173   8.370  1.00  0.00     0.074 A 
ATOM     43  C   UNL     1       9.569   2.829   9.477  1.00  0.00     0.049 A 
ATOM     44  N   UNL     1      11.600   5.054   9.296  1.00  0.00    -0.248 NA
ATOM     45  C   UNL     1      12.075   4.369   7.116  1.00  0.00     0.031 C 
ATOM     46  C   UNL     1       8.564   1.772   9.602  1.00  0.00     0.029 A 
ATOM     47  N   UNL     1       9.461   3.533  10.648  1.00  0.00    -0.354 N 
ATOM     48  C   UNL     1      12.570   5.888   8.753  1.00  0.00     0.074 A 
ATOM     49  C   UNL     1      12.844   5.406   7.417  1.00  0.00     0.031 C 
ATOM     50  C   UNL     1       7.938   1.900  10.783  1.00  0.00     0.029 A 
ATOM     51  C   UNL     1       8.524   3.021  11.513  1.00  0.00     0.049 A 
ATOM     52  H   UNL     1      10.005   4.329  10.851  1.00  0.00     0.167 HD
ATOM     53  C   UNL     1      13.174   6.959   9.319  1.00  0.00     0.037 A 
ATOM     54  C   UNL     1       8.192   3.402  12.761  1.00  0.00     0.037 A 
ATOM     55  C   UNL     1      12.872   7.451  10.638  1.00  0.00     0.049 A 
ATOM     56  C   UNL     1       8.891   4.586  13.373  1.00  0.00     0.074 A 
ATOM     57  C   UNL     1      13.422   8.535  11.300  1.00  0.00     0.029 A 
ATOM     58  N   UNL     1      11.933   6.895  11.493  1.00  0.00    -0.354 N 
ATOM     59  N   UNL     1       9.820   5.353  12.853  1.00  0.00    -0.248 NA
ATOM     60  C   UNL     1       8.497   4.957  14.738  1.00  0.00     0.031 C 
ATOM     61  C   UNL     1      12.836   8.615  12.569  1.00  0.00     0.029 A 
ATOM     62  C   UNL     1      11.895   7.604  12.682  1.00  0.00     0.049 A 
ATOM     63  H   UNL     1      11.375   6.110  11.286  1.00  0.00     0.167 HD
ATOM     64  C   UNL     1      10.115   6.303  13.825  1.00  0.00     0.074 A 
ATOM     65  C   UNL     1       9.248   6.028  14.953  1.00  0.00     0.031 C 
ATOM     66  C   UNL     1      11.024   7.309  13.791  1.00  0.00     0.037 A 
BRANCH  53  67
ATOM     67  C   UNL     1      14.248   7.649   8.527  1.00  0.00     0.058 A 
ATOM     68  C   UNL     1      13.950   8.480   7.436  1.00  0.00     0.135 A 
ATOM     69  C   UNL     1      15.597   7.496   8.886  1.00  0.00     0.135 A 
ATOM     70  F   UNL     1      12.678   8.641   7.037  1.00  0.00    -0.206 F 
ATOM     71  C   UNL     1      14.954   9.121   6.716  1.00  0.00     0.059 A 
ATOM     72  C   UNL     1      16.616   8.144   8.194  1.00  0.00     0.059 A 
ATOM     73  F   UNL     1      15.936   6.707   9.918  1.00  0.00    -0.206 F 
ATOM     74  C   UNL     1      16.285   8.945   7.102  1.00  0.00     0.060 A 
BRANCH  74  75
ATOM     75  S   UNL     1      17.578   9.786   6.164  1.00  0.00     0.124 S 
ATOM     76  O   UNL     1      17.630   8.976   4.951  1.00  0.00    -0.237 OA
ATOM     77  O   UNL     1      17.028  11.129   6.006  1.00  0.00    -0.237 OA
ATOM     78  O   UNL     1      18.746   9.689   7.034  1.00  0.00    -0.744 OA
ENDBRANCH  74  75
ENDBRANCH  53  67
BRANCH  54  79
ATOM     79  C   UNL     1       7.173   2.638  13.526  1.00  0.00     0.058 A 
ATOM     80  C   UNL     1       5.917   3.187  13.821  1.00  0.00     0.135 A 
ATOM     81  C   UNL     1       7.441   1.337  13.981  1.00  0.00     0.135 A 
ATOM     82  F   UNL     1       5.617   4.430  13.415  1.00  0.00    -0.206 F 
ATOM     83  C   UNL     1       4.968   2.481  14.554  1.00  0.00     0.059 A 
ATOM     84  C   UNL     1       6.500   0.602  14.694  1.00  0.00     0.059 A 
ATOM     85  F   UNL     1       8.624   0.761  13.714  1.00  0.00    -0.206 F 
ATOM     86  C   UNL     1       5.270   1.188  14.987  1.00  0.00     0.060 A 
BRANCH  86  87
ATOM     87  S   UNL     1       4.021   0.260  15.903  1.00  0.00     0.124 S 
ATOM     88  O   UNL     1       4.124   0.859  17.228  1.00  0.00    -0.237 OA
ATOM     89  O   UNL     1       2.802   0.562  15.158  1.00  0.00    -0.237 OA
ATOM     90  O   UNL     1       4.485  -1.120  15.794  1.00  0.00    -0.744 OA
ENDBRANCH  86  87
ENDBRANCH  54  79
BRANCH  66  91
ATOM     91  C   UNL     1      11.106   8.193  15.004  1.00  0.00     0.058 A 
ATOM     92  C   UNL     1      11.698   7.749  16.196  1.00  0.00     0.135 A 
ATOM     93  C   UNL     1      10.602   9.502  14.966  1.00  0.00     0.135 A 
ATOM     94  F   UNL     1      12.191   6.503  16.283  1.00  0.00    -0.206 F 
ATOM     95  C   UNL     1      11.755   8.561  17.323  1.00  0.00     0.059 A 
ATOM     96  C   UNL     1      10.670  10.340  16.074  1.00  0.00     0.059 A 
ATOM     97  F   UNL     1      10.038   9.978  13.845  1.00  0.00    -0.206 F 
ATOM     98  C   UNL     1      11.232   9.854  17.254  1.00  0.00     0.060 A 
BRANCH  98  99
ATOM     99  S   UNL     1      11.310  10.904  18.720  1.00  0.00     0.124 S 
ATOM    100  O   UNL     1      10.202  10.381  19.513  1.00  0.00    -0.237 OA
ATOM    101  O   UNL     1      12.646  10.626  19.238  1.00  0.00    -0.237 OA
ATOM    102  O   UNL     1      11.121  12.248  18.183  1.00  0.00    -0.744 OA
ENDBRANCH  98  99
ENDBRANCH  66  91
ENDBRANCH  40  41
ENDBRANCH  33  35
ENDBRANCH  32  33
ENDBRANCH   1  32
TORSDOF 19
