REMARK SMILES C=CCN(CC(=O)OCCOC(=O)c1ccc(-c2c3nc(c(-c4c(F)cc(S(=O)(=O)[O-])cc4F)c4ccc([nH]4)c(-c4c(F)cc(S(=O)(=O)[O-])cc4F)c4nc(c(-c5c(F)cc(S(=O)(=O)[O-])cc5F)c5ccc2[nH]5)C=C4)C=C3)cc1)c1nc2ccccc2s1
REMARK SMILES IDX 9 1 8 2 6 3 7 4 5 5 4 6 3 7 2 8 1 9 80 10 81 11 88 12 82 13
REMARK SMILES IDX 87 14 83 15 86 16 84 17 85 18 10 19 11 20 12 21 13 22 14 23
REMARK SMILES IDX 15 24 79 25 16 26 78 27 17 28 18 29 19 30 72 31 20 32 77 33
REMARK SMILES IDX 71 34 73 35 21 36 76 37 70 38 69 39 22 41 56 42 35 43 55 44
REMARK SMILES IDX 36 45 39 46 54 47 74 48 37 49 38 50 53 52 75 53 40 54 23 55
REMARK SMILES IDX 24 56 33 57 25 58 26 59 32 60 34 61 27 62 28 63 29 64 30 65
REMARK SMILES IDX 31 66 57 67 58 68 67 69 59 70 60 71 66 72 68 73 61 74 62 75
REMARK SMILES IDX 63 76 64 77 65 78 41 79 42 80 51 81 43 82 44 83 50 84 52 85
REMARK SMILES IDX 45 86 46 87 47 88 48 89 49 90
REMARK H PARENT 73 40 39 51
REMARK Flexibility Score: inf
ROOT
ATOM      1  C   UNL     1      -5.606  -0.266   2.086  1.00  0.00     0.274 C 
ENDROOT
BRANCH   1   2
ATOM      2  O   UNL     1      -4.174  -0.200   1.941  1.00  0.00    -0.461 OA
BRANCH   2   3
ATOM      3  C   UNL     1      -3.579   0.807   2.638  1.00  0.00     0.325 C 
ATOM      4  O   UNL     1      -4.194   1.708   3.207  1.00  0.00    -0.250 OA
BRANCH   3   5
ATOM      5  C   UNL     1      -2.059   0.756   2.666  1.00  0.00     0.241 C 
BRANCH   5   6
ATOM      6  N   UNL     1      -1.418  -0.292   1.868  1.00  0.00    -0.333 N 
BRANCH   6   7
ATOM      7  C   UNL     1      -1.076   0.016   0.492  1.00  0.00     0.146 C 
BRANCH   7   8
ATOM      8  C   UNL     1       0.305   0.605   0.431  1.00  0.00    -0.014 C 
ATOM      9  C   UNL     1       1.282   0.161  -0.371  1.00  0.00     0.006 C 
ENDBRANCH   7   8
ENDBRANCH   6   7
BRANCH   6  10
ATOM     10  C   UNL     1      -1.105  -1.481   2.463  1.00  0.00     0.187 A 
ATOM     11  N   UNL     1      -1.796  -2.007   3.453  1.00  0.00    -0.220 NA
ATOM     12  S   UNL     1       0.288  -2.411   2.017  1.00  0.00    -0.097 S 
ATOM     13  C   UNL     1      -1.230  -3.207   3.874  1.00  0.00     0.084 A 
ATOM     14  C   UNL     1      -0.040  -3.557   3.243  1.00  0.00     0.056 A 
ATOM     15  C   UNL     1      -1.734  -4.081   4.860  1.00  0.00     0.030 A 
ATOM     16  C   UNL     1       0.696  -4.699   3.604  1.00  0.00     0.021 A 
ATOM     17  C   UNL     1      -1.021  -5.229   5.223  1.00  0.00     0.002 A 
ATOM     18  C   UNL     1       0.189  -5.525   4.609  1.00  0.00     0.002 A 
ENDBRANCH   6  10
ENDBRANCH   5   6
ENDBRANCH   3   5
ENDBRANCH   2   3
ENDBRANCH   1   2
BRANCH   1  19
ATOM     19  C   UNL     1      -5.990  -1.234   3.205  1.00  0.00     0.275 C 
BRANCH  19  20
ATOM     20  O   UNL     1      -5.258  -0.916   4.399  1.00  0.00    -0.458 OA
BRANCH  20  21
ATOM     21  C   UNL     1      -4.974  -1.978   5.191  1.00  0.00     0.338 C 
ATOM     22  O   UNL     1      -5.416  -3.109   5.059  1.00  0.00    -0.246 OA
BRANCH  21  23
ATOM     23  C   UNL     1      -4.031  -1.599   6.276  1.00  0.00     0.060 A 
ATOM     24  C   UNL     1      -3.196  -0.481   6.186  1.00  0.00     0.016 A 
ATOM     25  C   UNL     1      -3.925  -2.447   7.385  1.00  0.00     0.016 A 
ATOM     26  C   UNL     1      -2.241  -0.229   7.176  1.00  0.00     0.010 A 
ATOM     27  C   UNL     1      -3.004  -2.170   8.397  1.00  0.00     0.010 A 
ATOM     28  C   UNL     1      -2.154  -1.059   8.302  1.00  0.00    -0.014 A 
BRANCH  28  29
ATOM     29  C   UNL     1      -1.259  -0.730   9.441  1.00  0.00     0.031 A 
ATOM     30  C   UNL     1      -0.106  -1.622   9.803  1.00  0.00     0.074 A 
ATOM     31  C   UNL     1      -1.558   0.334  10.211  1.00  0.00     0.049 A 
ATOM     32  N   UNL     1       0.638  -1.608  10.880  1.00  0.00    -0.248 NA
ATOM     33  C   UNL     1       0.253  -2.670   8.836  1.00  0.00     0.031 C 
ATOM     34  C   UNL     1      -2.647   1.280   9.958  1.00  0.00     0.029 A 
ATOM     35  N   UNL     1      -0.995   0.780  11.380  1.00  0.00    -0.354 N 
ATOM     36  C   UNL     1       1.540  -2.655  10.735  1.00  0.00     0.074 A 
ATOM     37  C   UNL     1       1.243  -3.290   9.466  1.00  0.00     0.031 C 
ATOM     38  C   UNL     1      -2.680   2.186  10.945  1.00  0.00     0.029 A 
ATOM     39  C   UNL     1      -1.657   1.851  11.930  1.00  0.00     0.049 A 
ATOM     40  H   UNL     1      -0.195   0.373  11.784  1.00  0.00     0.167 HD
ATOM     41  C   UNL     1       2.522  -3.046  11.585  1.00  0.00     0.037 A 
ATOM     42  C   UNL     1      -1.496   2.468  13.115  1.00  0.00     0.037 A 
ATOM     43  C   UNL     1       2.817  -2.401  12.841  1.00  0.00     0.049 A 
ATOM     44  C   UNL     1      -0.436   1.985  14.060  1.00  0.00     0.074 A 
ATOM     45  C   UNL     1       3.809  -2.711  13.757  1.00  0.00     0.029 A 
ATOM     46  N   UNL     1       2.124  -1.317  13.361  1.00  0.00    -0.354 N 
ATOM     47  N   UNL     1       0.404   0.989  13.914  1.00  0.00    -0.248 NA
ATOM     48  C   UNL     1      -0.307   2.704  15.335  1.00  0.00     0.031 C 
ATOM     49  C   UNL     1       3.694  -1.838  14.845  1.00  0.00     0.029 A 
ATOM     50  C   UNL     1       2.655  -0.958  14.591  1.00  0.00     0.049 A 
ATOM     51  H   UNL     1       1.365  -0.869  12.922  1.00  0.00     0.167 HD
ATOM     52  C   UNL     1       1.174   0.971  15.071  1.00  0.00     0.074 A 
ATOM     53  C   UNL     1       0.706   2.063  15.902  1.00  0.00     0.031 C 
ATOM     54  C   UNL     1       2.179   0.127  15.411  1.00  0.00     0.037 A 
BRANCH  41  55
ATOM     55  C   UNL     1       3.347  -4.241  11.198  1.00  0.00     0.058 A 
ATOM     56  C   UNL     1       4.337  -4.164  10.207  1.00  0.00     0.135 A 
ATOM     57  C   UNL     1       3.188  -5.464  11.872  1.00  0.00     0.135 A 
ATOM     58  F   UNL     1       4.525  -3.023   9.526  1.00  0.00    -0.206 F 
ATOM     59  C   UNL     1       5.129  -5.263   9.883  1.00  0.00     0.059 A 
ATOM     60  C   UNL     1       3.982  -6.570  11.578  1.00  0.00     0.059 A 
ATOM     61  F   UNL     1       2.258  -5.591  12.831  1.00  0.00    -0.206 F 
ATOM     62  C   UNL     1       4.942  -6.463  10.572  1.00  0.00     0.060 A 
BRANCH  62  63
ATOM     63  S   UNL     1       5.979  -7.878  10.147  1.00  0.00     0.124 S 
ATOM     64  O   UNL     1       5.378  -8.310   8.889  1.00  0.00    -0.237 OA
ATOM     65  O   UNL     1       7.305  -7.277  10.041  1.00  0.00    -0.237 OA
ATOM     66  O   UNL     1       5.795  -8.786  11.275  1.00  0.00    -0.744 OA
ENDBRANCH  62  63
ENDBRANCH  41  55
BRANCH  42  67
ATOM     67  C   UNL     1      -2.385   3.601  13.475  1.00  0.00     0.058 A 
ATOM     68  C   UNL     1      -1.906   4.918  13.467  1.00  0.00     0.135 A 
ATOM     69  C   UNL     1      -3.737   3.393  13.790  1.00  0.00     0.135 A 
ATOM     70  F   UNL     1      -0.619   5.162  13.178  1.00  0.00    -0.206 F 
ATOM     71  C   UNL     1      -2.736   5.993  13.763  1.00  0.00     0.059 A 
ATOM     72  C   UNL     1      -4.592   4.454  14.067  1.00  0.00     0.059 A 
ATOM     73  F   UNL     1      -4.243   2.150  13.794  1.00  0.00    -0.206 F 
ATOM     74  C   UNL     1      -4.080   5.751  14.058  1.00  0.00     0.060 A 
BRANCH  74  75
ATOM     75  S   UNL     1      -5.168   7.157  14.372  1.00  0.00     0.124 S 
ATOM     76  O   UNL     1      -4.814   7.499  15.745  1.00  0.00    -0.237 OA
ATOM     77  O   UNL     1      -4.749   8.109  13.348  1.00  0.00    -0.237 OA
ATOM     78  O   UNL     1      -6.502   6.595  14.184  1.00  0.00    -0.744 OA
ENDBRANCH  74  75
ENDBRANCH  42  67
BRANCH  54  79
ATOM     79  C   UNL     1       2.857   0.373  16.728  1.00  0.00     0.058 A 
ATOM     80  C   UNL     1       2.248   0.029  17.945  1.00  0.00     0.135 A 
ATOM     81  C   UNL     1       4.139   0.943  16.773  1.00  0.00     0.135 A 
ATOM     82  F   UNL     1       1.018  -0.509  17.956  1.00  0.00    -0.206 F 
ATOM     83  C   UNL     1       2.876   0.266  19.163  1.00  0.00     0.059 A 
ATOM     84  C   UNL     1       4.795   1.170  17.979  1.00  0.00     0.059 A 
ATOM     85  F   UNL     1       4.768   1.284  15.636  1.00  0.00    -0.206 F 
ATOM     86  C   UNL     1       4.149   0.841  19.170  1.00  0.00     0.060 A 
BRANCH  86  87
ATOM     87  S   UNL     1       4.964   1.131  20.755  1.00  0.00     0.124 S 
ATOM     88  O   UNL     1       4.284   2.337  21.218  1.00  0.00    -0.237 OA
ATOM     89  O   UNL     1       4.662  -0.090  21.495  1.00  0.00    -0.237 OA
ATOM     90  O   UNL     1       6.366   1.302  20.387  1.00  0.00    -0.744 OA
ENDBRANCH  86  87
ENDBRANCH  54  79
ENDBRANCH  28  29
ENDBRANCH  21  23
ENDBRANCH  20  21
ENDBRANCH  19  20
ENDBRANCH   1  19
TORSDOF 18
