REMARK SMILES O=C(CC[P@TB4](=O)(O)C[NH+]1CCCCC1)OCCOC(=O)c1ccc(-c2c3nc(c(-c4c(F)cc(S(=O)(=O)[O-])cc4F)c4ccc([nH]4)c(-c4c(F)cc(S(=O)(=O)[O-])cc4F)c4nc(c(-c5c(F)cc(S(=O)(=O)[O-])cc5F)c5ccc2[nH]5)C=C4)C=C3)cc1
REMARK SMILES IDX 16 1 15 2 2 3 1 4 3 5 4 6 5 7 6 8 7 9 8 11 9 12 10 13 14 14
REMARK SMILES IDX 11 16 13 17 12 18 17 19 18 20 19 21 20 22 21 23 22 24 86 25
REMARK SMILES IDX 23 26 85 27 24 28 25 29 26 30 79 31 27 32 84 33 78 34 80 35
REMARK SMILES IDX 28 36 83 37 77 38 76 39 29 41 63 42 42 43 62 44 43 45 46 46
REMARK SMILES IDX 61 47 81 48 44 49 45 50 60 52 82 53 47 54 30 55 31 56 40 57
REMARK SMILES IDX 32 58 33 59 39 60 41 61 34 62 35 63 36 64 37 65 38 66 64 67
REMARK SMILES IDX 65 68 74 69 66 70 67 71 73 72 75 73 68 74 69 75 70 76 71 77
REMARK SMILES IDX 72 78 48 79 49 80 58 81 50 82 51 83 57 84 59 85 52 86 53 87
REMARK SMILES IDX 54 88 55 89 56 90
REMARK H PARENT 7 10 9 15 80 40 46 51
REMARK Flexibility Score: inf
ROOT
ATOM      1  C   UNL     1       2.791  -0.376  -1.937  1.00  0.00       nan C 
ENDROOT
BRANCH   1   2
ATOM      2  O   UNL     1       1.733   0.073  -1.069  1.00  0.00       nan OA
BRANCH   2   3
ATOM      3  C   UNL     1       1.874  -0.131   0.277  1.00  0.00       nan C 
ATOM      4  O   UNL     1       1.143  -0.896   0.896  1.00  0.00       nan OA
BRANCH   3   5
ATOM      5  C   UNL     1       2.742   0.917   0.963  1.00  0.00       nan C 
BRANCH   5   6
ATOM      6  C   UNL     1       3.981   0.486   1.737  1.00  0.00       nan C 
BRANCH   6   7
ATOM      7  P   UNL     1       5.170  -0.685   0.986  1.00  0.00       nan P 
ATOM      8  O   UNL     1       4.003  -1.633   0.729  1.00  0.00       nan OA
BRANCH   7   9
ATOM      9  O   UNL     1       5.425   0.348  -0.277  1.00  0.00       nan OA
ATOM     10  H   UNL     1       4.883   1.144  -0.158  1.00  0.00       nan HD
ENDBRANCH   7   9
BRANCH   7  11
ATOM     11  C   UNL     1       6.359  -1.856   0.235  1.00  0.00       nan C 
BRANCH  11  12
ATOM     12  N   UNL     1       5.823  -2.699  -0.852  1.00  0.00       nan N 
ATOM     13  C   UNL     1       6.265  -2.248  -2.171  1.00  0.00       nan C 
ATOM     14  C   UNL     1       6.169  -4.108  -0.621  1.00  0.00       nan C 
ATOM     15  H   UNL     1       4.807  -2.610  -0.843  1.00  0.00       nan HD
ATOM     16  C   UNL     1       5.628  -3.097  -3.275  1.00  0.00       nan C 
ATOM     17  C   UNL     1       5.556  -5.024  -1.678  1.00  0.00       nan C 
ATOM     18  C   UNL     1       5.934  -4.579  -3.085  1.00  0.00       nan C 
ENDBRANCH  11  12
ENDBRANCH   7  11
ENDBRANCH   6   7
ENDBRANCH   5   6
ENDBRANCH   3   5
ENDBRANCH   2   3
ENDBRANCH   1   2
BRANCH   1  19
ATOM     19  C   UNL     1       3.405   0.761  -2.769  1.00  0.00       nan C 
BRANCH  19  20
ATOM     20  O   UNL     1       3.376   2.002  -2.043  1.00  0.00       nan OA
BRANCH  20  21
ATOM     21  C   UNL     1       2.240   2.717  -2.279  1.00  0.00       nan C 
ATOM     22  O   UNL     1       1.455   2.554  -3.199  1.00  0.00       nan OA
BRANCH  21  23
ATOM     23  C   UNL     1       1.946   3.574  -1.114  1.00  0.00       nan A 
ATOM     24  C   UNL     1       0.672   3.453  -0.546  1.00  0.00       nan A 
ATOM     25  C   UNL     1       2.888   4.453  -0.569  1.00  0.00       nan A 
ATOM     26  C   UNL     1       0.308   4.265   0.523  1.00  0.00       nan A 
ATOM     27  C   UNL     1       2.518   5.274   0.503  1.00  0.00       nan A 
ATOM     28  C   UNL     1       1.210   5.218   1.017  1.00  0.00       inf A 
BRANCH  28  29
ATOM     29  C   UNL     1       0.674   6.299   1.879  1.00  0.00     0.031 A 
ATOM     30  C   UNL     1       0.194   7.559   1.206  1.00  0.00     0.074 A 
ATOM     31  C   UNL     1       0.523   6.137   3.206  1.00  0.00     0.049 A 
ATOM     32  N   UNL     1      -0.437   8.584   1.714  1.00  0.00    -0.248 NA
ATOM     33  C   UNL     1       0.455   7.670  -0.241  1.00  0.00     0.031 C 
ATOM     34  C   UNL     1       0.936   4.962   3.972  1.00  0.00     0.029 A 
ATOM     35  N   UNL     1      -0.036   6.970   4.142  1.00  0.00    -0.354 N 
ATOM     36  C   UNL     1      -0.681   9.441   0.647  1.00  0.00     0.074 A 
ATOM     37  C   UNL     1      -0.077   8.848  -0.525  1.00  0.00     0.031 C 
ATOM     38  C   UNL     1       0.621   5.154   5.266  1.00  0.00     0.029 A 
ATOM     39  C   UNL     1      -0.020   6.459   5.418  1.00  0.00     0.049 A 
ATOM     40  H   UNL     1      -0.414   7.852   3.921  1.00  0.00     0.167 HD
ATOM     41  C   UNL     1      -1.373  10.604   0.635  1.00  0.00     0.037 A 
ATOM     42  C   UNL     1      -0.480   6.986   6.571  1.00  0.00     0.037 A 
ATOM     43  C   UNL     1      -1.955  11.208   1.802  1.00  0.00     0.049 A 
ATOM     44  C   UNL     1      -1.198   8.313   6.543  1.00  0.00     0.074 A 
ATOM     45  C   UNL     1      -2.661  12.393   1.898  1.00  0.00     0.029 A 
ATOM     46  N   UNL     1      -1.892  10.672   3.079  1.00  0.00    -0.354 N 
ATOM     47  N   UNL     1      -1.458   9.090   5.518  1.00  0.00    -0.248 NA
ATOM     48  C   UNL     1      -1.701   8.824   7.826  1.00  0.00     0.031 C 
ATOM     49  C   UNL     1      -2.997  12.592   3.243  1.00  0.00     0.029 A 
ATOM     50  C   UNL     1      -2.533  11.511   3.974  1.00  0.00     0.049 A 
ATOM     51  H   UNL     1      -1.456   9.822   3.314  1.00  0.00     0.167 HD
ATOM     52  C   UNL     1      -2.174  10.169   6.030  1.00  0.00     0.074 A 
ATOM     53  C   UNL     1      -2.320   9.935   7.452  1.00  0.00     0.031 C 
ATOM     54  C   UNL     1      -2.665  11.258   5.386  1.00  0.00     0.037 A 
BRANCH  41  55
ATOM     55  C   UNL     1      -1.534  11.292  -0.689  1.00  0.00     0.058 A 
ATOM     56  C   UNL     1      -2.417  10.797  -1.663  1.00  0.00     0.135 A 
ATOM     57  C   UNL     1      -0.816  12.460  -0.985  1.00  0.00     0.135 A 
ATOM     58  F   UNL     1      -3.106   9.667  -1.438  1.00  0.00    -0.206 F 
ATOM     59  C   UNL     1      -2.570  11.428  -2.892  1.00  0.00     0.059 A 
ATOM     60  C   UNL     1      -0.970  13.120  -2.200  1.00  0.00     0.059 A 
ATOM     61  F   UNL     1       0.049  12.966  -0.092  1.00  0.00    -0.206 F 
ATOM     62  C   UNL     1      -1.841  12.590  -3.151  1.00  0.00     0.060 A 
BRANCH  62  63
ATOM     63  S   UNL     1      -2.058  13.406  -4.747  1.00  0.00     0.124 S 
ATOM     64  O   UNL     1      -1.329  12.507  -5.635  1.00  0.00    -0.237 OA
ATOM     65  O   UNL     1      -3.509  13.411  -4.902  1.00  0.00    -0.237 OA
ATOM     66  O   UNL     1      -1.449  14.717  -4.543  1.00  0.00    -0.744 OA
ENDBRANCH  62  63
ENDBRANCH  41  55
BRANCH  42  67
ATOM     67  C   UNL     1      -0.281   6.265   7.857  1.00  0.00     0.058 A 
ATOM     68  C   UNL     1      -1.357   5.692   8.551  1.00  0.00     0.135 A 
ATOM     69  C   UNL     1       0.994   6.173   8.436  1.00  0.00     0.135 A 
ATOM     70  F   UNL     1      -2.597   5.765   8.044  1.00  0.00    -0.206 F 
ATOM     71  C   UNL     1      -1.183   5.077   9.788  1.00  0.00     0.059 A 
ATOM     72  C   UNL     1       1.197   5.544   9.660  1.00  0.00     0.059 A 
ATOM     73  F   UNL     1       2.058   6.695   7.808  1.00  0.00    -0.206 F 
ATOM     74  C   UNL     1       0.100   5.013  10.337  1.00  0.00     0.060 A 
BRANCH  74  75
ATOM     75  S   UNL     1       0.328   4.197  11.933  1.00  0.00     0.124 S 
ATOM     76  O   UNL     1      -0.154   5.219  12.855  1.00  0.00    -0.237 OA
ATOM     77  O   UNL     1      -0.512   3.011  11.798  1.00  0.00    -0.237 OA
ATOM     78  O   UNL     1       1.764   3.937  11.970  1.00  0.00    -0.744 OA
ENDBRANCH  74  75
ENDBRANCH  42  67
BRANCH  54  79
ATOM     79  C   UNL     1      -3.417  12.264   6.211  1.00  0.00     0.058 A 
ATOM     80  C   UNL     1      -2.754  13.128   7.097  1.00  0.00     0.135 A 
ATOM     81  C   UNL     1      -4.810  12.387   6.092  1.00  0.00     0.135 A 
ATOM     82  F   UNL     1      -1.422  13.050   7.247  1.00  0.00    -0.206 F 
ATOM     83  C   UNL     1      -3.451  14.056   7.863  1.00  0.00     0.059 A 
ATOM     84  C   UNL     1      -5.525  13.325   6.830  1.00  0.00     0.059 A 
ATOM     85  F   UNL     1      -5.489  11.596   5.247  1.00  0.00    -0.206 F 
ATOM     86  C   UNL     1      -4.838  14.143   7.727  1.00  0.00     0.060 A 
BRANCH  86  87
ATOM     87  S   UNL     1      -5.734  15.355   8.720  1.00  0.00     0.124 S 
ATOM     88  O   UNL     1      -5.789  14.688  10.017  1.00  0.00    -0.237 OA
ATOM     89  O   UNL     1      -4.868  16.528   8.648  1.00  0.00    -0.237 OA
ATOM     90  O   UNL     1      -7.011  15.484   8.024  1.00  0.00    -0.744 OA
ENDBRANCH  86  87
ENDBRANCH  54  79
ENDBRANCH  28  29
ENDBRANCH  21  23
ENDBRANCH  20  21
ENDBRANCH  19  20
ENDBRANCH   1  19
TORSDOF 19
