REMARK SMILES O=C(OCCOC(=O)c1ccc2nc(-c3c[nH]nc3-c3ccc(F)cc3F)[nH]c2c1)c1ccc(-c2c3nc(c(-c4c(F)cc(S(=O)(=O)[O-])cc4F)c4ccc([nH]4)c(-c4c(F)cc(S(=O)(=O)[O-])cc4F)c4nc(c(-c5c(F)cc(S(=O)(=O)[O-])cc5F)c5ccc2[nH]5)C=C4)C=C3)cc1
REMARK SMILES IDX 4 1 3 2 2 3 1 4 31 5 32 6 96 7 33 8 95 9 34 10 35 11 36 12
REMARK SMILES IDX 89 13 37 14 94 15 88 16 90 17 38 18 93 19 87 20 86 21 39 23
REMARK SMILES IDX 73 24 52 25 72 26 53 27 56 28 71 29 91 30 54 31 55 32 70 34
REMARK SMILES IDX 92 35 57 36 40 37 41 38 50 39 42 40 43 41 49 42 51 43 44 44
REMARK SMILES IDX 45 45 46 46 47 47 48 48 74 49 75 50 84 51 76 52 77 53 83 54
REMARK SMILES IDX 85 55 78 56 79 57 80 58 81 59 82 60 58 61 59 62 68 63 60 64
REMARK SMILES IDX 61 65 67 66 69 67 62 68 63 69 64 70 65 71 66 72 5 73 6 74
REMARK SMILES IDX 7 75 8 76 9 77 10 78 30 79 11 80 29 81 12 82 28 83 13 84
REMARK SMILES IDX 14 85 15 87 16 88 19 89 17 90 18 91 20 93 21 94 26 95 22 96
REMARK SMILES IDX 25 97 27 98 23 99 24 100
REMARK H PARENT 90 22 56 33 28 86 17 92
REMARK Flexibility Score: inf
ROOT
ATOM      1  C   UNL     1       4.237  -1.229   0.693  1.00  0.00     0.275 C 
ENDROOT
BRANCH   1   2
ATOM      2  O   UNL     1       3.142  -0.393   1.101  1.00  0.00    -0.458 OA
BRANCH   2   3
ATOM      3  C   UNL     1       2.840   0.883   0.770  1.00  0.00     0.338 C 
ATOM      4  O   UNL     1       1.902   1.424   1.357  1.00  0.00    -0.246 OA
BRANCH   3   5
ATOM      5  C   UNL     1       3.494   1.654  -0.341  1.00  0.00     0.060 A 
ATOM      6  C   UNL     1       4.710   1.359  -0.965  1.00  0.00     0.016 A 
ATOM      7  C   UNL     1       2.772   2.764  -0.820  1.00  0.00     0.016 A 
ATOM      8  C   UNL     1       5.165   2.090  -2.065  1.00  0.00     0.010 A 
ATOM      9  C   UNL     1       3.212   3.493  -1.926  1.00  0.00     0.010 A 
ATOM     10  C   UNL     1       4.419   3.159  -2.549  1.00  0.00    -0.014 A 
BRANCH  10  11
ATOM     11  C   UNL     1       4.992   4.071  -3.556  1.00  0.00     0.031 A 
ATOM     12  C   UNL     1       5.523   5.379  -3.064  1.00  0.00     0.074 A 
ATOM     13  C   UNL     1       5.035   3.746  -4.859  1.00  0.00     0.049 A 
ATOM     14  N   UNL     1       5.964   6.399  -3.742  1.00  0.00    -0.248 NA
ATOM     15  C   UNL     1       5.576   5.551  -1.601  1.00  0.00     0.031 C 
ATOM     16  C   UNL     1       4.663   2.449  -5.413  1.00  0.00     0.029 A 
ATOM     17  N   UNL     1       5.371   4.492  -5.958  1.00  0.00    -0.354 N 
ATOM     18  C   UNL     1       6.362   7.327  -2.791  1.00  0.00     0.074 A 
ATOM     19  C   UNL     1       6.049   6.780  -1.492  1.00  0.00     0.031 C 
ATOM     20  C   UNL     1       4.685   2.518  -6.754  1.00  0.00     0.029 A 
ATOM     21  C   UNL     1       5.075   3.867  -7.147  1.00  0.00     0.049 A 
ATOM     22  H   UNL     1       5.782   5.385  -5.902  1.00  0.00     0.167 HD
ATOM     23  C   UNL     1       6.963   8.519  -2.995  1.00  0.00     0.037 A 
ATOM     24  C   UNL     1       5.089   4.347  -8.406  1.00  0.00     0.037 A 
ATOM     25  C   UNL     1       7.239   9.038  -4.305  1.00  0.00     0.049 A 
ATOM     26  C   UNL     1       5.605   5.742  -8.622  1.00  0.00     0.074 A 
ATOM     27  C   UNL     1       7.846  10.229  -4.649  1.00  0.00     0.029 A 
ATOM     28  N   UNL     1       6.897   8.397  -5.491  1.00  0.00    -0.354 N 
ATOM     29  N   UNL     1       6.013   6.608  -7.723  1.00  0.00    -0.248 NA
ATOM     30  C   UNL     1       5.705   6.219 -10.006  1.00  0.00     0.031 C 
ATOM     31  C   UNL     1       7.813  10.338  -6.042  1.00  0.00     0.029 A 
ATOM     32  C   UNL     1       7.247   9.185  -6.571  1.00  0.00     0.049 A 
ATOM     33  H   UNL     1       6.470   7.512  -5.552  1.00  0.00     0.167 HD
ATOM     34  C   UNL     1       6.473   7.710  -8.431  1.00  0.00     0.074 A 
ATOM     35  C   UNL     1       6.265   7.412  -9.836  1.00  0.00     0.031 C 
ATOM     36  C   UNL     1       7.041   8.848  -7.961  1.00  0.00     0.037 A 
BRANCH  23  37
ATOM     37  C   UNL     1       7.302   9.325  -1.776  1.00  0.00     0.058 A 
ATOM     38  C   UNL     1       6.587  10.496  -1.482  1.00  0.00     0.135 A 
ATOM     39  C   UNL     1       8.287   8.911  -0.863  1.00  0.00     0.135 A 
ATOM     40  F   UNL     1       5.627  10.929  -2.314  1.00  0.00    -0.206 F 
ATOM     41  C   UNL     1       6.818  11.218  -0.316  1.00  0.00     0.059 A 
ATOM     42  C   UNL     1       8.512   9.599   0.324  1.00  0.00     0.059 A 
ATOM     43  F   UNL     1       8.981   7.782  -1.080  1.00  0.00    -0.206 F 
ATOM     44  C   UNL     1       7.765  10.748   0.592  1.00  0.00     0.060 A 
BRANCH  44  45
ATOM     45  S   UNL     1       8.027  11.595   2.164  1.00  0.00     0.124 S 
ATOM     46  O   UNL     1       7.471  10.632   3.110  1.00  0.00    -0.237 OA
ATOM     47  O   UNL     1       9.478  11.747   2.195  1.00  0.00    -0.237 OA
ATOM     48  O   UNL     1       7.271  12.834   2.014  1.00  0.00    -0.744 OA
ENDBRANCH  44  45
ENDBRANCH  23  37
BRANCH  24  49
ATOM     49  C   UNL     1       4.618   3.486  -9.523  1.00  0.00     0.058 A 
ATOM     50  C   UNL     1       3.252   3.190  -9.680  1.00  0.00     0.135 A 
ATOM     51  C   UNL     1       5.521   2.868 -10.398  1.00  0.00     0.135 A 
ATOM     52  F   UNL     1       2.347   3.750  -8.865  1.00  0.00    -0.206 F 
ATOM     53  C   UNL     1       2.800   2.290 -10.644  1.00  0.00     0.059 A 
ATOM     54  C   UNL     1       5.092   1.977 -11.380  1.00  0.00     0.059 A 
ATOM     55  F   UNL     1       6.834   3.119 -10.293  1.00  0.00    -0.206 F 
ATOM     56  C   UNL     1       3.731   1.683 -11.485  1.00  0.00     0.060 A 
BRANCH  56  57
ATOM     57  S   UNL     1       3.209   0.458 -12.708  1.00  0.00     0.124 S 
ATOM     58  O   UNL     1       3.606   1.095 -13.959  1.00  0.00    -0.237 OA
ATOM     59  O   UNL     1       3.992  -0.709 -12.313  1.00  0.00    -0.237 OA
ATOM     60  O   UNL     1       1.771   0.346 -12.488  1.00  0.00    -0.744 OA
ENDBRANCH  56  57
ENDBRANCH  24  49
BRANCH  36  61
ATOM     61  C   UNL     1       7.537   9.851  -8.961  1.00  0.00     0.058 A 
ATOM     62  C   UNL     1       8.919  10.053  -9.114  1.00  0.00     0.135 A 
ATOM     63  C   UNL     1       6.662  10.718  -9.627  1.00  0.00     0.135 A 
ATOM     64  F   UNL     1       9.794   9.251  -8.486  1.00  0.00    -0.206 F 
ATOM     65  C   UNL     1       9.419  11.115  -9.856  1.00  0.00     0.059 A 
ATOM     66  C   UNL     1       7.141  11.772 -10.396  1.00  0.00     0.059 A 
ATOM     67  F   UNL     1       5.334  10.558  -9.516  1.00  0.00    -0.206 F 
ATOM     68  C   UNL     1       8.521  11.975 -10.486  1.00  0.00     0.060 A 
BRANCH  68  69
ATOM     69  S   UNL     1       9.121  13.419 -11.386  1.00  0.00     0.124 S 
ATOM     70  O   UNL     1       8.777  13.075 -12.762  1.00  0.00    -0.237 OA
ATOM     71  O   UNL     1       8.344  14.500 -10.788  1.00  0.00    -0.237 OA
ATOM     72  O   UNL     1      10.550  13.441 -11.085  1.00  0.00    -0.744 OA
ENDBRANCH  68  69
ENDBRANCH  36  61
ENDBRANCH  10  11
ENDBRANCH   3   5
ENDBRANCH   2   3
ENDBRANCH   1   2
BRANCH   1  73
ATOM     73  C   UNL     1       3.999  -2.002  -0.610  1.00  0.00     0.275 C 
BRANCH  73  74
ATOM     74  O   UNL     1       3.484  -1.201  -1.685  1.00  0.00    -0.458 OA
BRANCH  74  75
ATOM     75  C   UNL     1       2.127  -1.159  -1.781  1.00  0.00     0.338 C 
ATOM     76  O   UNL     1       1.328  -1.732  -1.070  1.00  0.00    -0.246 OA
BRANCH  75  77
ATOM     77  C   UNL     1       1.741  -0.190  -2.831  1.00  0.00     0.062 A 
ATOM     78  C   UNL     1       2.265  -0.304  -4.123  1.00  0.00     0.018 A 
ATOM     79  C   UNL     1       0.837   0.834  -2.485  1.00  0.00     0.044 A 
ATOM     80  C   UNL     1       1.867   0.590  -5.123  1.00  0.00     0.031 A 
ATOM     81  C   UNL     1       0.551   1.775  -3.479  1.00  0.00     0.067 A 
ATOM     82  C   UNL     1       1.007   1.643  -4.785  1.00  0.00     0.089 A 
ATOM     83  N   UNL     1      -0.154   2.959  -3.489  1.00  0.00    -0.338 N 
ATOM     84  N   UNL     1       0.467   2.606  -5.582  1.00  0.00    -0.228 NA
ATOM     85  C   UNL     1      -0.249   3.375  -4.793  1.00  0.00     0.142 A 
ATOM     86  H   UNL     1      -0.522   3.423  -2.702  1.00  0.00     0.168 HD
BRANCH  85  87
ATOM     87  C   UNL     1      -1.161   4.421  -5.309  1.00  0.00     0.063 A 
ATOM     88  C   UNL     1      -1.479   5.631  -4.747  1.00  0.00     0.117 A 
ATOM     89  C   UNL     1      -1.929   4.331  -6.507  1.00  0.00     0.106 A 
ATOM     90  N   UNL     1      -2.304   6.235  -5.656  1.00  0.00    -0.284 N 
ATOM     91  N   UNL     1      -2.674   5.437  -6.672  1.00  0.00    -0.175 NA
ATOM     92  H   UNL     1      -2.599   7.170  -5.573  1.00  0.00     0.189 HD
BRANCH  89  93
ATOM     93  C   UNL     1      -2.067   3.153  -7.359  1.00  0.00     0.039 A 
ATOM     94  C   UNL     1      -2.411   1.921  -6.769  1.00  0.00     0.016 A 
ATOM     95  C   UNL     1      -1.797   3.193  -8.728  1.00  0.00     0.135 A 
ATOM     96  C   UNL     1      -2.446   0.755  -7.530  1.00  0.00     0.040 A 
ATOM     97  C   UNL     1      -1.841   2.030  -9.497  1.00  0.00     0.079 A 
ATOM     98  F   UNL     1      -1.469   4.345  -9.332  1.00  0.00    -0.206 F 
ATOM     99  C   UNL     1      -2.159   0.822  -8.887  1.00  0.00     0.126 A 
ATOM    100  F   UNL     1      -2.203  -0.301  -9.615  1.00  0.00    -0.207 F 
ENDBRANCH  89  93
ENDBRANCH  85  87
ENDBRANCH  75  77
ENDBRANCH  74  75
ENDBRANCH  73  74
ENDBRANCH   1  73
TORSDOF 16
