REMARK SMILES CCc1cc2c(C)cc(=O)oc2cc1O[C@H](C)C(=O)OCCOC(=O)c1ccc(-c2c3nc(c(-c4c(F)cc(S(=O)(=O)[O-])cc4F)c4ccc([nH]4)c(-c4c(F)cc(S(=O)(=O)[O-])cc4F)c4nc(c(-c5c(F)cc(S(=O)(=O)[O-])cc5F)c5ccc2[nH]5)C=C4)C=C3)cc1
REMARK SMILES IDX 21 1 20 2 18 3 19 4 16 5 17 6 15 7 14 8 3 9 4 10 5 11 13 12
REMARK SMILES IDX 6 13 12 14 7 15 8 16 11 17 9 18 10 19 2 20 1 21 22 22 23 23
REMARK SMILES IDX 24 24 25 25 26 26 27 27 91 28 28 29 90 30 29 31 30 32 31 33
REMARK SMILES IDX 84 34 32 35 89 36 83 37 85 38 33 39 88 40 82 41 81 42 34 44
REMARK SMILES IDX 68 45 47 46 67 47 48 48 51 49 66 50 86 51 49 52 50 53 65 55
REMARK SMILES IDX 87 56 52 57 35 58 36 59 45 60 37 61 38 62 44 63 46 64 39 65
REMARK SMILES IDX 40 66 41 67 42 68 43 69 69 70 70 71 79 72 71 73 72 74 78 75
REMARK SMILES IDX 80 76 73 77 74 78 75 79 76 80 77 81 53 82 54 83 63 84 55 85
REMARK SMILES IDX 56 86 62 87 64 88 57 89 58 90 59 91 60 92 61 93
REMARK H PARENT 85 43 51 54
REMARK Flexibility Score: inf
ROOT
ATOM      1  C   UNL     1      -0.505  -3.440   6.211  1.00  0.00     0.274 C 
ENDROOT
BRANCH   1   2
ATOM      2  O   UNL     1       0.500  -3.241   5.194  1.00  0.00    -0.459 OA
BRANCH   2   3
ATOM      3  C   UNL     1       0.910  -4.384   4.586  1.00  0.00     0.347 C 
ATOM      4  O   UNL     1       0.421  -5.486   4.823  1.00  0.00    -0.248 OA
BRANCH   3   5
ATOM      5  C   UNL     1       2.113  -4.228   3.641  1.00  0.00     0.279 C 
ATOM      6  C   UNL     1       1.837  -3.100   2.638  1.00  0.00     0.066 C 
BRANCH   5   7
ATOM      7  O   UNL     1       3.442  -4.056   4.125  1.00  0.00    -0.479 OA
BRANCH   7   8
ATOM      8  C   UNL     1       3.875  -4.609   5.296  1.00  0.00     0.127 A 
ATOM      9  C   UNL     1       5.173  -4.264   5.709  1.00  0.00    -0.005 A 
ATOM     10  C   UNL     1       5.570  -4.528   7.042  1.00  0.00     0.019 A 
ATOM     11  C   UNL     1       4.707  -5.153   7.949  1.00  0.00     0.021 A 
ATOM     12  C   UNL     1       3.121  -5.415   6.135  1.00  0.00     0.094 A 
ATOM     13  C   UNL     1       5.001  -5.389   9.366  1.00  0.00    -0.033 A 
ATOM     14  C   UNL     1       3.491  -5.598   7.460  1.00  0.00     0.142 A 
ATOM     15  C   UNL     1       6.381  -5.156   9.891  1.00  0.00     0.045 C 
ATOM     16  C   UNL     1       4.006  -5.820  10.156  1.00  0.00     0.098 A 
ATOM     17  O   UNL     1       2.510  -6.176   8.286  1.00  0.00    -0.423 OA
ATOM     18  C   UNL     1       2.653  -6.116   9.657  1.00  0.00     0.336 A 
ATOM     19  O   UNL     1       1.729  -6.331  10.433  1.00  0.00    -0.246 OA
BRANCH   9  20
ATOM     20  C   UNL     1       6.159  -3.642   4.738  1.00  0.00     0.036 C 
ATOM     21  C   UNL     1       7.447  -4.455   4.621  1.00  0.00     0.009 C 
ENDBRANCH   9  20
ENDBRANCH   7   8
ENDBRANCH   5   7
ENDBRANCH   3   5
ENDBRANCH   2   3
ENDBRANCH   1   2
BRANCH   1  22
ATOM     22  C   UNL     1      -1.945  -3.525   5.671  1.00  0.00     0.275 C 
BRANCH  22  23
ATOM     23  O   UNL     1      -2.232  -4.754   4.973  1.00  0.00    -0.458 OA
BRANCH  23  24
ATOM     24  C   UNL     1      -1.964  -4.748   3.640  1.00  0.00     0.338 C 
ATOM     25  O   UNL     1      -1.594  -3.789   2.982  1.00  0.00    -0.246 OA
BRANCH  24  26
ATOM     26  C   UNL     1      -1.972  -6.132   3.112  1.00  0.00     0.060 A 
ATOM     27  C   UNL     1      -0.848  -6.568   2.392  1.00  0.00     0.016 A 
ATOM     28  C   UNL     1      -3.060  -6.984   3.291  1.00  0.00     0.016 A 
ATOM     29  C   UNL     1      -0.795  -7.855   1.862  1.00  0.00     0.010 A 
ATOM     30  C   UNL     1      -3.026  -8.262   2.724  1.00  0.00     0.010 A 
ATOM     31  C   UNL     1      -1.900  -8.698   1.999  1.00  0.00    -0.014 A 
BRANCH  31  32
ATOM     32  C   UNL     1      -1.961  -9.969   1.242  1.00  0.00     0.031 A 
ATOM     33  C   UNL     1      -2.745  -9.989  -0.038  1.00  0.00     0.074 A 
ATOM     34  C   UNL     1      -1.336 -11.076   1.683  1.00  0.00     0.049 A 
ATOM     35  N   UNL     1      -3.119 -11.005  -0.767  1.00  0.00    -0.248 NA
ATOM     36  C   UNL     1      -3.169  -8.679  -0.565  1.00  0.00     0.031 C 
ATOM     37  C   UNL     1      -0.467 -11.149   2.857  1.00  0.00     0.029 A 
ATOM     38  N   UNL     1      -1.357 -12.361   1.200  1.00  0.00    -0.354 N 
ATOM     39  C   UNL     1      -3.840 -10.463  -1.824  1.00  0.00     0.074 A 
ATOM     40  C   UNL     1      -3.863  -9.030  -1.638  1.00  0.00     0.031 C 
ATOM     41  C   UNL     1      -0.063 -12.421   3.022  1.00  0.00     0.029 A 
ATOM     42  C   UNL     1      -0.688 -13.258   2.000  1.00  0.00     0.049 A 
ATOM     43  H   UNL     1      -1.807 -12.616   0.362  1.00  0.00     0.167 HD
ATOM     44  C   UNL     1      -4.431 -11.111  -2.855  1.00  0.00     0.037 A 
ATOM     45  C   UNL     1      -0.633 -14.604   1.937  1.00  0.00     0.037 A 
ATOM     46  C   UNL     1      -4.397 -12.539  -3.022  1.00  0.00     0.049 A 
ATOM     47  C   UNL     1      -1.388 -15.314   0.838  1.00  0.00     0.074 A 
ATOM     48  C   UNL     1      -4.992 -13.305  -4.008  1.00  0.00     0.029 A 
ATOM     49  N   UNL     1      -3.724 -13.415  -2.183  1.00  0.00    -0.354 N 
ATOM     50  N   UNL     1      -2.109 -14.801  -0.133  1.00  0.00    -0.248 NA
ATOM     51  C   UNL     1      -1.332 -16.783   0.827  1.00  0.00     0.031 C 
ATOM     52  C   UNL     1      -4.711 -14.648  -3.743  1.00  0.00     0.029 A 
ATOM     53  C   UNL     1      -3.892 -14.714  -2.626  1.00  0.00     0.049 A 
ATOM     54  H   UNL     1      -3.203 -13.151  -1.390  1.00  0.00     0.167 HD
ATOM     55  C   UNL     1      -2.547 -15.880  -0.894  1.00  0.00     0.074 A 
ATOM     56  C   UNL     1      -2.019 -17.074  -0.269  1.00  0.00     0.031 C 
ATOM     57  C   UNL     1      -3.313 -15.883  -2.013  1.00  0.00     0.037 A 
BRANCH  44  58
ATOM     58  C   UNL     1      -5.186 -10.289  -3.861  1.00  0.00     0.058 A 
ATOM     59  C   UNL     1      -4.525  -9.472  -4.791  1.00  0.00     0.135 A 
ATOM     60  C   UNL     1      -6.587 -10.357  -3.927  1.00  0.00     0.135 A 
ATOM     61  F   UNL     1      -3.189  -9.351  -4.756  1.00  0.00    -0.206 F 
ATOM     62  C   UNL     1      -5.228  -8.743  -5.745  1.00  0.00     0.059 A 
ATOM     63  C   UNL     1      -7.308  -9.658  -4.890  1.00  0.00     0.059 A 
ATOM     64  F   UNL     1      -7.269 -11.116  -3.055  1.00  0.00    -0.206 F 
ATOM     65  C   UNL     1      -6.619  -8.847  -5.790  1.00  0.00     0.060 A 
BRANCH  65  66
ATOM     66  S   UNL     1      -7.512  -7.918  -7.055  1.00  0.00     0.124 S 
ATOM     67  O   UNL     1      -7.364  -6.549  -6.570  1.00  0.00    -0.237 OA
ATOM     68  O   UNL     1      -6.766  -8.245  -8.265  1.00  0.00    -0.237 OA
ATOM     69  O   UNL     1      -8.864  -8.464  -6.988  1.00  0.00    -0.744 OA
ENDBRANCH  65  66
ENDBRANCH  44  58
BRANCH  45  70
ATOM     70  C   UNL     1       0.124 -15.383   2.957  1.00  0.00     0.058 A 
ATOM     71  C   UNL     1       1.260 -16.127   2.604  1.00  0.00     0.135 A 
ATOM     72  C   UNL     1      -0.296 -15.434   4.296  1.00  0.00     0.135 A 
ATOM     73  F   UNL     1       1.696 -16.122   1.335  1.00  0.00    -0.206 F 
ATOM     74  C   UNL     1       1.933 -16.917   3.531  1.00  0.00     0.059 A 
ATOM     75  C   UNL     1       0.379 -16.192   5.248  1.00  0.00     0.059 A 
ATOM     76  F   UNL     1      -1.371 -14.736   4.692  1.00  0.00    -0.206 F 
ATOM     77  C   UNL     1       1.482 -16.946   4.851  1.00  0.00     0.060 A 
BRANCH  77  78
ATOM     78  S   UNL     1       2.365 -17.972   6.047  1.00  0.00     0.124 S 
ATOM     79  O   UNL     1       1.958 -19.312   5.640  1.00  0.00    -0.237 OA
ATOM     80  O   UNL     1       3.758 -17.621   5.785  1.00  0.00    -0.237 OA
ATOM     81  O   UNL     1       1.843 -17.517   7.332  1.00  0.00    -0.744 OA
ENDBRANCH  77  78
ENDBRANCH  45  70
BRANCH  57  82
ATOM     82  C   UNL     1      -3.556 -17.200  -2.697  1.00  0.00     0.058 A 
ATOM     83  C   UNL     1      -4.457 -18.147  -2.192  1.00  0.00     0.135 A 
ATOM     84  C   UNL     1      -2.953 -17.462  -3.939  1.00  0.00     0.135 A 
ATOM     85  F   UNL     1      -5.054 -17.947  -1.006  1.00  0.00    -0.206 F 
ATOM     86  C   UNL     1      -4.749 -19.313  -2.892  1.00  0.00     0.059 A 
ATOM     87  C   UNL     1      -3.251 -18.607  -4.669  1.00  0.00     0.059 A 
ATOM     88  F   UNL     1      -2.090 -16.580  -4.471  1.00  0.00    -0.206 F 
ATOM     89  C   UNL     1      -4.149 -19.529  -4.136  1.00  0.00     0.060 A 
BRANCH  89  90
ATOM     90  S   UNL     1      -4.599 -21.006  -5.070  1.00  0.00     0.124 S 
ATOM     91  O   UNL     1      -3.918 -22.052  -4.314  1.00  0.00    -0.237 OA
ATOM     92  O   UNL     1      -6.056 -21.003  -4.976  1.00  0.00    -0.237 OA
ATOM     93  O   UNL     1      -4.063 -20.744  -6.402  1.00  0.00    -0.744 OA
ENDBRANCH  89  90
ENDBRANCH  57  82
ENDBRANCH  31  32
ENDBRANCH  24  26
ENDBRANCH  23  24
ENDBRANCH  22  23
ENDBRANCH   1  22
TORSDOF 17
