REMARK SMILES CC(C)(C)OC(=O)N1C[C@H](c2ccc(C(F)(F)F)cc2)[C@H](C(=O)OCCOC(=O)c2ccc(-c3c4nc(c(-c5c(F)cc(S(=O)(=O)[O-])cc5F)c5ccc([nH]5)c(-c5c(F)cc(S(=O)(=O)[O-])cc5F)c5nc(c(-c6c(F)cc(S(=O)(=O)[O-])cc6F)c6ccc3[nH]6)C=C5)C=C4)cc2)C1
REMARK SMILES IDX 25 1 24 2 22 3 23 4 21 5 8 6 9 7 96 8 10 9 6 10 7 11 5 12
REMARK SMILES IDX 2 13 1 14 3 15 4 16 11 17 12 18 20 19 13 20 19 21 14 22
REMARK SMILES IDX 15 23 16 24 17 25 18 26 26 27 27 28 28 29 29 30 30 31 31 32
REMARK SMILES IDX 95 33 32 34 94 35 33 36 34 37 35 38 88 39 36 40 93 41 87 42
REMARK SMILES IDX 89 43 37 44 92 45 86 46 85 47 38 49 72 50 51 51 71 52 52 53
REMARK SMILES IDX 55 54 70 55 90 56 53 57 54 58 69 60 91 61 56 62 39 63 40 64
REMARK SMILES IDX 49 65 41 66 42 67 48 68 50 69 43 70 44 71 45 72 46 73 47 74
REMARK SMILES IDX 73 75 74 76 83 77 75 78 76 79 82 80 84 81 77 82 78 83 79 84
REMARK SMILES IDX 80 85 81 86 57 87 58 88 67 89 59 90 60 91 66 92 68 93 61 94
REMARK SMILES IDX 62 95 63 96 64 97 65 98
REMARK H PARENT 89 48 55 59
REMARK Flexibility Score: inf
ROOT
ATOM      1  C   UNL     1      -1.253   7.814  -4.144  1.00  0.00     0.274 C 
ENDROOT
BRANCH   1   2
ATOM      2  O   UNL     1      -0.446   6.632  -3.987  1.00  0.00    -0.462 OA
BRANCH   2   3
ATOM      3  C   UNL     1      -0.229   5.857  -5.068  1.00  0.00     0.311 C 
ATOM      4  O   UNL     1      -0.770   6.026  -6.155  1.00  0.00    -0.252 OA
BRANCH   3   5
ATOM      5  C   UNL     1       0.720   4.709  -4.826  1.00  0.00     0.128 C 
ATOM      6  N   UNL     1       0.806   2.559  -3.892  1.00  0.00    -0.307 N 
ATOM      7  C   UNL     1       2.077   3.190  -3.586  1.00  0.00     0.132 C 
ATOM      8  C   UNL     1      -0.042   3.404  -4.699  1.00  0.00     0.139 C 
ATOM      9  C   UNL     1       1.791   4.694  -3.705  1.00  0.00     0.055 C 
BRANCH   6  10
ATOM     10  C   UNL     1       0.340   1.368  -3.408  1.00  0.00     0.410 C 
ATOM     11  O   UNL     1      -0.635   0.800  -3.865  1.00  0.00    -0.224 OA
BRANCH  10  12
ATOM     12  O   UNL     1       1.031   0.984  -2.307  1.00  0.00    -0.444 OA
BRANCH  12  13
ATOM     13  C   UNL     1       0.563  -0.118  -1.495  1.00  0.00     0.106 C 
ATOM     14  C   UNL     1       1.299   0.050  -0.158  1.00  0.00     0.056 C 
ATOM     15  C   UNL     1       0.979  -1.432  -2.155  1.00  0.00     0.056 C 
ATOM     16  C   UNL     1      -0.946  -0.068  -1.208  1.00  0.00     0.056 C 
ENDBRANCH  12  13
ENDBRANCH  10  12
ENDBRANCH   6  10
BRANCH   9  17
ATOM     17  C   UNL     1       1.588   5.261  -2.310  1.00  0.00    -0.042 A 
ATOM     18  C   UNL     1       0.355   5.341  -1.659  1.00  0.00     0.005 A 
ATOM     19  C   UNL     1       2.729   5.718  -1.623  1.00  0.00     0.005 A 
ATOM     20  C   UNL     1       0.243   5.998  -0.427  1.00  0.00     0.013 A 
ATOM     21  C   UNL     1       2.628   6.334  -0.376  1.00  0.00     0.013 A 
ATOM     22  C   UNL     1       1.375   6.517   0.218  1.00  0.00     0.056 A 
BRANCH  22  23
ATOM     23  C   UNL     1       1.252   7.320   1.486  1.00  0.00     0.416 C 
ATOM     24  F   UNL     1       1.232   8.662   1.250  1.00  0.00    -0.166 F 
ATOM     25  F   UNL     1       0.113   7.053   2.188  1.00  0.00    -0.166 F 
ATOM     26  F   UNL     1       2.278   7.111   2.358  1.00  0.00    -0.166 F 
ENDBRANCH  22  23
ENDBRANCH   9  17
ENDBRANCH   3   5
ENDBRANCH   2   3
ENDBRANCH   1   2
BRANCH   1  27
ATOM     27  C   UNL     1      -0.368   9.059  -4.063  1.00  0.00     0.275 C 
BRANCH  27  28
ATOM     28  O   UNL     1       0.398   9.217  -5.270  1.00  0.00    -0.458 OA
BRANCH  28  29
ATOM     29  C   UNL     1       1.576   8.551  -5.299  1.00  0.00     0.338 C 
ATOM     30  O   UNL     1       2.104   7.930  -4.392  1.00  0.00    -0.246 OA
BRANCH  29  31
ATOM     31  C   UNL     1       2.066   8.510  -6.683  1.00  0.00     0.060 A 
ATOM     32  C   UNL     1       2.322   7.255  -7.243  1.00  0.00     0.016 A 
ATOM     33  C   UNL     1       2.298   9.677  -7.410  1.00  0.00     0.016 A 
ATOM     34  C   UNL     1       2.803   7.154  -8.540  1.00  0.00     0.010 A 
ATOM     35  C   UNL     1       2.790   9.576  -8.712  1.00  0.00     0.010 A 
ATOM     36  C   UNL     1       3.049   8.315  -9.278  1.00  0.00    -0.014 A 
BRANCH  36  37
ATOM     37  C   UNL     1       3.638   8.202 -10.627  1.00  0.00     0.031 A 
ATOM     38  C   UNL     1       5.090   8.519 -10.820  1.00  0.00     0.074 A 
ATOM     39  C   UNL     1       2.872   7.793 -11.655  1.00  0.00     0.049 A 
ATOM     40  N   UNL     1       5.784   8.571 -11.925  1.00  0.00    -0.248 NA
ATOM     41  C   UNL     1       5.864   8.821  -9.604  1.00  0.00     0.031 C 
ATOM     42  C   UNL     1       1.463   7.408 -11.555  1.00  0.00     0.029 A 
ATOM     43  N   UNL     1       3.169   7.640 -12.983  1.00  0.00    -0.354 N 
ATOM     44  C   UNL     1       7.070   8.932 -11.545  1.00  0.00     0.074 A 
ATOM     45  C   UNL     1       7.057   9.101 -10.107  1.00  0.00     0.031 C 
ATOM     46  C   UNL     1       1.016   7.070 -12.775  1.00  0.00     0.029 A 
ATOM     47  C   UNL     1       2.091   7.259 -13.745  1.00  0.00     0.049 A 
ATOM     48  H   UNL     1       4.068   7.787 -13.356  1.00  0.00     0.167 HD
ATOM     49  C   UNL     1       8.158   9.107 -12.330  1.00  0.00     0.037 A 
ATOM     50  C   UNL     1       1.979   7.115 -15.079  1.00  0.00     0.037 A 
ATOM     51  C   UNL     1       8.148   8.927 -13.759  1.00  0.00     0.049 A 
ATOM     52  C   UNL     1       3.189   7.369 -15.937  1.00  0.00     0.074 A 
ATOM     53  C   UNL     1       9.193   9.073 -14.653  1.00  0.00     0.029 A 
ATOM     54  N   UNL     1       7.032   8.563 -14.501  1.00  0.00    -0.354 N 
ATOM     55  N   UNL     1       4.399   7.721 -15.569  1.00  0.00    -0.248 NA
ATOM     56  C   UNL     1       3.021   7.212 -17.387  1.00  0.00     0.031 C 
ATOM     57  C   UNL     1       8.699   8.838 -15.941  1.00  0.00     0.029 A 
ATOM     58  C   UNL     1       7.358   8.498 -15.845  1.00  0.00     0.049 A 
ATOM     59  H   UNL     1       6.141   8.378 -14.127  1.00  0.00     0.167 HD
ATOM     60  C   UNL     1       5.142   7.808 -16.741  1.00  0.00     0.074 A 
ATOM     61  C   UNL     1       4.247   7.459 -17.827  1.00  0.00     0.031 C 
ATOM     62  C   UNL     1       6.446   8.145 -16.906  1.00  0.00     0.037 A 
BRANCH  49  63
ATOM     63  C   UNL     1       9.430   9.549 -11.665  1.00  0.00     0.058 A 
ATOM     64  C   UNL     1      10.182   8.686 -10.852  1.00  0.00     0.135 A 
ATOM     65  C   UNL     1       9.910  10.856 -11.851  1.00  0.00     0.135 A 
ATOM     66  F   UNL     1       9.758   7.433 -10.622  1.00  0.00    -0.206 F 
ATOM     67  C   UNL     1      11.351   9.111 -10.226  1.00  0.00     0.059 A 
ATOM     68  C   UNL     1      11.089  11.294 -11.255  1.00  0.00     0.059 A 
ATOM     69  F   UNL     1       9.226  11.724 -12.613  1.00  0.00    -0.206 F 
ATOM     70  C   UNL     1      11.794  10.419 -10.432  1.00  0.00     0.060 A 
BRANCH  70  71
ATOM     71  S   UNL     1      13.306  10.959  -9.607  1.00  0.00     0.124 S 
ATOM     72  O   UNL     1      12.851  11.099  -8.227  1.00  0.00    -0.237 OA
ATOM     73  O   UNL     1      14.216   9.847  -9.863  1.00  0.00    -0.237 OA
ATOM     74  O   UNL     1      13.639  12.206 -10.288  1.00  0.00    -0.744 OA
ENDBRANCH  70  71
ENDBRANCH  49  63
BRANCH  50  75
ATOM     75  C   UNL     1       0.672   6.736 -15.677  1.00  0.00     0.058 A 
ATOM     76  C   UNL     1       0.478   5.476 -16.259  1.00  0.00     0.135 A 
ATOM     77  C   UNL     1      -0.418   7.622 -15.657  1.00  0.00     0.135 A 
ATOM     78  F   UNL     1       1.491   4.597 -16.309  1.00  0.00    -0.206 F 
ATOM     79  C   UNL     1      -0.746   5.108 -16.809  1.00  0.00     0.059 A 
ATOM     80  C   UNL     1      -1.658   7.268 -16.178  1.00  0.00     0.059 A 
ATOM     81  F   UNL     1      -0.288   8.836 -15.101  1.00  0.00    -0.206 F 
ATOM     82  C   UNL     1      -1.810   6.011 -16.761  1.00  0.00     0.060 A 
BRANCH  82  83
ATOM     83  S   UNL     1      -3.409   5.506 -17.430  1.00  0.00     0.124 S 
ATOM     84  O   UNL     1      -3.161   5.575 -18.866  1.00  0.00    -0.237 OA
ATOM     85  O   UNL     1      -3.567   4.166 -16.873  1.00  0.00    -0.237 OA
ATOM     86  O   UNL     1      -4.327   6.509 -16.899  1.00  0.00    -0.744 OA
ENDBRANCH  82  83
ENDBRANCH  50  75
BRANCH  62  87
ATOM     87  C   UNL     1       6.988   8.123 -18.307  1.00  0.00     0.058 A 
ATOM     88  C   UNL     1       6.665   9.122 -19.237  1.00  0.00     0.135 A 
ATOM     89  C   UNL     1       7.884   7.117 -18.704  1.00  0.00     0.135 A 
ATOM     90  F   UNL     1       5.806  10.100 -18.908  1.00  0.00    -0.206 F 
ATOM     91  C   UNL     1       7.196   9.114 -20.522  1.00  0.00     0.059 A 
ATOM     92  C   UNL     1       8.448   7.105 -19.975  1.00  0.00     0.059 A 
ATOM     93  F   UNL     1       8.233   6.145 -17.846  1.00  0.00    -0.206 F 
ATOM     94  C   UNL     1       8.088   8.101 -20.881  1.00  0.00     0.060 A 
BRANCH  94  95
ATOM     95  S   UNL     1       8.800   8.122 -22.540  1.00  0.00     0.124 S 
ATOM     96  O   UNL     1       7.676   7.659 -23.347  1.00  0.00    -0.237 OA
ATOM     97  O   UNL     1       9.165   9.525 -22.707  1.00  0.00    -0.237 OA
ATOM     98  O   UNL     1       9.925   7.197 -22.438  1.00  0.00    -0.744 OA
ENDBRANCH  94  95
ENDBRANCH  62  87
ENDBRANCH  36  37
ENDBRANCH  29  31
ENDBRANCH  28  29
ENDBRANCH  27  28
ENDBRANCH   1  27
TORSDOF 19
