REMARK SMILES C[C@H](C(=O)OCCOC(=O)c1ccc(-c2c3nc(c(-c4c(F)cc(S(=O)(=O)[O-])cc4F)c4ccc([nH]4)c(-c4c(F)cc(S(=O)(=O)[O-])cc4F)c4nc(c(-c5c(F)cc(S(=O)(=O)[O-])cc5F)c5ccc2[nH]5)C=C4)C=C3)cc1)c1ccc2c(c1)OCCO2
REMARK SMILES IDX 7 1 6 2 5 3 3 4 4 5 2 6 1 7 77 8 78 9 82 10 79 11 81 12
REMARK SMILES IDX 80 13 83 14 86 15 84 16 85 17 8 18 9 19 10 20 11 21 12 22
REMARK SMILES IDX 76 23 13 24 75 25 14 26 15 27 16 28 69 29 17 30 74 31 68 32
REMARK SMILES IDX 70 33 18 34 73 35 67 36 66 37 19 39 53 40 32 41 52 42 33 43
REMARK SMILES IDX 36 44 51 45 71 46 34 47 35 48 50 50 72 51 37 52 20 53 21 54
REMARK SMILES IDX 30 55 22 56 23 57 29 58 31 59 24 60 25 61 26 62 27 63 28 64
REMARK SMILES IDX 54 65 55 66 64 67 56 68 57 69 63 70 65 71 58 72 59 73 60 74
REMARK SMILES IDX 61 75 62 76 38 77 39 78 48 79 40 80 41 81 47 82 49 83 42 84
REMARK SMILES IDX 43 85 44 86 45 87 46 88
REMARK H PARENT 70 38 36 49
REMARK Flexibility Score: inf
ROOT
ATOM      1  C   UNL     1       0.749  -0.838  -2.375  1.00  0.00     0.275 C 
ENDROOT
BRANCH   1   2
ATOM      2  C   UNL     1       1.591  -1.497  -1.286  1.00  0.00     0.274 C 
BRANCH   2   3
ATOM      3  O   UNL     1       1.063  -1.187   0.019  1.00  0.00    -0.462 OA
BRANCH   3   4
ATOM      4  C   UNL     1       1.687  -0.203   0.735  1.00  0.00     0.313 C 
ATOM      5  O   UNL     1       2.706   0.370   0.370  1.00  0.00    -0.252 OA
BRANCH   4   6
ATOM      6  C   UNL     1       1.000   0.045   2.090  1.00  0.00     0.126 C 
ATOM      7  C   UNL     1       1.382   1.405   2.678  1.00  0.00     0.025 C 
BRANCH   6   8
ATOM      8  C   UNL     1      -0.506  -0.183   2.011  1.00  0.00    -0.030 A 
ATOM      9  C   UNL     1      -1.388   0.763   1.462  1.00  0.00     0.009 A 
ATOM     10  C   UNL     1      -0.987  -1.470   2.302  1.00  0.00     0.055 A 
ATOM     11  C   UNL     1      -2.686   0.395   1.098  1.00  0.00     0.051 A 
ATOM     12  C   UNL     1      -2.256  -1.851   1.889  1.00  0.00     0.161 A 
ATOM     13  C   UNL     1      -3.087  -0.926   1.252  1.00  0.00     0.161 A 
ATOM     14  O   UNL     1      -2.562  -3.179   2.033  1.00  0.00    -0.486 OA
ATOM     15  O   UNL     1      -4.272  -1.302   0.672  1.00  0.00    -0.486 OA
ATOM     16  C   UNL     1      -3.772  -3.557   1.366  1.00  0.00     0.271 C 
ATOM     17  C   UNL     1      -4.116  -2.644   0.198  1.00  0.00     0.271 C 
ENDBRANCH   6   8
ENDBRANCH   4   6
ENDBRANCH   3   4
ENDBRANCH   2   3
ENDBRANCH   1   2
BRANCH   1  18
ATOM     18  O   UNL     1       0.806   0.584  -2.200  1.00  0.00    -0.458 OA
BRANCH  18  19
ATOM     19  C   UNL     1      -0.342   1.256  -2.430  1.00  0.00     0.338 C 
ATOM     20  O   UNL     1      -1.385   0.805  -2.882  1.00  0.00    -0.246 OA
BRANCH  19  21
ATOM     21  C   UNL     1      -0.153   2.668  -2.052  1.00  0.00     0.060 A 
ATOM     22  C   UNL     1       0.465   2.996  -0.843  1.00  0.00     0.016 A 
ATOM     23  C   UNL     1      -0.659   3.675  -2.872  1.00  0.00     0.016 A 
ATOM     24  C   UNL     1       0.512   4.320  -0.413  1.00  0.00     0.010 A 
ATOM     25  C   UNL     1      -0.528   5.011  -2.482  1.00  0.00     0.010 A 
ATOM     26  C   UNL     1       0.030   5.347  -1.235  1.00  0.00    -0.014 A 
BRANCH  26  27
ATOM     27  C   UNL     1       0.070   6.766  -0.786  1.00  0.00     0.031 A 
ATOM     28  C   UNL     1      -1.211   7.549  -0.664  1.00  0.00     0.074 A 
ATOM     29  C   UNL     1       1.246   7.359  -0.499  1.00  0.00     0.049 A 
ATOM     30  N   UNL     1      -1.383   8.834  -0.492  1.00  0.00    -0.248 NA
ATOM     31  C   UNL     1      -2.465   6.784  -0.764  1.00  0.00     0.031 C 
ATOM     32  C   UNL     1       2.558   6.709  -0.534  1.00  0.00     0.029 A 
ATOM     33  N   UNL     1       1.529   8.650  -0.125  1.00  0.00    -0.354 N 
ATOM     34  C   UNL     1      -2.758   9.040  -0.520  1.00  0.00     0.074 A 
ATOM     35  C   UNL     1      -3.375   7.748  -0.727  1.00  0.00     0.031 C 
ATOM     36  C   UNL     1       3.500   7.596  -0.177  1.00  0.00     0.029 A 
ATOM     37  C   UNL     1       2.873   8.896   0.035  1.00  0.00     0.049 A 
ATOM     38  H   UNL     1       0.836   9.335   0.016  1.00  0.00     0.167 HD
ATOM     39  C   UNL     1      -3.441  10.203  -0.388  1.00  0.00     0.037 A 
ATOM     40  C   UNL     1       3.534  10.044   0.278  1.00  0.00     0.037 A 
ATOM     41  C   UNL     1      -2.822  11.477  -0.130  1.00  0.00     0.049 A 
ATOM     42  C   UNL     1       2.757  11.324   0.406  1.00  0.00     0.074 A 
ATOM     43  C   UNL     1      -3.428  12.712   0.034  1.00  0.00     0.029 A 
ATOM     44  N   UNL     1      -1.458  11.679   0.021  1.00  0.00    -0.354 N 
ATOM     45  N   UNL     1       1.462  11.513   0.321  1.00  0.00    -0.248 NA
ATOM     46  C   UNL     1       3.531  12.550   0.643  1.00  0.00     0.031 C 
ATOM     47  C   UNL     1      -2.427  13.664   0.257  1.00  0.00     0.029 A 
ATOM     48  C   UNL     1      -1.202  13.017   0.269  1.00  0.00     0.049 A 
ATOM     49  H   UNL     1      -0.773  10.975  -0.040  1.00  0.00     0.167 HD
ATOM     50  C   UNL     1       1.264  12.876   0.505  1.00  0.00     0.074 A 
ATOM     51  C   UNL     1       2.571  13.462   0.723  1.00  0.00     0.031 C 
ATOM     52  C   UNL     1       0.106  13.581   0.489  1.00  0.00     0.037 A 
BRANCH  39  53
ATOM     53  C   UNL     1      -4.935  10.157  -0.548  1.00  0.00     0.058 A 
ATOM     54  C   UNL     1      -5.773   9.618   0.440  1.00  0.00     0.135 A 
ATOM     55  C   UNL     1      -5.538  10.691  -1.699  1.00  0.00     0.135 A 
ATOM     56  F   UNL     1      -5.248   9.078   1.550  1.00  0.00    -0.206 F 
ATOM     57  C   UNL     1      -7.156   9.590   0.283  1.00  0.00     0.059 A 
ATOM     58  C   UNL     1      -6.920  10.695  -1.866  1.00  0.00     0.059 A 
ATOM     59  F   UNL     1      -4.783  11.217  -2.676  1.00  0.00    -0.206 F 
ATOM     60  C   UNL     1      -7.720  10.129  -0.875  1.00  0.00     0.060 A 
BRANCH  60  61
ATOM     61  S   UNL     1      -9.515  10.092  -1.064  1.00  0.00     0.124 S 
ATOM     62  O   UNL     1      -9.743   8.690  -1.401  1.00  0.00    -0.237 OA
ATOM     63  O   UNL     1      -9.980  10.509   0.255  1.00  0.00    -0.237 OA
ATOM     64  O   UNL     1      -9.763  11.044  -2.142  1.00  0.00    -0.744 OA
ENDBRANCH  60  61
ENDBRANCH  39  53
BRANCH  40  65
ATOM     65  C   UNL     1       5.017  10.038   0.375  1.00  0.00     0.058 A 
ATOM     66  C   UNL     1       5.662  10.243   1.602  1.00  0.00     0.135 A 
ATOM     67  C   UNL     1       5.818   9.805  -0.755  1.00  0.00     0.135 A 
ATOM     68  F   UNL     1       4.940  10.481   2.708  1.00  0.00    -0.206 F 
ATOM     69  C   UNL     1       7.050  10.225   1.708  1.00  0.00     0.059 A 
ATOM     70  C   UNL     1       7.205   9.756  -0.670  1.00  0.00     0.059 A 
ATOM     71  F   UNL     1       5.248   9.590  -1.951  1.00  0.00    -0.206 F 
ATOM     72  C   UNL     1       7.813   9.976   0.565  1.00  0.00     0.060 A 
BRANCH  72  73
ATOM     73  S   UNL     1       9.610   9.893   0.718  1.00  0.00     0.124 S 
ATOM     74  O   UNL     1       9.963  11.306   0.795  1.00  0.00    -0.237 OA
ATOM     75  O   UNL     1       9.782   9.125   1.947  1.00  0.00    -0.237 OA
ATOM     76  O   UNL     1      10.018   9.204  -0.503  1.00  0.00    -0.744 OA
ENDBRANCH  72  73
ENDBRANCH  40  65
BRANCH  52  77
ATOM     77  C   UNL     1       0.198  15.058   0.743  1.00  0.00     0.058 A 
ATOM     78  C   UNL     1       0.662  15.944  -0.241  1.00  0.00     0.135 A 
ATOM     79  C   UNL     1      -0.222  15.596   1.970  1.00  0.00     0.135 A 
ATOM     80  F   UNL     1       1.083  15.477  -1.427  1.00  0.00    -0.206 F 
ATOM     81  C   UNL     1       0.725  17.314  -0.010  1.00  0.00     0.059 A 
ATOM     82  C   UNL     1      -0.188  16.964   2.214  1.00  0.00     0.059 A 
ATOM     83  F   UNL     1      -0.682  14.789   2.939  1.00  0.00    -0.206 F 
ATOM     84  C   UNL     1       0.299  17.815   1.222  1.00  0.00     0.060 A 
BRANCH  84  85
ATOM     85  S   UNL     1       0.356  19.598   1.502  1.00  0.00     0.124 S 
ATOM     86  O   UNL     1       1.779  19.809   1.749  1.00  0.00    -0.237 OA
ATOM     87  O   UNL     1      -0.154  20.131   0.242  1.00  0.00    -0.237 OA
ATOM     88  O   UNL     1      -0.518  19.788   2.655  1.00  0.00    -0.744 OA
ENDBRANCH  84  85
ENDBRANCH  52  77
ENDBRANCH  26  27
ENDBRANCH  19  21
ENDBRANCH  18  19
ENDBRANCH   1  18
TORSDOF 15
