REMARK SMILES O=C(COc1ccc(N2C[C@@H](C(=O)OCCOC(=O)c3ccc(-c4c5nc(c(-c6c(F)cc(S(=O)(=O)[O-])cc6F)c6ccc([nH]6)c(-c6c(F)cc(S(=O)(=O)[O-])cc6F)c6nc(c(-c7c(F)cc(S(=O)(=O)[O-])cc7F)c7ccc4[nH]7)C=C6)C=C5)cc3)CC2=O)cc1)Nc1ccc(Cl)cc1Cl
REMARK SMILES IDX 15 1 14 2 12 3 13 4 11 5 9 6 10 7 87 8 86 9 88 10 8 11 5 12
REMARK SMILES IDX 6 13 90 14 7 15 89 16 4 17 3 18 2 19 1 20 91 21 92 23 93 24
REMARK SMILES IDX 98 25 94 26 97 27 99 28 95 29 96 30 16 31 17 32 18 33 19 34
REMARK SMILES IDX 20 35 21 36 85 37 22 38 84 39 23 40 24 41 25 42 78 43 26 44
REMARK SMILES IDX 83 45 77 46 79 47 27 48 82 49 76 50 75 51 28 53 62 54 41 55
REMARK SMILES IDX 61 56 42 57 45 58 60 59 80 60 43 61 44 62 59 64 81 65 46 66
REMARK SMILES IDX 29 67 30 68 39 69 31 70 32 71 38 72 40 73 33 74 34 75 35 76
REMARK SMILES IDX 36 77 37 78 63 79 64 80 73 81 65 82 66 83 72 84 74 85 67 86
REMARK SMILES IDX 68 87 69 88 70 89 71 90 47 91 48 92 57 93 49 94 50 95 56 96
REMARK SMILES IDX 58 97 51 98 52 99 53 100 54 101 55 102
REMARK H PARENT 91 22 79 52 45 63
REMARK Flexibility Score: inf
ROOT
ATOM      1  C   UNL     1      -2.716  -6.317   7.164  1.00  0.00     0.274 C 
ENDROOT
BRANCH   1   2
ATOM      2  O   UNL     1      -1.639  -6.181   6.219  1.00  0.00    -0.462 OA
BRANCH   2   3
ATOM      3  C   UNL     1      -0.490  -5.626   6.673  1.00  0.00     0.311 C 
ATOM      4  O   UNL     1      -0.348  -5.108   7.774  1.00  0.00    -0.252 OA
BRANCH   3   5
ATOM      5  C   UNL     1       0.641  -5.727   5.684  1.00  0.00     0.128 C 
ATOM      6  N   UNL     1       1.650  -4.502   3.992  1.00  0.00    -0.312 N 
ATOM      7  C   UNL     1       1.121  -4.343   5.319  1.00  0.00     0.141 C 
ATOM      8  C   UNL     1       1.225  -5.692   3.393  1.00  0.00     0.227 C 
ATOM      9  C   UNL     1       0.338  -6.413   4.363  1.00  0.00     0.117 C 
ATOM     10  O   UNL     1       1.470  -6.107   2.269  1.00  0.00    -0.274 OA
BRANCH   6  11
ATOM     11  C   UNL     1       2.273  -3.441   3.314  1.00  0.00     0.044 A 
ATOM     12  C   UNL     1       3.377  -1.278   1.911  1.00  0.00     0.120 A 
ATOM     13  C   UNL     1       3.716  -1.483   3.246  1.00  0.00     0.048 A 
ATOM     14  C   UNL     1       2.516  -2.168   1.281  1.00  0.00     0.048 A 
ATOM     15  C   UNL     1       3.139  -2.546   3.957  1.00  0.00     0.030 A 
ATOM     16  C   UNL     1       1.980  -3.245   1.969  1.00  0.00     0.030 A 
BRANCH  12  17
ATOM     17  O   UNL     1       3.985  -0.266   1.215  1.00  0.00    -0.484 OA
BRANCH  17  18
ATOM     18  C   UNL     1       3.071   0.770   0.841  1.00  0.00     0.329 C 
BRANCH  18  19
ATOM     19  C   UNL     1       2.181   0.458  -0.373  1.00  0.00     0.262 C 
ATOM     20  O   UNL     1       1.001   0.791  -0.390  1.00  0.00    -0.271 OA
ATOM     21  N   UNL     1       2.841  -0.307  -1.333  1.00  0.00    -0.322 N 
ATOM     22  H   UNL     1       3.823  -0.354  -1.290  1.00  0.00     0.170 HD
BRANCH  21  23
ATOM     23  C   UNL     1       2.186  -1.021  -2.368  1.00  0.00     0.060 A 
ATOM     24  C   UNL     1       2.604  -2.353  -2.537  1.00  0.00     0.029 A 
ATOM     25  C   UNL     1       1.139  -0.536  -3.170  1.00  0.00     0.066 A 
ATOM     26  C   UNL     1       1.927  -3.212  -3.407  1.00  0.00     0.023 A 
ATOM     27  C   UNL     1       0.466  -1.399  -4.045  1.00  0.00     0.043 A 
ATOM     28  Cl  UNL     1       0.737   1.143  -3.287  1.00  0.00    -0.082 Cl
ATOM     29  C   UNL     1       0.850  -2.733  -4.145  1.00  0.00     0.042 A 
ATOM     30  Cl  UNL     1       0.007  -3.789  -5.210  1.00  0.00    -0.084 Cl
ENDBRANCH  21  23
ENDBRANCH  18  19
ENDBRANCH  17  18
ENDBRANCH  12  17
ENDBRANCH   6  11
ENDBRANCH   3   5
ENDBRANCH   2   3
ENDBRANCH   1   2
BRANCH   1  31
ATOM     31  C   UNL     1      -2.853  -7.774   7.618  1.00  0.00     0.275 C 
BRANCH  31  32
ATOM     32  O   UNL     1      -1.720  -8.202   8.399  1.00  0.00    -0.458 OA
BRANCH  32  33
ATOM     33  C   UNL     1      -0.713  -8.756   7.681  1.00  0.00     0.338 C 
ATOM     34  O   UNL     1      -0.676  -8.922   6.474  1.00  0.00    -0.246 OA
BRANCH  33  35
ATOM     35  C   UNL     1       0.450  -9.007   8.543  1.00  0.00     0.060 A 
ATOM     36  C   UNL     1       1.571  -8.201   8.358  1.00  0.00     0.016 A 
ATOM     37  C   UNL     1       0.502 -10.091   9.417  1.00  0.00     0.016 A 
ATOM     38  C   UNL     1       2.770  -8.497   8.987  1.00  0.00     0.010 A 
ATOM     39  C   UNL     1       1.698 -10.361  10.095  1.00  0.00     0.010 A 
ATOM     40  C   UNL     1       2.845  -9.579   9.868  1.00  0.00    -0.014 A 
BRANCH  40  41
ATOM     41  C   UNL     1       4.146  -9.889  10.508  1.00  0.00     0.031 A 
ATOM     42  C   UNL     1       4.882 -11.146  10.144  1.00  0.00     0.074 A 
ATOM     43  C   UNL     1       4.689  -9.007  11.370  1.00  0.00     0.049 A 
ATOM     44  N   UNL     1       5.978 -11.638  10.660  1.00  0.00    -0.248 NA
ATOM     45  C   UNL     1       4.311 -11.957   9.056  1.00  0.00     0.031 C 
ATOM     46  C   UNL     1       4.095  -7.723  11.752  1.00  0.00     0.029 A 
ATOM     47  N   UNL     1       5.866  -9.050  12.072  1.00  0.00    -0.354 N 
ATOM     48  C   UNL     1       6.211 -12.831   9.987  1.00  0.00     0.074 A 
ATOM     49  C   UNL     1       5.137 -12.994   9.030  1.00  0.00     0.031 C 
ATOM     50  C   UNL     1       4.916  -7.096  12.608  1.00  0.00     0.029 A 
ATOM     51  C   UNL     1       6.060  -7.958  12.884  1.00  0.00     0.049 A 
ATOM     52  H   UNL     1       6.510  -9.791  12.001  1.00  0.00     0.167 HD
ATOM     53  C   UNL     1       7.229 -13.709  10.156  1.00  0.00     0.037 A 
ATOM     54  C   UNL     1       7.031  -7.697  13.780  1.00  0.00     0.037 A 
ATOM     55  C   UNL     1       8.306 -13.522  11.093  1.00  0.00     0.049 A 
ATOM     56  C   UNL     1       8.129  -8.704  13.977  1.00  0.00     0.074 A 
ATOM     57  C   UNL     1       9.378 -14.358  11.353  1.00  0.00     0.029 A 
ATOM     58  N   UNL     1       8.454 -12.415  11.917  1.00  0.00    -0.354 N 
ATOM     59  N   UNL     1       8.306  -9.855  13.373  1.00  0.00    -0.248 NA
ATOM     60  C   UNL     1       9.150  -8.385  14.983  1.00  0.00     0.031 C 
ATOM     61  C   UNL     1      10.159 -13.770  12.354  1.00  0.00     0.029 A 
ATOM     62  C   UNL     1       9.595 -12.550  12.692  1.00  0.00     0.049 A 
ATOM     63  H   UNL     1       7.839 -11.647  11.947  1.00  0.00     0.167 HD
ATOM     64  C   UNL     1       9.464 -10.395  13.920  1.00  0.00     0.074 A 
ATOM     65  C   UNL     1       9.954  -9.435  14.889  1.00  0.00     0.031 C 
ATOM     66  C   UNL     1      10.063 -11.581  13.650  1.00  0.00     0.037 A 
BRANCH  53  67
ATOM     67  C   UNL     1       7.204 -14.965   9.332  1.00  0.00     0.058 A 
ATOM     68  C   UNL     1       7.511 -14.960   7.962  1.00  0.00     0.135 A 
ATOM     69  C   UNL     1       6.884 -16.196   9.927  1.00  0.00     0.135 A 
ATOM     70  F   UNL     1       7.803 -13.807   7.340  1.00  0.00    -0.206 F 
ATOM     71  C   UNL     1       7.477 -16.127   7.206  1.00  0.00     0.059 A 
ATOM     72  C   UNL     1       6.866 -17.379   9.195  1.00  0.00     0.059 A 
ATOM     73  F   UNL     1       6.579 -16.256  11.233  1.00  0.00    -0.206 F 
ATOM     74  C   UNL     1       7.149 -17.332   7.831  1.00  0.00     0.060 A 
BRANCH  74  75
ATOM     75  S   UNL     1       7.102 -18.840   6.838  1.00  0.00     0.124 S 
ATOM     76  O   UNL     1       5.845 -18.672   6.116  1.00  0.00    -0.237 OA
ATOM     77  O   UNL     1       8.315 -18.725   6.034  1.00  0.00    -0.237 OA
ATOM     78  O   UNL     1       7.115 -19.904   7.837  1.00  0.00    -0.744 OA
ENDBRANCH  74  75
ENDBRANCH  53  67
BRANCH  54  79
ATOM     79  C   UNL     1       6.977  -6.448  14.584  1.00  0.00     0.058 A 
ATOM     80  C   UNL     1       7.890  -5.407  14.370  1.00  0.00     0.135 A 
ATOM     81  C   UNL     1       5.991  -6.264  15.566  1.00  0.00     0.135 A 
ATOM     82  F   UNL     1       8.855  -5.540  13.447  1.00  0.00    -0.206 F 
ATOM     83  C   UNL     1       7.832  -4.226  15.104  1.00  0.00     0.059 A 
ATOM     84  C   UNL     1       5.897  -5.084  16.295  1.00  0.00     0.059 A 
ATOM     85  F   UNL     1       5.085  -7.227  15.799  1.00  0.00    -0.206 F 
ATOM     86  C   UNL     1       6.828  -4.074  16.063  1.00  0.00     0.060 A 
BRANCH  86  87
ATOM     87  S   UNL     1       6.718  -2.515  16.969  1.00  0.00     0.124 S 
ATOM     88  O   UNL     1       7.794  -2.665  17.942  1.00  0.00    -0.237 OA
ATOM     89  O   UNL     1       6.941  -1.528  15.917  1.00  0.00    -0.237 OA
ATOM     90  O   UNL     1       5.363  -2.542  17.514  1.00  0.00    -0.744 OA
ENDBRANCH  86  87
ENDBRANCH  54  79
BRANCH  66  91
ATOM     91  C   UNL     1      11.326 -11.892  14.400  1.00  0.00     0.058 A 
ATOM     92  C   UNL     1      11.300 -12.287  15.746  1.00  0.00     0.135 A 
ATOM     93  C   UNL     1      12.571 -11.829  13.755  1.00  0.00     0.135 A 
ATOM     94  F   UNL     1      10.134 -12.355  16.408  1.00  0.00    -0.206 F 
ATOM     95  C   UNL     1      12.469 -12.588  16.436  1.00  0.00     0.059 A 
ATOM     96  C   UNL     1      13.751 -12.146  14.419  1.00  0.00     0.059 A 
ATOM     97  F   UNL     1      12.646 -11.464  12.465  1.00  0.00    -0.206 F 
ATOM     98  C   UNL     1      13.691 -12.512  15.763  1.00  0.00     0.060 A 
BRANCH  98  99
ATOM     99  S   UNL     1      15.202 -12.928  16.659  1.00  0.00     0.124 S 
ATOM    100  O   UNL     1      15.414 -11.722  17.452  1.00  0.00    -0.237 OA
ATOM    101  O   UNL     1      14.808 -14.118  17.407  1.00  0.00    -0.237 OA
ATOM    102  O   UNL     1      16.173 -13.160  15.594  1.00  0.00    -0.744 OA
ENDBRANCH  98  99
ENDBRANCH  66  91
ENDBRANCH  40  41
ENDBRANCH  33  35
ENDBRANCH  32  33
ENDBRANCH  31  32
ENDBRANCH   1  31
TORSDOF 19
