REMARK SMILES O=C(Cc1ccccc1[N+](=O)[O-])N[C@@H]1C=C[C@H](C(=O)OCCOC(=O)c2ccc(-c3c4nc(c(-c5c(F)cc(S(=O)(=O)[O-])cc5F)c5ccc([nH]5)c(-c5c(F)cc(S(=O)(=O)[O-])cc5F)c5nc(c(-c6c(F)cc(S(=O)(=O)[O-])cc6F)c6ccc3[nH]6)C=C5)C=C4)cc2)C1
REMARK SMILES IDX 21 1 20 2 18 3 19 4 17 5 14 6 15 7 92 8 16 9 13 10 1 11 2 12
REMARK SMILES IDX 3 14 4 15 5 16 9 17 6 18 8 19 7 20 10 21 11 22 12 23 22 24
REMARK SMILES IDX 23 25 24 26 25 27 26 28 27 29 91 30 28 31 90 32 29 33 30 34
REMARK SMILES IDX 31 35 84 36 32 37 89 38 83 39 85 40 33 41 88 42 82 43 81 44
REMARK SMILES IDX 34 46 68 47 47 48 67 49 48 50 51 51 66 52 86 53 49 54 50 55
REMARK SMILES IDX 65 57 87 58 52 59 35 60 36 61 45 62 37 63 38 64 44 65 46 66
REMARK SMILES IDX 39 67 40 68 41 69 42 70 43 71 69 72 70 73 79 74 71 75 72 76
REMARK SMILES IDX 78 77 80 78 73 79 74 80 75 81 76 82 77 83 53 84 54 85 63 86
REMARK SMILES IDX 55 87 56 88 62 89 64 90 57 91 58 92 59 93 60 94 61 95
REMARK H PARENT 13 13 85 45 51 56
REMARK Flexibility Score: inf
ROOT
ATOM      1  C   UNL     1       0.473   5.848   4.815  1.00  0.00     0.274 C 
ENDROOT
BRANCH   1   2
ATOM      2  O   UNL     1       1.393   5.252   3.878  1.00  0.00    -0.462 OA
BRANCH   2   3
ATOM      3  C   UNL     1       2.310   4.395   4.408  1.00  0.00     0.312 C 
ATOM      4  O   UNL     1       2.469   4.213   5.610  1.00  0.00    -0.252 OA
BRANCH   3   5
ATOM      5  C   UNL     1       3.193   3.758   3.335  1.00  0.00     0.124 C 
ATOM      6  C   UNL     1       2.357   2.009   1.783  1.00  0.00     0.106 C 
ATOM      7  C   UNL     1       3.141   1.433   2.912  1.00  0.00    -0.006 C 
ATOM      8  C   UNL     1       2.534   3.528   1.966  1.00  0.00     0.048 C 
ATOM      9  C   UNL     1       3.609   2.373   3.740  1.00  0.00    -0.014 C 
BRANCH   6  10
ATOM     10  N   UNL     1       0.989   1.550   1.871  1.00  0.00    -0.350 N 
ATOM     11  O   UNL     1       0.323   2.751   0.037  1.00  0.00    -0.275 OA
ATOM     12  C   UNL     1       0.078   1.913   0.903  1.00  0.00     0.225 C 
ATOM     13  H   UNL     1       0.708   0.979   2.622  1.00  0.00     0.164 HD
BRANCH  12  14
ATOM     14  C   UNL     1      -1.261   1.211   0.963  1.00  0.00     0.142 C 
BRANCH  14  15
ATOM     15  C   UNL     1      -1.338  -0.211   0.440  1.00  0.00     0.039 A 
ATOM     16  C   UNL     1      -2.335  -1.035   1.004  1.00  0.00     0.011 A 
ATOM     17  C   UNL     1      -0.595  -0.766  -0.619  1.00  0.00     0.273 A 
ATOM     18  C   UNL     1      -2.546  -2.345   0.558  1.00  0.00     0.001 A 
ATOM     19  C   UNL     1      -0.788  -2.087  -1.061  1.00  0.00     0.086 A 
ATOM     20  C   UNL     1      -1.768  -2.875  -0.466  1.00  0.00     0.007 A 
BRANCH  17  21
ATOM     21  N   UNL     1       0.391  -0.004  -1.357  1.00  0.00     0.063 N 
ATOM     22  O   UNL     1       1.574  -0.146  -1.018  1.00  0.00    -0.258 OA
ATOM     23  O   UNL     1      -0.022   0.681  -2.302  1.00  0.00    -0.258 OA
ENDBRANCH  17  21
ENDBRANCH  14  15
ENDBRANCH  12  14
ENDBRANCH   6  10
ENDBRANCH   3   5
ENDBRANCH   2   3
ENDBRANCH   1   2
BRANCH   1  24
ATOM     24  C   UNL     1      -0.820   5.037   4.877  1.00  0.00     0.275 C 
BRANCH  24  25
ATOM     25  O   UNL     1      -0.523   3.708   5.332  1.00  0.00    -0.458 OA
BRANCH  25  26
ATOM     26  C   UNL     1      -1.277   2.719   4.801  1.00  0.00     0.338 C 
ATOM     27  O   UNL     1      -2.227   2.846   4.047  1.00  0.00    -0.246 OA
BRANCH  26  28
ATOM     28  C   UNL     1      -0.788   1.403   5.270  1.00  0.00     0.060 A 
ATOM     29  C   UNL     1       0.575   1.153   5.436  1.00  0.00     0.016 A 
ATOM     30  C   UNL     1      -1.710   0.376   5.483  1.00  0.00     0.016 A 
ATOM     31  C   UNL     1       1.022  -0.127   5.771  1.00  0.00     0.010 A 
ATOM     32  C   UNL     1      -1.266  -0.884   5.897  1.00  0.00     0.010 A 
ATOM     33  C   UNL     1       0.107  -1.156   6.032  1.00  0.00    -0.014 A 
BRANCH  33  34
ATOM     34  C   UNL     1       0.570  -2.507   6.454  1.00  0.00     0.031 A 
ATOM     35  C   UNL     1       0.234  -3.720   5.626  1.00  0.00     0.074 A 
ATOM     36  C   UNL     1       1.269  -2.658   7.598  1.00  0.00     0.049 A 
ATOM     37  N   UNL     1       0.382  -4.987   5.919  1.00  0.00    -0.248 NA
ATOM     38  C   UNL     1      -0.358  -3.477   4.301  1.00  0.00     0.031 C 
ATOM     39  C   UNL     1       1.683  -1.573   8.489  1.00  0.00     0.029 A 
ATOM     40  N   UNL     1       1.751  -3.789   8.211  1.00  0.00    -0.354 N 
ATOM     41  C   UNL     1      -0.139  -5.692   4.840  1.00  0.00     0.074 A 
ATOM     42  C   UNL     1      -0.609  -4.711   3.885  1.00  0.00     0.031 C 
ATOM     43  C   UNL     1       2.378  -2.086   9.517  1.00  0.00     0.029 A 
ATOM     44  C   UNL     1       2.396  -3.539   9.400  1.00  0.00     0.049 A 
ATOM     45  H   UNL     1       1.645  -4.693   7.835  1.00  0.00     0.167 HD
ATOM     46  C   UNL     1      -0.218  -7.034   4.664  1.00  0.00     0.037 A 
ATOM     47  C   UNL     1       2.912  -4.382  10.316  1.00  0.00     0.037 A 
ATOM     48  C   UNL     1       0.289  -8.010   5.593  1.00  0.00     0.049 A 
ATOM     49  C   UNL     1       2.802  -5.865  10.102  1.00  0.00     0.074 A 
ATOM     50  C   UNL     1       0.261  -9.391   5.492  1.00  0.00     0.029 A 
ATOM     51  N   UNL     1       0.932  -7.712   6.785  1.00  0.00    -0.354 N 
ATOM     52  N   UNL     1       2.260  -6.513   9.100  1.00  0.00    -0.248 NA
ATOM     53  C   UNL     1       3.358  -6.730  11.152  1.00  0.00     0.031 C 
ATOM     54  C   UNL     1       0.867  -9.928   6.634  1.00  0.00     0.029 A 
ATOM     55  C   UNL     1       1.300  -8.882   7.430  1.00  0.00     0.049 A 
ATOM     56  H   UNL     1       1.102  -6.803   7.122  1.00  0.00     0.167 HD
ATOM     57  C   UNL     1       2.412  -7.862   9.396  1.00  0.00     0.074 A 
ATOM     58  C   UNL     1       3.116  -7.938  10.660  1.00  0.00     0.031 C 
ATOM     59  C   UNL     1       1.999  -8.942   8.688  1.00  0.00     0.037 A 
BRANCH  46  60
ATOM     60  C   UNL     1      -0.905  -7.531   3.424  1.00  0.00     0.058 A 
ATOM     61  C   UNL     1      -0.286  -7.480   2.166  1.00  0.00     0.135 A 
ATOM     62  C   UNL     1      -2.186  -8.101   3.504  1.00  0.00     0.135 A 
ATOM     63  F   UNL     1       0.930  -6.928   2.032  1.00  0.00    -0.206 F 
ATOM     64  C   UNL     1      -0.924  -7.954   1.024  1.00  0.00     0.059 A 
ATOM     65  C   UNL     1      -2.835  -8.601   2.379  1.00  0.00     0.059 A 
ATOM     66  F   UNL     1      -2.821  -8.172   4.684  1.00  0.00    -0.206 F 
ATOM     67  C   UNL     1      -2.201  -8.508   1.141  1.00  0.00     0.060 A 
BRANCH  67  68
ATOM     68  S   UNL     1      -3.026  -9.097  -0.352  1.00  0.00     0.124 S 
ATOM     69  O   UNL     1      -3.421  -7.836  -0.974  1.00  0.00    -0.237 OA
ATOM     70  O   UNL     1      -1.964  -9.832  -1.030  1.00  0.00    -0.237 OA
ATOM     71  O   UNL     1      -4.120  -9.913   0.164  1.00  0.00    -0.744 OA
ENDBRANCH  67  68
ENDBRANCH  46  60
BRANCH  47  72
ATOM     72  C   UNL     1       3.550  -3.838  11.543  1.00  0.00     0.058 A 
ATOM     73  C   UNL     1       4.939  -3.903  11.723  1.00  0.00     0.135 A 
ATOM     74  C   UNL     1       2.786  -3.227  12.550  1.00  0.00     0.135 A 
ATOM     75  F   UNL     1       5.708  -4.488  10.792  1.00  0.00    -0.206 F 
ATOM     76  C   UNL     1       5.550  -3.386  12.860  1.00  0.00     0.059 A 
ATOM     77  C   UNL     1       3.377  -2.682  13.685  1.00  0.00     0.059 A 
ATOM     78  F   UNL     1       1.454  -3.131  12.418  1.00  0.00    -0.206 F 
ATOM     79  C   UNL     1       4.760  -2.775  13.835  1.00  0.00     0.060 A 
BRANCH  79  80
ATOM     80  S   UNL     1       5.561  -2.048  15.281  1.00  0.00     0.124 S 
ATOM     81  O   UNL     1       5.790  -3.224  16.111  1.00  0.00    -0.237 OA
ATOM     82  O   UNL     1       6.752  -1.433  14.702  1.00  0.00    -0.237 OA
ATOM     83  O   UNL     1       4.560  -1.107  15.776  1.00  0.00    -0.744 OA
ENDBRANCH  79  80
ENDBRANCH  47  72
BRANCH  59  84
ATOM     84  C   UNL     1       2.314 -10.295   9.258  1.00  0.00     0.058 A 
ATOM     85  C   UNL     1       1.585 -10.823  10.334  1.00  0.00     0.135 A 
ATOM     86  C   UNL     1       3.337 -11.080   8.705  1.00  0.00     0.135 A 
ATOM     87  F   UNL     1       0.602 -10.107  10.900  1.00  0.00    -0.206 F 
ATOM     88  C   UNL     1       1.875 -12.078  10.859  1.00  0.00     0.059 A 
ATOM     89  C   UNL     1       3.632 -12.346   9.202  1.00  0.00     0.059 A 
ATOM     90  F   UNL     1       4.058 -10.621   7.670  1.00  0.00    -0.206 F 
ATOM     91  C   UNL     1       2.904 -12.831  10.289  1.00  0.00     0.060 A 
BRANCH  91  92
ATOM     92  S   UNL     1       3.262 -14.467  10.963  1.00  0.00     0.124 S 
ATOM     93  O   UNL     1       4.028 -14.129  12.159  1.00  0.00    -0.237 OA
ATOM     94  O   UNL     1       1.929 -15.012  11.197  1.00  0.00    -0.237 OA
ATOM     95  O   UNL     1       4.017 -15.114   9.895  1.00  0.00    -0.744 OA
ENDBRANCH  91  92
ENDBRANCH  59  84
ENDBRANCH  33  34
ENDBRANCH  26  28
ENDBRANCH  25  26
ENDBRANCH  24  25
ENDBRANCH   1  24
TORSDOF 18
