REMARK SMILES O=C(OCCOC(=O)c1ccccc1NC(=O)c1cc2cc(Cl)cc(Cl)c2oc1=O)c1ccc(-c2c3nc(c(-c4c(F)cc(S(=O)(=O)[O-])cc4F)c4ccc([nH]4)c(-c4c(F)cc(S(=O)(=O)[O-])cc4F)c4nc(c(-c5c(F)cc(S(=O)(=O)[O-])cc5F)c5ccc2[nH]5)C=C4)C=C3)cc1
REMARK SMILES IDX 4 1 3 2 2 3 1 4 31 5 32 6 96 7 33 8 95 9 34 10 35 11 36 12
REMARK SMILES IDX 89 13 37 14 94 15 88 16 90 17 38 18 93 19 87 20 86 21 39 23
REMARK SMILES IDX 73 24 52 25 72 26 53 27 56 28 71 29 91 30 54 31 55 32 70 34
REMARK SMILES IDX 92 35 57 36 40 37 41 38 50 39 42 40 43 41 49 42 51 43 44 44
REMARK SMILES IDX 45 45 46 46 47 47 48 48 74 49 75 50 84 51 76 52 77 53 83 54
REMARK SMILES IDX 85 55 78 56 79 57 80 58 81 59 82 60 58 61 59 62 68 63 60 64
REMARK SMILES IDX 61 65 67 66 69 67 62 68 63 69 64 70 65 71 66 72 5 73 6 74
REMARK SMILES IDX 7 75 8 76 9 77 10 78 14 79 11 80 13 81 12 82 15 83 16 84
REMARK SMILES IDX 17 86 18 87 19 88 29 89 20 90 28 91 30 92 21 93 27 94 22 95
REMARK SMILES IDX 25 96 23 97 24 98 26 99
REMARK H PARENT 90 22 56 33 15 85
REMARK Flexibility Score: inf
ROOT
ATOM      1  C   UNL     1       4.533  -1.333   0.317  1.00  0.00     0.275 C 
ENDROOT
BRANCH   1   2
ATOM      2  O   UNL     1       3.380  -0.627   0.802  1.00  0.00    -0.458 OA
BRANCH   2   3
ATOM      3  C   UNL     1       3.046   0.681   0.717  1.00  0.00     0.338 C 
ATOM      4  O   UNL     1       2.139   1.085   1.446  1.00  0.00    -0.246 OA
BRANCH   3   5
ATOM      5  C   UNL     1       3.621   1.660  -0.272  1.00  0.00     0.060 A 
ATOM      6  C   UNL     1       4.817   1.540  -0.988  1.00  0.00     0.016 A 
ATOM      7  C   UNL     1       2.855   2.825  -0.487  1.00  0.00     0.016 A 
ATOM      8  C   UNL     1       5.237   2.538  -1.880  1.00  0.00     0.010 A 
ATOM      9  C   UNL     1       3.267   3.824  -1.374  1.00  0.00     0.010 A 
ATOM     10  C   UNL     1       4.475   3.693  -2.060  1.00  0.00    -0.014 A 
BRANCH  10  11
ATOM     11  C   UNL     1       4.997   4.819  -2.869  1.00  0.00     0.031 A 
ATOM     12  C   UNL     1       5.719   5.921  -2.175  1.00  0.00     0.074 A 
ATOM     13  C   UNL     1       4.752   4.897  -4.187  1.00  0.00     0.049 A 
ATOM     14  N   UNL     1       6.241   7.003  -2.682  1.00  0.00    -0.248 NA
ATOM     15  C   UNL     1       5.819   5.815  -0.712  1.00  0.00     0.031 C 
ATOM     16  C   UNL     1       3.948   3.927  -4.903  1.00  0.00     0.029 A 
ATOM     17  N   UNL     1       5.105   5.807  -5.149  1.00  0.00    -0.354 N 
ATOM     18  C   UNL     1       6.678   7.742  -1.595  1.00  0.00     0.074 A 
ATOM     19  C   UNL     1       6.372   6.977  -0.405  1.00  0.00     0.031 C 
ATOM     20  C   UNL     1       3.867   4.278  -6.194  1.00  0.00     0.029 A 
ATOM     21  C   UNL     1       4.673   5.468  -6.412  1.00  0.00     0.049 A 
ATOM     22  H   UNL     1       5.617   6.625  -4.955  1.00  0.00     0.167 HD
ATOM     23  C   UNL     1       7.252   8.967  -1.600  1.00  0.00     0.037 A 
ATOM     24  C   UNL     1       4.940   6.031  -7.609  1.00  0.00     0.037 A 
ATOM     25  C   UNL     1       7.512   9.716  -2.799  1.00  0.00     0.049 A 
ATOM     26  C   UNL     1       5.758   7.291  -7.610  1.00  0.00     0.074 A 
ATOM     27  C   UNL     1       8.071  10.972  -2.931  1.00  0.00     0.029 A 
ATOM     28  N   UNL     1       7.217   9.270  -4.083  1.00  0.00    -0.354 N 
ATOM     29  N   UNL     1       6.240   7.945  -6.579  1.00  0.00    -0.248 NA
ATOM     30  C   UNL     1       6.051   7.906  -8.909  1.00  0.00     0.031 C 
ATOM     31  C   UNL     1       8.091  11.297  -4.293  1.00  0.00     0.029 A 
ATOM     32  C   UNL     1       7.583  10.225  -5.014  1.00  0.00     0.049 A 
ATOM     33  H   UNL     1       6.807   8.401  -4.298  1.00  0.00     0.167 HD
ATOM     34  C   UNL     1       6.875   9.061  -7.102  1.00  0.00     0.074 A 
ATOM     35  C   UNL     1       6.764   8.964  -8.545  1.00  0.00     0.031 C 
ATOM     36  C   UNL     1       7.463  10.090  -6.446  1.00  0.00     0.037 A 
BRANCH  23  37
ATOM     37  C   UNL     1       7.540   9.564  -0.255  1.00  0.00     0.058 A 
ATOM     38  C   UNL     1       8.539   9.044   0.584  1.00  0.00     0.135 A 
ATOM     39  C   UNL     1       6.727  10.592   0.248  1.00  0.00     0.135 A 
ATOM     40  F   UNL     1       9.321   8.037   0.162  1.00  0.00    -0.206 F 
ATOM     41  C   UNL     1       8.678   9.476   1.899  1.00  0.00     0.059 A 
ATOM     42  C   UNL     1       6.868  11.059   1.551  1.00  0.00     0.059 A 
ATOM     43  F   UNL     1       5.752  11.117  -0.510  1.00  0.00    -0.206 F 
ATOM     44  C   UNL     1       7.824  10.470   2.378  1.00  0.00     0.060 A 
BRANCH  44  45
ATOM     45  S   UNL     1       7.951  10.960   4.110  1.00  0.00     0.124 S 
ATOM     46  O   UNL     1       7.270   9.852   4.773  1.00  0.00    -0.237 OA
ATOM     47  O   UNL     1       9.395  11.028   4.313  1.00  0.00    -0.237 OA
ATOM     48  O   UNL     1       7.255  12.242   4.150  1.00  0.00    -0.744 OA
ENDBRANCH  44  45
ENDBRANCH  23  37
BRANCH  24  49
ATOM     49  C   UNL     1       4.551   5.347  -8.877  1.00  0.00     0.058 A 
ATOM     50  C   UNL     1       5.543   4.801  -9.709  1.00  0.00     0.135 A 
ATOM     51  C   UNL     1       3.214   5.138  -9.250  1.00  0.00     0.135 A 
ATOM     52  F   UNL     1       6.839   4.957  -9.398  1.00  0.00    -0.206 F 
ATOM     53  C   UNL     1       5.230   4.064 -10.845  1.00  0.00     0.059 A 
ATOM     54  C   UNL     1       2.873   4.376 -10.366  1.00  0.00     0.059 A 
ATOM     55  F   UNL     1       2.220   5.616  -8.485  1.00  0.00    -0.206 F 
ATOM     56  C   UNL     1       3.890   3.838 -11.154  1.00  0.00     0.060 A 
BRANCH  56  57
ATOM     57  S   UNL     1       3.506   2.733 -12.531  1.00  0.00     0.124 S 
ATOM     58  O   UNL     1       3.862   3.558 -13.679  1.00  0.00    -0.237 OA
ATOM     59  O   UNL     1       4.389   1.604 -12.249  1.00  0.00    -0.237 OA
ATOM     60  O   UNL     1       2.083   2.467 -12.353  1.00  0.00    -0.744 OA
ENDBRANCH  56  57
ENDBRANCH  24  49
BRANCH  36  61
ATOM     61  C   UNL     1       8.017  11.201  -7.284  1.00  0.00     0.058 A 
ATOM     62  C   UNL     1       7.172  12.148  -7.882  1.00  0.00     0.135 A 
ATOM     63  C   UNL     1       9.403  11.373  -7.410  1.00  0.00     0.135 A 
ATOM     64  F   UNL     1       5.838  12.015  -7.796  1.00  0.00    -0.206 F 
ATOM     65  C   UNL     1       7.685  13.234  -8.579  1.00  0.00     0.059 A 
ATOM     66  C   UNL     1       9.938  12.463  -8.085  1.00  0.00     0.059 A 
ATOM     67  F   UNL     1      10.247  10.491  -6.852  1.00  0.00    -0.206 F 
ATOM     68  C   UNL     1       9.070  13.388  -8.665  1.00  0.00     0.060 A 
BRANCH  68  69
ATOM     69  S   UNL     1       9.723  14.849  -9.499  1.00  0.00     0.124 S 
ATOM     70  O   UNL     1       9.500  14.509 -10.901  1.00  0.00    -0.237 OA
ATOM     71  O   UNL     1       8.883  15.915  -8.964  1.00  0.00    -0.237 OA
ATOM     72  O   UNL     1      11.119  14.885  -9.074  1.00  0.00    -0.744 OA
ENDBRANCH  68  69
ENDBRANCH  36  61
ENDBRANCH  10  11
ENDBRANCH   3   5
ENDBRANCH   2   3
ENDBRANCH   1   2
BRANCH   1  73
ATOM     73  C   UNL     1       4.307  -1.987  -1.048  1.00  0.00     0.275 C 
BRANCH  73  74
ATOM     74  O   UNL     1       3.750  -1.074  -2.009  1.00  0.00    -0.458 OA
BRANCH  74  75
ATOM     75  C   UNL     1       2.396  -1.116  -2.114  1.00  0.00     0.340 C 
ATOM     76  O   UNL     1       1.654  -1.897  -1.538  1.00  0.00    -0.246 OA
BRANCH  75  77
ATOM     77  C   UNL     1       1.891   0.010  -2.936  1.00  0.00     0.083 A 
ATOM     78  C   UNL     1       0.771   0.673  -2.402  1.00  0.00     0.018 A 
ATOM     79  C   UNL     1       2.446   0.402  -4.176  1.00  0.00     0.056 A 
ATOM     80  C   UNL     1       0.181   1.723  -3.093  1.00  0.00     0.001 A 
ATOM     81  C   UNL     1       1.750   1.369  -4.909  1.00  0.00     0.027 A 
ATOM     82  C   UNL     1       0.652   2.048  -4.358  1.00  0.00     0.002 A 
BRANCH  79  83
ATOM     83  N   UNL     1       3.717  -0.097  -4.552  1.00  0.00    -0.321 N 
ATOM     84  C   UNL     1       4.569   0.102  -5.603  1.00  0.00     0.263 C 
ATOM     85  H   UNL     1       4.072  -0.742  -3.899  1.00  0.00     0.170 HD
ATOM     86  O   UNL     1       5.732  -0.290  -5.479  1.00  0.00    -0.269 OA
BRANCH  84  87
ATOM     87  C   UNL     1       4.091   0.693  -6.881  1.00  0.00     0.126 A 
ATOM     88  C   UNL     1       4.915   1.544  -7.529  1.00  0.00     0.033 A 
ATOM     89  C   UNL     1       3.488  -0.315  -7.787  1.00  0.00     0.349 A 
ATOM     90  C   UNL     1       5.943   0.908  -8.370  1.00  0.00     0.021 A 
ATOM     91  O   UNL     1       4.385  -0.929  -8.660  1.00  0.00    -0.421 OA
ATOM     92  O   UNL     1       2.314  -0.649  -7.680  1.00  0.00    -0.245 OA
ATOM     93  C   UNL     1       7.146   1.543  -8.681  1.00  0.00     0.032 A 
ATOM     94  C   UNL     1       5.657  -0.354  -8.897  1.00  0.00     0.157 A 
ATOM     95  C   UNL     1       8.062   0.889  -9.505  1.00  0.00     0.043 A 
ATOM     96  C   UNL     1       6.588  -1.018  -9.691  1.00  0.00     0.085 A 
ATOM     97  Cl  UNL     1       9.545   1.663  -9.914  1.00  0.00    -0.084 Cl
ATOM     98  C   UNL     1       7.798  -0.392  -9.996  1.00  0.00     0.045 A 
ATOM     99  Cl  UNL     1       6.293  -2.610 -10.280  1.00  0.00    -0.080 Cl
ENDBRANCH  84  87
ENDBRANCH  79  83
ENDBRANCH  75  77
ENDBRANCH  74  75
ENDBRANCH  73  74
ENDBRANCH   1  73
TORSDOF 16
