REMARK SMILES CC(=O)Nc1cccc(-c2ccc(F)c(C(=O)OCCOC(=O)c3ccc(-c4c5nc(c(-c6c(F)cc(S(=O)(=O)[O-])cc6F)c6ccc([nH]6)c(-c6c(F)cc(S(=O)(=O)[O-])cc6F)c6nc(c(-c7c(F)cc(S(=O)(=O)[O-])cc7F)c7ccc4[nH]7)C=C6)C=C5)cc3)c2)c1
REMARK SMILES IDX 20 1 19 2 18 3 16 4 17 5 15 6 10 7 11 8 90 9 12 10 13 11
REMARK SMILES IDX 14 12 9 13 5 14 6 15 91 16 7 17 8 18 4 19 1 20 2 21 3 22
REMARK SMILES IDX 21 24 22 25 23 26 24 27 25 28 89 29 26 30 88 31 27 32 28 33
REMARK SMILES IDX 29 34 82 35 30 36 87 37 81 38 83 39 31 40 86 41 80 42 79 43
REMARK SMILES IDX 32 45 66 46 45 47 65 48 46 49 49 50 64 51 84 52 47 53 48 54
REMARK SMILES IDX 63 56 85 57 50 58 33 59 34 60 43 61 35 62 36 63 42 64 44 65
REMARK SMILES IDX 37 66 38 67 39 68 40 69 41 70 67 71 68 72 77 73 69 74 70 75
REMARK SMILES IDX 76 76 78 77 71 78 72 79 73 80 74 81 75 82 51 83 52 84 61 85
REMARK SMILES IDX 53 86 54 87 60 88 62 89 55 90 56 91 57 92 58 93 59 94
REMARK H PARENT 4 23 83 44 49 55
REMARK Flexibility Score: inf
ROOT
ATOM      1  C   UNL     1       9.841  -0.115   2.857  1.00  0.00     0.275 C 
ENDROOT
BRANCH   1   2
ATOM      2  C   UNL     1       8.582   0.615   2.385  1.00  0.00     0.275 C 
BRANCH   2   3
ATOM      3  O   UNL     1       7.631  -0.325   1.845  1.00  0.00    -0.458 OA
BRANCH   3   4
ATOM      4  C   UNL     1       7.385  -0.253   0.511  1.00  0.00     0.341 C 
ATOM      5  O   UNL     1       7.843   0.570  -0.263  1.00  0.00    -0.246 OA
BRANCH   4   6
ATOM      6  C   UNL     1       6.516  -1.383   0.112  1.00  0.00     0.096 A 
ATOM      7  C   UNL     1       4.651  -2.880   0.578  1.00  0.00    -0.017 A 
ATOM      8  C   UNL     1       4.880  -3.533  -0.641  1.00  0.00     0.012 A 
ATOM      9  C   UNL     1       5.522  -1.848   0.974  1.00  0.00     0.027 A 
ATOM     10  C   UNL     1       5.873  -3.074  -1.504  1.00  0.00     0.041 A 
ATOM     11  C   UNL     1       6.638  -1.967  -1.149  1.00  0.00     0.137 A 
ATOM     12  F   UNL     1       7.488  -1.483  -2.064  1.00  0.00    -0.206 F 
BRANCH   7  13
ATOM     13  C   UNL     1       3.422  -3.111   1.339  1.00  0.00    -0.016 A 
ATOM     14  C   UNL     1       1.329  -2.157   2.170  1.00  0.00     0.041 A 
ATOM     15  C   UNL     1       1.037  -3.376   2.782  1.00  0.00     0.026 A 
ATOM     16  C   UNL     1       2.529  -2.032   1.481  1.00  0.00     0.034 A 
ATOM     17  C   UNL     1       1.899  -4.469   2.631  1.00  0.00     0.003 A 
ATOM     18  C   UNL     1       3.084  -4.342   1.903  1.00  0.00     0.009 A 
BRANCH  14  19
ATOM     19  N   UNL     1       0.432  -1.089   2.331  1.00  0.00    -0.326 N 
ATOM     20  C   UNL     1       0.764   0.117   0.167  1.00  0.00     0.114 C 
ATOM     21  C   UNL     1       0.234   0.036   1.577  1.00  0.00     0.221 C 
ATOM     22  O   UNL     1      -0.448   0.952   2.045  1.00  0.00    -0.275 OA
ATOM     23  H   UNL     1      -0.152  -1.161   3.119  1.00  0.00     0.169 HD
ENDBRANCH  14  19
ENDBRANCH   7  13
ENDBRANCH   4   6
ENDBRANCH   3   4
ENDBRANCH   2   3
ENDBRANCH   1   2
BRANCH   1  24
ATOM     24  O   UNL     1      10.549  -0.655   1.727  1.00  0.00    -0.458 OA
BRANCH  24  25
ATOM     25  C   UNL     1      10.419  -1.989   1.540  1.00  0.00     0.338 C 
ATOM     26  O   UNL     1       9.848  -2.791   2.257  1.00  0.00    -0.246 OA
BRANCH  25  27
ATOM     27  C   UNL     1      10.975  -2.340   0.226  1.00  0.00     0.060 A 
ATOM     28  C   UNL     1      10.176  -2.112  -0.887  1.00  0.00     0.016 A 
ATOM     29  C   UNL     1      12.200  -2.981   0.085  1.00  0.00     0.016 A 
ATOM     30  C   UNL     1      10.543  -2.591  -2.138  1.00  0.00     0.010 A 
ATOM     31  C   UNL     1      12.623  -3.369  -1.195  1.00  0.00     0.010 A 
ATOM     32  C   UNL     1      11.790  -3.197  -2.320  1.00  0.00    -0.014 A 
BRANCH  32  33
ATOM     33  C   UNL     1      12.212  -3.644  -3.677  1.00  0.00     0.031 A 
ATOM     34  C   UNL     1      12.571  -5.086  -3.922  1.00  0.00     0.074 A 
ATOM     35  C   UNL     1      12.270  -2.760  -4.696  1.00  0.00     0.049 A 
ATOM     36  N   UNL     1      13.131  -5.634  -4.969  1.00  0.00    -0.248 NA
ATOM     37  C   UNL     1      12.269  -6.036  -2.839  1.00  0.00     0.031 C 
ATOM     38  C   UNL     1      11.882  -1.349  -4.621  1.00  0.00     0.029 A 
ATOM     39  N   UNL     1      12.675  -2.917  -6.000  1.00  0.00    -0.354 N 
ATOM     40  C   UNL     1      13.304  -6.977  -4.651  1.00  0.00     0.074 A 
ATOM     41  C   UNL     1      12.788  -7.160  -3.311  1.00  0.00     0.031 C 
ATOM     42  C   UNL     1      12.033  -0.782  -5.826  1.00  0.00     0.029 A 
ATOM     43  C   UNL     1      12.626  -1.754  -6.735  1.00  0.00     0.049 A 
ATOM     44  H   UNL     1      12.972  -3.778  -6.372  1.00  0.00     0.167 HD
ATOM     45  C   UNL     1      13.849  -7.960  -5.408  1.00  0.00     0.037 A 
ATOM     46  C   UNL     1      13.057  -1.481  -7.982  1.00  0.00     0.037 A 
ATOM     47  C   UNL     1      14.318  -7.770  -6.758  1.00  0.00     0.049 A 
ATOM     48  C   UNL     1      13.729  -2.567  -8.772  1.00  0.00     0.074 A 
ATOM     49  C   UNL     1      14.859  -8.708  -7.620  1.00  0.00     0.029 A 
ATOM     50  N   UNL     1      14.304  -6.562  -7.441  1.00  0.00    -0.354 N 
ATOM     51  N   UNL     1      13.919  -3.824  -8.448  1.00  0.00    -0.248 NA
ATOM     52  C   UNL     1      14.270  -2.195 -10.086  1.00  0.00     0.031 C 
ATOM     53  C   UNL     1      15.225  -8.055  -8.802  1.00  0.00     0.029 A 
ATOM     54  C   UNL     1      14.858  -6.723  -8.701  1.00  0.00     0.049 A 
ATOM     55  H   UNL     1      13.951  -5.715  -7.084  1.00  0.00     0.167 HD
ATOM     56  C   UNL     1      14.582  -4.398  -9.527  1.00  0.00     0.074 A 
ATOM     57  C   UNL     1      14.749  -3.354 -10.517  1.00  0.00     0.031 C 
ATOM     58  C   UNL     1      15.013  -5.674  -9.681  1.00  0.00     0.037 A 
BRANCH  45  59
ATOM     59  C   UNL     1      14.023  -9.317  -4.777  1.00  0.00     0.058 A 
ATOM     60  C   UNL     1      12.938 -10.158  -4.484  1.00  0.00     0.135 A 
ATOM     61  C   UNL     1      15.313  -9.791  -4.479  1.00  0.00     0.135 A 
ATOM     62  F   UNL     1      11.683  -9.754  -4.734  1.00  0.00    -0.206 F 
ATOM     63  C   UNL     1      13.122 -11.401  -3.885  1.00  0.00     0.059 A 
ATOM     64  C   UNL     1      15.522 -11.043  -3.909  1.00  0.00     0.059 A 
ATOM     65  F   UNL     1      16.389  -9.031  -4.739  1.00  0.00    -0.206 F 
ATOM     66  C   UNL     1      14.418 -11.833  -3.598  1.00  0.00     0.060 A 
BRANCH  66  67
ATOM     67  S   UNL     1      14.639 -13.440  -2.804  1.00  0.00     0.124 S 
ATOM     68  O   UNL     1      14.161 -13.165  -1.452  1.00  0.00    -0.237 OA
ATOM     69  O   UNL     1      13.787 -14.307  -3.612  1.00  0.00    -0.237 OA
ATOM     70  O   UNL     1      16.072 -13.686  -2.924  1.00  0.00    -0.744 OA
ENDBRANCH  66  67
ENDBRANCH  45  59
BRANCH  46  71
ATOM     71  C   UNL     1      12.903  -0.109  -8.540  1.00  0.00     0.058 A 
ATOM     72  C   UNL     1      12.036   0.138  -9.614  1.00  0.00     0.135 A 
ATOM     73  C   UNL     1      13.601   0.985  -8.001  1.00  0.00     0.135 A 
ATOM     74  F   UNL     1      11.357  -0.875 -10.175  1.00  0.00    -0.206 F 
ATOM     75  C   UNL     1      11.868   1.417 -10.137  1.00  0.00     0.059 A 
ATOM     76  C   UNL     1      13.426   2.277  -8.486  1.00  0.00     0.059 A 
ATOM     77  F   UNL     1      14.439   0.806  -6.968  1.00  0.00    -0.206 F 
ATOM     78  C   UNL     1      12.563   2.482  -9.561  1.00  0.00     0.060 A 
BRANCH  78  79
ATOM     79  S   UNL     1      12.295   4.144 -10.213  1.00  0.00     0.124 S 
ATOM     80  O   UNL     1      12.981   4.069 -11.498  1.00  0.00    -0.237 OA
ATOM     81  O   UNL     1      10.839   4.220 -10.270  1.00  0.00    -0.237 OA
ATOM     82  O   UNL     1      12.921   5.003  -9.212  1.00  0.00    -0.744 OA
ENDBRANCH  78  79
ENDBRANCH  46  71
BRANCH  58  83
ATOM     83  C   UNL     1      15.678  -6.027 -10.982  1.00  0.00     0.058 A 
ATOM     84  C   UNL     1      16.974  -5.589 -11.293  1.00  0.00     0.135 A 
ATOM     85  C   UNL     1      15.030  -6.866 -11.905  1.00  0.00     0.135 A 
ATOM     86  F   UNL     1      17.632  -4.776 -10.452  1.00  0.00    -0.206 F 
ATOM     87  C   UNL     1      17.600  -5.959 -12.479  1.00  0.00     0.059 A 
ATOM     88  C   UNL     1      15.648  -7.271 -13.082  1.00  0.00     0.059 A 
ATOM     89  F   UNL     1      13.791  -7.318 -11.653  1.00  0.00    -0.206 F 
ATOM     90  C   UNL     1      16.931  -6.806 -13.364  1.00  0.00     0.060 A 
BRANCH  90  91
ATOM     91  S   UNL     1      17.778  -7.322 -14.873  1.00  0.00     0.124 S 
ATOM     92  O   UNL     1      17.753  -6.093 -15.660  1.00  0.00    -0.237 OA
ATOM     93  O   UNL     1      19.087  -7.728 -14.373  1.00  0.00    -0.237 OA
ATOM     94  O   UNL     1      16.942  -8.407 -15.378  1.00  0.00    -0.744 OA
ENDBRANCH  90  91
ENDBRANCH  58  83
ENDBRANCH  32  33
ENDBRANCH  25  27
ENDBRANCH  24  25
ENDBRANCH   1  24
TORSDOF 16
