REMARK SMILES COc1ncccc1NS(=O)(=O)c1ccc(Br)c(C(=O)OCCOC(=O)c2ccc(-c3c4nc(c(-c5c(F)cc(S(=O)(=O)[O-])cc5F)c5ccc([nH]5)c(-c5c(F)cc(S(=O)(=O)[O-])cc5F)c5nc(c(-c6c(F)cc(S(=O)(=O)[O-])cc6F)c6ccc3[nH]6)C=C5)C=C4)cc2)c1
REMARK SMILES IDX 22 1 21 2 19 3 20 4 18 5 13 6 14 7 93 8 15 9 16 10 17 11
REMARK SMILES IDX 10 12 11 13 12 14 9 15 8 17 3 18 4 19 5 20 7 21 6 22 2 23
REMARK SMILES IDX 1 24 23 25 24 26 25 27 26 28 27 29 28 30 92 31 29 32 91 33
REMARK SMILES IDX 30 34 31 35 32 36 85 37 33 38 90 39 84 40 86 41 34 42 89 43
REMARK SMILES IDX 83 44 82 45 35 47 69 48 48 49 68 50 49 51 52 52 67 53 87 54
REMARK SMILES IDX 50 55 51 56 66 58 88 59 53 60 36 61 37 62 46 63 38 64 39 65
REMARK SMILES IDX 45 66 47 67 40 68 41 69 42 70 43 71 44 72 70 73 71 74 80 75
REMARK SMILES IDX 72 76 73 77 79 78 81 79 74 80 75 81 76 82 77 83 78 84 54 85
REMARK SMILES IDX 55 86 64 87 56 88 57 89 63 90 65 91 58 92 59 93 60 94 61 95
REMARK SMILES IDX 62 96
REMARK H PARENT 9 16 86 46 52 57
REMARK Flexibility Score: inf
ROOT
ATOM      1  C   UNL     1      -3.132   5.945   0.662  1.00  0.00     0.275 C 
ENDROOT
BRANCH   1   2
ATOM      2  O   UNL     1      -2.741   4.565   0.813  1.00  0.00    -0.458 OA
BRANCH   2   3
ATOM      3  C   UNL     1      -1.775   4.142  -0.028  1.00  0.00     0.339 C 
ATOM      4  O   UNL     1      -1.221   4.809  -0.892  1.00  0.00    -0.246 OA
BRANCH   3   5
ATOM      5  C   UNL     1      -1.394   2.735   0.204  1.00  0.00     0.075 A 
ATOM      6  C   UNL     1       0.490   1.173   0.214  1.00  0.00     0.088 A 
ATOM      7  C   UNL     1      -0.383   0.181  -0.216  1.00  0.00     0.023 A 
ATOM      8  C   UNL     1      -0.024   2.460   0.389  1.00  0.00     0.039 A 
ATOM      9  C   UNL     1      -1.764   0.405  -0.246  1.00  0.00     0.018 A 
ATOM     10  C   UNL     1      -2.280   1.686  -0.038  1.00  0.00     0.032 A 
ATOM     11  Br  UNL     1      -4.153   1.911  -0.222  1.00  0.00    -0.050 Br
BRANCH   6  12
ATOM     12  S   UNL     1       2.257   0.944   0.168  1.00  0.00     0.262 S 
ATOM     13  O   UNL     1       2.847   2.176   0.653  1.00  0.00    -0.201 OA
ATOM     14  O   UNL     1       2.574   0.462  -1.159  1.00  0.00    -0.201 OA
BRANCH  12  15
ATOM     15  N   UNL     1       2.836  -0.225   1.257  1.00  0.00    -0.274 N 
ATOM     16  H   UNL     1       3.717  -0.632   1.091  1.00  0.00     0.180 HD
BRANCH  15  17
ATOM     17  C   UNL     1       2.086  -0.640   2.412  1.00  0.00     0.111 A 
ATOM     18  C   UNL     1       0.952  -1.458   2.350  1.00  0.00     0.238 A 
ATOM     19  N   UNL     1       0.211  -1.794   3.431  1.00  0.00    -0.220 NA
ATOM     20  C   UNL     1       0.693  -1.438   4.638  1.00  0.00     0.115 A 
ATOM     21  C   UNL     1       2.598  -0.369   3.683  1.00  0.00     0.034 A 
ATOM     22  C   UNL     1       1.900  -0.787   4.816  1.00  0.00     0.023 A 
BRANCH  18  23
ATOM     23  O   UNL     1       0.531  -2.098   1.217  1.00  0.00    -0.480 OA
ATOM     24  C   UNL     1       1.576  -2.740   0.487  1.00  0.00     0.280 C 
ENDBRANCH  18  23
ENDBRANCH  15  17
ENDBRANCH  12  15
ENDBRANCH   6  12
ENDBRANCH   3   5
ENDBRANCH   2   3
ENDBRANCH   1   2
BRANCH   1  25
ATOM     25  C   UNL     1      -2.567   6.791   1.802  1.00  0.00     0.275 C 
BRANCH  25  26
ATOM     26  O   UNL     1      -1.147   6.977   1.651  1.00  0.00    -0.458 OA
BRANCH  26  27
ATOM     27  C   UNL     1      -0.387   6.088   2.329  1.00  0.00     0.338 C 
ATOM     28  O   UNL     1      -0.770   5.190   3.059  1.00  0.00    -0.246 OA
BRANCH  27  29
ATOM     29  C   UNL     1       1.034   6.273   2.007  1.00  0.00     0.060 A 
ATOM     30  C   UNL     1       1.528   5.651   0.870  1.00  0.00     0.016 A 
ATOM     31  C   UNL     1       1.909   6.828   2.935  1.00  0.00     0.016 A 
ATOM     32  C   UNL     1       2.893   5.412   0.754  1.00  0.00     0.010 A 
ATOM     33  C   UNL     1       3.292   6.740   2.714  1.00  0.00     0.010 A 
ATOM     34  C   UNL     1       3.809   5.977   1.649  1.00  0.00    -0.014 A 
BRANCH  34  35
ATOM     35  C   UNL     1       5.281   5.750   1.477  1.00  0.00     0.031 A 
ATOM     36  C   UNL     1       6.135   5.303   2.642  1.00  0.00     0.074 A 
ATOM     37  C   UNL     1       5.869   5.932   0.274  1.00  0.00     0.049 A 
ATOM     38  N   UNL     1       7.441   5.280   2.754  1.00  0.00    -0.248 NA
ATOM     39  C   UNL     1       5.431   4.845   3.851  1.00  0.00     0.031 C 
ATOM     40  C   UNL     1       5.182   6.304  -0.966  1.00  0.00     0.029 A 
ATOM     41  N   UNL     1       7.185   5.817  -0.113  1.00  0.00    -0.354 N 
ATOM     42  C   UNL     1       7.710   4.889   4.062  1.00  0.00     0.074 A 
ATOM     43  C   UNL     1       6.431   4.686   4.708  1.00  0.00     0.031 C 
ATOM     44  C   UNL     1       6.057   6.315  -1.978  1.00  0.00     0.029 A 
ATOM     45  C   UNL     1       7.393   6.099  -1.444  1.00  0.00     0.049 A 
ATOM     46  H   UNL     1       7.908   5.559   0.503  1.00  0.00     0.167 HD
ATOM     47  C   UNL     1       8.913   4.722   4.668  1.00  0.00     0.037 A 
ATOM     48  C   UNL     1       8.527   6.242  -2.158  1.00  0.00     0.037 A 
ATOM     49  C   UNL     1      10.181   4.859   3.992  1.00  0.00     0.049 A 
ATOM     50  C   UNL     1       9.847   6.099  -1.460  1.00  0.00     0.074 A 
ATOM     51  C   UNL     1      11.454   4.682   4.508  1.00  0.00     0.029 A 
ATOM     52  N   UNL     1      10.339   5.195   2.655  1.00  0.00    -0.354 N 
ATOM     53  N   UNL     1      10.086   5.800  -0.205  1.00  0.00    -0.248 NA
ATOM     54  C   UNL     1      11.050   6.341  -2.265  1.00  0.00     0.031 C 
ATOM     55  C   UNL     1      12.381   4.965   3.499  1.00  0.00     0.029 A 
ATOM     56  C   UNL     1      11.687   5.254   2.335  1.00  0.00     0.049 A 
ATOM     57  H   UNL     1       9.602   5.366   2.025  1.00  0.00     0.167 HD
ATOM     58  C   UNL     1      11.470   5.800  -0.075  1.00  0.00     0.074 A 
ATOM     59  C   UNL     1      12.012   6.112  -1.382  1.00  0.00     0.031 C 
ATOM     60  C   UNL     1      12.219   5.563   1.030  1.00  0.00     0.037 A 
BRANCH  47  61
ATOM     61  C   UNL     1       8.926   4.422   6.146  1.00  0.00     0.058 A 
ATOM     62  C   UNL     1       8.485   3.199   6.676  1.00  0.00     0.135 A 
ATOM     63  C   UNL     1       9.421   5.379   7.051  1.00  0.00     0.135 A 
ATOM     64  F   UNL     1       7.990   2.249   5.866  1.00  0.00    -0.206 F 
ATOM     65  C   UNL     1       8.497   2.951   8.047  1.00  0.00     0.059 A 
ATOM     66  C   UNL     1       9.474   5.140   8.422  1.00  0.00     0.059 A 
ATOM     67  F   UNL     1       9.863   6.566   6.605  1.00  0.00    -0.206 F 
ATOM     68  C   UNL     1       8.991   3.929   8.912  1.00  0.00     0.060 A 
BRANCH  68  69
ATOM     69  S   UNL     1       8.979   3.599  10.687  1.00  0.00     0.124 S 
ATOM     70  O   UNL     1       7.552   3.673  10.987  1.00  0.00    -0.237 OA
ATOM     71  O   UNL     1       9.572   2.267  10.759  1.00  0.00    -0.237 OA
ATOM     72  O   UNL     1       9.793   4.676  11.241  1.00  0.00    -0.744 OA
ENDBRANCH  68  69
ENDBRANCH  47  61
BRANCH  48  73
ATOM     73  C   UNL     1       8.451   6.595  -3.603  1.00  0.00     0.058 A 
ATOM     74  C   UNL     1       8.848   5.684  -4.591  1.00  0.00     0.135 A 
ATOM     75  C   UNL     1       7.937   7.833  -4.026  1.00  0.00     0.135 A 
ATOM     76  F   UNL     1       9.362   4.495  -4.240  1.00  0.00    -0.206 F 
ATOM     77  C   UNL     1       8.738   5.984  -5.945  1.00  0.00     0.059 A 
ATOM     78  C   UNL     1       7.783   8.142  -5.373  1.00  0.00     0.059 A 
ATOM     79  F   UNL     1       7.534   8.739  -3.122  1.00  0.00    -0.206 F 
ATOM     80  C   UNL     1       8.193   7.212  -6.326  1.00  0.00     0.060 A 
BRANCH  80  81
ATOM     81  S   UNL     1       7.990   7.563  -8.086  1.00  0.00     0.124 S 
ATOM     82  O   UNL     1       9.371   7.768  -8.506  1.00  0.00    -0.237 OA
ATOM     83  O   UNL     1       7.350   6.343  -8.569  1.00  0.00    -0.237 OA
ATOM     84  O   UNL     1       7.144   8.752  -8.096  1.00  0.00    -0.744 OA
ENDBRANCH  80  81
ENDBRANCH  48  73
BRANCH  60  85
ATOM     85  C   UNL     1      13.714   5.587   0.864  1.00  0.00     0.058 A 
ATOM     86  C   UNL     1      14.418   6.783   0.652  1.00  0.00     0.135 A 
ATOM     87  C   UNL     1      14.454   4.397   0.953  1.00  0.00     0.135 A 
ATOM     88  F   UNL     1      13.758   7.947   0.548  1.00  0.00    -0.206 F 
ATOM     89  C   UNL     1      15.802   6.794   0.509  1.00  0.00     0.059 A 
ATOM     90  C   UNL     1      15.841   4.389   0.845  1.00  0.00     0.059 A 
ATOM     91  F   UNL     1      13.831   3.226   1.162  1.00  0.00    -0.206 F 
ATOM     92  C   UNL     1      16.505   5.592   0.610  1.00  0.00     0.060 A 
BRANCH  92  93
ATOM     93  S   UNL     1      18.303   5.626   0.455  1.00  0.00     0.124 S 
ATOM     94  O   UNL     1      18.471   5.886  -0.971  1.00  0.00    -0.237 OA
ATOM     95  O   UNL     1      18.672   6.721   1.347  1.00  0.00    -0.237 OA
ATOM     96  O   UNL     1      18.709   4.297   0.903  1.00  0.00    -0.744 OA
ENDBRANCH  92  93
ENDBRANCH  60  85
ENDBRANCH  34  35
ENDBRANCH  27  29
ENDBRANCH  26  27
ENDBRANCH  25  26
ENDBRANCH   1  25
TORSDOF 18
