REMARK SMILES CN(CC(=O)OCCOC(=O)c1ccc(-c2c3nc(c(-c4c(F)cc(S(=O)(=O)[O-])cc4F)c4ccc([nH]4)c(-c4c(F)cc(S(=O)(=O)[O-])cc4F)c4nc(c(-c5c(F)cc(S(=O)(=O)[O-])cc5F)c5ccc2[nH]5)C=C4)C=C3)cc1)c1ncc(-c2nnnn2-c2ccccc2)c(-c2ccc(Cl)cc2)n1
REMARK SMILES IDX 7 1 6 2 4 3 5 4 3 5 2 6 1 7 78 8 79 9 101 10 80 11 93 12
REMARK SMILES IDX 81 13 94 14 95 15 100 16 96 17 99 18 97 19 98 20 82 21 83 22
REMARK SMILES IDX 86 23 84 24 85 25 87 26 88 27 92 28 89 29 91 30 90 31 8 32
REMARK SMILES IDX 9 33 10 34 11 35 12 36 13 37 77 38 14 39 76 40 15 41 16 42
REMARK SMILES IDX 17 43 70 44 18 45 75 46 69 47 71 48 19 49 74 50 68 51 67 52
REMARK SMILES IDX 20 54 54 55 33 56 53 57 34 58 37 59 52 60 72 61 35 62 36 63
REMARK SMILES IDX 51 65 73 66 38 67 21 68 22 69 31 70 23 71 24 72 30 73 32 74
REMARK SMILES IDX 25 75 26 76 27 77 28 78 29 79 55 80 56 81 65 82 57 83 58 84
REMARK SMILES IDX 64 85 66 86 59 87 60 88 61 89 62 90 63 91 39 92 40 93 49 94
REMARK SMILES IDX 41 95 42 96 48 97 50 98 43 99 44 100 45 101 46 102 47 103
REMARK H PARENT 71 53 37 64
REMARK Flexibility Score: inf
ROOT
ATOM      1  C   UNL     1      -3.511   1.309   1.128  1.00  0.00     0.274 C 
ENDROOT
BRANCH   1   2
ATOM      2  O   UNL     1      -2.143   0.932   0.880  1.00  0.00    -0.461 OA
BRANCH   2   3
ATOM      3  C   UNL     1      -1.472   1.733   0.015  1.00  0.00     0.325 C 
ATOM      4  O   UNL     1      -2.008   2.612  -0.661  1.00  0.00    -0.250 OA
BRANCH   3   5
ATOM      5  C   UNL     1       0.027   1.490  -0.089  1.00  0.00     0.241 C 
BRANCH   5   6
ATOM      6  N   UNL     1       0.610   0.375   0.671  1.00  0.00    -0.333 N 
ATOM      7  C   UNL     1       1.583  -0.447  -0.023  1.00  0.00     0.147 C 
BRANCH   6   8
ATOM      8  C   UNL     1       0.938   0.724   1.974  1.00  0.00     0.226 A 
ATOM      9  N   UNL     1      -0.053   1.107   2.781  1.00  0.00    -0.221 NA
ATOM     10  N   UNL     1       2.221   0.694   2.371  1.00  0.00    -0.212 NA
ATOM     11  C   UNL     1       0.264   1.434   4.046  1.00  0.00     0.129 A 
ATOM     12  C   UNL     1       2.523   1.084   3.640  1.00  0.00     0.087 A 
ATOM     13  C   UNL     1       1.546   1.439   4.554  1.00  0.00     0.066 A 
BRANCH  12  14
ATOM     14  C   UNL     1       3.963   1.076   3.947  1.00  0.00     0.001 A 
ATOM     15  C   UNL     1       4.831   1.981   3.311  1.00  0.00     0.012 A 
ATOM     16  C   UNL     1       4.508   0.182   4.885  1.00  0.00     0.012 A 
ATOM     17  C   UNL     1       6.197   2.006   3.615  1.00  0.00     0.021 A 
ATOM     18  C   UNL     1       5.873   0.205   5.190  1.00  0.00     0.021 A 
ATOM     19  C   UNL     1       6.712   1.116   4.553  1.00  0.00     0.041 A 
ATOM     20  Cl  UNL     1       8.392   1.128   4.920  1.00  0.00    -0.084 Cl
ENDBRANCH  12  14
BRANCH  13  21
ATOM     21  C   UNL     1       1.791   1.828   5.934  1.00  0.00     0.190 A 
ATOM     22  N   UNL     1       2.560   2.823   6.332  1.00  0.00    -0.108 NA
ATOM     23  N   UNL     1       1.123   1.338   7.051  1.00  0.00    -0.193 N 
ATOM     24  N   UNL     1       2.285   3.022   7.658  1.00  0.00    -0.023 NA
ATOM     25  N   UNL     1       1.367   2.170   8.087  1.00  0.00    -0.040 NA
BRANCH  23  26
ATOM     26  C   UNL     1       0.284   0.205   7.187  1.00  0.00     0.069 A 
ATOM     27  C   UNL     1      -0.750   0.229   8.132  1.00  0.00     0.028 A 
ATOM     28  C   UNL     1       0.457  -0.922   6.372  1.00  0.00     0.028 A 
ATOM     29  C   UNL     1      -1.649  -0.836   8.201  1.00  0.00     0.002 A 
ATOM     30  C   UNL     1      -0.434  -1.992   6.463  1.00  0.00     0.002 A 
ATOM     31  C   UNL     1      -1.496  -1.941   7.364  1.00  0.00     0.000 A 
ENDBRANCH  23  26
ENDBRANCH  13  21
ENDBRANCH   6   8
ENDBRANCH   5   6
ENDBRANCH   3   5
ENDBRANCH   2   3
ENDBRANCH   1   2
BRANCH   1  32
ATOM     32  C   UNL     1      -3.603   2.274   2.310  1.00  0.00     0.275 C 
BRANCH  32  33
ATOM     33  O   UNL     1      -2.838   3.462   2.041  1.00  0.00    -0.458 OA
BRANCH  33  34
ATOM     34  C   UNL     1      -2.182   3.973   3.107  1.00  0.00     0.338 C 
ATOM     35  O   UNL     1      -2.231   3.567   4.258  1.00  0.00    -0.246 OA
BRANCH  34  36
ATOM     36  C   UNL     1      -1.406   5.170   2.722  1.00  0.00     0.060 A 
ATOM     37  C   UNL     1      -0.647   5.228   1.549  1.00  0.00     0.016 A 
ATOM     38  C   UNL     1      -1.392   6.240   3.620  1.00  0.00     0.016 A 
ATOM     39  C   UNL     1       0.165   6.340   1.300  1.00  0.00     0.010 A 
ATOM     40  C   UNL     1      -0.622   7.368   3.347  1.00  0.00     0.010 A 
ATOM     41  C   UNL     1       0.181   7.418   2.199  1.00  0.00    -0.014 A 
BRANCH  41  42
ATOM     42  C   UNL     1       1.008   8.626   1.957  1.00  0.00     0.031 A 
ATOM     43  C   UNL     1       2.172   8.938   2.858  1.00  0.00     0.074 A 
ATOM     44  C   UNL     1       0.652   9.481   0.980  1.00  0.00     0.049 A 
ATOM     45  N   UNL     1       2.900  10.023   2.921  1.00  0.00    -0.248 NA
ATOM     46  C   UNL     1       2.559   7.897   3.823  1.00  0.00     0.031 C 
ATOM     47  C   UNL     1      -0.459   9.279   0.049  1.00  0.00     0.029 A 
ATOM     48  N   UNL     1       1.169  10.700   0.625  1.00  0.00    -0.354 N 
ATOM     49  C   UNL     1       3.814   9.809   3.947  1.00  0.00     0.074 A 
ATOM     50  C   UNL     1       3.543   8.492   4.484  1.00  0.00     0.031 C 
ATOM     51  C   UNL     1      -0.543  10.339  -0.769  1.00  0.00     0.029 A 
ATOM     52  C   UNL     1       0.473  11.315  -0.388  1.00  0.00     0.049 A 
ATOM     53  H   UNL     1       1.962  11.097   1.054  1.00  0.00     0.167 HD
ATOM     54  C   UNL     1       4.785  10.640   4.398  1.00  0.00     0.037 A 
ATOM     55  C   UNL     1       0.613  12.541  -0.925  1.00  0.00     0.037 A 
ATOM     56  C   UNL     1       5.045  11.948   3.849  1.00  0.00     0.049 A 
ATOM     57  C   UNL     1       1.680  13.453  -0.395  1.00  0.00     0.074 A 
ATOM     58  C   UNL     1       6.019  12.860   4.216  1.00  0.00     0.029 A 
ATOM     59  N   UNL     1       4.322  12.530   2.817  1.00  0.00    -0.354 N 
ATOM     60  N   UNL     1       2.536  13.238   0.575  1.00  0.00    -0.248 NA
ATOM     61  C   UNL     1       1.794  14.776  -1.022  1.00  0.00     0.031 C 
ATOM     62  C   UNL     1       5.867  14.006   3.425  1.00  0.00     0.029 A 
ATOM     63  C   UNL     1       4.818  13.795   2.544  1.00  0.00     0.049 A 
ATOM     64  H   UNL     1       3.567  12.107   2.348  1.00  0.00     0.167 HD
ATOM     65  C   UNL     1       3.297  14.395   0.672  1.00  0.00     0.074 A 
ATOM     66  C   UNL     1       2.809  15.302  -0.349  1.00  0.00     0.031 C 
ATOM     67  C   UNL     1       4.307  14.683   1.530  1.00  0.00     0.037 A 
BRANCH  54  68
ATOM     68  C   UNL     1       5.622  10.171   5.556  1.00  0.00     0.058 A 
ATOM     69  C   UNL     1       6.621   9.198   5.398  1.00  0.00     0.135 A 
ATOM     70  C   UNL     1       5.446  10.726   6.834  1.00  0.00     0.135 A 
ATOM     71  F   UNL     1       6.822   8.625   4.201  1.00  0.00    -0.206 F 
ATOM     72  C   UNL     1       7.404   8.777   6.470  1.00  0.00     0.059 A 
ATOM     73  C   UNL     1       6.230  10.334   7.916  1.00  0.00     0.059 A 
ATOM     74  F   UNL     1       4.505  11.660   7.041  1.00  0.00    -0.206 F 
ATOM     75  C   UNL     1       7.198   9.349   7.727  1.00  0.00     0.060 A 
BRANCH  75  76
ATOM     76  S   UNL     1       8.228   8.807   9.110  1.00  0.00     0.124 S 
ATOM     77  O   UNL     1       7.610   7.530   9.452  1.00  0.00    -0.237 OA
ATOM     78  O   UNL     1       9.554   8.727   8.505  1.00  0.00    -0.237 OA
ATOM     79  O   UNL     1       8.059   9.871  10.095  1.00  0.00    -0.744 OA
ENDBRANCH  75  76
ENDBRANCH  54  68
BRANCH  55  80
ATOM     80  C   UNL     1      -0.296  12.963  -2.020  1.00  0.00     0.058 A 
ATOM     81  C   UNL     1       0.153  13.013  -3.346  1.00  0.00     0.135 A 
ATOM     82  C   UNL     1      -1.647  13.253  -1.773  1.00  0.00     0.135 A 
ATOM     83  F   UNL     1       1.438  12.750  -3.629  1.00  0.00    -0.206 F 
ATOM     84  C   UNL     1      -0.706  13.325  -4.394  1.00  0.00     0.059 A 
ATOM     85  C   UNL     1      -2.531  13.549  -2.805  1.00  0.00     0.059 A 
ATOM     86  F   UNL     1      -2.127  13.203  -0.520  1.00  0.00    -0.206 F 
ATOM     87  C   UNL     1      -2.050  13.584  -4.114  1.00  0.00     0.060 A 
BRANCH  87  88
ATOM     88  S   UNL     1      -3.182  13.892  -5.487  1.00  0.00     0.124 S 
ATOM     89  O   UNL     1      -2.889  15.284  -5.803  1.00  0.00    -0.237 OA
ATOM     90  O   UNL     1      -2.749  12.908  -6.475  1.00  0.00    -0.237 OA
ATOM     91  O   UNL     1      -4.495  13.638  -4.900  1.00  0.00    -0.744 OA
ENDBRANCH  87  88
ENDBRANCH  55  80
BRANCH  67  92
ATOM     92  C   UNL     1       4.952  16.031   1.387  1.00  0.00     0.058 A 
ATOM     93  C   UNL     1       4.330  17.192   1.871  1.00  0.00     0.135 A 
ATOM     94  C   UNL     1       6.210  16.159   0.780  1.00  0.00     0.135 A 
ATOM     95  F   UNL     1       3.122  17.120   2.452  1.00  0.00    -0.206 F 
ATOM     96  C   UNL     1       4.926  18.442   1.736  1.00  0.00     0.059 A 
ATOM     97  C   UNL     1       6.832  17.396   0.650  1.00  0.00     0.059 A 
ATOM     98  F   UNL     1       6.846  15.076   0.306  1.00  0.00    -0.206 F 
ATOM     99  C   UNL     1       6.175  18.534   1.120  1.00  0.00     0.060 A 
BRANCH  99 100
ATOM    100  S   UNL     1       6.949  20.157   0.961  1.00  0.00     0.124 S 
ATOM    101  O   UNL     1       6.236  20.710  -0.186  1.00  0.00    -0.237 OA
ATOM    102  O   UNL     1       6.655  20.777   2.249  1.00  0.00    -0.237 OA
ATOM    103  O   UNL     1       8.356  19.839   0.733  1.00  0.00    -0.744 OA
ENDBRANCH  99 100
ENDBRANCH  67  92
ENDBRANCH  41  42
ENDBRANCH  34  36
ENDBRANCH  33  34
ENDBRANCH  32  33
ENDBRANCH   1  32
TORSDOF 19
