REMARK SMILES CC[C@@H]1CC[C@](C[C@@H]2CCCc3ccccc32)(C(=O)OCCOC(=O)c2ccc(-c3c4nc(c(-c5c(F)cc(S(=O)(=O)[O-])cc5F)c5ccc([nH]5)c(-c5c(F)cc(S(=O)(=O)[O-])cc5F)c5nc(c(-c6c(F)cc(S(=O)(=O)[O-])cc6F)c6ccc3[nH]6)C=C5)C=C4)cc2)C1
REMARK SMILES IDX 22 1 21 2 20 3 18 4 19 5 6 6 3 7 4 8 92 9 5 10 2 11 1 12
REMARK SMILES IDX 7 13 8 14 9 15 17 16 10 17 12 18 16 19 11 20 13 21 15 22
REMARK SMILES IDX 14 23 23 24 24 25 25 26 26 27 27 28 91 29 28 30 90 31 29 32
REMARK SMILES IDX 30 33 31 34 84 35 32 36 89 37 83 38 85 39 33 40 88 41 82 42
REMARK SMILES IDX 81 43 34 45 68 46 47 47 67 48 48 49 51 50 66 51 86 52 49 53
REMARK SMILES IDX 50 54 65 56 87 57 52 58 35 59 36 60 45 61 37 62 38 63 44 64
REMARK SMILES IDX 46 65 39 66 40 67 41 68 42 69 43 70 69 71 70 72 79 73 71 74
REMARK SMILES IDX 72 75 78 76 80 77 73 78 74 79 75 80 76 81 77 82 53 83 54 84
REMARK SMILES IDX 63 85 55 86 56 87 62 88 64 89 57 90 58 91 59 92 60 93 61 94
REMARK H PARENT 85 44 51 55
REMARK Flexibility Score: inf
ROOT
ATOM      1  C   UNL     1      -3.804   3.887  -4.525  1.00  0.00     0.275 C 
ENDROOT
BRANCH   1   2
ATOM      2  C   UNL     1      -2.660   3.114  -5.180  1.00  0.00     0.274 C 
BRANCH   2   3
ATOM      3  O   UNL     1      -1.687   2.686  -4.201  1.00  0.00    -0.462 OA
BRANCH   3   4
ATOM      4  C   UNL     1      -0.619   3.510  -4.045  1.00  0.00     0.312 C 
ATOM      5  O   UNL     1      -0.473   4.547  -4.688  1.00  0.00    -0.252 OA
BRANCH   4   6
ATOM      6  C   UNL     1       0.450   3.007  -3.037  1.00  0.00     0.069 C 
ATOM      7  C   UNL     1       0.087   2.153  -0.752  1.00  0.00    -0.010 C 
ATOM      8  C   UNL     1      -0.330   3.613  -0.800  1.00  0.00     0.005 C 
ATOM      9  C   UNL     1       0.033   1.743  -2.236  1.00  0.00     0.022 C 
ATOM     10  C   UNL     1       0.539   4.106  -1.953  1.00  0.00     0.019 C 
BRANCH   7  11
ATOM     11  C   UNL     1      -0.730   1.290   0.202  1.00  0.00     0.000 C 
ATOM     12  C   UNL     1      -0.160  -0.118   0.318  1.00  0.00     0.004 C 
ENDBRANCH   7  11
BRANCH   6  13
ATOM     13  C   UNL     1       1.710   2.795  -3.944  1.00  0.00     0.027 C 
BRANCH  13  14
ATOM     14  C   UNL     1       3.189   2.685  -3.474  1.00  0.00     0.020 C 
ATOM     15  C   UNL     1       3.653   1.300  -3.005  1.00  0.00     0.009 C 
ATOM     16  C   UNL     1       3.682   3.803  -2.590  1.00  0.00    -0.042 A 
ATOM     17  C   UNL     1       3.521   1.059  -1.514  1.00  0.00     0.005 C 
ATOM     18  C   UNL     1       4.032   3.571  -1.249  1.00  0.00    -0.045 A 
ATOM     19  C   UNL     1       3.744   5.114  -3.102  1.00  0.00     0.004 A 
ATOM     20  C   UNL     1       4.071   2.190  -0.649  1.00  0.00     0.036 C 
ATOM     21  C   UNL     1       4.383   4.663  -0.436  1.00  0.00     0.004 A 
ATOM     22  C   UNL     1       4.108   6.184  -2.287  1.00  0.00     0.000 A 
ATOM     23  C   UNL     1       4.412   5.960  -0.949  1.00  0.00     0.000 A 
ENDBRANCH  13  14
ENDBRANCH   6  13
ENDBRANCH   4   6
ENDBRANCH   3   4
ENDBRANCH   2   3
ENDBRANCH   1   2
BRANCH   1  24
ATOM     24  O   UNL     1      -3.296   5.078  -3.901  1.00  0.00    -0.458 OA
BRANCH  24  25
ATOM     25  C   UNL     1      -3.851   5.410  -2.713  1.00  0.00     0.338 C 
ATOM     26  O   UNL     1      -4.810   4.854  -2.188  1.00  0.00    -0.246 OA
BRANCH  25  27
ATOM     27  C   UNL     1      -3.111   6.522  -2.067  1.00  0.00     0.060 A 
ATOM     28  C   UNL     1      -1.772   6.768  -2.360  1.00  0.00     0.016 A 
ATOM     29  C   UNL     1      -3.724   7.256  -1.051  1.00  0.00     0.016 A 
ATOM     30  C   UNL     1      -1.009   7.600  -1.534  1.00  0.00     0.010 A 
ATOM     31  C   UNL     1      -2.986   8.196  -0.315  1.00  0.00     0.010 A 
ATOM     32  C   UNL     1      -1.599   8.335  -0.496  1.00  0.00    -0.014 A 
BRANCH  32  33
ATOM     33  C   UNL     1      -0.779   9.181   0.434  1.00  0.00     0.031 A 
ATOM     34  C   UNL     1      -0.943   9.043   1.934  1.00  0.00     0.074 A 
ATOM     35  C   UNL     1       0.123  10.075  -0.025  1.00  0.00     0.049 A 
ATOM     36  N   UNL     1      -0.545   9.844   2.891  1.00  0.00    -0.248 NA
ATOM     37  C   UNL     1      -1.679   7.864   2.417  1.00  0.00     0.031 C 
ATOM     38  C   UNL     1       0.443  10.324  -1.431  1.00  0.00     0.029 A 
ATOM     39  N   UNL     1       0.950  10.941   0.654  1.00  0.00    -0.354 N 
ATOM     40  C   UNL     1      -1.077   9.329   4.070  1.00  0.00     0.074 A 
ATOM     41  C   UNL     1      -1.805   8.130   3.709  1.00  0.00     0.031 C 
ATOM     42  C   UNL     1       1.435  11.223  -1.508  1.00  0.00     0.029 A 
ATOM     43  C   UNL     1       1.749  11.701  -0.167  1.00  0.00     0.049 A 
ATOM     44  H   UNL     1       0.968  11.009   1.636  1.00  0.00     0.167 HD
ATOM     45  C   UNL     1      -0.978   9.813   5.333  1.00  0.00     0.037 A 
ATOM     46  C   UNL     1       2.605  12.705   0.108  1.00  0.00     0.037 A 
ATOM     47  C   UNL     1      -0.156  10.934   5.713  1.00  0.00     0.049 A 
ATOM     48  C   UNL     1       2.768  13.179   1.522  1.00  0.00     0.074 A 
ATOM     49  C   UNL     1       0.032  11.480   6.972  1.00  0.00     0.029 A 
ATOM     50  N   UNL     1       0.651  11.655   4.845  1.00  0.00    -0.354 N 
ATOM     51  N   UNL     1       2.164  12.755   2.606  1.00  0.00    -0.248 NA
ATOM     52  C   UNL     1       3.708  14.285   1.747  1.00  0.00     0.031 C 
ATOM     53  C   UNL     1       0.944  12.538   6.863  1.00  0.00     0.029 A 
ATOM     54  C   UNL     1       1.345  12.632   5.541  1.00  0.00     0.049 A 
ATOM     55  H   UNL     1       0.720  11.496   3.876  1.00  0.00     0.167 HD
ATOM     56  C   UNL     1       2.643  13.550   3.641  1.00  0.00     0.074 A 
ATOM     57  C   UNL     1       3.610  14.458   3.059  1.00  0.00     0.031 C 
ATOM     58  C   UNL     1       2.299  13.536   4.952  1.00  0.00     0.037 A 
BRANCH  45  59
ATOM     59  C   UNL     1      -1.819   9.159   6.397  1.00  0.00     0.058 A 
ATOM     60  C   UNL     1      -1.516   7.896   6.928  1.00  0.00     0.135 A 
ATOM     61  C   UNL     1      -2.946   9.828   6.904  1.00  0.00     0.135 A 
ATOM     62  F   UNL     1      -0.460   7.206   6.471  1.00  0.00    -0.206 F 
ATOM     63  C   UNL     1      -2.322   7.303   7.897  1.00  0.00     0.059 A 
ATOM     64  C   UNL     1      -3.751   9.266   7.890  1.00  0.00     0.059 A 
ATOM     65  F   UNL     1      -3.279  11.041   6.436  1.00  0.00    -0.206 F 
ATOM     66  C   UNL     1      -3.442   7.993   8.367  1.00  0.00     0.060 A 
BRANCH  66  67
ATOM     67  S   UNL     1      -4.491   7.213   9.613  1.00  0.00     0.124 S 
ATOM     68  O   UNL     1      -5.282   6.299   8.794  1.00  0.00    -0.237 OA
ATOM     69  O   UNL     1      -3.518   6.585  10.500  1.00  0.00    -0.237 OA
ATOM     70  O   UNL     1      -5.224   8.337  10.188  1.00  0.00    -0.744 OA
ENDBRANCH  66  67
ENDBRANCH  45  59
BRANCH  46  71
ATOM     71  C   UNL     1       3.345  13.355  -1.006  1.00  0.00     0.058 A 
ATOM     72  C   UNL     1       4.713  13.117  -1.197  1.00  0.00     0.135 A 
ATOM     73  C   UNL     1       2.683  14.169  -1.938  1.00  0.00     0.135 A 
ATOM     74  F   UNL     1       5.391  12.358  -0.322  1.00  0.00    -0.206 F 
ATOM     75  C   UNL     1       5.398  13.649  -2.285  1.00  0.00     0.059 A 
ATOM     76  C   UNL     1       3.339  14.690  -3.047  1.00  0.00     0.059 A 
ATOM     77  F   UNL     1       1.371  14.417  -1.802  1.00  0.00    -0.206 F 
ATOM     78  C   UNL     1       4.698  14.424  -3.212  1.00  0.00     0.060 A 
BRANCH  78  79
ATOM     79  S   UNL     1       5.559  15.011  -4.688  1.00  0.00     0.124 S 
ATOM     80  O   UNL     1       6.261  16.180  -4.172  1.00  0.00    -0.237 OA
ATOM     81  O   UNL     1       6.395  13.867  -5.038  1.00  0.00    -0.237 OA
ATOM     82  O   UNL     1       4.469  15.286  -5.619  1.00  0.00    -0.744 OA
ENDBRANCH  78  79
ENDBRANCH  46  71
BRANCH  58  83
ATOM     83  C   UNL     1       2.992  14.526   5.844  1.00  0.00     0.058 A 
ATOM     84  C   UNL     1       2.650  15.887   5.833  1.00  0.00     0.135 A 
ATOM     85  C   UNL     1       4.016  14.112   6.710  1.00  0.00     0.135 A 
ATOM     86  F   UNL     1       1.681  16.333   5.018  1.00  0.00    -0.206 F 
ATOM     87  C   UNL     1       3.326  16.812   6.622  1.00  0.00     0.059 A 
ATOM     88  C   UNL     1       4.693  15.017   7.522  1.00  0.00     0.059 A 
ATOM     89  F   UNL     1       4.374  12.819   6.764  1.00  0.00    -0.206 F 
ATOM     90  C   UNL     1       4.354  16.369   7.455  1.00  0.00     0.060 A 
BRANCH  90  91
ATOM     91  S   UNL     1       5.244  17.575   8.463  1.00  0.00     0.124 S 
ATOM     92  O   UNL     1       6.170  18.142   7.489  1.00  0.00    -0.237 OA
ATOM     93  O   UNL     1       4.176  18.462   8.913  1.00  0.00    -0.237 OA
ATOM     94  O   UNL     1       5.852  16.757   9.508  1.00  0.00    -0.744 OA
ENDBRANCH  90  91
ENDBRANCH  58  83
ENDBRANCH  32  33
ENDBRANCH  25  27
ENDBRANCH  24  25
ENDBRANCH   1  24
TORSDOF 17
