REMARK SMILES Cc1ccc(S(=O)(=O)N2c3ccc(C(=O)OCCOC(=O)c4ccc(-c5c6nc(c(-c7c(F)cc(S(=O)(=O)[O-])cc7F)c7ccc([nH]7)c(-c7c(F)cc(S(=O)(=O)[O-])cc7F)c7nc(c(-c8c(F)cc(S(=O)(=O)[O-])cc8F)c8ccc5[nH]8)C=C7)C=C6)cc4)cc3C[C@H]2C)cc1
REMARK SMILES IDX 18 1 17 2 16 3 14 4 15 5 13 6 9 7 10 8 91 9 11 10 89 11
REMARK SMILES IDX 90 12 92 13 12 14 88 15 6 16 7 17 8 18 5 19 1 20 2 21 3 22
REMARK SMILES IDX 94 23 4 24 93 25 19 26 20 27 21 28 22 29 23 30 87 31 24 32
REMARK SMILES IDX 86 33 25 34 26 35 27 36 80 37 28 38 85 39 79 40 81 41 29 42
REMARK SMILES IDX 84 43 78 44 77 45 30 47 64 48 43 49 63 50 44 51 47 52 62 53
REMARK SMILES IDX 82 54 45 55 46 56 61 58 83 59 48 60 31 61 32 62 41 63 33 64
REMARK SMILES IDX 34 65 40 66 42 67 35 68 36 69 37 70 38 71 39 72 65 73 66 74
REMARK SMILES IDX 75 75 67 76 68 77 74 78 76 79 69 80 70 81 71 82 72 83 73 84
REMARK SMILES IDX 49 85 50 86 59 87 51 88 52 89 58 90 60 91 53 92 54 93 55 94
REMARK SMILES IDX 56 95 57 96
REMARK H PARENT 81 46 47 57
REMARK Flexibility Score: inf
ROOT
ATOM      1  C   UNL     1     -11.951   4.457   2.358  1.00  0.00     0.275 C 
ENDROOT
BRANCH   1   2
ATOM      2  C   UNL     1     -11.329   3.048   2.333  1.00  0.00     0.275 C 
BRANCH   2   3
ATOM      3  O   UNL     1      -9.926   3.064   2.013  1.00  0.00    -0.458 OA
BRANCH   3   4
ATOM      4  C   UNL     1      -9.438   1.827   1.743  1.00  0.00     0.338 C 
ATOM      5  O   UNL     1     -10.080   0.788   1.804  1.00  0.00    -0.246 OA
BRANCH   4   6
ATOM      6  C   UNL     1      -7.975   1.824   1.501  1.00  0.00     0.060 A 
ATOM      7  N   UNL     1      -3.843   1.576   0.717  1.00  0.00    -0.263 N 
ATOM      8  C   UNL     1      -5.251   1.529   1.043  1.00  0.00     0.055 A 
ATOM      9  C   UNL     1      -3.681   2.895  -0.033  1.00  0.00     0.101 C 
ATOM     10  C   UNL     1      -5.877   0.639   1.894  1.00  0.00     0.028 A 
ATOM     11  C   UNL     1      -5.963   2.554   0.422  1.00  0.00    -0.021 A 
ATOM     12  C   UNL     1      -5.086   3.274  -0.555  1.00  0.00     0.063 C 
ATOM     13  C   UNL     1      -3.177   3.949   0.964  1.00  0.00     0.032 C 
ATOM     14  C   UNL     1      -7.252   0.770   2.094  1.00  0.00     0.018 A 
ATOM     15  C   UNL     1      -7.320   2.741   0.670  1.00  0.00     0.021 A 
BRANCH   7  16
ATOM     16  S   UNL     1      -3.307   0.158  -0.114  1.00  0.00     0.264 S 
ATOM     17  O   UNL     1      -3.623   0.315  -1.529  1.00  0.00    -0.201 OA
ATOM     18  O   UNL     1      -3.736  -0.999   0.627  1.00  0.00    -0.201 OA
BRANCH  16  19
ATOM     19  C   UNL     1      -1.521   0.122  -0.015  1.00  0.00     0.088 A 
ATOM     20  C   UNL     1       2.775  -0.224   0.023  1.00  0.00     0.044 C 
ATOM     21  C   UNL     1       1.281  -0.103   0.035  1.00  0.00    -0.051 A 
ATOM     22  C   UNL     1       0.485  -1.242  -0.126  1.00  0.00     0.005 A 
ATOM     23  C   UNL     1       0.660   1.139   0.212  1.00  0.00     0.005 A 
ATOM     24  C   UNL     1      -0.907  -1.132  -0.153  1.00  0.00     0.022 A 
ATOM     25  C   UNL     1      -0.735   1.252   0.192  1.00  0.00     0.022 A 
ENDBRANCH  16  19
ENDBRANCH   7  16
ENDBRANCH   4   6
ENDBRANCH   3   4
ENDBRANCH   2   3
ENDBRANCH   1   2
BRANCH   1  26
ATOM     26  O   UNL     1     -11.998   5.207   1.124  1.00  0.00    -0.458 OA
BRANCH  26  27
ATOM     27  C   UNL     1     -10.885   5.168   0.341  1.00  0.00     0.338 C 
ATOM     28  O   UNL     1      -9.838   5.729   0.620  1.00  0.00    -0.246 OA
BRANCH  27  29
ATOM     29  C   UNL     1     -11.076   4.101  -0.682  1.00  0.00     0.060 A 
ATOM     30  C   UNL     1      -9.970   3.601  -1.383  1.00  0.00     0.016 A 
ATOM     31  C   UNL     1     -12.284   3.400  -0.681  1.00  0.00     0.016 A 
ATOM     32  C   UNL     1     -10.019   2.332  -1.959  1.00  0.00     0.010 A 
ATOM     33  C   UNL     1     -12.295   2.106  -1.130  1.00  0.00     0.010 A 
ATOM     34  C   UNL     1     -11.174   1.575  -1.787  1.00  0.00    -0.014 A 
BRANCH  34  35
ATOM     35  C   UNL     1     -11.476   0.343  -2.496  1.00  0.00     0.031 A 
ATOM     36  C   UNL     1     -11.055  -1.001  -2.062  1.00  0.00     0.074 A 
ATOM     37  C   UNL     1     -12.391   0.555  -3.467  1.00  0.00     0.049 A 
ATOM     38  N   UNL     1     -11.281  -2.055  -2.765  1.00  0.00    -0.248 NA
ATOM     39  C   UNL     1     -10.334  -1.304  -0.831  1.00  0.00     0.031 C 
ATOM     40  C   UNL     1     -13.295  -0.360  -4.136  1.00  0.00     0.029 A 
ATOM     41  N   UNL     1     -12.586   1.769  -4.132  1.00  0.00    -0.354 N 
ATOM     42  C   UNL     1     -10.986  -3.170  -2.009  1.00  0.00     0.074 A 
ATOM     43  C   UNL     1     -10.345  -2.648  -0.827  1.00  0.00     0.031 C 
ATOM     44  C   UNL     1     -13.743   0.230  -5.262  1.00  0.00     0.029 A 
ATOM     45  C   UNL     1     -12.995   1.472  -5.425  1.00  0.00     0.049 A 
ATOM     46  H   UNL     1     -12.458   2.669  -3.753  1.00  0.00     0.167 HD
ATOM     47  C   UNL     1     -11.439  -4.378  -2.459  1.00  0.00     0.037 A 
ATOM     48  C   UNL     1     -12.119   1.734  -6.441  1.00  0.00     0.037 A 
ATOM     49  C   UNL     1     -12.011  -4.213  -3.794  1.00  0.00     0.049 A 
ATOM     50  C   UNL     1     -11.694   0.456  -7.121  1.00  0.00     0.074 A 
ATOM     51  C   UNL     1     -13.307  -3.995  -4.230  1.00  0.00     0.029 A 
ATOM     52  N   UNL     1     -11.171  -3.882  -4.851  1.00  0.00    -0.354 N 
ATOM     53  N   UNL     1     -11.541  -0.693  -6.518  1.00  0.00    -0.248 NA
ATOM     54  C   UNL     1     -11.542   0.367  -8.566  1.00  0.00     0.031 C 
ATOM     55  C   UNL     1     -13.240  -3.471  -5.544  1.00  0.00     0.029 A 
ATOM     56  C   UNL     1     -11.906  -3.383  -5.908  1.00  0.00     0.049 A 
ATOM     57  H   UNL     1     -10.193  -3.987  -4.846  1.00  0.00     0.167 HD
ATOM     58  C   UNL     1     -11.347  -1.671  -7.464  1.00  0.00     0.074 A 
ATOM     59  C   UNL     1     -11.345  -0.952  -8.725  1.00  0.00     0.031 C 
ATOM     60  C   UNL     1     -11.263  -3.002  -7.156  1.00  0.00     0.037 A 
BRANCH  47  61
ATOM     61  C   UNL     1     -11.603  -5.657  -1.659  1.00  0.00     0.058 A 
ATOM     62  C   UNL     1     -12.627  -6.576  -2.004  1.00  0.00     0.135 A 
ATOM     63  C   UNL     1     -10.834  -6.038  -0.543  1.00  0.00     0.135 A 
ATOM     64  F   UNL     1     -13.431  -6.375  -3.057  1.00  0.00    -0.206 F 
ATOM     65  C   UNL     1     -12.901  -7.736  -1.280  1.00  0.00     0.059 A 
ATOM     66  C   UNL     1     -11.105  -7.191   0.216  1.00  0.00     0.059 A 
ATOM     67  F   UNL     1      -9.768  -5.323  -0.160  1.00  0.00    -0.206 F 
ATOM     68  C   UNL     1     -12.148  -8.031  -0.157  1.00  0.00     0.060 A 
BRANCH  68  69
ATOM     69  S   UNL     1     -12.564  -9.516   0.778  1.00  0.00     0.124 S 
ATOM     70  O   UNL     1     -13.948  -9.256   1.166  1.00  0.00    -0.237 OA
ATOM     71  O   UNL     1     -12.375 -10.570  -0.213  1.00  0.00    -0.237 OA
ATOM     72  O   UNL     1     -11.602  -9.511   1.876  1.00  0.00    -0.744 OA
ENDBRANCH  68  69
ENDBRANCH  47  61
BRANCH  48  73
ATOM     73  C   UNL     1     -11.251   2.936  -6.192  1.00  0.00     0.058 A 
ATOM     74  C   UNL     1     -11.885   4.184  -5.998  1.00  0.00     0.135 A 
ATOM     75  C   UNL     1      -9.907   2.846  -5.798  1.00  0.00     0.135 A 
ATOM     76  F   UNL     1     -13.173   4.343  -6.348  1.00  0.00    -0.206 F 
ATOM     77  C   UNL     1     -11.263   5.245  -5.341  1.00  0.00     0.059 A 
ATOM     78  C   UNL     1      -9.256   3.907  -5.149  1.00  0.00     0.059 A 
ATOM     79  F   UNL     1      -9.232   1.698  -5.949  1.00  0.00    -0.206 F 
ATOM     80  C   UNL     1      -9.957   5.086  -4.888  1.00  0.00     0.060 A 
BRANCH  80  81
ATOM     81  S   UNL     1      -9.265   6.376  -3.819  1.00  0.00     0.124 S 
ATOM     82  O   UNL     1      -9.050   7.468  -4.762  1.00  0.00    -0.237 OA
ATOM     83  O   UNL     1     -10.344   6.578  -2.855  1.00  0.00    -0.237 OA
ATOM     84  O   UNL     1      -8.056   5.760  -3.279  1.00  0.00    -0.744 OA
ENDBRANCH  80  81
ENDBRANCH  48  73
BRANCH  60  85
ATOM     85  C   UNL     1     -10.712  -4.103  -8.044  1.00  0.00     0.058 A 
ATOM     86  C   UNL     1      -9.910  -3.877  -9.174  1.00  0.00     0.135 A 
ATOM     87  C   UNL     1     -10.861  -5.470  -7.683  1.00  0.00     0.135 A 
ATOM     88  F   UNL     1      -9.555  -2.644  -9.556  1.00  0.00    -0.206 F 
ATOM     89  C   UNL     1      -9.383  -4.916  -9.942  1.00  0.00     0.059 A 
ATOM     90  C   UNL     1     -10.283  -6.518  -8.393  1.00  0.00     0.059 A 
ATOM     91  F   UNL     1     -11.560  -5.851  -6.605  1.00  0.00    -0.206 F 
ATOM     92  C   UNL     1      -9.575  -6.233  -9.546  1.00  0.00     0.060 A 
BRANCH  92  93
ATOM     93  S   UNL     1      -8.851  -7.562 -10.514  1.00  0.00     0.124 S 
ATOM     94  O   UNL     1      -9.855  -7.737 -11.559  1.00  0.00    -0.237 OA
ATOM     95  O   UNL     1      -7.582  -6.985 -10.949  1.00  0.00    -0.237 OA
ATOM     96  O   UNL     1      -8.736  -8.657  -9.557  1.00  0.00    -0.744 OA
ENDBRANCH  92  93
ENDBRANCH  60  85
ENDBRANCH  34  35
ENDBRANCH  27  29
ENDBRANCH  26  27
ENDBRANCH   1  26
TORSDOF 16
