REMARK SMILES C[C@@](NC(=O)[C@H]1COc2ccccc21)(C(=O)OCCOC(=O)c1ccc(-c2c3nc(c(-c4c(F)cc(S(=O)(=O)[O-])cc4F)c4ccc([nH]4)c(-c4c(F)cc(S(=O)(=O)[O-])cc4F)c4nc(c(-c5c(F)cc(S(=O)(=O)[O-])cc5F)c5ccc2[nH]5)C=C4)C=C3)cc1)C(F)(F)F
REMARK SMILES IDX 19 1 18 2 17 3 15 4 16 5 2 6 1 7 3 8 4 9 5 11 6 12 7 13
REMARK SMILES IDX 14 14 8 15 9 16 13 17 10 18 12 19 11 20 89 21 90 22 91 23
REMARK SMILES IDX 92 24 20 25 21 26 22 27 23 28 24 29 88 30 25 31 87 32 26 33
REMARK SMILES IDX 27 34 28 35 81 36 29 37 86 38 80 39 82 40 30 41 85 42 79 43
REMARK SMILES IDX 78 44 31 46 65 47 44 48 64 49 45 50 48 51 63 52 83 53 46 54
REMARK SMILES IDX 47 55 62 57 84 58 49 59 32 60 33 61 42 62 34 63 35 64 41 65
REMARK SMILES IDX 43 66 36 67 37 68 38 69 39 70 40 71 66 72 67 73 76 74 68 75
REMARK SMILES IDX 69 76 75 77 77 78 70 79 71 80 72 81 73 82 74 83 50 84 51 85
REMARK SMILES IDX 60 86 52 87 53 88 59 89 61 90 54 91 55 92 56 93 57 94 58 95
REMARK H PARENT 3 10 82 45 48 56
REMARK Flexibility Score: inf
ROOT
ATOM      1  C   UNL     1      -3.588   0.045  -1.053  1.00  0.00     0.275 C 
ENDROOT
BRANCH   1   2
ATOM      2  C   UNL     1      -3.051  -0.107   0.373  1.00  0.00     0.274 C 
BRANCH   2   3
ATOM      3  O   UNL     1      -1.621   0.085   0.477  1.00  0.00    -0.460 OA
BRANCH   3   4
ATOM      4  C   UNL     1      -0.859  -1.047   0.485  1.00  0.00     0.341 C 
ATOM      5  O   UNL     1      -1.326  -2.165   0.294  1.00  0.00    -0.249 OA
BRANCH   4   6
ATOM      6  C   UNL     1       0.553  -0.806   1.022  1.00  0.00     0.231 C 
ATOM      7  C   UNL     1       1.054   0.585   0.589  1.00  0.00     0.058 C 
BRANCH   6   8
ATOM      8  N   UNL     1       0.655  -0.872   2.527  1.00  0.00    -0.332 N 
ATOM      9  C   UNL     1       0.139  -1.803   3.392  1.00  0.00     0.232 C 
ATOM     10  H   UNL     1       1.164  -0.141   2.948  1.00  0.00     0.164 HD
ATOM     11  O   UNL     1       0.898  -2.230   4.263  1.00  0.00    -0.274 OA
BRANCH   9  12
ATOM     12  C   UNL     1      -1.352  -2.088   3.388  1.00  0.00     0.150 C 
ATOM     13  C   UNL     1      -1.717  -3.500   3.856  1.00  0.00     0.248 C 
ATOM     14  C   UNL     1      -2.106  -1.275   4.382  1.00  0.00     0.010 A 
ATOM     15  O   UNL     1      -2.768  -3.438   4.855  1.00  0.00    -0.492 OA
ATOM     16  C   UNL     1      -2.906  -2.109   5.142  1.00  0.00     0.123 A 
ATOM     17  C   UNL     1      -2.165   0.102   4.534  1.00  0.00     0.008 A 
ATOM     18  C   UNL     1      -3.790  -1.612   6.078  1.00  0.00     0.047 A 
ATOM     19  C   UNL     1      -3.049   0.626   5.481  1.00  0.00     0.001 A 
ATOM     20  C   UNL     1      -3.860  -0.227   6.246  1.00  0.00     0.004 A 
ENDBRANCH   9  12
ENDBRANCH   6   8
BRANCH   6  21
ATOM     21  C   UNL     1       1.469  -1.851   0.352  1.00  0.00     0.422 C 
ATOM     22  F   UNL     1       1.552  -1.674  -0.984  1.00  0.00    -0.168 F 
ATOM     23  F   UNL     1       2.737  -1.722   0.830  1.00  0.00    -0.168 F 
ATOM     24  F   UNL     1       1.095  -3.123   0.593  1.00  0.00    -0.168 F 
ENDBRANCH   6  21
ENDBRANCH   4   6
ENDBRANCH   3   4
ENDBRANCH   2   3
ENDBRANCH   1   2
BRANCH   1  25
ATOM     25  O   UNL     1      -3.224  -1.062  -1.896  1.00  0.00    -0.458 OA
BRANCH  25  26
ATOM     26  C   UNL     1      -2.071  -0.900  -2.585  1.00  0.00     0.338 C 
ATOM     27  O   UNL     1      -1.335   0.072  -2.562  1.00  0.00    -0.246 OA
BRANCH  26  28
ATOM     28  C   UNL     1      -1.713  -2.165  -3.244  1.00  0.00     0.060 A 
ATOM     29  C   UNL     1      -0.686  -2.909  -2.667  1.00  0.00     0.016 A 
ATOM     30  C   UNL     1      -2.300  -2.583  -4.435  1.00  0.00     0.016 A 
ATOM     31  C   UNL     1      -0.217  -4.064  -3.268  1.00  0.00     0.010 A 
ATOM     32  C   UNL     1      -1.844  -3.764  -5.037  1.00  0.00     0.010 A 
ATOM     33  C   UNL     1      -0.797  -4.505  -4.456  1.00  0.00    -0.014 A 
BRANCH  33  34
ATOM     34  C   UNL     1      -0.270  -5.730  -5.092  1.00  0.00     0.031 A 
ATOM     35  C   UNL     1       0.521  -5.619  -6.359  1.00  0.00     0.074 A 
ATOM     36  C   UNL     1      -0.467  -6.924  -4.502  1.00  0.00     0.049 A 
ATOM     37  N   UNL     1       0.906  -6.563  -7.173  1.00  0.00    -0.248 NA
ATOM     38  C   UNL     1       0.932  -4.264  -6.767  1.00  0.00     0.031 C 
ATOM     39  C   UNL     1      -1.142  -7.132  -3.217  1.00  0.00     0.029 A 
ATOM     40  N   UNL     1      -0.126  -8.189  -4.906  1.00  0.00    -0.354 N 
ATOM     41  C   UNL     1       1.557  -5.918  -8.217  1.00  0.00     0.074 A 
ATOM     42  C   UNL     1       1.538  -4.502  -7.923  1.00  0.00     0.031 C 
ATOM     43  C   UNL     1      -1.176  -8.446  -2.946  1.00  0.00     0.029 A 
ATOM     44  C   UNL     1      -0.595  -9.174  -4.068  1.00  0.00     0.049 A 
ATOM     45  H   UNL     1       0.402  -8.374  -5.715  1.00  0.00     0.167 HD
ATOM     46  C   UNL     1       2.103  -6.470  -9.324  1.00  0.00     0.037 A 
ATOM     47  C   UNL     1      -0.614 -10.511  -4.224  1.00  0.00     0.037 A 
ATOM     48  C   UNL     1       2.149  -7.887  -9.569  1.00  0.00     0.049 A 
ATOM     49  C   UNL     1      -0.053 -11.095  -5.490  1.00  0.00     0.074 A 
ATOM     50  C   UNL     1       2.698  -8.559 -10.646  1.00  0.00     0.029 A 
ATOM     51  N   UNL     1       1.629  -8.851  -8.717  1.00  0.00    -0.354 N 
ATOM     52  N   UNL     1       0.513 -10.477  -6.500  1.00  0.00    -0.248 NA
ATOM     53  C   UNL     1      -0.162 -12.550  -5.658  1.00  0.00     0.031 C 
ATOM     54  C   UNL     1       2.478  -9.928 -10.463  1.00  0.00     0.029 A 
ATOM     55  C   UNL     1       1.819 -10.111  -9.256  1.00  0.00     0.049 A 
ATOM     56  H   UNL     1       1.189  -8.666  -7.856  1.00  0.00     0.167 HD
ATOM     57  C   UNL     1       0.819 -11.465  -7.426  1.00  0.00     0.074 A 
ATOM     58  C   UNL     1       0.402 -12.726  -6.845  1.00  0.00     0.031 C 
ATOM     59  C   UNL     1       1.383 -11.343  -8.653  1.00  0.00     0.037 A 
BRANCH  46  60
ATOM     60  C   UNL     1       2.646  -5.549 -10.375  1.00  0.00     0.058 A 
ATOM     61  C   UNL     1       3.894  -4.924 -10.248  1.00  0.00     0.135 A 
ATOM     62  C   UNL     1       1.921  -5.336 -11.559  1.00  0.00     0.135 A 
ATOM     63  F   UNL     1       4.615  -5.077  -9.126  1.00  0.00    -0.206 F 
ATOM     64  C   UNL     1       4.407  -4.118 -11.260  1.00  0.00     0.059 A 
ATOM     65  C   UNL     1       2.421  -4.548 -12.590  1.00  0.00     0.059 A 
ATOM     66  F   UNL     1       0.715  -5.903 -11.723  1.00  0.00    -0.206 F 
ATOM     67  C   UNL     1       3.664  -3.939 -12.429  1.00  0.00     0.060 A 
BRANCH  67  68
ATOM     68  S   UNL     1       4.356  -2.920 -13.750  1.00  0.00     0.124 S 
ATOM     69  O   UNL     1       4.170  -1.577 -13.209  1.00  0.00    -0.237 OA
ATOM     70  O   UNL     1       5.736  -3.389 -13.819  1.00  0.00    -0.237 OA
ATOM     71  O   UNL     1       3.526  -3.251 -14.905  1.00  0.00    -0.744 OA
ENDBRANCH  67  68
ENDBRANCH  46  60
BRANCH  47  72
ATOM     72  C   UNL     1      -1.278 -11.371  -3.209  1.00  0.00     0.058 A 
ATOM     73  C   UNL     1      -0.543 -12.249  -2.401  1.00  0.00     0.135 A 
ATOM     74  C   UNL     1      -2.671 -11.332  -3.034  1.00  0.00     0.135 A 
ATOM     75  F   UNL     1       0.789 -12.332  -2.539  1.00  0.00    -0.206 F 
ATOM     76  C   UNL     1      -1.166 -13.068  -1.463  1.00  0.00     0.059 A 
ATOM     77  C   UNL     1      -3.313 -12.121  -2.086  1.00  0.00     0.059 A 
ATOM     78  F   UNL     1      -3.420 -10.502  -3.777  1.00  0.00    -0.206 F 
ATOM     79  C   UNL     1      -2.553 -12.998  -1.315  1.00  0.00     0.060 A 
BRANCH  79  80
ATOM     80  S   UNL     1      -3.358 -14.034  -0.074  1.00  0.00     0.124 S 
ATOM     81  O   UNL     1      -3.440 -15.312  -0.771  1.00  0.00    -0.237 OA
ATOM     82  O   UNL     1      -2.420 -13.974   1.042  1.00  0.00    -0.237 OA
ATOM     83  O   UNL     1      -4.630 -13.353   0.151  1.00  0.00    -0.744 OA
ENDBRANCH  79  80
ENDBRANCH  47  72
BRANCH  59  84
ATOM     84  C   UNL     1       1.569 -12.603  -9.443  1.00  0.00     0.058 A 
ATOM     85  C   UNL     1       0.493 -13.204 -10.112  1.00  0.00     0.135 A 
ATOM     86  C   UNL     1       2.840 -13.181  -9.578  1.00  0.00     0.135 A 
ATOM     87  F   UNL     1      -0.742 -12.690 -10.003  1.00  0.00    -0.206 F 
ATOM     88  C   UNL     1       0.669 -14.346 -10.884  1.00  0.00     0.059 A 
ATOM     89  C   UNL     1       3.043 -14.312 -10.360  1.00  0.00     0.059 A 
ATOM     90  F   UNL     1       3.901 -12.636  -8.961  1.00  0.00    -0.206 F 
ATOM     91  C   UNL     1       1.948 -14.892 -11.003  1.00  0.00     0.060 A 
BRANCH  91  92
ATOM     92  S   UNL     1       2.176 -16.348 -12.044  1.00  0.00     0.124 S 
ATOM     93  O   UNL     1       1.673 -17.409 -11.178  1.00  0.00    -0.237 OA
ATOM     94  O   UNL     1       1.353 -16.036 -13.209  1.00  0.00    -0.237 OA
ATOM     95  O   UNL     1       3.615 -16.366 -12.290  1.00  0.00    -0.744 OA
ENDBRANCH  91  92
ENDBRANCH  59  84
ENDBRANCH  33  34
ENDBRANCH  26  28
ENDBRANCH  25  26
ENDBRANCH   1  25
TORSDOF 17
