REMARK SMILES CN(C)S(=O)(=O)c1ccc(-n2c(CCC(=O)OCCOC(=O)c3ccc(-c4c5nc(c(-c6c(F)cc(S(=O)(=O)[O-])cc6F)c6ccc([nH]6)c(-c6c(F)cc(S(=O)(=O)[O-])cc6F)c6nc(c(-c7c(F)cc(S(=O)(=O)[O-])cc7F)c7ccc4[nH]7)C=C6)C=C5)cc3)ccc2-c2ccc(F)cc2)cc1
REMARK SMILES IDX 18 1 17 2 15 3 16 4 14 5 13 6 12 7 11 8 91 9 89 10 90 11
REMARK SMILES IDX 10 12 7 13 8 14 100 15 9 16 99 17 4 18 5 19 6 20 2 21 1 22
REMARK SMILES IDX 3 23 92 24 93 25 98 26 94 27 97 28 95 29 96 30 19 31 20 32
REMARK SMILES IDX 21 33 22 34 23 35 24 36 88 37 25 38 87 39 26 40 27 41 28 42
REMARK SMILES IDX 81 43 29 44 86 45 80 46 82 47 30 48 85 49 79 50 78 51 31 53
REMARK SMILES IDX 65 54 44 55 64 56 45 57 48 58 63 59 83 60 46 61 47 62 62 64
REMARK SMILES IDX 84 65 49 66 32 67 33 68 42 69 34 70 35 71 41 72 43 73 36 74
REMARK SMILES IDX 37 75 38 76 39 77 40 78 66 79 67 80 76 81 68 82 69 83 75 84
REMARK SMILES IDX 77 85 70 86 71 87 72 88 73 89 74 90 50 91 51 92 60 93 52 94
REMARK SMILES IDX 53 95 59 96 61 97 54 98 55 99 56 100 57 101 58 102
REMARK H PARENT 82 52 48 63
REMARK Flexibility Score: inf
ROOT
ATOM      1  C   UNL     1      -1.915   1.535   6.215  1.00  0.00     0.274 C 
ENDROOT
BRANCH   1   2
ATOM      2  O   UNL     1      -1.845   2.259   7.485  1.00  0.00    -0.462 OA
BRANCH   2   3
ATOM      3  C   UNL     1      -1.589   1.523   8.605  1.00  0.00     0.306 C 
ATOM      4  O   UNL     1      -1.898   0.341   8.718  1.00  0.00    -0.252 OA
BRANCH   3   5
ATOM      5  C   UNL     1      -0.828   2.267   9.709  1.00  0.00     0.129 C 
BRANCH   5   6
ATOM      6  C   UNL     1       0.413   3.113   9.370  1.00  0.00     0.066 C 
BRANCH   6   7
ATOM      7  C   UNL     1       0.072   4.335   8.600  1.00  0.00     0.024 A 
ATOM      8  N   UNL     1      -0.107   4.389   7.225  1.00  0.00    -0.314 N 
ATOM      9  C   UNL     1      -0.789   5.590   6.957  1.00  0.00     0.053 A 
ATOM     10  C   UNL     1      -0.128   5.607   9.106  1.00  0.00     0.024 A 
ATOM     11  C   UNL     1      -0.669   6.394   8.076  1.00  0.00     0.029 A 
BRANCH   8  12
ATOM     12  C   UNL     1       0.179   3.375   6.258  1.00  0.00     0.046 A 
ATOM     13  C   UNL     1       0.700   0.974   3.600  1.00  0.00     0.082 A 
ATOM     14  C   UNL     1       0.485   2.705   3.213  1.00  0.00     0.024 A 
ATOM     15  C   UNL     1       0.672   0.402   5.301  1.00  0.00     0.024 A 
ATOM     16  C   UNL     1       0.235   3.913   4.519  1.00  0.00     0.028 A 
ATOM     17  C   UNL     1       0.487   1.602   6.648  1.00  0.00     0.028 A 
BRANCH  13  18
ATOM     18  S   UNL     1       0.905  -0.210   2.297  1.00  0.00     0.242 S 
ATOM     19  O   UNL     1       0.014  -1.312   2.597  1.00  0.00    -0.207 OA
ATOM     20  O   UNL     1       2.322  -0.410   2.112  1.00  0.00    -0.207 OA
BRANCH  18  21
ATOM     21  N   UNL     1       0.289   0.583   0.907  1.00  0.00    -0.204 NA
ATOM     22  C   UNL     1       0.800   0.006  -0.364  1.00  0.00     0.124 C 
ATOM     23  C   UNL     1      -1.177   0.755   0.881  1.00  0.00     0.124 C 
ENDBRANCH  18  21
ENDBRANCH  13  18
ENDBRANCH   8  12
BRANCH   9  24
ATOM     24  C   UNL     1      -1.667   5.851   5.809  1.00  0.00    -0.001 A 
ATOM     25  C   UNL     1      -1.401   6.888   4.905  1.00  0.00     0.013 A 
ATOM     26  C   UNL     1      -2.821   5.069   5.630  1.00  0.00     0.013 A 
ATOM     27  C   UNL     1      -2.243   7.096   3.808  1.00  0.00     0.040 A 
ATOM     28  C   UNL     1      -3.658   5.273   4.534  1.00  0.00     0.040 A 
ATOM     29  C   UNL     1      -3.358   6.283   3.630  1.00  0.00     0.123 A 
ATOM     30  F   UNL     1      -4.162   6.479   2.576  1.00  0.00    -0.207 F 
ENDBRANCH   9  24
ENDBRANCH   6   7
ENDBRANCH   5   6
ENDBRANCH   3   5
ENDBRANCH   2   3
ENDBRANCH   1   2
BRANCH   1  31
ATOM     31  C   UNL     1      -0.883   2.026   4.946  1.00  0.00     0.275 C 
BRANCH  31  32
ATOM     32  O   UNL     1       1.112   2.243   5.006  1.00  0.00    -0.458 OA
BRANCH  32  33
ATOM     33  C   UNL     1       2.354   2.863   5.295  1.00  0.00     0.338 C 
ATOM     34  O   UNL     1       2.597   4.029   5.591  1.00  0.00    -0.246 OA
BRANCH  33  35
ATOM     35  C   UNL     1       3.409   1.884   5.476  1.00  0.00     0.060 A 
ATOM     36  C   UNL     1       4.142   1.983   6.669  1.00  0.00     0.016 A 
ATOM     37  C   UNL     1       3.906   1.347   4.300  1.00  0.00     0.016 A 
ATOM     38  C   UNL     1       5.494   1.775   6.596  1.00  0.00     0.010 A 
ATOM     39  C   UNL     1       5.250   1.158   4.220  1.00  0.00     0.010 A 
ATOM     40  C   UNL     1       6.024   1.471   5.340  1.00  0.00    -0.014 A 
BRANCH  40  41
ATOM     41  C   UNL     1       7.462   1.527   5.146  1.00  0.00     0.031 A 
ATOM     42  C   UNL     1       8.073   0.151   5.421  1.00  0.00     0.074 A 
ATOM     43  C   UNL     1       7.894   2.768   4.757  1.00  0.00     0.049 A 
ATOM     44  N   UNL     1       9.260  -0.178   5.825  1.00  0.00    -0.248 NA
ATOM     45  C   UNL     1       7.186  -1.051   5.324  1.00  0.00     0.031 C 
ATOM     46  C   UNL     1       7.042   3.975   4.551  1.00  0.00     0.029 A 
ATOM     47  N   UNL     1       9.125   3.277   4.450  1.00  0.00    -0.354 N 
ATOM     48  C   UNL     1       9.317  -1.586   5.820  1.00  0.00     0.074 A 
ATOM     49  C   UNL     1       7.985  -2.068   5.637  1.00  0.00     0.031 C 
ATOM     50  C   UNL     1       7.792   5.061   4.257  1.00  0.00     0.029 A 
ATOM     51  C   UNL     1       9.187   4.680   4.229  1.00  0.00     0.049 A 
ATOM     52  H   UNL     1       9.923   2.705   4.384  1.00  0.00     0.167 HD
ATOM     53  C   UNL     1      10.480  -2.289   5.805  1.00  0.00     0.037 A 
ATOM     54  C   UNL     1      10.309   5.459   4.123  1.00  0.00     0.037 A 
ATOM     55  C   UNL     1      11.602  -1.411   5.751  1.00  0.00     0.049 A 
ATOM     56  C   UNL     1      11.405   4.483   4.265  1.00  0.00     0.074 A 
ATOM     57  C   UNL     1      12.455  -0.841   6.657  1.00  0.00     0.029 A 
ATOM     58  N   UNL     1      11.885  -0.891   4.514  1.00  0.00    -0.354 N 
ATOM     59  N   UNL     1      11.761   3.613   3.372  1.00  0.00    -0.248 NA
ATOM     60  C   UNL     1      11.959   4.307   5.606  1.00  0.00     0.031 C 
ATOM     61  C   UNL     1      13.143   0.177   5.948  1.00  0.00     0.029 A 
ATOM     62  C   UNL     1      12.545   0.299   4.696  1.00  0.00     0.049 A 
ATOM     63  H   UNL     1      11.656  -1.299   3.648  1.00  0.00     0.167 HD
ATOM     64  C   UNL     1      12.375   2.618   4.101  1.00  0.00     0.074 A 
ATOM     65  C   UNL     1      12.600   3.157   5.432  1.00  0.00     0.031 C 
ATOM     66  C   UNL     1      12.345   1.321   3.698  1.00  0.00     0.037 A 
BRANCH  53  67
ATOM     67  C   UNL     1      10.752  -3.746   5.546  1.00  0.00     0.058 A 
ATOM     68  C   UNL     1      11.946  -4.282   6.079  1.00  0.00     0.135 A 
ATOM     69  C   UNL     1      10.133  -4.494   4.530  1.00  0.00     0.135 A 
ATOM     70  F   UNL     1      12.559  -3.686   7.115  1.00  0.00    -0.206 F 
ATOM     71  C   UNL     1      12.582  -5.384   5.523  1.00  0.00     0.059 A 
ATOM     72  C   UNL     1      10.730  -5.639   3.990  1.00  0.00     0.059 A 
ATOM     73  F   UNL     1       8.980  -4.089   3.978  1.00  0.00    -0.206 F 
ATOM     74  C   UNL     1      11.988  -6.031   4.447  1.00  0.00     0.060 A 
BRANCH  74  75
ATOM     75  S   UNL     1      12.911  -7.354   3.636  1.00  0.00     0.124 S 
ATOM     76  O   UNL     1      13.889  -6.600   2.859  1.00  0.00    -0.237 OA
ATOM     77  O   UNL     1      13.448  -8.101   4.771  1.00  0.00    -0.237 OA
ATOM     78  O   UNL     1      11.889  -8.054   2.866  1.00  0.00    -0.744 OA
ENDBRANCH  74  75
ENDBRANCH  53  67
BRANCH  54  79
ATOM     79  C   UNL     1      10.684   6.926   4.153  1.00  0.00     0.058 A 
ATOM     80  C   UNL     1       9.810   8.019   4.081  1.00  0.00     0.135 A 
ATOM     81  C   UNL     1      12.044   7.285   4.387  1.00  0.00     0.135 A 
ATOM     82  F   UNL     1       8.526   7.855   3.738  1.00  0.00    -0.206 F 
ATOM     83  C   UNL     1      10.221   9.338   4.371  1.00  0.00     0.059 A 
ATOM     84  C   UNL     1      12.469   8.571   4.712  1.00  0.00     0.059 A 
ATOM     85  F   UNL     1      13.027   6.374   4.352  1.00  0.00    -0.206 F 
ATOM     86  C   UNL     1      11.543   9.595   4.733  1.00  0.00     0.060 A 
BRANCH  86  87
ATOM     87  S   UNL     1      12.048  11.218   5.350  1.00  0.00     0.124 S 
ATOM     88  O   UNL     1      12.358  11.931   4.117  1.00  0.00    -0.237 OA
ATOM     89  O   UNL     1      10.858  11.671   6.065  1.00  0.00    -0.237 OA
ATOM     90  O   UNL     1      13.192  10.908   6.204  1.00  0.00    -0.744 OA
ENDBRANCH  86  87
ENDBRANCH  54  79
BRANCH  66  91
ATOM     91  C   UNL     1      11.680   1.094   2.345  1.00  0.00     0.058 A 
ATOM     92  C   UNL     1      12.337   1.376   1.145  1.00  0.00     0.135 A 
ATOM     93  C   UNL     1      10.340   0.671   2.223  1.00  0.00     0.135 A 
ATOM     94  F   UNL     1      13.607   1.807   1.164  1.00  0.00    -0.206 F 
ATOM     95  C   UNL     1      11.709   1.213  -0.099  1.00  0.00     0.059 A 
ATOM     96  C   UNL     1       9.691   0.489   1.004  1.00  0.00     0.059 A 
ATOM     97  F   UNL     1       9.624   0.397   3.312  1.00  0.00    -0.206 F 
ATOM     98  C   UNL     1      10.389   0.759  -0.162  1.00  0.00     0.060 A 
BRANCH  98  99
ATOM     99  S   UNL     1       9.604   0.511  -1.771  1.00  0.00     0.124 S 
ATOM    100  O   UNL     1       9.693   1.837  -2.372  1.00  0.00    -0.237 OA
ATOM    101  O   UNL     1      10.454  -0.513  -2.369  1.00  0.00    -0.237 OA
ATOM    102  O   UNL     1       8.250   0.074  -1.436  1.00  0.00    -0.744 OA
ENDBRANCH  98  99
ENDBRANCH  66  91
ENDBRANCH  40  41
ENDBRANCH  33  35
ENDBRANCH  32  33
ENDBRANCH  31  32
ENDBRANCH   1  31
TORSDOF 20
