REMARK SMILES COc1ccc(-n2c(SCc3cn(-c4ccc(C(=O)OCCOC(=O)c5ccc(-c6c7nc(c(-c8c(F)cc(S(=O)(=O)[O-])cc8F)c8ccc([nH]8)c(-c8c(F)cc(S(=O)(=O)[O-])cc8F)c8nc(c(-c9c(F)cc(S(=O)(=O)[O-])cc9F)c9ccc6[nH]9)C=C8)C=C7)cc5)cc4)nn3)nc3ccccc3c2=O)cc1
REMARK SMILES IDX 20 1 18 2 19 3 17 4 14 5 15 6 93 7 16 8 92 9 13 10 11 11
REMARK SMILES IDX 12 12 95 13 94 14 10 15 9 16 8 17 7 18 103 19 96 20 102 21
REMARK SMILES IDX 104 22 97 23 101 24 98 25 100 26 99 27 6 28 3 29 4 30 106 31
REMARK SMILES IDX 5 32 105 33 2 34 1 35 21 36 22 37 23 38 24 39 25 40 26 41
REMARK SMILES IDX 27 42 91 43 28 44 90 45 29 46 30 47 31 48 84 49 32 50 89 51
REMARK SMILES IDX 83 52 85 53 33 54 88 55 82 56 81 57 34 59 68 60 47 61 67 62
REMARK SMILES IDX 48 63 51 64 66 65 86 66 49 67 50 68 65 70 87 71 52 72 35 73
REMARK SMILES IDX 36 74 45 75 37 76 38 77 44 78 46 79 39 80 40 81 41 82 42 83
REMARK SMILES IDX 43 84 69 85 70 86 79 87 71 88 72 89 78 90 80 91 73 92 74 93
REMARK SMILES IDX 75 94 76 95 77 96 53 97 54 98 63 99 55 100 56 101 62 102
REMARK SMILES IDX 64 103 57 104 58 105 59 106 60 107 61 108
REMARK H PARENT 85 58 51 69
REMARK Flexibility Score: inf
ROOT
ATOM      1  O   UNL     1      -5.721   0.061  -3.544  1.00  0.00    -0.458 OA
ENDROOT
BRANCH   1   2
ATOM      2  C   UNL     1      -5.044   0.244  -4.704  1.00  0.00     0.338 C 
ATOM      3  O   UNL     1      -5.532   0.320  -5.823  1.00  0.00    -0.246 OA
BRANCH   2   4
ATOM      4  C   UNL     1      -3.604   0.474  -4.430  1.00  0.00     0.060 A 
ATOM      5  C   UNL     1      -0.930   1.040  -3.974  1.00  0.00     0.066 A 
ATOM      6  C   UNL     1      -1.485   1.345  -5.219  1.00  0.00     0.029 A 
ATOM      7  C   UNL     1      -1.692   0.472  -2.950  1.00  0.00     0.029 A 
ATOM      8  C   UNL     1      -2.835   1.086  -5.433  1.00  0.00     0.018 A 
ATOM      9  C   UNL     1      -3.028   0.166  -3.190  1.00  0.00     0.018 A 
BRANCH   5  10
ATOM     10  N   UNL     1       0.454   1.144  -3.812  1.00  0.00    -0.220 N 
ATOM     11  C   UNL     1       2.532   0.520  -3.784  1.00  0.00     0.093 A 
ATOM     12  C   UNL     1       1.356   0.355  -4.475  1.00  0.00     0.141 A 
ATOM     13  N   UNL     1       2.330   1.436  -2.785  1.00  0.00    -0.134 NA
ATOM     14  N   UNL     1       1.044   1.759  -2.772  1.00  0.00    -0.062 NA
BRANCH  11  15
ATOM     15  C   UNL     1       3.828  -0.173  -3.877  1.00  0.00     0.138 C 
BRANCH  15  16
ATOM     16  S   UNL     1       4.280  -0.778  -5.487  1.00  0.00    -0.081 SA
BRANCH  16  17
ATOM     17  C   UNL     1       3.016  -1.913  -6.024  1.00  0.00     0.176 A 
ATOM     18  N   UNL     1       2.981  -3.134  -5.368  1.00  0.00    -0.255 N 
ATOM     19  C   UNL     1       3.419  -4.255  -6.064  1.00  0.00     0.266 A 
ATOM     20  N   UNL     1       2.794  -1.854  -7.302  1.00  0.00    -0.223 NA
ATOM     21  C   UNL     1       4.083  -3.918  -7.352  1.00  0.00     0.066 A 
ATOM     22  O   UNL     1       3.342  -5.423  -5.700  1.00  0.00    -0.268 OA
ATOM     23  C   UNL     1       3.664  -2.733  -7.976  1.00  0.00     0.079 A 
ATOM     24  C   UNL     1       5.224  -4.589  -7.785  1.00  0.00     0.016 A 
ATOM     25  C   UNL     1       4.351  -2.256  -9.090  1.00  0.00     0.029 A 
ATOM     26  C   UNL     1       5.957  -4.053  -8.846  1.00  0.00     0.001 A 
ATOM     27  C   UNL     1       5.513  -2.902  -9.508  1.00  0.00     0.002 A 
BRANCH  18  28
ATOM     28  C   UNL     1       2.249  -3.255  -4.162  1.00  0.00     0.052 A 
ATOM     29  C   UNL     1       0.966  -2.610  -1.781  1.00  0.00     0.119 A 
ATOM     30  C   UNL     1       0.213  -2.758  -2.943  1.00  0.00     0.048 A 
ATOM     31  C   UNL     1       2.315  -2.964  -1.771  1.00  0.00     0.048 A 
ATOM     32  C   UNL     1       0.860  -3.056  -4.146  1.00  0.00     0.030 A 
ATOM     33  C   UNL     1       2.954  -3.316  -2.961  1.00  0.00     0.030 A 
BRANCH  29  34
ATOM     34  O   UNL     1       0.348  -2.128  -0.659  1.00  0.00    -0.497 OA
ATOM     35  C   UNL     1       0.921  -0.880  -0.241  1.00  0.00     0.278 C 
ENDBRANCH  29  34
ENDBRANCH  18  28
ENDBRANCH  16  17
ENDBRANCH  15  16
ENDBRANCH  11  15
ENDBRANCH   5  10
ENDBRANCH   2   4
ENDBRANCH   1   2
BRANCH   1  36
ATOM     36  C   UNL     1      -7.134   0.297  -3.610  1.00  0.00     0.275 C 
BRANCH  36  37
ATOM     37  C   UNL     1      -7.450   1.750  -3.284  1.00  0.00     0.275 C 
BRANCH  37  38
ATOM     38  O   UNL     1      -6.957   2.635  -4.291  1.00  0.00    -0.458 OA
BRANCH  38  39
ATOM     39  C   UNL     1      -5.769   3.212  -3.997  1.00  0.00     0.338 C 
ATOM     40  O   UNL     1      -4.932   2.814  -3.206  1.00  0.00    -0.246 OA
BRANCH  39  41
ATOM     41  C   UNL     1      -5.722   4.549  -4.593  1.00  0.00     0.060 A 
ATOM     42  C   UNL     1      -4.501   5.230  -4.576  1.00  0.00     0.016 A 
ATOM     43  C   UNL     1      -6.931   5.201  -4.873  1.00  0.00     0.016 A 
ATOM     44  C   UNL     1      -4.512   6.604  -4.703  1.00  0.00     0.010 A 
ATOM     45  C   UNL     1      -6.943   6.570  -4.976  1.00  0.00     0.010 A 
ATOM     46  C   UNL     1      -5.743   7.260  -4.827  1.00  0.00    -0.014 A 
BRANCH  46  47
ATOM     47  C   UNL     1      -5.750   8.705  -4.904  1.00  0.00     0.031 A 
ATOM     48  C   UNL     1      -5.293   9.218  -6.216  1.00  0.00     0.074 A 
ATOM     49  C   UNL     1      -6.282   9.478  -3.939  1.00  0.00     0.049 A 
ATOM     50  N   UNL     1      -4.212   9.873  -6.477  1.00  0.00    -0.248 NA
ATOM     51  C   UNL     1      -6.044   8.796  -7.411  1.00  0.00     0.031 C 
ATOM     52  C   UNL     1      -7.049   9.058  -2.763  1.00  0.00     0.029 A 
ATOM     53  N   UNL     1      -6.343  10.832  -3.873  1.00  0.00    -0.354 N 
ATOM     54  C   UNL     1      -4.264  10.143  -7.840  1.00  0.00     0.074 A 
ATOM     55  C   UNL     1      -5.282   9.286  -8.388  1.00  0.00     0.031 C 
ATOM     56  C   UNL     1      -7.687  10.132  -2.245  1.00  0.00     0.029 A 
ATOM     57  C   UNL     1      -7.278  11.323  -2.972  1.00  0.00     0.049 A 
ATOM     58  H   UNL     1      -5.771  11.418  -4.420  1.00  0.00     0.167 HD
ATOM     59  C   UNL     1      -3.648  11.233  -8.371  1.00  0.00     0.037 A 
ATOM     60  C   UNL     1      -7.733  12.601  -2.910  1.00  0.00     0.037 A 
ATOM     61  C   UNL     1      -2.693  11.797  -7.452  1.00  0.00     0.049 A 
ATOM     62  C   UNL     1      -6.742  13.454  -3.627  1.00  0.00     0.074 A 
ATOM     63  C   UNL     1      -1.556  11.323  -6.826  1.00  0.00     0.029 A 
ATOM     64  N   UNL     1      -3.070  12.919  -6.755  1.00  0.00    -0.354 N 
ATOM     65  N   UNL     1      -5.523  13.665  -3.209  1.00  0.00    -0.248 NA
ATOM     66  C   UNL     1      -6.959  13.697  -5.047  1.00  0.00     0.031 C 
ATOM     67  C   UNL     1      -1.584  11.900  -5.524  1.00  0.00     0.029 A 
ATOM     68  C   UNL     1      -2.699  12.736  -5.447  1.00  0.00     0.049 A 
ATOM     69  H   UNL     1      -3.524  13.710  -7.126  1.00  0.00     0.167 HD
ATOM     70  C   UNL     1      -4.742  13.648  -4.357  1.00  0.00     0.074 A 
ATOM     71  C   UNL     1      -5.691  13.753  -5.463  1.00  0.00     0.031 C 
ATOM     72  C   UNL     1      -3.432  13.264  -4.316  1.00  0.00     0.037 A 
BRANCH  59  73
ATOM     73  C   UNL     1      -4.175  12.002  -9.556  1.00  0.00     0.058 A 
ATOM     74  C   UNL     1      -3.360  12.979 -10.160  1.00  0.00     0.135 A 
ATOM     75  C   UNL     1      -5.534  12.013  -9.944  1.00  0.00     0.135 A 
ATOM     76  F   UNL     1      -2.056  13.068  -9.851  1.00  0.00    -0.206 F 
ATOM     77  C   UNL     1      -3.872  13.938 -11.034  1.00  0.00     0.059 A 
ATOM     78  C   UNL     1      -6.051  12.920 -10.859  1.00  0.00     0.059 A 
ATOM     79  F   UNL     1      -6.448  11.215  -9.379  1.00  0.00    -0.206 F 
ATOM     80  C   UNL     1      -5.223  13.906 -11.366  1.00  0.00     0.060 A 
BRANCH  80  81
ATOM     81  S   UNL     1      -5.910  15.201 -12.411  1.00  0.00     0.124 S 
ATOM     82  O   UNL     1      -5.851  16.353 -11.520  1.00  0.00    -0.237 OA
ATOM     83  O   UNL     1      -4.977  15.210 -13.533  1.00  0.00    -0.237 OA
ATOM     84  O   UNL     1      -7.248  14.707 -12.720  1.00  0.00    -0.744 OA
ENDBRANCH  80  81
ENDBRANCH  59  73
BRANCH  60  85
ATOM     85  C   UNL     1      -9.115  13.067  -2.605  1.00  0.00     0.058 A 
ATOM     86  C   UNL     1      -9.390  14.427  -2.373  1.00  0.00     0.135 A 
ATOM     87  C   UNL     1     -10.237  12.238  -2.808  1.00  0.00     0.135 A 
ATOM     88  F   UNL     1      -8.384  15.297  -2.190  1.00  0.00    -0.206 F 
ATOM     89  C   UNL     1     -10.692  14.942  -2.394  1.00  0.00     0.059 A 
ATOM     90  C   UNL     1     -11.543  12.725  -2.820  1.00  0.00     0.059 A 
ATOM     91  F   UNL     1     -10.096  10.936  -3.098  1.00  0.00    -0.206 F 
ATOM     92  C   UNL     1     -11.763  14.084  -2.640  1.00  0.00     0.060 A 
BRANCH  92  93
ATOM     93  S   UNL     1     -13.425  14.765  -2.853  1.00  0.00     0.124 S 
ATOM     94  O   UNL     1     -13.752  15.193  -1.497  1.00  0.00    -0.237 OA
ATOM     95  O   UNL     1     -13.199  15.833  -3.822  1.00  0.00    -0.237 OA
ATOM     96  O   UNL     1     -14.196  13.629  -3.352  1.00  0.00    -0.744 OA
ENDBRANCH  92  93
ENDBRANCH  60  85
BRANCH  72  97
ATOM     97  C   UNL     1      -2.756  13.162  -2.973  1.00  0.00     0.058 A 
ATOM     98  C   UNL     1      -3.118  12.253  -1.963  1.00  0.00     0.135 A 
ATOM     99  C   UNL     1      -1.588  13.912  -2.770  1.00  0.00     0.135 A 
ATOM    100  F   UNL     1      -4.159  11.424  -2.122  1.00  0.00    -0.206 F 
ATOM    101  C   UNL     1      -2.374  12.126  -0.788  1.00  0.00     0.059 A 
ATOM    102  C   UNL     1      -0.813  13.779  -1.622  1.00  0.00     0.059 A 
ATOM    103  F   UNL     1      -1.154  14.753  -3.724  1.00  0.00    -0.206 F 
ATOM    104  C   UNL     1      -1.220  12.892  -0.628  1.00  0.00     0.060 A 
BRANCH 104 105
ATOM    105  S   UNL     1      -0.215  12.674   0.856  1.00  0.00     0.124 S 
ATOM    106  O   UNL     1      -1.047  13.288   1.884  1.00  0.00    -0.237 OA
ATOM    107  O   UNL     1      -0.076  11.222   0.936  1.00  0.00    -0.237 OA
ATOM    108  O   UNL     1       1.019  13.391   0.542  1.00  0.00    -0.744 OA
ENDBRANCH 104 105
ENDBRANCH  72  97
ENDBRANCH  46  47
ENDBRANCH  39  41
ENDBRANCH  38  39
ENDBRANCH  37  38
ENDBRANCH  36  37
ENDBRANCH   1  36
TORSDOF 20
