REMARK SMILES COc1ccc(NC(=O)[C@@H]2[C@@H](C(=O)OCCOC(=O)c3ccc(-c4c5nc(c(-c6c(F)cc(S(=O)(=O)[O-])cc6F)c6ccc([nH]6)c(-c6c(F)cc(S(=O)(=O)[O-])cc6F)c6nc(c(-c7c(F)cc(S(=O)(=O)[O-])cc7F)c7ccc4[nH]7)C=C6)C=C5)cc3)[C@@H]3CC[C@H]2C3=C(C)C)cc1
REMARK SMILES IDX 15 1 14 2 12 3 13 4 11 5 10 6 89 7 86 8 88 9 90 10 87 11
REMARK SMILES IDX 91 12 92 13 93 14 8 15 7 16 9 18 6 19 3 20 4 21 95 22 5 23
REMARK SMILES IDX 94 24 2 25 1 26 16 27 17 28 18 29 19 30 20 31 21 32 85 33
REMARK SMILES IDX 22 34 84 35 23 36 24 37 25 38 78 39 26 40 83 41 77 42 79 43
REMARK SMILES IDX 27 44 82 45 76 46 75 47 28 49 62 50 41 51 61 52 42 53 45 54
REMARK SMILES IDX 60 55 80 56 43 57 44 58 59 60 81 61 46 62 29 63 30 64 39 65
REMARK SMILES IDX 31 66 32 67 38 68 40 69 33 70 34 71 35 72 36 73 37 74 63 75
REMARK SMILES IDX 64 76 73 77 65 78 66 79 72 80 74 81 67 82 68 83 69 84 70 85
REMARK SMILES IDX 71 86 47 87 48 88 57 89 49 90 50 91 56 92 58 93 51 94 52 95
REMARK SMILES IDX 53 96 54 97 55 98
REMARK H PARENT 7 17 79 48 45 59
REMARK Flexibility Score: inf
ROOT
ATOM      1  C   UNL     1      -3.185   7.460  -3.937  1.00  0.00     0.274 C 
ENDROOT
BRANCH   1   2
ATOM      2  O   UNL     1      -2.455   6.386  -4.564  1.00  0.00    -0.462 OA
BRANCH   2   3
ATOM      3  C   UNL     1      -1.693   5.678  -3.697  1.00  0.00     0.310 C 
ATOM      4  O   UNL     1      -1.610   5.919  -2.494  1.00  0.00    -0.252 OA
BRANCH   3   5
ATOM      5  C   UNL     1      -0.891   4.552  -4.303  1.00  0.00     0.119 C 
ATOM      6  C   UNL     1       0.025   4.932  -5.434  1.00  0.00     0.101 C 
ATOM      7  C   UNL     1      -0.408   3.984  -6.581  1.00  0.00     0.029 C 
ATOM      8  C   UNL     1      -1.650   3.321  -4.811  1.00  0.00     0.030 C 
ATOM      9  C   UNL     1       0.104   2.560  -6.326  1.00  0.00     0.009 C 
ATOM     10  C   UNL     1      -1.860   3.699  -6.243  1.00  0.00    -0.064 C 
ATOM     11  C   UNL     1      -0.749   2.106  -5.123  1.00  0.00     0.009 C 
ATOM     12  C   UNL     1      -2.957   3.528  -7.002  1.00  0.00    -0.077 C 
ATOM     13  C   UNL     1      -4.215   2.869  -6.483  1.00  0.00     0.039 C 
ATOM     14  C   UNL     1      -2.984   3.813  -8.474  1.00  0.00     0.039 C 
BRANCH   6  15
ATOM     15  C   UNL     1       1.522   4.911  -5.100  1.00  0.00     0.228 C 
ATOM     16  N   UNL     1       2.251   4.135  -4.253  1.00  0.00    -0.326 N 
ATOM     17  H   UNL     1       3.200   4.328  -4.429  1.00  0.00     0.169 HD
ATOM     18  O   UNL     1       2.230   5.679  -5.782  1.00  0.00    -0.274 OA
BRANCH  16  19
ATOM     19  C   UNL     1       2.208   3.157  -3.217  1.00  0.00     0.041 A 
ATOM     20  C   UNL     1       2.511   1.139  -1.188  1.00  0.00     0.119 A 
ATOM     21  C   UNL     1       1.282   1.710  -1.450  1.00  0.00     0.048 A 
ATOM     22  C   UNL     1       3.600   1.574  -1.933  1.00  0.00     0.048 A 
ATOM     23  C   UNL     1       1.146   2.713  -2.428  1.00  0.00     0.030 A 
ATOM     24  C   UNL     1       3.451   2.566  -2.921  1.00  0.00     0.030 A 
BRANCH  20  25
ATOM     25  O   UNL     1       2.760   0.183  -0.247  1.00  0.00    -0.497 OA
ATOM     26  C   UNL     1       1.662  -0.198   0.585  1.00  0.00     0.278 C 
ENDBRANCH  20  25
ENDBRANCH  16  19
ENDBRANCH   6  15
ENDBRANCH   3   5
ENDBRANCH   2   3
ENDBRANCH   1   2
BRANCH   1  27
ATOM     27  C   UNL     1      -4.582   7.012  -3.506  1.00  0.00     0.275 C 
BRANCH  27  28
ATOM     28  O   UNL     1      -4.517   5.766  -2.788  1.00  0.00    -0.458 OA
BRANCH  28  29
ATOM     29  C   UNL     1      -5.306   4.774  -3.264  1.00  0.00     0.338 C 
ATOM     30  O   UNL     1      -6.140   4.881  -4.148  1.00  0.00    -0.246 OA
BRANCH  29  31
ATOM     31  C   UNL     1      -5.013   3.477  -2.600  1.00  0.00     0.060 A 
ATOM     32  C   UNL     1      -3.772   3.187  -2.029  1.00  0.00     0.016 A 
ATOM     33  C   UNL     1      -5.984   2.473  -2.664  1.00  0.00     0.016 A 
ATOM     34  C   UNL     1      -3.468   1.880  -1.634  1.00  0.00     0.010 A 
ATOM     35  C   UNL     1      -5.715   1.196  -2.162  1.00  0.00     0.010 A 
ATOM     36  C   UNL     1      -4.443   0.870  -1.666  1.00  0.00    -0.014 A 
BRANCH  36  37
ATOM     37  C   UNL     1      -4.171  -0.505  -1.149  1.00  0.00     0.031 A 
ATOM     38  C   UNL     1      -4.437  -1.722  -2.005  1.00  0.00     0.074 A 
ATOM     39  C   UNL     1      -3.754  -0.676   0.124  1.00  0.00     0.049 A 
ATOM     40  N   UNL     1      -4.522  -2.979  -1.648  1.00  0.00    -0.248 NA
ATOM     41  C   UNL     1      -4.650  -1.496  -3.444  1.00  0.00     0.031 C 
ATOM     42  C   UNL     1      -3.453   0.399   1.073  1.00  0.00     0.029 A 
ATOM     43  N   UNL     1      -3.541  -1.823   0.852  1.00  0.00    -0.354 N 
ATOM     44  C   UNL     1      -4.862  -3.684  -2.798  1.00  0.00     0.074 A 
ATOM     45  C   UNL     1      -4.950  -2.717  -3.871  1.00  0.00     0.031 C 
ATOM     46  C   UNL     1      -3.090  -0.134   2.248  1.00  0.00     0.029 A 
ATOM     47  C   UNL     1      -3.223  -1.583   2.169  1.00  0.00     0.049 A 
ATOM     48  H   UNL     1      -3.609  -2.727   0.468  1.00  0.00     0.167 HD
ATOM     49  C   UNL     1      -5.087  -5.013  -2.941  1.00  0.00     0.037 A 
ATOM     50  C   UNL     1      -3.118  -2.416   3.222  1.00  0.00     0.037 A 
ATOM     51  C   UNL     1      -4.932  -5.986  -1.887  1.00  0.00     0.049 A 
ATOM     52  C   UNL     1      -3.376  -3.882   3.039  1.00  0.00     0.074 A 
ATOM     53  C   UNL     1      -5.074  -7.362  -1.962  1.00  0.00     0.029 A 
ATOM     54  N   UNL     1      -4.594  -5.692  -0.576  1.00  0.00    -0.354 N 
ATOM     55  N   UNL     1      -3.720  -4.525   1.950  1.00  0.00    -0.248 NA
ATOM     56  C   UNL     1      -3.252  -4.732   4.231  1.00  0.00     0.031 C 
ATOM     57  C   UNL     1      -4.854  -7.898  -0.688  1.00  0.00     0.029 A 
ATOM     58  C   UNL     1      -4.540  -6.858   0.171  1.00  0.00     0.049 A 
ATOM     59  H   UNL     1      -4.418  -4.789  -0.227  1.00  0.00     0.167 HD
ATOM     60  C   UNL     1      -3.855  -5.856   2.327  1.00  0.00     0.074 A 
ATOM     61  C   UNL     1      -3.531  -5.930   3.736  1.00  0.00     0.031 C 
ATOM     62  C   UNL     1      -4.223  -6.920   1.573  1.00  0.00     0.037 A 
BRANCH  49  63
ATOM     63  C   UNL     1      -5.548  -5.524  -4.278  1.00  0.00     0.058 A 
ATOM     64  C   UNL     1      -4.659  -5.720  -5.344  1.00  0.00     0.135 A 
ATOM     65  C   UNL     1      -6.879  -5.943  -4.447  1.00  0.00     0.135 A 
ATOM     66  F   UNL     1      -3.380  -5.327  -5.238  1.00  0.00    -0.206 F 
ATOM     67  C   UNL     1      -5.072  -6.319  -6.531  1.00  0.00     0.059 A 
ATOM     68  C   UNL     1      -7.309  -6.559  -5.618  1.00  0.00     0.059 A 
ATOM     69  F   UNL     1      -7.769  -5.778  -3.455  1.00  0.00    -0.206 F 
ATOM     70  C   UNL     1      -6.397  -6.743  -6.656  1.00  0.00     0.060 A 
BRANCH  70  71
ATOM     71  S   UNL     1      -6.903  -7.578  -8.176  1.00  0.00     0.124 S 
ATOM     72  O   UNL     1      -6.989  -6.458  -9.108  1.00  0.00    -0.237 OA
ATOM     73  O   UNL     1      -5.802  -8.508  -8.404  1.00  0.00    -0.237 OA
ATOM     74  O   UNL     1      -8.176  -8.196  -7.817  1.00  0.00    -0.744 OA
ENDBRANCH  70  71
ENDBRANCH  49  63
BRANCH  50  75
ATOM     75  C   UNL     1      -2.823  -1.863   4.569  1.00  0.00     0.058 A 
ATOM     76  C   UNL     1      -1.579  -2.067   5.179  1.00  0.00     0.135 A 
ATOM     77  C   UNL     1      -3.779  -1.101   5.260  1.00  0.00     0.135 A 
ATOM     78  F   UNL     1      -0.638  -2.794   4.557  1.00  0.00    -0.206 F 
ATOM     79  C   UNL     1      -1.292  -1.544   6.435  1.00  0.00     0.059 A 
ATOM     80  C   UNL     1      -3.506  -0.545   6.504  1.00  0.00     0.059 A 
ATOM     81  F   UNL     1      -4.979  -0.864   4.707  1.00  0.00    -0.206 F 
ATOM     82  C   UNL     1      -2.263  -0.782   7.089  1.00  0.00     0.060 A 
BRANCH  82  83
ATOM     83  S   UNL     1      -1.870  -0.048   8.691  1.00  0.00     0.124 S 
ATOM     84  O   UNL     1      -2.119  -1.167   9.592  1.00  0.00    -0.237 OA
ATOM     85  O   UNL     1      -0.473   0.340   8.523  1.00  0.00    -0.237 OA
ATOM     86  O   UNL     1      -2.812   1.064   8.783  1.00  0.00    -0.744 OA
ENDBRANCH  82  83
ENDBRANCH  50  75
BRANCH  62  87
ATOM     87  C   UNL     1      -4.276  -8.255   2.256  1.00  0.00     0.058 A 
ATOM     88  C   UNL     1      -5.330  -8.594   3.119  1.00  0.00     0.135 A 
ATOM     89  C   UNL     1      -3.269  -9.208   2.039  1.00  0.00     0.135 A 
ATOM     90  F   UNL     1      -6.311  -7.712   3.365  1.00  0.00    -0.206 F 
ATOM     91  C   UNL     1      -5.369  -9.825   3.766  1.00  0.00     0.059 A 
ATOM     92  C   UNL     1      -3.299 -10.453   2.659  1.00  0.00     0.059 A 
ATOM     93  F   UNL     1      -2.244  -8.933   1.217  1.00  0.00    -0.206 F 
ATOM     94  C   UNL     1      -4.346 -10.745   3.534  1.00  0.00     0.060 A 
BRANCH  94  95
ATOM     95  S   UNL     1      -4.405 -12.342   4.374  1.00  0.00     0.124 S 
ATOM     96  O   UNL     1      -3.935 -11.988   5.709  1.00  0.00    -0.237 OA
ATOM     97  O   UNL     1      -5.816 -12.701   4.273  1.00  0.00    -0.237 OA
ATOM     98  O   UNL     1      -3.497 -13.171   3.587  1.00  0.00    -0.744 OA
ENDBRANCH  94  95
ENDBRANCH  62  87
ENDBRANCH  36  37
ENDBRANCH  29  31
ENDBRANCH  28  29
ENDBRANCH  27  28
ENDBRANCH   1  27
TORSDOF 17
