REMARK SMILES C[C@H]([C@@H](C)C(=O)OCCOC(=O)c1ccc(-c2c3nc(c(-c4c(F)cc(S(=O)(=O)[O-])cc4F)c4ccc([nH]4)c(-c4c(F)cc(S(=O)(=O)[O-])cc4F)c4nc(c(-c5c(F)cc(S(=O)(=O)[O-])cc5F)c5ccc2[nH]5)C=C4)C=C3)cc1)[NH+]1CCN(c2nccs2)CC1
REMARK SMILES IDX 8 1 7 2 5 3 6 4 3 5 4 6 2 7 1 8 79 9 80 10 89 11 81 13 88 14
REMARK SMILES IDX 82 15 83 16 84 17 87 18 85 19 86 20 9 21 10 22 11 23 12 24
REMARK SMILES IDX 13 25 14 26 78 27 15 28 77 29 16 30 17 31 18 32 71 33 19 34
REMARK SMILES IDX 76 35 70 36 72 37 20 38 75 39 69 40 68 41 21 43 55 44 34 45
REMARK SMILES IDX 54 46 35 47 38 48 53 49 73 50 36 51 37 52 52 54 74 55 39 56
REMARK SMILES IDX 22 57 23 58 32 59 24 60 25 61 31 62 33 63 26 64 27 65 28 66
REMARK SMILES IDX 29 67 30 68 56 69 57 70 66 71 58 72 59 73 65 74 67 75 60 76
REMARK SMILES IDX 61 77 62 78 63 79 64 80 40 81 41 82 50 83 42 84 43 85 49 86
REMARK SMILES IDX 51 87 44 88 45 89 46 90 47 91 48 92
REMARK H PARENT 79 12 72 42 38 53
REMARK Flexibility Score: inf
ROOT
ATOM      1  C   UNL     1       1.933  -0.584   3.536  1.00  0.00     0.274 C 
ENDROOT
BRANCH   1   2
ATOM      2  O   UNL     1       1.535   0.160   2.363  1.00  0.00    -0.462 OA
BRANCH   2   3
ATOM      3  C   UNL     1       2.065  -0.265   1.189  1.00  0.00     0.314 C 
ATOM      4  O   UNL     1       2.838  -1.218   1.106  1.00  0.00    -0.252 OA
BRANCH   3   5
ATOM      5  C   UNL     1       1.679   0.549  -0.052  1.00  0.00     0.154 C 
ATOM      6  C   UNL     1       2.991   1.075  -0.655  1.00  0.00     0.026 C 
BRANCH   5   7
ATOM      7  C   UNL     1       0.621   1.674   0.132  1.00  0.00     0.195 C 
ATOM      8  C   UNL     1       0.424   2.504  -1.147  1.00  0.00     0.076 C 
BRANCH   7   9
ATOM      9  N   UNL     1      -0.640   1.125   0.635  1.00  0.00    -0.329 N 
ATOM     10  C   UNL     1      -1.560   0.474  -0.306  1.00  0.00     0.284 C 
ATOM     11  C   UNL     1      -1.429   2.034   1.465  1.00  0.00     0.284 C 
ATOM     12  H   UNL     1      -0.228   0.379   1.196  1.00  0.00     0.348 HD
ATOM     13  C   UNL     1      -2.724  -0.300   0.378  1.00  0.00     0.180 C 
ATOM     14  C   UNL     1      -2.323   1.208   2.396  1.00  0.00     0.180 C 
ATOM     15  N   UNL     1      -3.110   0.155   1.731  1.00  0.00    -0.337 N 
BRANCH  15  16
ATOM     16  C   UNL     1      -3.725  -0.709   2.606  1.00  0.00     0.185 A 
ATOM     17  N   UNL     1      -3.949  -0.398   3.873  1.00  0.00    -0.229 NA
ATOM     18  S   UNL     1      -4.235  -2.326   2.211  1.00  0.00    -0.106 S 
ATOM     19  C   UNL     1      -4.422  -1.482   4.580  1.00  0.00     0.125 A 
ATOM     20  C   UNL     1      -4.596  -2.633   3.853  1.00  0.00     0.088 A 
ENDBRANCH  15  16
ENDBRANCH   7   9
ENDBRANCH   5   7
ENDBRANCH   3   5
ENDBRANCH   2   3
ENDBRANCH   1   2
BRANCH   1  21
ATOM     21  C   UNL     1       1.013  -1.762   3.896  1.00  0.00     0.275 C 
BRANCH  21  22
ATOM     22  O   UNL     1       1.024  -2.822   2.918  1.00  0.00    -0.458 OA
BRANCH  22  23
ATOM     23  C   UNL     1       0.063  -2.672   1.980  1.00  0.00     0.338 C 
ATOM     24  O   UNL     1      -0.745  -1.766   1.933  1.00  0.00    -0.246 OA
BRANCH  23  25
ATOM     25  C   UNL     1       0.097  -3.688   0.924  1.00  0.00     0.060 A 
ATOM     26  C   UNL     1       0.468  -3.277  -0.359  1.00  0.00     0.016 A 
ATOM     27  C   UNL     1      -0.433  -4.961   1.134  1.00  0.00     0.016 A 
ATOM     28  C   UNL     1       0.322  -4.140  -1.440  1.00  0.00     0.010 A 
ATOM     29  C   UNL     1      -0.560  -5.837   0.049  1.00  0.00     0.010 A 
ATOM     30  C   UNL     1      -0.183  -5.432  -1.243  1.00  0.00    -0.014 A 
BRANCH  30  31
ATOM     31  C   UNL     1      -0.224  -6.373  -2.386  1.00  0.00     0.031 A 
ATOM     32  C   UNL     1      -1.511  -6.721  -3.073  1.00  0.00     0.074 A 
ATOM     33  C   UNL     1       0.939  -6.897  -2.817  1.00  0.00     0.049 A 
ATOM     34  N   UNL     1      -1.714  -7.554  -4.061  1.00  0.00    -0.248 NA
ATOM     35  C   UNL     1      -2.725  -6.043  -2.596  1.00  0.00     0.031 C 
ATOM     36  C   UNL     1       2.255  -6.601  -2.245  1.00  0.00     0.029 A 
ATOM     37  N   UNL     1       1.205  -7.781  -3.830  1.00  0.00    -0.354 N 
ATOM     38  C   UNL     1      -3.079  -7.516  -4.319  1.00  0.00     0.074 A 
ATOM     39  C   UNL     1      -3.656  -6.577  -3.378  1.00  0.00     0.031 C 
ATOM     40  C   UNL     1       3.190  -7.287  -2.920  1.00  0.00     0.029 A 
ATOM     41  C   UNL     1       2.536  -8.103  -3.938  1.00  0.00     0.049 A 
ATOM     42  H   UNL     1       0.510  -8.149  -4.422  1.00  0.00     0.167 HD
ATOM     43  C   UNL     1      -3.778  -8.204  -5.254  1.00  0.00     0.037 A 
ATOM     44  C   UNL     1       3.160  -8.979  -4.746  1.00  0.00     0.037 A 
ATOM     45  C   UNL     1      -3.194  -9.132  -6.190  1.00  0.00     0.049 A 
ATOM     46  C   UNL     1       2.355  -9.767  -5.736  1.00  0.00     0.074 A 
ATOM     47  C   UNL     1      -3.820  -9.860  -7.188  1.00  0.00     0.029 A 
ATOM     48  N   UNL     1      -1.848  -9.466  -6.241  1.00  0.00    -0.354 N 
ATOM     49  N   UNL     1       1.065  -9.721  -5.965  1.00  0.00    -0.248 NA
ATOM     50  C   UNL     1       3.085 -10.730  -6.569  1.00  0.00     0.031 C 
ATOM     51  C   UNL     1      -2.859 -10.660  -7.819  1.00  0.00     0.029 A 
ATOM     52  C   UNL     1      -1.628 -10.406  -7.237  1.00  0.00     0.049 A 
ATOM     53  H   UNL     1      -1.151  -9.091  -5.656  1.00  0.00     0.167 HD
ATOM     54  C   UNL     1       0.828 -10.645  -6.974  1.00  0.00     0.074 A 
ATOM     55  C   UNL     1       2.111 -11.224  -7.321  1.00  0.00     0.031 C 
ATOM     56  C   UNL     1      -0.347 -10.982  -7.560  1.00  0.00     0.037 A 
BRANCH  43  57
ATOM     57  C   UNL     1      -5.267  -8.003  -5.298  1.00  0.00     0.058 A 
ATOM     58  C   UNL     1      -5.840  -6.858  -5.871  1.00  0.00     0.135 A 
ATOM     59  C   UNL     1      -6.131  -8.993  -4.804  1.00  0.00     0.135 A 
ATOM     60  F   UNL     1      -5.058  -5.877  -6.348  1.00  0.00    -0.206 F 
ATOM     61  C   UNL     1      -7.221  -6.693  -5.938  1.00  0.00     0.059 A 
ATOM     62  C   UNL     1      -7.514  -8.857  -4.874  1.00  0.00     0.059 A 
ATOM     63  F   UNL     1      -5.632 -10.107  -4.246  1.00  0.00    -0.206 F 
ATOM     64  C   UNL     1      -8.050  -7.697  -5.433  1.00  0.00     0.060 A 
BRANCH  64  65
ATOM     65  S   UNL     1      -9.841  -7.477  -5.527  1.00  0.00     0.124 S 
ATOM     66  O   UNL     1     -10.076  -6.545  -4.428  1.00  0.00    -0.237 OA
ATOM     67  O   UNL     1     -10.022  -6.931  -6.869  1.00  0.00    -0.237 OA
ATOM     68  O   UNL     1     -10.359  -8.827  -5.329  1.00  0.00    -0.744 OA
ENDBRANCH  64  65
ENDBRANCH  43  57
BRANCH  44  69
ATOM     69  C   UNL     1       4.627  -9.165  -4.622  1.00  0.00     0.058 A 
ATOM     70  C   UNL     1       5.504  -8.646  -5.583  1.00  0.00     0.135 A 
ATOM     71  C   UNL     1       5.178  -9.817  -3.508  1.00  0.00     0.135 A 
ATOM     72  F   UNL     1       5.019  -8.019  -6.665  1.00  0.00    -0.206 F 
ATOM     73  C   UNL     1       6.882  -8.764  -5.444  1.00  0.00     0.059 A 
ATOM     74  C   UNL     1       6.553  -9.930  -3.338  1.00  0.00     0.059 A 
ATOM     75  F   UNL     1       4.376 -10.317  -2.555  1.00  0.00    -0.206 F 
ATOM     76  C   UNL     1       7.397  -9.404  -4.314  1.00  0.00     0.060 A 
BRANCH  76  77
ATOM     77  S   UNL     1       9.188  -9.486  -4.097  1.00  0.00     0.124 S 
ATOM     78  O   UNL     1       9.538 -10.600  -4.970  1.00  0.00    -0.237 OA
ATOM     79  O   UNL     1       9.618  -8.165  -4.546  1.00  0.00    -0.237 OA
ATOM     80  O   UNL     1       9.338  -9.730  -2.666  1.00  0.00    -0.744 OA
ENDBRANCH  76  77
ENDBRANCH  44  69
BRANCH  56  81
ATOM     81  C   UNL     1      -0.292 -12.022  -8.641  1.00  0.00     0.058 A 
ATOM     82  C   UNL     1      -0.154 -13.385  -8.337  1.00  0.00     0.135 A 
ATOM     83  C   UNL     1      -0.396 -11.655  -9.992  1.00  0.00     0.135 A 
ATOM     84  F   UNL     1      -0.041 -13.784  -7.060  1.00  0.00    -0.206 F 
ATOM     85  C   UNL     1      -0.100 -14.349  -9.338  1.00  0.00     0.059 A 
ATOM     86  C   UNL     1      -0.361 -12.604 -11.008  1.00  0.00     0.059 A 
ATOM     87  F   UNL     1      -0.533 -10.364 -10.332  1.00  0.00    -0.206 F 
ATOM     88  C   UNL     1      -0.200 -13.948 -10.672  1.00  0.00     0.060 A 
BRANCH  88  89
ATOM     89  S   UNL     1      -0.146 -15.206 -11.966  1.00  0.00     0.124 S 
ATOM     90  O   UNL     1       1.286 -15.464 -12.065  1.00  0.00    -0.237 OA
ATOM     91  O   UNL     1      -0.947 -16.284 -11.395  1.00  0.00    -0.237 OA
ATOM     92  O   UNL     1      -0.745 -14.532 -13.115  1.00  0.00    -0.744 OA
ENDBRANCH  88  89
ENDBRANCH  56  81
ENDBRANCH  30  31
ENDBRANCH  23  25
ENDBRANCH  22  23
ENDBRANCH  21  22
ENDBRANCH   1  21
TORSDOF 17
