REMARK SMILES CCCOc1ccc(-c2nc(C#N)c(N3CCC(C(=O)OCCOC(=O)c4ccc(-c5c6nc(c(-c7c(F)cc(S(=O)(=O)[O-])cc7F)c7ccc([nH]7)c(-c7c(F)cc(S(=O)(=O)[O-])cc7F)c7nc(c(-c8c(F)cc(S(=O)(=O)[O-])cc8F)c8ccc5[nH]8)C=C7)C=C6)cc4)CC3)o2)cc1
REMARK SMILES IDX 22 1 21 2 19 3 20 4 18 5 15 6 16 7 94 8 17 9 93 10 14 11
REMARK SMILES IDX 9 12 10 13 95 14 11 15 8 16 5 17 6 18 97 19 7 20 96 21 4 22
REMARK SMILES IDX 3 23 2 24 1 25 12 26 13 27 23 28 24 29 25 30 26 31 27 32
REMARK SMILES IDX 28 33 92 34 29 35 91 36 30 37 31 38 32 39 85 40 33 41 90 42
REMARK SMILES IDX 84 43 86 44 34 45 89 46 83 47 82 48 35 50 69 51 48 52 68 53
REMARK SMILES IDX 49 54 52 55 67 56 87 57 50 58 51 59 66 61 88 62 53 63 36 64
REMARK SMILES IDX 37 65 46 66 38 67 39 68 45 69 47 70 40 71 41 72 42 73 43 74
REMARK SMILES IDX 44 75 70 76 71 77 80 78 72 79 73 80 79 81 81 82 74 83 75 84
REMARK SMILES IDX 76 85 77 86 78 87 54 88 55 89 64 90 56 91 57 92 63 93 65 94
REMARK SMILES IDX 58 95 59 96 60 97 61 98 62 99
REMARK H PARENT 86 49 52 60
REMARK Flexibility Score: inf
ROOT
ATOM      1  C   UNL     1       0.702  11.681   7.732  1.00  0.00     0.274 C 
ENDROOT
BRANCH   1   2
ATOM      2  O   UNL     1       0.594  10.616   6.771  1.00  0.00    -0.462 OA
BRANCH   2   3
ATOM      3  C   UNL     1      -0.658  10.354   6.313  1.00  0.00     0.309 C 
ATOM      4  O   UNL     1      -1.688  10.833   6.778  1.00  0.00    -0.252 OA
BRANCH   3   5
ATOM      5  C   UNL     1      -0.682   9.318   5.210  1.00  0.00     0.103 C 
ATOM      6  N   UNL     1       0.262   6.899   4.084  1.00  0.00    -0.340 N 
ATOM      7  C   UNL     1       0.546   8.109   3.336  1.00  0.00     0.120 C 
ATOM      8  C   UNL     1      -0.972   6.861   4.848  1.00  0.00     0.120 C 
ATOM      9  C   UNL     1       0.540   9.308   4.274  1.00  0.00     0.037 C 
ATOM     10  C   UNL     1      -0.898   7.965   5.888  1.00  0.00     0.037 C 
BRANCH   6  11
ATOM     11  C   UNL     1       1.100   5.848   4.115  1.00  0.00     0.235 A 
ATOM     12  C   UNL     1       1.565   3.750   3.922  1.00  0.00     0.230 A 
ATOM     13  N   UNL     1       2.715   4.268   4.306  1.00  0.00    -0.196 NA
ATOM     14  O   UNL     1       0.539   4.643   3.829  1.00  0.00    -0.419 OA
ATOM     15  C   UNL     1       2.432   5.620   4.391  1.00  0.00     0.204 A 
BRANCH  12  16
ATOM     16  C   UNL     1       1.212   2.398   3.533  1.00  0.00     0.037 A 
ATOM     17  C   UNL     1       0.574  -0.174   2.653  1.00  0.00     0.119 A 
ATOM     18  C   UNL     1       1.337  -0.010   3.809  1.00  0.00     0.047 A 
ATOM     19  C   UNL     1       0.045   0.930   1.998  1.00  0.00     0.047 A 
ATOM     20  C   UNL     1       1.661   1.281   4.247  1.00  0.00     0.017 A 
ATOM     21  C   UNL     1       0.390   2.209   2.413  1.00  0.00     0.017 A 
BRANCH  17  22
ATOM     22  O   UNL     1       0.269  -1.424   2.195  1.00  0.00    -0.494 OA
BRANCH  22  23
ATOM     23  C   UNL     1       1.127  -1.829   1.113  1.00  0.00     0.229 C 
BRANCH  23  24
ATOM     24  C   UNL     1       0.655  -1.351  -0.269  1.00  0.00     0.038 C 
ATOM     25  C   UNL     1       1.462  -0.177  -0.820  1.00  0.00     0.007 C 
ENDBRANCH  23  24
ENDBRANCH  22  23
ENDBRANCH  17  22
ENDBRANCH  12  16
BRANCH  15  26
ATOM     26  C   UNL     1       3.396   6.567   4.823  1.00  0.00     0.125 C 
ATOM     27  N   UNL     1       4.185   7.345   5.203  1.00  0.00    -0.190 NA
ENDBRANCH  15  26
ENDBRANCH   6  11
ENDBRANCH   3   5
ENDBRANCH   2   3
ENDBRANCH   1   2
BRANCH   1  28
ATOM     28  C   UNL     1       0.889  13.034   7.058  1.00  0.00     0.275 C 
BRANCH  28  29
ATOM     29  O   UNL     1      -0.278  13.422   6.333  1.00  0.00    -0.458 OA
BRANCH  29  30
ATOM     30  C   UNL     1      -0.261  13.057   5.033  1.00  0.00     0.338 C 
ATOM     31  O   UNL     1       0.503  12.263   4.510  1.00  0.00    -0.246 OA
BRANCH  30  32
ATOM     32  C   UNL     1      -1.123  13.930   4.242  1.00  0.00     0.060 A 
ATOM     33  C   UNL     1      -1.260  13.620   2.884  1.00  0.00     0.016 A 
ATOM     34  C   UNL     1      -1.406  15.200   4.752  1.00  0.00     0.016 A 
ATOM     35  C   UNL     1      -1.439  14.661   2.001  1.00  0.00     0.010 A 
ATOM     36  C   UNL     1      -1.574  16.234   3.869  1.00  0.00     0.010 A 
ATOM     37  C   UNL     1      -1.485  15.967   2.506  1.00  0.00    -0.014 A 
BRANCH  37  38
ATOM     38  C   UNL     1      -1.643  17.073   1.585  1.00  0.00     0.031 A 
ATOM     39  C   UNL     1      -3.028  17.099   1.068  1.00  0.00     0.074 A 
ATOM     40  C   UNL     1      -0.690  18.002   1.365  1.00  0.00     0.049 A 
ATOM     41  N   UNL     1      -3.436  16.628  -0.063  1.00  0.00    -0.248 NA
ATOM     42  C   UNL     1      -4.120  17.385   2.016  1.00  0.00     0.031 C 
ATOM     43  C   UNL     1       0.606  18.157   2.037  1.00  0.00     0.029 A 
ATOM     44  N   UNL     1      -0.714  19.069   0.516  1.00  0.00    -0.354 N 
ATOM     45  C   UNL     1      -4.804  16.870  -0.076  1.00  0.00     0.074 A 
ATOM     46  C   UNL     1      -5.188  17.036   1.296  1.00  0.00     0.031 C 
ATOM     47  C   UNL     1       1.136  19.366   1.731  1.00  0.00     0.029 A 
ATOM     48  C   UNL     1       0.300  20.007   0.730  1.00  0.00     0.049 A 
ATOM     49  H   UNL     1      -1.392  19.170  -0.191  1.00  0.00     0.167 HD
ATOM     50  C   UNL     1      -5.405  17.296  -1.221  1.00  0.00     0.037 A 
ATOM     51  C   UNL     1       0.413  21.218   0.118  1.00  0.00     0.037 A 
ATOM     52  C   UNL     1      -4.517  17.104  -2.343  1.00  0.00     0.049 A 
ATOM     53  C   UNL     1      -0.367  21.121  -1.139  1.00  0.00     0.074 A 
ATOM     54  C   UNL     1      -4.021  16.030  -3.050  1.00  0.00     0.029 A 
ATOM     55  N   UNL     1      -3.672  18.164  -2.559  1.00  0.00    -0.354 N 
ATOM     56  N   UNL     1      -0.033  20.330  -2.123  1.00  0.00    -0.248 NA
ATOM     57  C   UNL     1      -1.756  21.562  -1.140  1.00  0.00     0.031 C 
ATOM     58  C   UNL     1      -2.731  16.430  -3.513  1.00  0.00     0.029 A 
ATOM     59  C   UNL     1      -2.505  17.756  -3.142  1.00  0.00     0.049 A 
ATOM     60  H   UNL     1      -3.880  19.097  -2.325  1.00  0.00     0.167 HD
ATOM     61  C   UNL     1      -1.235  19.837  -2.601  1.00  0.00     0.074 A 
ATOM     62  C   UNL     1      -2.254  20.739  -2.068  1.00  0.00     0.031 C 
ATOM     63  C   UNL     1      -1.309  18.573  -3.112  1.00  0.00     0.037 A 
BRANCH  50  64
ATOM     64  C   UNL     1      -6.505  18.342  -1.271  1.00  0.00     0.058 A 
ATOM     65  C   UNL     1      -7.086  18.650  -2.520  1.00  0.00     0.135 A 
ATOM     66  C   UNL     1      -6.809  19.249  -0.229  1.00  0.00     0.135 A 
ATOM     67  F   UNL     1      -6.863  17.868  -3.588  1.00  0.00    -0.206 F 
ATOM     68  C   UNL     1      -7.852  19.799  -2.729  1.00  0.00     0.059 A 
ATOM     69  C   UNL     1      -7.609  20.371  -0.404  1.00  0.00     0.059 A 
ATOM     70  F   UNL     1      -6.278  19.158   0.994  1.00  0.00    -0.206 F 
ATOM     71  C   UNL     1      -8.101  20.658  -1.663  1.00  0.00     0.060 A 
BRANCH  71  72
ATOM     72  S   UNL     1      -9.044  22.166  -1.934  1.00  0.00     0.124 S 
ATOM     73  O   UNL     1      -8.139  22.930  -2.783  1.00  0.00    -0.237 OA
ATOM     74  O   UNL     1     -10.249  21.652  -2.577  1.00  0.00    -0.237 OA
ATOM     75  O   UNL     1      -9.237  22.688  -0.584  1.00  0.00    -0.744 OA
ENDBRANCH  71  72
ENDBRANCH  50  64
BRANCH  51  76
ATOM     76  C   UNL     1       0.863  22.528   0.670  1.00  0.00     0.058 A 
ATOM     77  C   UNL     1       1.216  23.614  -0.158  1.00  0.00     0.135 A 
ATOM     78  C   UNL     1       0.656  22.836   2.028  1.00  0.00     0.135 A 
ATOM     79  F   UNL     1       1.402  23.424  -1.473  1.00  0.00    -0.206 F 
ATOM     80  C   UNL     1       1.323  24.928   0.326  1.00  0.00     0.059 A 
ATOM     81  C   UNL     1       0.754  24.135   2.533  1.00  0.00     0.059 A 
ATOM     82  F   UNL     1       0.258  21.886   2.888  1.00  0.00    -0.206 F 
ATOM     83  C   UNL     1       1.071  25.182   1.674  1.00  0.00     0.060 A 
BRANCH  83  84
ATOM     84  S   UNL     1       1.064  26.890   2.282  1.00  0.00     0.124 S 
ATOM     85  O   UNL     1       2.472  27.257   2.177  1.00  0.00    -0.237 OA
ATOM     86  O   UNL     1       0.163  27.552   1.345  1.00  0.00    -0.237 OA
ATOM     87  O   UNL     1       0.555  26.763   3.646  1.00  0.00    -0.744 OA
ENDBRANCH  83  84
ENDBRANCH  51  76
BRANCH  63  88
ATOM     88  C   UNL     1      -0.027  17.933  -3.572  1.00  0.00     0.058 A 
ATOM     89  C   UNL     1       1.009  17.492  -2.731  1.00  0.00     0.135 A 
ATOM     90  C   UNL     1       0.094  17.658  -4.941  1.00  0.00     0.135 A 
ATOM     91  F   UNL     1       0.929  17.645  -1.401  1.00  0.00    -0.206 F 
ATOM     92  C   UNL     1       2.132  16.831  -3.238  1.00  0.00     0.059 A 
ATOM     93  C   UNL     1       1.186  16.977  -5.463  1.00  0.00     0.059 A 
ATOM     94  F   UNL     1      -0.889  18.010  -5.785  1.00  0.00    -0.206 F 
ATOM     95  C   UNL     1       2.209  16.577  -4.608  1.00  0.00     0.060 A 
BRANCH  95  96
ATOM     96  S   UNL     1       3.625  15.669  -5.266  1.00  0.00     0.124 S 
ATOM     97  O   UNL     1       4.706  16.638  -5.122  1.00  0.00    -0.237 OA
ATOM     98  O   UNL     1       3.692  14.507  -4.385  1.00  0.00    -0.237 OA
ATOM     99  O   UNL     1       3.232  15.374  -6.642  1.00  0.00    -0.744 OA
ENDBRANCH  95  96
ENDBRANCH  63  88
ENDBRANCH  37  38
ENDBRANCH  30  32
ENDBRANCH  29  30
ENDBRANCH  28  29
ENDBRANCH   1  28
TORSDOF 20
