REMARK SMILES C=CC[N@@H+](CC(=O)OCCOC(=O)c1ccc(-c2c3nc(c(-c4c(F)cc(S(=O)(=O)[O-])cc4F)c4ccc([nH]4)c(-c4c(F)cc(S(=O)(=O)[O-])cc4F)c4nc(c(-c5c(F)cc(S(=O)(=O)[O-])cc5F)c5ccc2[nH]5)C=C4)C=C3)cc1)C1CCCCC1
REMARK SMILES IDX 9 1 8 2 6 3 7 4 5 5 4 6 3 8 2 9 1 10 80 11 81 12 85 13 82 14
REMARK SMILES IDX 84 15 83 16 10 17 11 18 12 19 13 20 14 21 15 22 79 23 16 24
REMARK SMILES IDX 78 25 17 26 18 27 19 28 72 29 20 30 77 31 71 32 73 33 21 34
REMARK SMILES IDX 76 35 70 36 69 37 22 39 56 40 35 41 55 42 36 43 39 44 54 45
REMARK SMILES IDX 74 46 37 47 38 48 53 50 75 51 40 52 23 53 24 54 33 55 25 56
REMARK SMILES IDX 26 57 32 58 34 59 27 60 28 61 29 62 30 63 31 64 57 65 58 66
REMARK SMILES IDX 67 67 59 68 60 69 66 70 68 71 61 72 62 73 63 74 64 75 65 76
REMARK SMILES IDX 41 77 42 78 51 79 43 80 44 81 50 82 52 83 45 84 46 85 47 86
REMARK SMILES IDX 48 87 49 88
REMARK H PARENT 4 7 73 38 39 49
REMARK Flexibility Score: inf
ROOT
ATOM      1  C   UNL     1      -4.041  -1.411  -0.905  1.00  0.00     0.274 C 
ENDROOT
BRANCH   1   2
ATOM      2  O   UNL     1      -3.203  -0.837   0.107  1.00  0.00    -0.458 OA
BRANCH   2   3
ATOM      3  C   UNL     1      -3.594   0.331   0.671  1.00  0.00     0.361 C 
ATOM      4  O   UNL     1      -4.507   1.032   0.250  1.00  0.00    -0.245 OA
BRANCH   3   5
ATOM      5  C   UNL     1      -2.800   0.653   1.943  1.00  0.00     0.387 C 
BRANCH   5   6
ATOM      6  N   UNL     1      -1.337   0.404   1.921  1.00  0.00    -0.320 N 
ATOM      7  H   UNL     1      -0.982   1.009   2.661  1.00  0.00     0.349 HD
BRANCH   6   8
ATOM      8  C   UNL     1      -0.729   0.856   0.667  1.00  0.00     0.291 C 
BRANCH   8   9
ATOM      9  C   UNL     1       0.768   0.930   0.720  1.00  0.00     0.025 C 
ATOM     10  C   UNL     1       1.575   0.213  -0.074  1.00  0.00     0.010 C 
ENDBRANCH   8   9
ENDBRANCH   6   8
BRANCH   6  11
ATOM     11  C   UNL     1      -0.835  -0.882   2.456  1.00  0.00     0.184 C 
ATOM     12  C   UNL     1      -1.244  -1.127   3.926  1.00  0.00     0.065 C 
ATOM     13  C   UNL     1      -1.143  -2.130   1.618  1.00  0.00     0.065 C 
ATOM     14  C   UNL     1      -0.606  -2.399   4.495  1.00  0.00     0.006 C 
ATOM     15  C   UNL     1      -0.475  -3.384   2.175  1.00  0.00     0.006 C 
ATOM     16  C   UNL     1      -0.871  -3.624   3.625  1.00  0.00     0.000 C 
ENDBRANCH   6  11
ENDBRANCH   5   6
ENDBRANCH   3   5
ENDBRANCH   2   3
ENDBRANCH   1   2
BRANCH   1  17
ATOM     17  C   UNL     1      -3.974  -2.939  -0.759  1.00  0.00     0.275 C 
BRANCH  17  18
ATOM     18  O   UNL     1      -4.139  -3.461   0.583  1.00  0.00    -0.458 OA
BRANCH  18  19
ATOM     19  C   UNL     1      -5.097  -2.915   1.365  1.00  0.00     0.338 C 
ATOM     20  O   UNL     1      -5.946  -2.112   1.033  1.00  0.00    -0.246 OA
BRANCH  19  21
ATOM     21  C   UNL     1      -4.882  -3.310   2.772  1.00  0.00     0.060 A 
ATOM     22  C   UNL     1      -4.855  -2.292   3.728  1.00  0.00     0.016 A 
ATOM     23  C   UNL     1      -4.797  -4.647   3.166  1.00  0.00     0.016 A 
ATOM     24  C   UNL     1      -4.755  -2.606   5.080  1.00  0.00     0.010 A 
ATOM     25  C   UNL     1      -4.787  -4.964   4.532  1.00  0.00     0.010 A 
ATOM     26  C   UNL     1      -4.804  -3.945   5.500  1.00  0.00    -0.014 A 
BRANCH  26  27
ATOM     27  C   UNL     1      -5.077  -4.233   6.935  1.00  0.00     0.031 A 
ATOM     28  C   UNL     1      -4.072  -4.912   7.818  1.00  0.00     0.074 A 
ATOM     29  C   UNL     1      -6.270  -3.849   7.436  1.00  0.00     0.049 A 
ATOM     30  N   UNL     1      -4.181  -5.244   9.079  1.00  0.00    -0.248 NA
ATOM     31  C   UNL     1      -2.780  -5.263   7.213  1.00  0.00     0.031 C 
ATOM     32  C   UNL     1      -7.324  -3.174   6.668  1.00  0.00     0.029 A 
ATOM     33  N   UNL     1      -6.799  -3.946   8.698  1.00  0.00    -0.354 N 
ATOM     34  C   UNL     1      -2.980  -5.853   9.422  1.00  0.00     0.074 A 
ATOM     35  C   UNL     1      -2.161  -5.858   8.226  1.00  0.00     0.031 C 
ATOM     36  C   UNL     1      -8.347  -2.879   7.482  1.00  0.00     0.029 A 
ATOM     37  C   UNL     1      -8.063  -3.411   8.808  1.00  0.00     0.049 A 
ATOM     38  H   UNL     1      -6.321  -4.358   9.453  1.00  0.00     0.167 HD
ATOM     39  C   UNL     1      -2.603  -6.357  10.623  1.00  0.00     0.037 A 
ATOM     40  C   UNL     1      -8.917  -3.375   9.848  1.00  0.00     0.037 A 
ATOM     41  C   UNL     1      -3.435  -6.346  11.804  1.00  0.00     0.049 A 
ATOM     42  C   UNL     1      -8.489  -3.982  11.152  1.00  0.00     0.074 A 
ATOM     43  C   UNL     1      -3.143  -6.829  13.069  1.00  0.00     0.029 A 
ATOM     44  N   UNL     1      -4.724  -5.831  11.867  1.00  0.00    -0.354 N 
ATOM     45  N   UNL     1      -7.349  -4.556  11.456  1.00  0.00    -0.248 NA
ATOM     46  C   UNL     1      -9.460  -3.944  12.251  1.00  0.00     0.031 C 
ATOM     47  C   UNL     1      -4.270  -6.652  13.880  1.00  0.00     0.029 A 
ATOM     48  C   UNL     1      -5.246  -6.005  13.140  1.00  0.00     0.049 A 
ATOM     49  H   UNL     1      -5.198  -5.404  11.117  1.00  0.00     0.167 HD
ATOM     50  C   UNL     1      -7.458  -4.933  12.788  1.00  0.00     0.074 A 
ATOM     51  C   UNL     1      -8.769  -4.503  13.235  1.00  0.00     0.031 C 
ATOM     52  C   UNL     1      -6.556  -5.577  13.569  1.00  0.00     0.037 A 
BRANCH  39  53
ATOM     53  C   UNL     1      -1.244  -7.000  10.719  1.00  0.00     0.058 A 
ATOM     54  C   UNL     1      -0.060  -6.246  10.686  1.00  0.00     0.135 A 
ATOM     55  C   UNL     1      -1.126  -8.390  10.889  1.00  0.00     0.135 A 
ATOM     56  F   UNL     1      -0.110  -4.916  10.514  1.00  0.00    -0.206 F 
ATOM     57  C   UNL     1       1.191  -6.849  10.792  1.00  0.00     0.059 A 
ATOM     58  C   UNL     1       0.113  -9.011  11.022  1.00  0.00     0.059 A 
ATOM     59  F   UNL     1      -2.224  -9.161  10.929  1.00  0.00    -0.206 F 
ATOM     60  C   UNL     1       1.268  -8.233  10.957  1.00  0.00     0.060 A 
BRANCH  60  61
ATOM     61  S   UNL     1       2.897  -9.000  11.088  1.00  0.00     0.124 S 
ATOM     62  O   UNL     1       3.383  -8.886   9.716  1.00  0.00    -0.237 OA
ATOM     63  O   UNL     1       3.566  -8.151  12.068  1.00  0.00    -0.237 OA
ATOM     64  O   UNL     1       2.601 -10.357  11.536  1.00  0.00    -0.744 OA
ENDBRANCH  60  61
ENDBRANCH  39  53
BRANCH  40  65
ATOM     65  C   UNL     1     -10.265  -2.768   9.680  1.00  0.00     0.058 A 
ATOM     66  C   UNL     1     -10.615  -1.576  10.332  1.00  0.00     0.135 A 
ATOM     67  C   UNL     1     -11.224  -3.357   8.840  1.00  0.00     0.135 A 
ATOM     68  F   UNL     1      -9.738  -0.977  11.151  1.00  0.00    -0.206 F 
ATOM     69  C   UNL     1     -11.870  -0.997  10.167  1.00  0.00     0.059 A 
ATOM     70  C   UNL     1     -12.473  -2.781   8.634  1.00  0.00     0.059 A 
ATOM     71  F   UNL     1     -10.935  -4.490   8.180  1.00  0.00    -0.206 F 
ATOM     72  C   UNL     1     -12.791  -1.606   9.312  1.00  0.00     0.060 A 
BRANCH  72  73
ATOM     73  S   UNL     1     -14.399  -0.822   9.065  1.00  0.00     0.124 S 
ATOM     74  O   UNL     1     -15.065  -1.115  10.329  1.00  0.00    -0.237 OA
ATOM     75  O   UNL     1     -14.031   0.573   8.845  1.00  0.00    -0.237 OA
ATOM     76  O   UNL     1     -14.933  -1.514   7.895  1.00  0.00    -0.744 OA
ENDBRANCH  72  73
ENDBRANCH  40  65
BRANCH  52  77
ATOM     77  C   UNL     1      -6.950  -5.822  15.000  1.00  0.00     0.058 A 
ATOM     78  C   UNL     1      -7.928  -6.767  15.347  1.00  0.00     0.135 A 
ATOM     79  C   UNL     1      -6.332  -5.106  16.038  1.00  0.00     0.135 A 
ATOM     80  F   UNL     1      -8.557  -7.472  14.392  1.00  0.00    -0.206 F 
ATOM     81  C   UNL     1      -8.307  -6.968  16.670  1.00  0.00     0.059 A 
ATOM     82  C   UNL     1      -6.674  -5.312  17.370  1.00  0.00     0.059 A 
ATOM     83  F   UNL     1      -5.384  -4.197  15.762  1.00  0.00    -0.206 F 
ATOM     84  C   UNL     1      -7.676  -6.232  17.675  1.00  0.00     0.060 A 
BRANCH  84  85
ATOM     85  S   UNL     1      -8.171  -6.504  19.390  1.00  0.00     0.124 S 
ATOM     86  O   UNL     1      -9.461  -5.823  19.434  1.00  0.00    -0.237 OA
ATOM     87  O   UNL     1      -8.221  -7.961  19.474  1.00  0.00    -0.237 OA
ATOM     88  O   UNL     1      -7.101  -5.875  20.156  1.00  0.00    -0.744 OA
ENDBRANCH  84  85
ENDBRANCH  52  77
ENDBRANCH  26  27
ENDBRANCH  19  21
ENDBRANCH  18  19
ENDBRANCH  17  18
ENDBRANCH   1  17
TORSDOF 18
