REMARK SMILES O=C(CC1CC[NH+](C[C@H]2Cc3ccccc3O2)CC1)OCCOC(=O)c1ccc(-c2c3nc(c(-c4c(F)cc(S(=O)(=O)[O-])cc4F)c4ccc([nH]4)c(-c4c(F)cc(S(=O)(=O)[O-])cc4F)c4nc(c(-c5c(F)cc(S(=O)(=O)[O-])cc5F)c5ccc2[nH]5)C=C4)C=C3)cc1
REMARK SMILES IDX 21 1 20 2 2 3 1 4 3 5 4 6 5 7 19 8 6 9 18 10 7 11 8 13 9 14
REMARK SMILES IDX 10 15 17 16 11 17 16 18 12 19 15 20 13 21 14 22 22 23 23 24
REMARK SMILES IDX 24 25 25 26 26 27 27 28 91 29 28 30 90 31 29 32 30 33 31 34
REMARK SMILES IDX 84 35 32 36 89 37 83 38 85 39 33 40 88 41 82 42 81 43 34 45
REMARK SMILES IDX 68 46 47 47 67 48 48 49 51 50 66 51 86 52 49 53 50 54 65 56
REMARK SMILES IDX 87 57 52 58 35 59 36 60 45 61 37 62 38 63 44 64 46 65 39 66
REMARK SMILES IDX 40 67 41 68 42 69 43 70 69 71 70 72 79 73 71 74 72 75 78 76
REMARK SMILES IDX 80 77 73 78 74 79 75 80 76 81 77 82 53 83 54 84 63 85 55 86
REMARK SMILES IDX 56 87 62 88 64 89 57 90 58 91 59 92 60 93 61 94
REMARK H PARENT 7 12 85 44 51 55
REMARK Flexibility Score: inf
ROOT
ATOM      1  C   UNL     1       4.266  -1.122   1.055  1.00  0.00     0.274 C 
ENDROOT
BRANCH   1   2
ATOM      2  O   UNL     1       3.013  -0.524   1.403  1.00  0.00    -0.462 OA
BRANCH   2   3
ATOM      3  C   UNL     1       2.793   0.805   1.525  1.00  0.00     0.306 C 
ATOM      4  O   UNL     1       1.910   1.191   2.292  1.00  0.00    -0.252 OA
BRANCH   3   5
ATOM      5  C   UNL     1       3.473   1.796   0.587  1.00  0.00     0.126 C 
BRANCH   5   6
ATOM      6  C   UNL     1       4.742   2.560   1.002  1.00  0.00     0.011 C 
ATOM      7  C   UNL     1       4.786   3.941   0.297  1.00  0.00     0.066 C 
ATOM      8  C   UNL     1       6.083   1.892   0.659  1.00  0.00     0.066 C 
ATOM      9  C   UNL     1       5.158   3.858  -1.202  1.00  0.00     0.262 C 
ATOM     10  C   UNL     1       6.319   1.737  -0.839  1.00  0.00     0.262 C 
ATOM     11  N   UNL     1       6.349   3.031  -1.485  1.00  0.00    -0.332 N 
ATOM     12  H   UNL     1       7.093   3.578  -1.051  1.00  0.00     0.348 HD
BRANCH  11  13
ATOM     13  C   UNL     1       6.763   2.930  -2.908  1.00  0.00     0.308 C 
BRANCH  13  14
ATOM     14  C   UNL     1       5.925   2.193  -3.997  1.00  0.00     0.232 C 
ATOM     15  C   UNL     1       5.763   0.596  -4.080  1.00  0.00     0.090 C 
ATOM     16  O   UNL     1       4.668   2.876  -3.950  1.00  0.00    -0.484 OA
ATOM     17  C   UNL     1       4.307   0.357  -3.793  1.00  0.00    -0.002 A 
ATOM     18  C   UNL     1       3.819   1.935  -3.424  1.00  0.00     0.123 A 
ATOM     19  C   UNL     1       3.159  -0.966  -4.147  1.00  0.00     0.007 A 
ATOM     20  C   UNL     1       2.138   2.344  -3.340  1.00  0.00     0.047 A 
ATOM     21  C   UNL     1       1.373  -0.721  -4.155  1.00  0.00     0.001 A 
ATOM     22  C   UNL     1       0.746   0.949  -3.776  1.00  0.00     0.004 A 
ENDBRANCH  13  14
ENDBRANCH  11  13
ENDBRANCH   5   6
ENDBRANCH   3   5
ENDBRANCH   2   3
ENDBRANCH   1   2
BRANCH   1  23
ATOM     23  C   UNL     1       4.381  -1.561  -0.403  1.00  0.00     0.275 C 
BRANCH  23  24
ATOM     24  O   UNL     1       3.957  -0.560  -1.335  1.00  0.00    -0.458 OA
BRANCH  24  25
ATOM     25  C   UNL     1       2.654  -0.606  -1.722  1.00  0.00     0.338 C 
ATOM     26  O   UNL     1       1.831  -1.390  -1.269  1.00  0.00    -0.246 OA
BRANCH  25  27
ATOM     27  C   UNL     1       2.257   0.559  -2.693  1.00  0.00     0.060 A 
ATOM     28  C   UNL     1       1.038   1.501  -1.731  1.00  0.00     0.016 A 
ATOM     29  C   UNL     1       2.396   1.020  -4.666  1.00  0.00     0.016 A 
ATOM     30  C   UNL     1       0.111   2.779  -2.530  1.00  0.00     0.010 A 
ATOM     31  C   UNL     1       1.402   2.345  -5.325  1.00  0.00     0.010 A 
ATOM     32  C   UNL     1       0.318   3.220  -4.237  1.00  0.00    -0.014 A 
BRANCH  32  33
ATOM     33  C   UNL     1       0.039   4.618  -4.752  1.00  0.00     0.031 A 
ATOM     34  C   UNL     1      -0.446   4.702  -6.178  1.00  0.00     0.074 A 
ATOM     35  C   UNL     1       0.535   5.734  -4.153  1.00  0.00     0.049 A 
ATOM     36  N   UNL     1      -0.416   5.707  -7.011  1.00  0.00    -0.248 NA
ATOM     37  C   UNL     1      -0.917   3.438  -6.776  1.00  0.00     0.031 C 
ATOM     38  C   UNL     1       1.192   5.825  -2.841  1.00  0.00     0.029 A 
ATOM     39  N   UNL     1       0.628   7.036  -4.618  1.00  0.00    -0.354 N 
ATOM     40  C   UNL     1      -0.811   5.176  -8.233  1.00  0.00     0.074 A 
ATOM     41  C   UNL     1      -0.930   3.748  -8.062  1.00  0.00     0.031 C 
ATOM     42  C   UNL     1       1.639   7.076  -2.630  1.00  0.00     0.029 A 
ATOM     43  C   UNL     1       1.290   7.907  -3.770  1.00  0.00     0.049 A 
ATOM     44  H   UNL     1       0.253   7.319  -5.483  1.00  0.00     0.167 HD
ATOM     45  C   UNL     1      -1.132   5.824  -9.375  1.00  0.00     0.037 A 
ATOM     46  C   UNL     1       1.569   9.226  -3.881  1.00  0.00     0.037 A 
ATOM     47  C   UNL     1      -1.129   7.254  -9.493  1.00  0.00     0.049 A 
ATOM     48  C   UNL     1       1.096   9.955  -5.117  1.00  0.00     0.074 A 
ATOM     49  C   UNL     1      -1.626   8.031 -10.522  1.00  0.00     0.029 A 
ATOM     50  N   UNL     1      -0.619   8.119  -8.539  1.00  0.00    -0.354 N 
ATOM     51  N   UNL     1       0.516   9.465  -6.188  1.00  0.00    -0.248 NA
ATOM     52  C   UNL     1       1.281  11.414  -5.154  1.00  0.00     0.031 C 
ATOM     53  C   UNL     1      -1.379   9.369 -10.209  1.00  0.00     0.029 A 
ATOM     54  C   UNL     1      -0.771   9.425  -8.964  1.00  0.00     0.049 A 
ATOM     55  H   UNL     1      -0.211   7.845  -7.686  1.00  0.00     0.167 HD
ATOM     56  C   UNL     1       0.230  10.558  -7.000  1.00  0.00     0.074 A 
ATOM     57  C   UNL     1       0.680  11.736  -6.291  1.00  0.00     0.031 C 
ATOM     58  C   UNL     1      -0.347  10.585  -8.225  1.00  0.00     0.037 A 
BRANCH  45  59
ATOM     59  C   UNL     1      -1.620   5.006 -10.537  1.00  0.00     0.058 A 
ATOM     60  C   UNL     1      -2.827   4.288 -10.465  1.00  0.00     0.135 A 
ATOM     61  C   UNL     1      -0.918   4.983 -11.751  1.00  0.00     0.135 A 
ATOM     62  F   UNL     1      -3.536   4.264  -9.324  1.00  0.00    -0.206 F 
ATOM     63  C   UNL     1      -3.303   3.553 -11.541  1.00  0.00     0.059 A 
ATOM     64  C   UNL     1      -1.398   4.287 -12.857  1.00  0.00     0.059 A 
ATOM     65  F   UNL     1       0.241   5.648 -11.877  1.00  0.00    -0.206 F 
ATOM     66  C   UNL     1      -2.588   3.569 -12.738  1.00  0.00     0.060 A 
BRANCH  66  67
ATOM     67  S   UNL     1      -3.269   2.667 -14.143  1.00  0.00     0.124 S 
ATOM     68  O   UNL     1      -3.081   1.282 -13.720  1.00  0.00    -0.237 OA
ATOM     69  O   UNL     1      -4.650   3.138 -14.171  1.00  0.00    -0.237 OA
ATOM     70  O   UNL     1      -2.438   3.100 -15.261  1.00  0.00    -0.744 OA
ENDBRANCH  66  67
ENDBRANCH  45  59
BRANCH  46  71
ATOM     71  C   UNL     1       2.248   9.992  -2.784  1.00  0.00     0.058 A 
ATOM     72  C   UNL     1       1.544  10.963  -2.048  1.00  0.00     0.135 A 
ATOM     73  C   UNL     1       3.612   9.835  -2.488  1.00  0.00     0.135 A 
ATOM     74  F   UNL     1       0.239  11.165  -2.287  1.00  0.00    -0.206 F 
ATOM     75  C   UNL     1       2.170  11.783  -1.111  1.00  0.00     0.059 A 
ATOM     76  C   UNL     1       4.256  10.624  -1.530  1.00  0.00     0.059 A 
ATOM     77  F   UNL     1       4.339   8.913  -3.138  1.00  0.00    -0.206 F 
ATOM     78  C   UNL     1       3.531  11.611  -0.862  1.00  0.00     0.060 A 
BRANCH  78  79
ATOM     79  S   UNL     1       4.330  12.691   0.350  1.00  0.00     0.124 S 
ATOM     80  O   UNL     1       4.318  13.974  -0.342  1.00  0.00    -0.237 OA
ATOM     81  O   UNL     1       3.436  12.577   1.497  1.00  0.00    -0.237 OA
ATOM     82  O   UNL     1       5.646  12.083   0.527  1.00  0.00    -0.744 OA
ENDBRANCH  78  79
ENDBRANCH  46  71
BRANCH  58  83
ATOM     83  C   UNL     1      -0.562  11.922  -8.872  1.00  0.00     0.058 A 
ATOM     84  C   UNL     1       0.509  12.665  -9.388  1.00  0.00     0.135 A 
ATOM     85  C   UNL     1      -1.864  12.409  -9.076  1.00  0.00     0.135 A 
ATOM     86  F   UNL     1       1.772  12.244  -9.213  1.00  0.00    -0.206 F 
ATOM     87  C   UNL     1       0.298  13.851 -10.080  1.00  0.00     0.059 A 
ATOM     88  C   UNL     1      -2.099  13.574  -9.796  1.00  0.00     0.059 A 
ATOM     89  F   UNL     1      -2.923  11.727  -8.611  1.00  0.00    -0.206 F 
ATOM     90  C   UNL     1      -1.010  14.290 -10.291  1.00  0.00     0.060 A 
BRANCH  90  91
ATOM     91  S   UNL     1      -1.267  15.789 -11.261  1.00  0.00     0.124 S 
ATOM     92  O   UNL     1      -0.775  16.817 -10.350  1.00  0.00    -0.237 OA
ATOM     93  O   UNL     1      -0.445  15.539 -12.440  1.00  0.00    -0.237 OA
ATOM     94  O   UNL     1      -2.708  15.799 -11.498  1.00  0.00    -0.744 OA
ENDBRANCH  90  91
ENDBRANCH  58  83
ENDBRANCH  32  33
ENDBRANCH  25  27
ENDBRANCH  24  25
ENDBRANCH  23  24
ENDBRANCH   1  23
TORSDOF 17
