REMARK SMILES CN(C)c1nccnc1N1CCC(Oc2ccc3ccccc3c2)(C(=O)OCCOC(=O)c2ccc(-c3c4nc(c(-c5c(F)cc(S(=O)(=O)[O-])cc5F)c5ccc([nH]5)c(-c5c(F)cc(S(=O)(=O)[O-])cc5F)c5nc(c(-c6c(F)cc(S(=O)(=O)[O-])cc6F)c6ccc3[nH]6)C=C5)C=C4)cc2)CC1
REMARK SMILES IDX 29 1 28 2 27 3 25 4 26 5 13 6 10 7 11 8 100 9 12 10 99 11
REMARK SMILES IDX 9 12 4 13 5 14 6 15 8 16 7 17 2 18 1 19 3 20 14 21 15 22
REMARK SMILES IDX 16 23 24 24 17 25 23 26 18 27 22 28 19 29 21 30 20 31 30 32
REMARK SMILES IDX 31 33 32 34 33 35 34 36 98 37 35 38 97 39 36 40 37 41 38 42
REMARK SMILES IDX 91 43 39 44 96 45 90 46 92 47 40 48 95 49 89 50 88 51 41 53
REMARK SMILES IDX 75 54 54 55 74 56 55 57 58 58 73 59 93 60 56 61 57 62 72 64
REMARK SMILES IDX 94 65 59 66 42 67 43 68 52 69 44 70 45 71 51 72 53 73 46 74
REMARK SMILES IDX 47 75 48 76 49 77 50 78 76 79 77 80 86 81 78 82 79 83 85 84
REMARK SMILES IDX 87 85 80 86 81 87 82 88 83 89 84 90 60 91 61 92 70 93 62 94
REMARK SMILES IDX 63 95 69 96 71 97 64 98 65 99 66 100 67 101 68 102
REMARK H PARENT 92 52 58 63
REMARK Flexibility Score: inf
ROOT
ATOM      1  C   UNL     1      -5.480  -3.479   1.447  1.00  0.00     0.275 C 
ENDROOT
BRANCH   1   2
ATOM      2  C   UNL     1      -6.160  -3.931   0.158  1.00  0.00     0.274 C 
BRANCH   2   3
ATOM      3  O   UNL     1      -5.215  -4.128  -0.915  1.00  0.00    -0.459 OA
BRANCH   3   4
ATOM      4  C   UNL     1      -5.109  -3.090  -1.794  1.00  0.00     0.350 C 
ATOM      5  O   UNL     1      -5.652  -2.002  -1.618  1.00  0.00    -0.247 OA
BRANCH   4   6
ATOM      6  C   UNL     1      -4.335  -3.444  -3.081  1.00  0.00     0.209 C 
ATOM      7  N   UNL     1      -1.535  -3.393  -2.644  1.00  0.00    -0.353 N 
ATOM      8  C   UNL     1      -2.209  -4.586  -2.202  1.00  0.00     0.123 C 
ATOM      9  C   UNL     1      -2.224  -2.128  -2.564  1.00  0.00     0.123 C 
ATOM     10  C   UNL     1      -3.502  -4.741  -2.989  1.00  0.00     0.082 C 
ATOM     11  C   UNL     1      -3.464  -2.215  -3.447  1.00  0.00     0.082 C 
BRANCH   7  12
ATOM     12  C   UNL     1      -0.184  -3.371  -2.924  1.00  0.00     0.171 A 
ATOM     13  C   UNL     1       0.767  -2.679  -2.107  1.00  0.00     0.171 A 
ATOM     14  N   UNL     1       2.028  -2.454  -2.556  1.00  0.00    -0.234 NA
ATOM     15  C   UNL     1       2.332  -2.916  -3.782  1.00  0.00     0.134 A 
ATOM     16  N   UNL     1       0.168  -3.888  -4.130  1.00  0.00    -0.234 NA
ATOM     17  C   UNL     1       1.427  -3.627  -4.543  1.00  0.00     0.134 A 
BRANCH  13  18
ATOM     18  N   UNL     1       0.446  -2.207  -0.821  1.00  0.00    -0.360 N 
ATOM     19  C   UNL     1       1.283  -1.110  -0.369  1.00  0.00     0.145 C 
ATOM     20  C   UNL     1       0.197  -3.252   0.160  1.00  0.00     0.145 C 
ENDBRANCH  13  18
ENDBRANCH   7  12
BRANCH   6  21
ATOM     21  O   UNL     1      -5.489  -3.669  -3.958  1.00  0.00    -0.475 OA
BRANCH  21  22
ATOM     22  C   UNL     1      -5.277  -3.449  -5.288  1.00  0.00     0.121 A 
ATOM     23  C   UNL     1      -4.700  -4.430  -6.086  1.00  0.00     0.047 A 
ATOM     24  C   UNL     1      -5.707  -2.247  -5.848  1.00  0.00     0.055 A 
ATOM     25  C   UNL     1      -4.440  -4.167  -7.429  1.00  0.00     0.012 A 
ATOM     26  C   UNL     1      -5.471  -1.975  -7.205  1.00  0.00    -0.015 A 
ATOM     27  C   UNL     1      -4.808  -2.941  -7.999  1.00  0.00    -0.018 A 
ATOM     28  C   UNL     1      -5.864  -0.763  -7.793  1.00  0.00     0.009 A 
ATOM     29  C   UNL     1      -4.532  -2.659  -9.345  1.00  0.00     0.009 A 
ATOM     30  C   UNL     1      -5.592  -0.501  -9.138  1.00  0.00     0.001 A 
ATOM     31  C   UNL     1      -4.921  -1.445  -9.910  1.00  0.00     0.001 A 
ENDBRANCH  21  22
ENDBRANCH   6  21
ENDBRANCH   4   6
ENDBRANCH   3   4
ENDBRANCH   2   3
ENDBRANCH   1   2
BRANCH   1  32
ATOM     32  O   UNL     1      -4.878  -2.186   1.270  1.00  0.00    -0.458 OA
BRANCH  32  33
ATOM     33  C   UNL     1      -3.556  -2.114   1.545  1.00  0.00     0.338 C 
ATOM     34  O   UNL     1      -2.840  -3.017   1.945  1.00  0.00    -0.246 OA
BRANCH  33  35
ATOM     35  C   UNL     1      -3.055  -0.746   1.315  1.00  0.00     0.060 A 
ATOM     36  C   UNL     1      -3.231  -0.124   0.081  1.00  0.00     0.016 A 
ATOM     37  C   UNL     1      -2.276  -0.134   2.297  1.00  0.00     0.016 A 
ATOM     38  C   UNL     1      -2.497   1.022  -0.226  1.00  0.00     0.010 A 
ATOM     39  C   UNL     1      -1.657   1.093   2.031  1.00  0.00     0.010 A 
ATOM     40  C   UNL     1      -1.703   1.655   0.746  1.00  0.00    -0.014 A 
BRANCH  40  41
ATOM     41  C   UNL     1      -0.960   2.902   0.401  1.00  0.00     0.031 A 
ATOM     42  C   UNL     1       0.548   2.978   0.468  1.00  0.00     0.074 A 
ATOM     43  C   UNL     1      -1.643   3.977  -0.042  1.00  0.00     0.049 A 
ATOM     44  N   UNL     1       1.350   3.894  -0.018  1.00  0.00    -0.248 NA
ATOM     45  C   UNL     1       1.257   1.876   1.128  1.00  0.00     0.031 C 
ATOM     46  C   UNL     1      -3.100   4.063  -0.169  1.00  0.00     0.029 A 
ATOM     47  N   UNL     1      -1.202   5.205  -0.466  1.00  0.00    -0.354 N 
ATOM     48  C   UNL     1       2.642   3.416   0.176  1.00  0.00     0.074 A 
ATOM     49  C   UNL     1       2.527   2.160   0.877  1.00  0.00     0.031 C 
ATOM     50  C   UNL     1      -3.430   5.271  -0.646  1.00  0.00     0.029 A 
ATOM     51  C   UNL     1      -2.216   6.067  -0.798  1.00  0.00     0.049 A 
ATOM     52  H   UNL     1      -0.249   5.444  -0.525  1.00  0.00     0.167 HD
ATOM     53  C   UNL     1       3.822   3.972  -0.187  1.00  0.00     0.037 A 
ATOM     54  C   UNL     1      -2.184   7.369  -1.140  1.00  0.00     0.037 A 
ATOM     55  C   UNL     1       3.959   5.308  -0.695  1.00  0.00     0.049 A 
ATOM     56  C   UNL     1      -0.862   8.069  -1.238  1.00  0.00     0.074 A 
ATOM     57  C   UNL     1       5.111   5.988  -1.046  1.00  0.00     0.029 A 
ATOM     58  N   UNL     1       2.908   6.199  -0.838  1.00  0.00    -0.354 N 
ATOM     59  N   UNL     1       0.344   7.561  -1.165  1.00  0.00    -0.248 NA
ATOM     60  C   UNL     1      -0.894   9.524  -1.437  1.00  0.00     0.031 C 
ATOM     61  C   UNL     1       4.764   7.320  -1.313  1.00  0.00     0.029 A 
ATOM     62  C   UNL     1       3.391   7.450  -1.176  1.00  0.00     0.049 A 
ATOM     63  H   UNL     1       1.957   5.974  -0.717  1.00  0.00     0.167 HD
ATOM     64  C   UNL     1       1.217   8.631  -1.312  1.00  0.00     0.074 A 
ATOM     65  C   UNL     1       0.399   9.815  -1.487  1.00  0.00     0.031 C 
ATOM     66  C   UNL     1       2.573   8.629  -1.307  1.00  0.00     0.037 A 
BRANCH  53  67
ATOM     67  C   UNL     1       5.061   3.148   0.009  1.00  0.00     0.058 A 
ATOM     68  C   UNL     1       5.436   2.177  -0.934  1.00  0.00     0.135 A 
ATOM     69  C   UNL     1       5.891   3.338   1.123  1.00  0.00     0.135 A 
ATOM     70  F   UNL     1       4.669   1.950  -2.012  1.00  0.00    -0.206 F 
ATOM     71  C   UNL     1       6.590   1.417  -0.774  1.00  0.00     0.059 A 
ATOM     72  C   UNL     1       7.054   2.593   1.300  1.00  0.00     0.059 A 
ATOM     73  F   UNL     1       5.565   4.242   2.059  1.00  0.00    -0.206 F 
ATOM     74  C   UNL     1       7.392   1.630   0.349  1.00  0.00     0.060 A 
BRANCH  74  75
ATOM     75  S   UNL     1       8.884   0.631   0.547  1.00  0.00     0.124 S 
ATOM     76  O   UNL     1       8.321  -0.679   0.860  1.00  0.00    -0.237 OA
ATOM     77  O   UNL     1       9.517   0.752  -0.763  1.00  0.00    -0.237 OA
ATOM     78  O   UNL     1       9.590   1.287   1.643  1.00  0.00    -0.744 OA
ENDBRANCH  74  75
ENDBRANCH  53  67
BRANCH  54  79
ATOM     79  C   UNL     1      -3.463   8.101  -1.319  1.00  0.00     0.058 A 
ATOM     80  C   UNL     1      -3.894   8.527  -2.581  1.00  0.00     0.135 A 
ATOM     81  C   UNL     1      -4.306   8.339  -0.220  1.00  0.00     0.135 A 
ATOM     82  F   UNL     1      -3.117   8.332  -3.657  1.00  0.00    -0.206 F 
ATOM     83  C   UNL     1      -5.125   9.153  -2.753  1.00  0.00     0.059 A 
ATOM     84  C   UNL     1      -5.549   8.941  -0.369  1.00  0.00     0.059 A 
ATOM     85  F   UNL     1      -3.937   7.944   1.009  1.00  0.00    -0.206 F 
ATOM     86  C   UNL     1      -5.949   9.348  -1.641  1.00  0.00     0.060 A 
BRANCH  86  87
ATOM     87  S   UNL     1      -7.585  10.076  -1.873  1.00  0.00     0.124 S 
ATOM     88  O   UNL     1      -7.268  11.499  -1.916  1.00  0.00    -0.237 OA
ATOM     89  O   UNL     1      -8.019   9.480  -3.132  1.00  0.00    -0.237 OA
ATOM     90  O   UNL     1      -8.317   9.626  -0.693  1.00  0.00    -0.744 OA
ENDBRANCH  86  87
ENDBRANCH  54  79
BRANCH  66  91
ATOM     91  C   UNL     1       3.260   9.951  -1.468  1.00  0.00     0.058 A 
ATOM     92  C   UNL     1       3.324  10.870  -0.409  1.00  0.00     0.135 A 
ATOM     93  C   UNL     1       3.888  10.292  -2.676  1.00  0.00     0.135 A 
ATOM     94  F   UNL     1       2.731  10.593   0.763  1.00  0.00    -0.206 F 
ATOM     95  C   UNL     1       3.972  12.093  -0.549  1.00  0.00     0.059 A 
ATOM     96  C   UNL     1       4.559  11.500  -2.831  1.00  0.00     0.059 A 
ATOM     97  F   UNL     1       3.862   9.442  -3.715  1.00  0.00    -0.206 F 
ATOM     98  C   UNL     1       4.584  12.400  -1.765  1.00  0.00     0.060 A 
BRANCH  98  99
ATOM     99  S   UNL     1       5.446  13.977  -1.936  1.00  0.00     0.124 S 
ATOM    100  O   UNL     1       4.339  14.887  -2.207  1.00  0.00    -0.237 OA
ATOM    101  O   UNL     1       6.089  14.131  -0.634  1.00  0.00    -0.237 OA
ATOM    102  O   UNL     1       6.357  13.742  -3.052  1.00  0.00    -0.744 OA
ENDBRANCH  98  99
ENDBRANCH  66  91
ENDBRANCH  40  41
ENDBRANCH  33  35
ENDBRANCH  32  33
ENDBRANCH   1  32
TORSDOF 18
