REMARK SMILES Cc1ccnc(C(=O)c2[nH]c3ccc(OC(F)(F)F)cc3c2CC(=O)OCCOC(=O)c2ccc(-c3c4nc(c(-c5c(F)cc(S(=O)(=O)[O-])cc5F)c5ccc([nH]5)c(-c5c(F)cc(S(=O)(=O)[O-])cc5F)c5nc(c(-c6c(F)cc(S(=O)(=O)[O-])cc6F)c6ccc3[nH]6)C=C5)C=C4)cc2)c1
REMARK SMILES IDX 27 1 26 2 24 3 25 4 23 5 22 6 9 7 10 8 11 9 21 11 12 12
REMARK SMILES IDX 20 13 13 14 14 15 7 16 8 17 6 18 1 19 2 20 3 21 98 22 4 23
REMARK SMILES IDX 5 24 15 25 16 26 17 27 18 28 19 29 28 30 29 31 30 32 31 33
REMARK SMILES IDX 32 34 33 35 97 36 34 37 96 38 35 39 36 40 37 41 90 42 38 43
REMARK SMILES IDX 95 44 89 45 91 46 39 47 94 48 88 49 87 50 40 52 74 53 53 54
REMARK SMILES IDX 73 55 54 56 57 57 72 58 92 59 55 60 56 61 71 63 93 64 58 65
REMARK SMILES IDX 41 66 42 67 51 68 43 69 44 70 50 71 52 72 45 73 46 74 47 75
REMARK SMILES IDX 48 76 49 77 75 78 76 79 85 80 77 81 78 82 84 83 86 84 79 85
REMARK SMILES IDX 80 86 81 87 82 88 83 89 59 90 60 91 69 92 61 93 62 94 68 95
REMARK SMILES IDX 70 96 63 97 64 98 65 99 66 100 67 101
REMARK H PARENT 10 10 91 51 57 62
REMARK Flexibility Score: inf
ROOT
ATOM      1  C   UNL     1       5.167  -5.357   0.609  1.00  0.00     0.274 C 
ENDROOT
BRANCH   1   2
ATOM      2  O   UNL     1       3.731  -5.235   0.496  1.00  0.00    -0.462 OA
BRANCH   2   3
ATOM      3  C   UNL     1       3.052  -5.074   1.658  1.00  0.00     0.310 C 
ATOM      4  O   UNL     1       3.569  -5.168   2.770  1.00  0.00    -0.252 OA
BRANCH   3   5
ATOM      5  C   UNL     1       1.617  -4.616   1.510  1.00  0.00     0.161 C 
BRANCH   5   6
ATOM      6  C   UNL     1       0.849  -4.966   0.274  1.00  0.00     0.000 A 
ATOM      7  C   UNL     1       0.693  -4.211  -0.888  1.00  0.00     0.093 A 
ATOM      8  N   UNL     1      -0.149  -4.912  -1.717  1.00  0.00    -0.352 N 
ATOM      9  C   UNL     1      -0.674  -6.000  -1.077  1.00  0.00     0.046 A 
ATOM     10  H   UNL     1      -0.348  -4.663  -2.648  1.00  0.00     0.167 HD
ATOM     11  C   UNL     1      -0.017  -6.110   0.144  1.00  0.00     0.008 A 
ATOM     12  C   UNL     1      -1.670  -6.883  -1.493  1.00  0.00     0.030 A 
ATOM     13  C   UNL     1      -0.345  -7.206   0.972  1.00  0.00     0.057 A 
ATOM     14  C   UNL     1      -1.997  -7.941  -0.641  1.00  0.00     0.049 A 
ATOM     15  C   UNL     1      -1.334  -8.122   0.573  1.00  0.00     0.130 A 
BRANCH   7  16
ATOM     16  C   UNL     1       1.243  -2.947  -1.359  1.00  0.00     0.227 C 
ATOM     17  O   UNL     1       1.976  -2.934  -2.348  1.00  0.00    -0.285 OA
BRANCH  16  18
ATOM     18  C   UNL     1       0.679  -1.645  -0.834  1.00  0.00     0.113 A 
ATOM     19  C   UNL     1      -2.570  -0.212   0.520  1.00  0.00     0.044 C 
ATOM     20  C   UNL     1      -1.172  -0.340  -0.009  1.00  0.00    -0.047 A 
ATOM     21  C   UNL     1      -0.463   0.810  -0.358  1.00  0.00     0.023 A 
ATOM     22  C   UNL     1      -0.581  -1.591  -0.233  1.00  0.00     0.036 A 
ATOM     23  C   UNL     1       0.791   0.667  -0.923  1.00  0.00     0.112 A 
ATOM     24  N   UNL     1       1.371  -0.524  -1.175  1.00  0.00    -0.253 NA
ENDBRANCH  16  18
ENDBRANCH   7  16
BRANCH  15  25
ATOM     25  O   UNL     1      -1.555  -9.138   1.463  1.00  0.00    -0.406 OA
BRANCH  25  26
ATOM     26  C   UNL     1      -2.546 -10.095   1.133  1.00  0.00     0.573 C 
ATOM     27  F   UNL     1      -3.768  -9.524   1.044  1.00  0.00    -0.132 F 
ATOM     28  F   UNL     1      -2.259 -10.724  -0.028  1.00  0.00    -0.132 F 
ATOM     29  F   UNL     1      -2.593 -11.030   2.109  1.00  0.00    -0.132 F 
ENDBRANCH  25  26
ENDBRANCH  15  25
ENDBRANCH   5   6
ENDBRANCH   3   5
ENDBRANCH   2   3
ENDBRANCH   1   2
BRANCH   1  30
ATOM     30  C   UNL     1       5.890  -4.068   0.190  1.00  0.00     0.275 C 
BRANCH  30  31
ATOM     31  O   UNL     1       5.660  -2.971   1.101  1.00  0.00    -0.458 OA
BRANCH  31  32
ATOM     32  C   UNL     1       4.540  -2.276   0.824  1.00  0.00     0.338 C 
ATOM     33  O   UNL     1       3.731  -2.530  -0.061  1.00  0.00    -0.246 OA
BRANCH  32  34
ATOM     34  C   UNL     1       4.259  -1.206   1.776  1.00  0.00     0.060 A 
ATOM     35  C   UNL     1       3.233  -1.429   2.695  1.00  0.00     0.016 A 
ATOM     36  C   UNL     1       4.783   0.074   1.589  1.00  0.00     0.016 A 
ATOM     37  C   UNL     1       2.665  -0.359   3.366  1.00  0.00     0.010 A 
ATOM     38  C   UNL     1       4.261   1.141   2.329  1.00  0.00     0.010 A 
ATOM     39  C   UNL     1       3.176   0.937   3.198  1.00  0.00    -0.014 A 
BRANCH  39  40
ATOM     40  C   UNL     1       2.572   2.036   3.990  1.00  0.00     0.031 A 
ATOM     41  C   UNL     1       1.733   3.100   3.343  1.00  0.00     0.074 A 
ATOM     42  C   UNL     1       2.714   2.001   5.328  1.00  0.00     0.049 A 
ATOM     43  N   UNL     1       1.053   4.066   3.906  1.00  0.00    -0.248 NA
ATOM     44  C   UNL     1       1.630   3.074   1.876  1.00  0.00     0.031 C 
ATOM     45  C   UNL     1       3.489   0.998   6.065  1.00  0.00     0.029 A 
ATOM     46  N   UNL     1       2.194   2.805   6.307  1.00  0.00    -0.354 N 
ATOM     47  C   UNL     1       0.426   4.749   2.871  1.00  0.00     0.074 A 
ATOM     48  C   UNL     1       0.832   4.107   1.638  1.00  0.00     0.031 C 
ATOM     49  C   UNL     1       3.365   1.226   7.380  1.00  0.00     0.029 A 
ATOM     50  C   UNL     1       2.547   2.417   7.576  1.00  0.00     0.049 A 
ATOM     51  H   UNL     1       1.623   3.584   6.119  1.00  0.00     0.167 HD
ATOM     52  C   UNL     1      -0.414   5.809   2.946  1.00  0.00     0.037 A 
ATOM     53  C   UNL     1       2.260   2.970   8.768  1.00  0.00     0.037 A 
ATOM     54  C   UNL     1      -0.782   6.468   4.174  1.00  0.00     0.049 A 
ATOM     55  C   UNL     1       1.403   4.198   8.812  1.00  0.00     0.074 A 
ATOM     56  C   UNL     1      -1.608   7.566   4.352  1.00  0.00     0.029 A 
ATOM     57  N   UNL     1      -0.336   6.099   5.434  1.00  0.00    -0.354 N 
ATOM     58  N   UNL     1       0.817   4.828   7.822  1.00  0.00    -0.248 NA
ATOM     59  C   UNL     1       1.177   4.798  10.133  1.00  0.00     0.031 C 
ATOM     60  C   UNL     1      -1.632   7.881   5.716  1.00  0.00     0.029 A 
ATOM     61  C   UNL     1      -0.848   6.960   6.391  1.00  0.00     0.049 A 
ATOM     62  H   UNL     1       0.258   5.337   5.621  1.00  0.00     0.167 HD
ATOM     63  C   UNL     1       0.153   5.902   8.400  1.00  0.00     0.074 A 
ATOM     64  C   UNL     1       0.389   5.819   9.829  1.00  0.00     0.031 C 
ATOM     65  C   UNL     1      -0.581   6.873   7.803  1.00  0.00     0.037 A 
BRANCH  52  66
ATOM     66  C   UNL     1      -0.991   6.334   1.662  1.00  0.00     0.058 A 
ATOM     67  C   UNL     1      -2.058   5.683   1.024  1.00  0.00     0.135 A 
ATOM     68  C   UNL     1      -0.516   7.527   1.096  1.00  0.00     0.135 A 
ATOM     69  F   UNL     1      -2.533   4.525   1.511  1.00  0.00    -0.206 F 
ATOM     70  C   UNL     1      -2.634   6.196  -0.133  1.00  0.00     0.059 A 
ATOM     71  C   UNL     1      -1.085   8.066  -0.055  1.00  0.00     0.059 A 
ATOM     72  F   UNL     1       0.508   8.183   1.664  1.00  0.00    -0.206 F 
ATOM     73  C   UNL     1      -2.141   7.389  -0.665  1.00  0.00     0.060 A 
BRANCH  73  74
ATOM     74  S   UNL     1      -2.910   8.048  -2.161  1.00  0.00     0.124 S 
ATOM     75  O   UNL     1      -2.422   7.114  -3.171  1.00  0.00    -0.237 OA
ATOM     76  O   UNL     1      -4.332   7.955  -1.848  1.00  0.00    -0.237 OA
ATOM     77  O   UNL     1      -2.376   9.403  -2.249  1.00  0.00    -0.744 OA
ENDBRANCH  73  74
ENDBRANCH  52  66
BRANCH  53  78
ATOM     78  C   UNL     1       2.827   2.382  10.006  1.00  0.00     0.058 A 
ATOM     79  C   UNL     1       2.019   1.698  10.924  1.00  0.00     0.135 A 
ATOM     80  C   UNL     1       4.201   2.477  10.279  1.00  0.00     0.135 A 
ATOM     81  F   UNL     1       0.700   1.586  10.703  1.00  0.00    -0.206 F 
ATOM     82  C   UNL     1       2.551   1.137  12.080  1.00  0.00     0.059 A 
ATOM     83  C   UNL     1       4.759   1.906  11.415  1.00  0.00     0.059 A 
ATOM     84  F   UNL     1       5.015   3.108   9.419  1.00  0.00    -0.206 F 
ATOM     85  C   UNL     1       3.923   1.248  12.316  1.00  0.00     0.060 A 
BRANCH  85  86
ATOM     86  S   UNL     1       4.629   0.479  13.790  1.00  0.00     0.124 S 
ATOM     87  O   UNL     1       4.401   1.511  14.794  1.00  0.00    -0.237 OA
ATOM     88  O   UNL     1       3.829  -0.734  13.928  1.00  0.00    -0.237 OA
ATOM     89  O   UNL     1       6.022   0.260  13.410  1.00  0.00    -0.744 OA
ENDBRANCH  85  86
ENDBRANCH  53  78
BRANCH  65  90
ATOM     90  C   UNL     1      -1.166   7.915   8.709  1.00  0.00     0.058 A 
ATOM     91  C   UNL     1      -0.369   8.933   9.255  1.00  0.00     0.135 A 
ATOM     92  C   UNL     1      -2.526   7.883   9.053  1.00  0.00     0.135 A 
ATOM     93  F   UNL     1       0.939   8.998   8.961  1.00  0.00    -0.206 F 
ATOM     94  C   UNL     1      -0.893   9.863  10.146  1.00  0.00     0.059 A 
ATOM     95  C   UNL     1      -3.075   8.815   9.927  1.00  0.00     0.059 A 
ATOM     96  F   UNL     1      -3.328   6.932   8.550  1.00  0.00    -0.206 F 
ATOM     97  C   UNL     1      -2.245   9.788  10.485  1.00  0.00     0.060 A 
BRANCH  97  98
ATOM     98  S   UNL     1      -2.923  10.984  11.655  1.00  0.00     0.124 S 
ATOM     99  O   UNL     1      -2.569  10.374  12.932  1.00  0.00    -0.237 OA
ATOM    100  O   UNL     1      -2.203  12.208  11.317  1.00  0.00    -0.237 OA
ATOM    101  O   UNL     1      -4.347  10.994  11.334  1.00  0.00    -0.744 OA
ENDBRANCH  97  98
ENDBRANCH  65  90
ENDBRANCH  39  40
ENDBRANCH  32  34
ENDBRANCH  31  32
ENDBRANCH  30  31
ENDBRANCH   1  30
TORSDOF 19
