REMARK SMILES Cc1ccc([C@@]23C[C@@H]4C[C@@H](C[C@@](C(=O)N5CCC(C(=O)OCCOC(=O)c6ccc(-c7c8nc(c(-c9c(F)cc(S(=O)(=O)[O-])cc9F)c9ccc([nH]9)c(-c9c(F)cc(S(=O)(=O)[O-])cc9F)c9nc(c(-c%10c(F)cc(S(=O)(=O)[O-])cc%10F)c%10ccc7[nH]%10)C=C9)C=C8)cc6)CC5)(C4)C2)C3)cc1
REMARK SMILES IDX 23 1 22 2 21 3 19 4 20 5 18 6 13 7 14 8 15 9 16 10 94 11
REMARK SMILES IDX 17 12 93 13 12 14 6 15 7 16 96 17 97 18 8 19 10 20 9 21
REMARK SMILES IDX 95 22 11 23 5 24 1 25 2 26 3 27 99 28 4 29 98 30 24 31 25 32
REMARK SMILES IDX 26 33 27 34 28 35 92 36 29 37 91 38 30 39 31 40 32 41 85 42
REMARK SMILES IDX 33 43 90 44 84 45 86 46 34 47 89 48 83 49 82 50 35 52 69 53
REMARK SMILES IDX 48 54 68 55 49 56 52 57 67 58 87 59 50 60 51 61 66 63 88 64
REMARK SMILES IDX 53 65 36 66 37 67 46 68 38 69 39 70 45 71 47 72 40 73 41 74
REMARK SMILES IDX 42 75 43 76 44 77 70 78 71 79 80 80 72 81 73 82 79 83 81 84
REMARK SMILES IDX 74 85 75 86 76 87 77 88 78 89 54 90 55 91 64 92 56 93 57 94
REMARK SMILES IDX 63 95 65 96 58 97 59 98 60 99 61 100 62 101
REMARK H PARENT 86 51 52 62
REMARK Flexibility Score: inf
ROOT
ATOM      1  C   UNL     1      -8.846  -2.332  -7.280  1.00  0.00     0.275 C 
ENDROOT
BRANCH   1   2
ATOM      2  C   UNL     1      -9.249  -2.550  -5.809  1.00  0.00     0.274 C 
BRANCH   2   3
ATOM      3  O   UNL     1      -8.062  -2.683  -5.025  1.00  0.00    -0.462 OA
BRANCH   3   4
ATOM      4  C   UNL     1      -8.226  -3.005  -3.719  1.00  0.00     0.309 C 
ATOM      5  O   UNL     1      -9.292  -2.930  -3.122  1.00  0.00    -0.252 OA
BRANCH   4   6
ATOM      6  C   UNL     1      -6.890  -3.429  -3.139  1.00  0.00     0.103 C 
ATOM      7  C   UNL     1      -5.707  -1.978   0.047  1.00  0.00     0.228 C 
ATOM      8  O   UNL     1      -6.469  -2.411   0.915  1.00  0.00    -0.274 OA
ATOM      9  N   UNL     1      -5.234  -2.807  -0.973  1.00  0.00    -0.342 N 
ATOM     10  C   UNL     1      -5.731  -4.170  -0.994  1.00  0.00     0.120 C 
ATOM     11  C   UNL     1      -4.759  -2.393  -2.289  1.00  0.00     0.120 C 
ATOM     12  C   UNL     1      -7.028  -4.158  -1.787  1.00  0.00     0.037 C 
ATOM     13  C   UNL     1      -5.974  -2.208  -3.175  1.00  0.00     0.037 C 
BRANCH   7  14
ATOM     14  C   UNL     1      -5.209  -0.527   0.137  1.00  0.00     0.051 C 
ATOM     15  C   UNL     1      -3.010   0.774   0.309  1.00  0.00    -0.003 C 
ATOM     16  C   UNL     1      -3.507   1.605  -0.914  1.00  0.00     0.015 C 
ATOM     17  C   UNL     1      -3.686  -0.605   0.245  1.00  0.00     0.028 C 
ATOM     18  C   UNL     1      -3.527   1.457   1.602  1.00  0.00     0.015 C 
ATOM     19  C   UNL     1      -5.040   1.768  -0.902  1.00  0.00    -0.009 C 
ATOM     20  C   UNL     1      -5.071   1.556   1.590  1.00  0.00    -0.009 C 
ATOM     21  C   UNL     1      -5.504   2.422   0.400  1.00  0.00     0.007 C 
ATOM     22  C   UNL     1      -5.675   0.384  -1.015  1.00  0.00     0.020 C 
ATOM     23  C   UNL     1      -5.697   0.152   1.448  1.00  0.00     0.020 C 
BRANCH  15  24
ATOM     24  C   UNL     1      -1.480   0.613   0.288  1.00  0.00    -0.042 A 
ATOM     25  C   UNL     1       2.821   0.140  -0.035  1.00  0.00     0.044 C 
ATOM     26  C   UNL     1       1.341   0.324   0.095  1.00  0.00    -0.051 A 
ATOM     27  C   UNL     1       0.525  -0.799   0.184  1.00  0.00     0.004 A 
ATOM     28  C   UNL     1       0.750   1.590   0.118  1.00  0.00     0.004 A 
ATOM     29  C   UNL     1      -0.857  -0.653   0.289  1.00  0.00     0.004 A 
ATOM     30  C   UNL     1      -0.641   1.733   0.217  1.00  0.00     0.004 A 
ENDBRANCH  15  24
ENDBRANCH   7  14
ENDBRANCH   4   6
ENDBRANCH   3   4
ENDBRANCH   2   3
ENDBRANCH   1   2
BRANCH   1  31
ATOM     31  O   UNL     1      -8.112  -3.409  -7.910  1.00  0.00    -0.458 OA
BRANCH  31  32
ATOM     32  C   UNL     1      -6.979  -3.850  -7.282  1.00  0.00     0.338 C 
ATOM     33  O   UNL     1      -6.004  -3.155  -7.055  1.00  0.00    -0.246 OA
BRANCH  32  34
ATOM     34  C   UNL     1      -7.313  -5.146  -6.610  1.00  0.00     0.060 A 
ATOM     35  C   UNL     1      -6.469  -5.680  -5.627  1.00  0.00     0.016 A 
ATOM     36  C   UNL     1      -8.637  -5.579  -6.691  1.00  0.00     0.016 A 
ATOM     37  C   UNL     1      -7.006  -6.492  -4.615  1.00  0.00     0.010 A 
ATOM     38  C   UNL     1      -9.191  -6.244  -5.627  1.00  0.00     0.010 A 
ATOM     39  C   UNL     1      -8.389  -6.692  -4.573  1.00  0.00    -0.014 A 
BRANCH  39  40
ATOM     40  C   UNL     1      -9.094  -7.588  -3.665  1.00  0.00     0.031 A 
ATOM     41  C   UNL     1      -9.521  -7.243  -2.286  1.00  0.00     0.074 A 
ATOM     42  C   UNL     1      -9.471  -8.732  -4.275  1.00  0.00     0.049 A 
ATOM     43  N   UNL     1      -9.569  -8.082  -1.303  1.00  0.00    -0.248 NA
ATOM     44  C   UNL     1      -9.939  -5.901  -1.886  1.00  0.00     0.031 C 
ATOM     45  C   UNL     1     -10.373  -9.764  -3.809  1.00  0.00     0.029 A 
ATOM     46  N   UNL     1      -8.966  -9.259  -5.473  1.00  0.00    -0.354 N 
ATOM     47  C   UNL     1     -10.269  -7.472  -0.272  1.00  0.00     0.074 A 
ATOM     48  C   UNL     1     -10.320  -6.074  -0.613  1.00  0.00     0.031 C 
ATOM     49  C   UNL     1     -10.089 -10.894  -4.487  1.00  0.00     0.029 A 
ATOM     50  C   UNL     1      -8.883 -10.628  -5.269  1.00  0.00     0.049 A 
ATOM     51  H   UNL     1      -8.723  -8.761  -6.287  1.00  0.00     0.167 HD
ATOM     52  C   UNL     1     -10.957  -8.217   0.645  1.00  0.00     0.037 A 
ATOM     53  C   UNL     1      -7.684 -11.271  -5.130  1.00  0.00     0.037 A 
ATOM     54  C   UNL     1     -10.931  -9.614   0.243  1.00  0.00     0.049 A 
ATOM     55  C   UNL     1      -7.641 -12.000  -3.807  1.00  0.00     0.074 A 
ATOM     56  C   UNL     1     -11.813 -10.325  -0.553  1.00  0.00     0.029 A 
ATOM     57  N   UNL     1      -9.763 -10.355   0.319  1.00  0.00    -0.354 N 
ATOM     58  N   UNL     1      -8.178 -11.546  -2.706  1.00  0.00    -0.248 NA
ATOM     59  C   UNL     1      -7.092 -13.343  -3.661  1.00  0.00     0.031 C 
ATOM     60  C   UNL     1     -11.145 -11.475  -1.020  1.00  0.00     0.029 A 
ATOM     61  C   UNL     1      -9.864 -11.467  -0.493  1.00  0.00     0.049 A 
ATOM     62  H   UNL     1      -8.980 -10.124   0.869  1.00  0.00     0.167 HD
ATOM     63  C   UNL     1      -8.162 -12.544  -1.762  1.00  0.00     0.074 A 
ATOM     64  C   UNL     1      -7.439 -13.633  -2.396  1.00  0.00     0.031 C 
ATOM     65  C   UNL     1      -8.803 -12.450  -0.559  1.00  0.00     0.037 A 
BRANCH  52  66
ATOM     66  C   UNL     1     -11.959  -7.672   1.650  1.00  0.00     0.058 A 
ATOM     67  C   UNL     1     -13.132  -8.395   1.976  1.00  0.00     0.135 A 
ATOM     68  C   UNL     1     -11.812  -6.451   2.338  1.00  0.00     0.135 A 
ATOM     69  F   UNL     1     -13.381  -9.604   1.459  1.00  0.00    -0.206 F 
ATOM     70  C   UNL     1     -14.117  -7.911   2.836  1.00  0.00     0.059 A 
ATOM     71  C   UNL     1     -12.801  -5.932   3.192  1.00  0.00     0.059 A 
ATOM     72  F   UNL     1     -10.687  -5.729   2.215  1.00  0.00    -0.206 F 
ATOM     73  C   UNL     1     -13.960  -6.666   3.424  1.00  0.00     0.060 A 
BRANCH  73  74
ATOM     74  S   UNL     1     -15.292  -6.052   4.477  1.00  0.00     0.124 S 
ATOM     75  O   UNL     1     -16.430  -6.053   3.562  1.00  0.00    -0.237 OA
ATOM     76  O   UNL     1     -15.335  -7.053   5.538  1.00  0.00    -0.237 OA
ATOM     77  O   UNL     1     -14.826  -4.729   4.883  1.00  0.00    -0.744 OA
ENDBRANCH  73  74
ENDBRANCH  52  66
BRANCH  53  78
ATOM     78  C   UNL     1      -6.511 -10.624  -5.804  1.00  0.00     0.058 A 
ATOM     79  C   UNL     1      -6.560 -10.440  -7.203  1.00  0.00     0.135 A 
ATOM     80  C   UNL     1      -5.514  -9.918  -5.112  1.00  0.00     0.135 A 
ATOM     81  F   UNL     1      -7.474 -11.099  -7.933  1.00  0.00    -0.206 F 
ATOM     82  C   UNL     1      -5.765  -9.502  -7.861  1.00  0.00     0.059 A 
ATOM     83  C   UNL     1      -4.689  -8.984  -5.757  1.00  0.00     0.059 A 
ATOM     84  F   UNL     1      -5.387 -10.049  -3.785  1.00  0.00    -0.206 F 
ATOM     85  C   UNL     1      -4.858  -8.748  -7.122  1.00  0.00     0.060 A 
BRANCH  85  86
ATOM     86  S   UNL     1      -4.040  -7.357  -7.947  1.00  0.00     0.124 S 
ATOM     87  O   UNL     1      -3.147  -8.039  -8.876  1.00  0.00    -0.237 OA
ATOM     88  O   UNL     1      -5.174  -6.662  -8.553  1.00  0.00    -0.237 OA
ATOM     89  O   UNL     1      -3.394  -6.649  -6.847  1.00  0.00    -0.744 OA
ENDBRANCH  85  86
ENDBRANCH  53  78
BRANCH  65  90
ATOM     90  C   UNL     1      -8.626 -13.368   0.626  1.00  0.00     0.058 A 
ATOM     91  C   UNL     1      -7.446 -14.083   0.875  1.00  0.00     0.135 A 
ATOM     92  C   UNL     1      -9.602 -13.421   1.657  1.00  0.00     0.135 A 
ATOM     93  F   UNL     1      -6.400 -14.020   0.039  1.00  0.00    -0.206 F 
ATOM     94  C   UNL     1      -7.270 -14.853   2.023  1.00  0.00     0.059 A 
ATOM     95  C   UNL     1      -9.420 -14.131   2.838  1.00  0.00     0.059 A 
ATOM     96  F   UNL     1     -10.767 -12.764   1.566  1.00  0.00    -0.206 F 
ATOM     97  C   UNL     1      -8.261 -14.870   3.000  1.00  0.00     0.060 A 
BRANCH  97  98
ATOM     98  S   UNL     1      -8.008 -15.814   4.510  1.00  0.00     0.124 S 
ATOM     99  O   UNL     1      -8.537 -17.119   4.125  1.00  0.00    -0.237 OA
ATOM    100  O   UNL     1      -6.560 -15.749   4.690  1.00  0.00    -0.237 OA
ATOM    101  O   UNL     1      -8.788 -15.079   5.499  1.00  0.00    -0.744 OA
ENDBRANCH  97  98
ENDBRANCH  65  90
ENDBRANCH  39  40
ENDBRANCH  32  34
ENDBRANCH  31  32
ENDBRANCH   1  31
TORSDOF 16
