REMARK SMILES C[C@@H]1[NH2+]CC[C@@H]1C(=O)N1CCC[N@H+](CC(=O)OCCOC(=O)c2ccc(-c3c4nc(c(-c5c(F)cc(S(=O)(=O)[O-])cc5F)c5ccc([nH]5)c(-c5c(F)cc(S(=O)(=O)[O-])cc5F)c5nc(c(-c6c(F)cc(S(=O)(=O)[O-])cc6F)c6ccc3[nH]6)C=C5)C=C4)cc2)CC1
REMARK SMILES IDX 17 1 15 2 16 3 14 4 13 5 89 7 90 8 9 9 7 10 8 11 6 12 1 13
REMARK SMILES IDX 2 14 3 15 4 16 5 19 10 20 11 21 12 23 18 25 19 26 20 27
REMARK SMILES IDX 21 28 22 29 23 30 24 31 88 32 25 33 87 34 26 35 27 36 28 37
REMARK SMILES IDX 81 38 29 39 86 40 80 41 82 42 30 43 85 44 79 45 78 46 31 48
REMARK SMILES IDX 65 49 44 50 64 51 45 52 48 53 63 54 83 55 46 56 47 57 62 59
REMARK SMILES IDX 84 60 49 61 32 62 33 63 42 64 34 65 35 66 41 67 43 68 36 69
REMARK SMILES IDX 37 70 38 71 39 72 40 73 66 74 67 75 76 76 68 77 69 78 75 79
REMARK SMILES IDX 77 80 70 81 71 82 72 83 73 84 74 85 50 86 51 87 60 88 52 89
REMARK SMILES IDX 53 90 59 91 61 92 54 93 55 94 56 95 57 96 58 97
REMARK H PARENT 13 6 3 17 3 18 82 47 48 58
REMARK Flexibility Score: 90.00
ROOT
ATOM      1  O   UNL     1       3.743   1.857  -1.064  1.00  0.00    -0.458 OA
ENDROOT
BRANCH   1   2
ATOM      2  C   UNL     1       4.844   1.829  -1.850  1.00  0.00     0.361 C 
ATOM      3  O   UNL     1       5.875   1.225  -1.574  1.00  0.00    -0.245 OA
BRANCH   2   4
ATOM      4  C   UNL     1       4.714   2.702  -3.091  1.00  0.00     0.386 C 
BRANCH   4   5
ATOM      5  N   UNL     1       3.362   2.899  -3.604  1.00  0.00    -0.324 N 
ATOM      6  H   UNL     1       3.818   3.466  -4.318  1.00  0.00     0.348 HD
BRANCH   5   7
ATOM      7  C   UNL     1       2.538   4.001  -3.165  1.00  0.00     0.284 C 
BRANCH   7   8
ATOM      8  C   UNL     1       1.647   3.814  -1.914  1.00  0.00     0.180 C 
BRANCH   8   9
ATOM      9  N   UNL     1       0.834   2.595  -1.660  1.00  0.00    -0.336 N 
BRANCH   9  10
ATOM     10  C   UNL     1       0.460   2.411  -0.306  1.00  0.00     0.232 C 
ATOM     11  O   UNL     1       0.964   3.135   0.571  1.00  0.00    -0.274 OA
BRANCH  10  12
ATOM     12  C   UNL     1      -0.690   1.488   0.190  1.00  0.00     0.142 C 
ATOM     13  C   UNL     1       0.775  -0.044   1.900  1.00  0.00     0.076 C 
ATOM     14  C   UNL     1      -0.536   0.582   1.453  1.00  0.00     0.192 C 
ATOM     15  N   UNL     1      -1.508  -0.519   1.248  1.00  0.00    -0.343 N 
ATOM     16  C   UNL     1      -1.668  -0.662  -0.199  1.00  0.00     0.261 C 
ATOM     17  H   UNL     1      -2.402  -0.286   1.680  1.00  0.00     0.346 HD
ATOM     18  H   UNL     1      -1.180  -1.387   1.671  1.00  0.00     0.346 HD
ATOM     19  C   UNL     1      -1.714   0.773  -0.676  1.00  0.00     0.081 C 
ENDBRANCH  10  12
ENDBRANCH   9  10
BRANCH   9  20
ATOM     20  C   UNL     1       0.923   1.467  -2.587  1.00  0.00     0.125 C 
BRANCH  20  21
ATOM     21  C   UNL     1       1.241   1.685  -4.069  1.00  0.00     0.083 CG0
ATOM     22  G   UNL     1       2.735   1.852  -4.370  1.00  0.00     0.000 G0
ENDBRANCH  20  21
ENDBRANCH   9  20
ENDBRANCH   8   9
ENDBRANCH   7   8
ENDBRANCH   5   7
BRANCH   5  23
ATOM     23  C   UNL     1       2.735   1.852  -4.370  1.00  0.00     0.264 CG0
ATOM     24  G   UNL     1       1.241   1.685  -4.069  1.00  0.00     0.000 G0
ENDBRANCH   5  23
ENDBRANCH   4   5
ENDBRANCH   2   4
ENDBRANCH   1   2
BRANCH   1  25
ATOM     25  C   UNL     1       3.801   1.115   0.161  1.00  0.00     0.274 C 
BRANCH  25  26
ATOM     26  C   UNL     1       3.272  -0.300  -0.021  1.00  0.00     0.275 C 
BRANCH  26  27
ATOM     27  O   UNL     1       4.112  -1.062  -0.880  1.00  0.00    -0.458 OA
BRANCH  27  28
ATOM     28  C   UNL     1       3.598  -1.306  -2.090  1.00  0.00     0.338 C 
ATOM     29  O   UNL     1       2.513  -0.992  -2.573  1.00  0.00    -0.246 OA
BRANCH  28  30
ATOM     30  C   UNL     1       4.453  -2.198  -2.807  1.00  0.00     0.060 A 
ATOM     31  C   UNL     1       5.448  -1.681  -3.633  1.00  0.00     0.016 A 
ATOM     32  C   UNL     1       4.077  -3.542  -2.775  1.00  0.00     0.016 A 
ATOM     33  C   UNL     1       6.072  -2.556  -4.490  1.00  0.00     0.010 A 
ATOM     34  C   UNL     1       4.733  -4.421  -3.600  1.00  0.00     0.010 A 
ATOM     35  C   UNL     1       5.718  -3.918  -4.455  1.00  0.00    -0.014 A 
BRANCH  35  36
ATOM     36  C   UNL     1       6.508  -4.855  -5.243  1.00  0.00     0.031 A 
ATOM     37  C   UNL     1       5.946  -5.422  -6.495  1.00  0.00     0.074 A 
ATOM     38  C   UNL     1       7.734  -5.106  -4.759  1.00  0.00     0.049 A 
ATOM     39  N   UNL     1       6.521  -6.210  -7.355  1.00  0.00    -0.248 NA
ATOM     40  C   UNL     1       4.552  -5.074  -6.825  1.00  0.00     0.031 C 
ATOM     41  C   UNL     1       8.264  -4.558  -3.501  1.00  0.00     0.029 A 
ATOM     42  N   UNL     1       8.764  -5.833  -5.265  1.00  0.00    -0.354 N 
ATOM     43  C   UNL     1       5.563  -6.467  -8.324  1.00  0.00     0.074 A 
ATOM     44  C   UNL     1       4.359  -5.765  -7.940  1.00  0.00     0.031 C 
ATOM     45  C   UNL     1       9.550  -4.907  -3.377  1.00  0.00     0.029 A 
ATOM     46  C   UNL     1       9.906  -5.747  -4.508  1.00  0.00     0.049 A 
ATOM     47  H   UNL     1       8.699  -6.365  -6.090  1.00  0.00     0.167 HD
ATOM     48  C   UNL     1       5.710  -7.234  -9.428  1.00  0.00     0.037 A 
ATOM     49  C   UNL     1      11.109  -6.298  -4.727  1.00  0.00     0.037 A 
ATOM     50  C   UNL     1       6.947  -7.911  -9.727  1.00  0.00     0.049 A 
ATOM     51  C   UNL     1      11.250  -7.104  -5.981  1.00  0.00     0.074 A 
ATOM     52  C   UNL     1       7.252  -8.740 -10.788  1.00  0.00     0.029 A 
ATOM     53  N   UNL     1       8.095  -7.825  -8.940  1.00  0.00    -0.354 N 
ATOM     54  N   UNL     1      10.341  -7.349  -6.901  1.00  0.00    -0.248 NA
ATOM     55  C   UNL     1      12.556  -7.709  -6.234  1.00  0.00     0.031 C 
ATOM     56  C   UNL     1       8.572  -9.181 -10.624  1.00  0.00     0.029 A 
ATOM     57  C   UNL     1       9.108  -8.592  -9.485  1.00  0.00     0.049 A 
ATOM     58  H   UNL     1       8.173  -7.295  -8.115  1.00  0.00     0.167 HD
ATOM     59  C   UNL     1      10.960  -8.149  -7.844  1.00  0.00     0.074 A 
ATOM     60  C   UNL     1      12.336  -8.308  -7.397  1.00  0.00     0.031 C 
ATOM     61  C   UNL     1      10.450  -8.719  -8.965  1.00  0.00     0.037 A 
BRANCH  48  62
ATOM     62  C   UNL     1       4.516  -7.404 -10.325  1.00  0.00     0.058 A 
ATOM     63  C   UNL     1       4.022  -6.351 -11.114  1.00  0.00     0.135 A 
ATOM     64  C   UNL     1       3.841  -8.633 -10.388  1.00  0.00     0.135 A 
ATOM     65  F   UNL     1       4.607  -5.143 -11.073  1.00  0.00    -0.206 F 
ATOM     66  C   UNL     1       2.893  -6.505 -11.915  1.00  0.00     0.059 A 
ATOM     67  C   UNL     1       2.723  -8.817 -11.199  1.00  0.00     0.059 A 
ATOM     68  F   UNL     1       4.256  -9.670  -9.643  1.00  0.00    -0.206 F 
ATOM     69  C   UNL     1       2.248  -7.743 -11.949  1.00  0.00     0.060 A 
BRANCH  69  70
ATOM     70  S   UNL     1       0.784  -7.929 -12.991  1.00  0.00     0.124 S 
ATOM     71  O   UNL     1      -0.212  -7.180 -12.231  1.00  0.00    -0.237 OA
ATOM     72  O   UNL     1       1.213  -7.319 -14.245  1.00  0.00    -0.237 OA
ATOM     73  O   UNL     1       0.581  -9.374 -13.037  1.00  0.00    -0.744 OA
ENDBRANCH  69  70
ENDBRANCH  48  62
BRANCH  49  74
ATOM     74  C   UNL     1      12.208  -6.079  -3.755  1.00  0.00     0.058 A 
ATOM     75  C   UNL     1      13.322  -5.292  -4.078  1.00  0.00     0.135 A 
ATOM     76  C   UNL     1      12.121  -6.577  -2.444  1.00  0.00     0.135 A 
ATOM     77  F   UNL     1      13.444  -4.776  -5.311  1.00  0.00    -0.206 F 
ATOM     78  C   UNL     1      14.316  -5.018  -3.143  1.00  0.00     0.059 A 
ATOM     79  C   UNL     1      13.086  -6.294  -1.484  1.00  0.00     0.059 A 
ATOM     80  F   UNL     1      11.056  -7.306  -2.071  1.00  0.00    -0.206 F 
ATOM     81  C   UNL     1      14.188  -5.523  -1.847  1.00  0.00     0.060 A 
BRANCH  81  82
ATOM     82  S   UNL     1      15.458  -5.128  -0.626  1.00  0.00     0.124 S 
ATOM     83  O   UNL     1      16.546  -6.005  -1.043  1.00  0.00    -0.237 OA
ATOM     84  O   UNL     1      15.667  -3.701  -0.846  1.00  0.00    -0.237 OA
ATOM     85  O   UNL     1      14.821  -5.471   0.643  1.00  0.00    -0.744 OA
ENDBRANCH  81  82
ENDBRANCH  49  74
BRANCH  61  86
ATOM     86  C   UNL     1      11.408  -9.559  -9.749  1.00  0.00     0.058 A 
ATOM     87  C   UNL     1      11.809 -10.823  -9.290  1.00  0.00     0.135 A 
ATOM     88  C   UNL     1      11.932  -9.089 -10.961  1.00  0.00     0.135 A 
ATOM     89  F   UNL     1      11.337 -11.303  -8.129  1.00  0.00    -0.206 F 
ATOM     90  C   UNL     1      12.738 -11.578  -9.990  1.00  0.00     0.059 A 
ATOM     91  C   UNL     1      12.840  -9.841 -11.692  1.00  0.00     0.059 A 
ATOM     92  F   UNL     1      11.565  -7.889 -11.438  1.00  0.00    -0.206 F 
ATOM     93  C   UNL     1      13.253 -11.074 -11.187  1.00  0.00     0.060 A 
BRANCH  93  94
ATOM     94  S   UNL     1      14.467 -12.058 -12.085  1.00  0.00     0.124 S 
ATOM     95  O   UNL     1      15.674 -11.813 -11.303  1.00  0.00    -0.237 OA
ATOM     96  O   UNL     1      13.912 -13.404 -11.991  1.00  0.00    -0.237 OA
ATOM     97  O   UNL     1      14.452 -11.472 -13.422  1.00  0.00    -0.744 OA
ENDBRANCH  93  94
ENDBRANCH  61  86
ENDBRANCH  35  36
ENDBRANCH  28  30
ENDBRANCH  27  28
ENDBRANCH  26  27
ENDBRANCH  25  26
ENDBRANCH   1  25
TORSDOF 17
