REMARK SMILES C[C@H]1CC[C@@H]([C@H](C(=O)OCCOC(=O)c2ccc(-c3c4nc(c(-c5c(F)cc(S(=O)(=O)[O-])cc5F)c5ccc([nH]5)c(-c5c(F)cc(S(=O)(=O)[O-])cc5F)c5nc(c(-c6c(F)cc(S(=O)(=O)[O-])cc6F)c6ccc3[nH]6)C=C5)C=C4)cc2)[C@@H]2CCS(=O)(=O)C2)C[C@@H]1C
REMARK SMILES IDX 11 1 10 2 9 3 7 4 8 5 6 6 5 7 1 8 2 9 3 10 89 11 4 12 88 13
REMARK SMILES IDX 90 14 81 15 82 16 87 17 83 18 84 19 85 20 86 21 12 22 13 23
REMARK SMILES IDX 14 24 15 25 16 26 80 27 17 28 79 29 18 30 19 31 20 32 73 33
REMARK SMILES IDX 21 34 78 35 72 36 74 37 22 38 77 39 71 40 70 41 23 43 57 44
REMARK SMILES IDX 36 45 56 46 37 47 40 48 55 49 75 50 38 51 39 52 54 54 76 55
REMARK SMILES IDX 41 56 24 57 25 58 34 59 26 60 27 61 33 62 35 63 28 64 29 65
REMARK SMILES IDX 30 66 31 67 32 68 58 69 59 70 68 71 60 72 61 73 67 74 69 75
REMARK SMILES IDX 62 76 63 77 64 78 65 79 66 80 42 81 43 82 52 83 44 84 45 85
REMARK SMILES IDX 51 86 53 87 46 88 47 89 48 90 49 91 50 92
REMARK H PARENT 74 42 40 53
REMARK Flexibility Score: inf
ROOT
ATOM      1  C   UNL     1      -1.345  -4.941  -3.085  1.00  0.00     0.275 C 
ENDROOT
BRANCH   1   2
ATOM      2  C   UNL     1      -2.072  -5.191  -1.740  1.00  0.00     0.274 C 
BRANCH   2   3
ATOM      3  O   UNL     1      -1.752  -4.251  -0.656  1.00  0.00    -0.462 OA
BRANCH   3   4
ATOM      4  C   UNL     1      -0.906  -4.678   0.324  1.00  0.00     0.309 C 
ATOM      5  O   UNL     1      -0.418  -5.804   0.344  1.00  0.00    -0.252 OA
BRANCH   4   6
ATOM      6  C   UNL     1      -0.747  -3.707   1.521  1.00  0.00     0.106 C 
BRANCH   6   7
ATOM      7  C   UNL     1       0.461  -2.658   1.599  1.00  0.00     0.004 C 
ATOM      8  C   UNL     1      -0.311   1.121  -0.589  1.00  0.00     0.008 C 
ATOM      9  C   UNL     1       0.456   0.073   0.226  1.00  0.00    -0.011 C 
ATOM     10  C   UNL     1      -0.232  -0.142   1.583  1.00  0.00     0.004 C 
ATOM     11  C   UNL     1       0.596  -1.243  -0.553  1.00  0.00    -0.011 C 
ATOM     12  C   UNL     1       0.264  -1.346   2.391  1.00  0.00     0.005 C 
ATOM     13  C   UNL     1       1.275  -2.282   0.353  1.00  0.00     0.008 C 
ATOM     14  C   UNL     1       1.376  -1.000  -1.864  1.00  0.00     0.008 C 
ENDBRANCH   6   7
BRANCH   6  15
ATOM     15  C   UNL     1      -2.102  -3.292   2.164  1.00  0.00     0.019 C 
ATOM     16  C   UNL     1      -3.050  -4.466   2.517  1.00  0.00     0.021 C 
ATOM     17  C   UNL     1      -2.891  -2.243   1.382  1.00  0.00     0.141 C 
ATOM     18  C   UNL     1      -4.124  -4.598   1.454  1.00  0.00     0.137 C 
ATOM     19  S   UNL     1      -4.462  -2.939   0.924  1.00  0.00     0.150 S 
ATOM     20  O   UNL     1      -4.608  -2.921  -0.514  1.00  0.00    -0.229 OA
ATOM     21  O   UNL     1      -5.476  -2.384   1.803  1.00  0.00    -0.229 OA
ENDBRANCH   6  15
ENDBRANCH   4   6
ENDBRANCH   3   4
ENDBRANCH   2   3
ENDBRANCH   1   2
BRANCH   1  22
ATOM     22  O   UNL     1       0.015  -5.453  -3.072  1.00  0.00    -0.458 OA
BRANCH  22  23
ATOM     23  C   UNL     1       0.780  -4.591  -2.384  1.00  0.00     0.338 C 
ATOM     24  O   UNL     1       0.322  -3.560  -1.923  1.00  0.00    -0.246 OA
BRANCH  23  25
ATOM     25  C   UNL     1       2.196  -4.849  -2.128  1.00  0.00     0.060 A 
ATOM     26  C   UNL     1       2.539  -5.349  -0.864  1.00  0.00     0.016 A 
ATOM     27  C   UNL     1       3.112  -4.070  -2.845  1.00  0.00     0.016 A 
ATOM     28  C   UNL     1       3.779  -5.034  -0.301  1.00  0.00     0.010 A 
ATOM     29  C   UNL     1       4.379  -3.816  -2.317  1.00  0.00     0.010 A 
ATOM     30  C   UNL     1       4.730  -4.322  -1.056  1.00  0.00    -0.014 A 
BRANCH  30  31
ATOM     31  C   UNL     1       6.170  -4.506  -0.756  1.00  0.00     0.031 A 
ATOM     32  C   UNL     1       7.092  -3.404  -0.331  1.00  0.00     0.074 A 
ATOM     33  C   UNL     1       6.624  -5.741  -1.050  1.00  0.00     0.049 A 
ATOM     34  N   UNL     1       8.397  -3.430  -0.242  1.00  0.00    -0.248 NA
ATOM     35  C   UNL     1       6.495  -2.108   0.023  1.00  0.00     0.031 C 
ATOM     36  C   UNL     1       5.777  -6.843  -1.534  1.00  0.00     0.029 A 
ATOM     37  N   UNL     1       7.875  -6.284  -1.028  1.00  0.00    -0.354 N 
ATOM     38  C   UNL     1       8.790  -2.153   0.148  1.00  0.00     0.074 A 
ATOM     39  C   UNL     1       7.575  -1.375   0.290  1.00  0.00     0.031 C 
ATOM     40  C   UNL     1       6.522  -7.926  -1.745  1.00  0.00     0.029 A 
ATOM     41  C   UNL     1       7.906  -7.573  -1.507  1.00  0.00     0.049 A 
ATOM     42  H   UNL     1       8.672  -5.805  -0.704  1.00  0.00     0.167 HD
ATOM     43  C   UNL     1      10.054  -1.697   0.346  1.00  0.00     0.037 A 
ATOM     44  C   UNL     1       8.938  -8.380  -1.792  1.00  0.00     0.037 A 
ATOM     45  C   UNL     1      11.230  -2.529   0.184  1.00  0.00     0.049 A 
ATOM     46  C   UNL     1      10.307  -7.856  -1.542  1.00  0.00     0.074 A 
ATOM     47  C   UNL     1      12.556  -2.206   0.417  1.00  0.00     0.029 A 
ATOM     48  N   UNL     1      11.219  -3.847  -0.263  1.00  0.00    -0.354 N 
ATOM     49  N   UNL     1      10.656  -6.658  -1.140  1.00  0.00    -0.248 NA
ATOM     50  C   UNL     1      11.415  -8.780  -1.777  1.00  0.00     0.031 C 
ATOM     51  C   UNL     1      13.347  -3.308   0.067  1.00  0.00     0.029 A 
ATOM     52  C   UNL     1      12.514  -4.340  -0.337  1.00  0.00     0.049 A 
ATOM     53  H   UNL     1      10.409  -4.356  -0.494  1.00  0.00     0.167 HD
ATOM     54  C   UNL     1      12.037  -6.674  -1.079  1.00  0.00     0.074 A 
ATOM     55  C   UNL     1      12.450  -8.018  -1.453  1.00  0.00     0.031 C 
ATOM     56  C   UNL     1      12.887  -5.671  -0.751  1.00  0.00     0.037 A 
BRANCH  43  57
ATOM     57  C   UNL     1      10.261  -0.249   0.731  1.00  0.00     0.058 A 
ATOM     58  C   UNL     1       9.917   0.244   2.000  1.00  0.00     0.135 A 
ATOM     59  C   UNL     1      10.912   0.637  -0.148  1.00  0.00     0.135 A 
ATOM     60  F   UNL     1       9.295  -0.548   2.887  1.00  0.00    -0.206 F 
ATOM     61  C   UNL     1      10.195   1.559   2.377  1.00  0.00     0.059 A 
ATOM     62  C   UNL     1      11.220   1.949   0.216  1.00  0.00     0.059 A 
ATOM     63  F   UNL     1      11.274   0.227  -1.373  1.00  0.00    -0.206 F 
ATOM     64  C   UNL     1      10.849   2.404   1.479  1.00  0.00     0.060 A 
BRANCH  64  65
ATOM     65  S   UNL     1      11.223   4.097   1.992  1.00  0.00     0.124 S 
ATOM     66  O   UNL     1       9.897   4.707   1.977  1.00  0.00    -0.237 OA
ATOM     67  O   UNL     1      11.813   3.902   3.312  1.00  0.00    -0.237 OA
ATOM     68  O   UNL     1      12.142   4.572   0.963  1.00  0.00    -0.744 OA
ENDBRANCH  64  65
ENDBRANCH  43  57
BRANCH  44  69
ATOM     69  C   UNL     1       8.655  -9.729  -2.336  1.00  0.00     0.058 A 
ATOM     70  C   UNL     1       8.746 -10.858  -1.513  1.00  0.00     0.135 A 
ATOM     71  C   UNL     1       8.116  -9.893  -3.624  1.00  0.00     0.135 A 
ATOM     72  F   UNL     1       9.236 -10.742  -0.269  1.00  0.00    -0.206 F 
ATOM     73  C   UNL     1       8.304 -12.104  -1.942  1.00  0.00     0.059 A 
ATOM     74  C   UNL     1       7.640 -11.123  -4.064  1.00  0.00     0.059 A 
ATOM     75  F   UNL     1       7.961  -8.829  -4.429  1.00  0.00    -0.206 F 
ATOM     76  C   UNL     1       7.740 -12.223  -3.214  1.00  0.00     0.060 A 
BRANCH  76  77
ATOM     77  S   UNL     1       7.069 -13.822  -3.716  1.00  0.00     0.124 S 
ATOM     78  O   UNL     1       8.286 -14.569  -4.012  1.00  0.00    -0.237 OA
ATOM     79  O   UNL     1       6.338 -14.239  -2.524  1.00  0.00    -0.237 OA
ATOM     80  O   UNL     1       6.235 -13.490  -4.867  1.00  0.00    -0.744 OA
ENDBRANCH  76  77
ENDBRANCH  44  69
BRANCH  56  81
ATOM     81  C   UNL     1      14.343  -6.018  -0.805  1.00  0.00     0.058 A 
ATOM     82  C   UNL     1      15.007  -6.178  -2.032  1.00  0.00     0.135 A 
ATOM     83  C   UNL     1      15.069  -6.228   0.376  1.00  0.00     0.135 A 
ATOM     84  F   UNL     1      14.344  -6.008  -3.187  1.00  0.00    -0.206 F 
ATOM     85  C   UNL     1      16.337  -6.572  -2.085  1.00  0.00     0.059 A 
ATOM     86  C   UNL     1      16.408  -6.597   0.346  1.00  0.00     0.059 A 
ATOM     87  F   UNL     1      14.474  -6.088   1.571  1.00  0.00    -0.206 F 
ATOM     88  C   UNL     1      17.027  -6.785  -0.890  1.00  0.00     0.060 A 
BRANCH  88  89
ATOM     89  S   UNL     1      18.752  -7.304  -0.973  1.00  0.00     0.124 S 
ATOM     90  O   UNL     1      18.617  -8.705  -1.359  1.00  0.00    -0.237 OA
ATOM     91  O   UNL     1      19.298  -6.414  -1.992  1.00  0.00    -0.237 OA
ATOM     92  O   UNL     1      19.241  -7.069   0.383  1.00  0.00    -0.744 OA
ENDBRANCH  88  89
ENDBRANCH  56  81
ENDBRANCH  30  31
ENDBRANCH  23  25
ENDBRANCH  22  23
ENDBRANCH   1  22
TORSDOF 16
