REMARK SMILES O=C(OCCOC(=O)[C@@H]1CC[C@H](CNC(=O)C2CCOCC2)O1)c1ccc(-c2c3nc(c(-c4c(F)cc(S(=O)(=O)[O-])cc4F)c4ccc([nH]4)c(-c4c(F)cc(S(=O)(=O)[O-])cc4F)c4nc(c(-c5c(F)cc(S(=O)(=O)[O-])cc5F)c5ccc2[nH]5)C=C4)C=C3)cc1
REMARK SMILES IDX 4 1 3 2 2 3 1 4 24 5 25 6 89 7 26 8 88 9 27 10 28 11 29 12
REMARK SMILES IDX 82 13 30 14 87 15 81 16 83 17 31 18 86 19 80 20 79 21 32 23
REMARK SMILES IDX 66 24 45 25 65 26 46 27 49 28 64 29 84 30 47 31 48 32 63 34
REMARK SMILES IDX 85 35 50 36 33 37 34 38 43 39 35 40 36 41 42 42 44 43 37 44
REMARK SMILES IDX 38 45 39 46 40 47 41 48 67 49 68 50 77 51 69 52 70 53 76 54
REMARK SMILES IDX 78 55 71 56 72 57 73 58 74 59 75 60 51 61 52 62 61 63 53 64
REMARK SMILES IDX 54 65 60 66 62 67 55 68 56 69 57 70 58 71 59 72 5 73 6 74
REMARK SMILES IDX 7 75 8 76 9 77 10 78 23 79 11 80 12 81 13 82 14 83 15 84
REMARK SMILES IDX 16 86 17 87 18 88 22 89 19 90 21 91 20 92
REMARK H PARENT 83 22 49 33 14 85
REMARK Flexibility Score: inf
ROOT
ATOM      1  C   UNL     1       3.801  -1.198   1.643  1.00  0.00     0.275 C 
ENDROOT
BRANCH   1   2
ATOM      2  O   UNL     1       2.912  -0.130   1.383  1.00  0.00    -0.458 OA
BRANCH   2   3
ATOM      3  C   UNL     1       3.034   0.697   0.328  1.00  0.00     0.338 C 
ATOM      4  O   UNL     1       2.135   1.520   0.147  1.00  0.00    -0.246 OA
BRANCH   3   5
ATOM      5  C   UNL     1       4.160   0.598  -0.679  1.00  0.00     0.060 A 
ATOM      6  C   UNL     1       5.336  -0.200  -0.741  1.00  0.00     0.016 A 
ATOM      7  C   UNL     1       3.889   1.341  -1.792  1.00  0.00     0.016 A 
ATOM      8  C   UNL     1       6.149  -0.340  -1.897  1.00  0.00     0.010 A 
ATOM      9  C   UNL     1       4.667   1.147  -2.912  1.00  0.00     0.010 A 
ATOM     10  C   UNL     1       5.814   0.332  -3.045  1.00  0.00    -0.014 A 
BRANCH  10  11
ATOM     11  C   UNL     1       6.548   0.253  -4.373  1.00  0.00     0.031 A 
ATOM     12  C   UNL     1       6.745   1.561  -5.087  1.00  0.00     0.074 A 
ATOM     13  C   UNL     1       6.638  -0.871  -5.123  1.00  0.00     0.049 A 
ATOM     14  N   UNL     1       7.179   1.946  -6.550  1.00  0.00    -0.248 NA
ATOM     15  C   UNL     1       6.042   3.059  -4.083  1.00  0.00     0.031 C 
ATOM     16  C   UNL     1       6.181  -2.194  -4.699  1.00  0.00     0.029 A 
ATOM     17  N   UNL     1       6.957  -1.054  -6.458  1.00  0.00    -0.354 N 
ATOM     18  C   UNL     1       6.850   3.742  -6.870  1.00  0.00     0.074 A 
ATOM     19  C   UNL     1       5.964   4.209  -5.064  1.00  0.00     0.031 C 
ATOM     20  C   UNL     1       6.131  -3.014  -5.764  1.00  0.00     0.029 A 
ATOM     21  C   UNL     1       6.600  -2.299  -6.947  1.00  0.00     0.049 A 
ATOM     22  H   UNL     1       7.396  -0.364  -7.007  1.00  0.00     0.167 HD
ATOM     23  C   UNL     1       7.530   4.351  -7.953  1.00  0.00     0.037 A 
ATOM     24  C   UNL     1       6.627  -2.814  -8.197  1.00  0.00     0.037 A 
ATOM     25  C   UNL     1       8.150   3.574  -9.024  1.00  0.00     0.049 A 
ATOM     26  C   UNL     1       7.227  -2.012  -9.324  1.00  0.00     0.074 A 
ATOM     27  C   UNL     1       9.019   4.057  -9.995  1.00  0.00     0.029 A 
ATOM     28  N   UNL     1       7.952   2.227  -9.313  1.00  0.00    -0.354 N 
ATOM     29  N   UNL     1       7.572  -0.750  -9.344  1.00  0.00    -0.248 NA
ATOM     30  C   UNL     1       7.509  -2.730 -10.578  1.00  0.00     0.031 C 
ATOM     31  C   UNL     1       9.331   3.029 -10.874  1.00  0.00     0.029 A 
ATOM     32  C   UNL     1       8.690   1.882 -10.444  1.00  0.00     0.049 A 
ATOM     33  H   UNL     1       7.380   1.613  -8.798  1.00  0.00     0.167 HD
ATOM     34  C   UNL     1       8.170  -0.539 -10.581  1.00  0.00     0.074 A 
ATOM     35  C   UNL     1       8.137  -1.802 -11.286  1.00  0.00     0.031 C 
ATOM     36  C   UNL     1       8.719   0.591 -11.084  1.00  0.00     0.037 A 
BRANCH  23  37
ATOM     37  C   UNL     1       7.952   5.827  -8.054  1.00  0.00     0.058 A 
ATOM     38  C   UNL     1       9.178   6.245  -7.488  1.00  0.00     0.135 A 
ATOM     39  C   UNL     1       7.181   6.826  -8.657  1.00  0.00     0.135 A 
ATOM     40  F   UNL     1      10.071   5.332  -7.066  1.00  0.00    -0.206 F 
ATOM     41  C   UNL     1       9.434   7.583  -7.194  1.00  0.00     0.059 A 
ATOM     42  C   UNL     1       7.423   8.179  -8.395  1.00  0.00     0.059 A 
ATOM     43  F   UNL     1       6.107   6.497  -9.392  1.00  0.00    -0.206 F 
ATOM     44  C   UNL     1       8.494   8.534  -7.572  1.00  0.00     0.060 A 
BRANCH  44  45
ATOM     45  S   UNL     1       8.623  10.217  -6.926  1.00  0.00     0.124 S 
ATOM     46  O   UNL     1       7.804  10.146  -5.719  1.00  0.00    -0.237 OA
ATOM     47  O   UNL     1      10.056  10.379  -6.696  1.00  0.00    -0.237 OA
ATOM     48  O   UNL     1       8.074  11.028  -8.009  1.00  0.00    -0.744 OA
ENDBRANCH  44  45
ENDBRANCH  23  37
BRANCH  24  49
ATOM     49  C   UNL     1       6.168  -4.209  -8.463  1.00  0.00     0.058 A 
ATOM     50  C   UNL     1       7.103  -5.246  -8.619  1.00  0.00     0.135 A 
ATOM     51  C   UNL     1       4.810  -4.531  -8.611  1.00  0.00     0.135 A 
ATOM     52  F   UNL     1       8.414  -4.985  -8.507  1.00  0.00    -0.206 F 
ATOM     53  C   UNL     1       6.713  -6.544  -8.932  1.00  0.00     0.059 A 
ATOM     54  C   UNL     1       4.394  -5.830  -8.908  1.00  0.00     0.059 A 
ATOM     55  F   UNL     1       3.873  -3.581  -8.459  1.00  0.00    -0.206 F 
ATOM     56  C   UNL     1       5.355  -6.829  -9.070  1.00  0.00     0.060 A 
BRANCH  56  57
ATOM     57  S   UNL     1       4.872  -8.538  -9.412  1.00  0.00     0.124 S 
ATOM     58  O   UNL     1       5.395  -8.733 -10.759  1.00  0.00    -0.237 OA
ATOM     59  O   UNL     1       5.562  -9.261  -8.348  1.00  0.00    -0.237 OA
ATOM     60  O   UNL     1       3.417  -8.505  -9.297  1.00  0.00    -0.744 OA
ENDBRANCH  56  57
ENDBRANCH  24  49
BRANCH  36  61
ATOM     61  C   UNL     1       9.476   0.485 -12.386  1.00  0.00     0.058 A 
ATOM     62  C   UNL     1       8.831   0.372 -13.625  1.00  0.00     0.135 A 
ATOM     63  C   UNL     1      10.880   0.596 -12.388  1.00  0.00     0.135 A 
ATOM     64  F   UNL     1       7.495   0.247 -13.683  1.00  0.00    -0.206 F 
ATOM     65  C   UNL     1       9.547   0.366 -14.820  1.00  0.00     0.059 A 
ATOM     66  C   UNL     1      11.612   0.628 -13.571  1.00  0.00     0.059 A 
ATOM     67  F   UNL     1      11.551   0.719 -11.232  1.00  0.00    -0.206 F 
ATOM     68  C   UNL     1      10.937   0.506 -14.783  1.00  0.00     0.060 A 
BRANCH  68  69
ATOM     69  S   UNL     1      11.847   0.565 -16.342  1.00  0.00     0.124 S 
ATOM     70  O   UNL     1      11.776  -0.826 -16.778  1.00  0.00    -0.237 OA
ATOM     71  O   UNL     1      11.065   1.516 -17.125  1.00  0.00    -0.237 OA
ATOM     72  O   UNL     1      13.173   1.030 -15.946  1.00  0.00    -0.744 OA
ENDBRANCH  68  69
ENDBRANCH  36  61
ENDBRANCH  10  11
ENDBRANCH   3   5
ENDBRANCH   2   3
ENDBRANCH   1   2
BRANCH   1  73
ATOM     73  C   UNL     1       3.575  -2.420   0.723  1.00  0.00     0.274 C 
BRANCH  73  74
ATOM     74  O   UNL     1       3.359  -2.155  -0.705  1.00  0.00    -0.460 OA
BRANCH  74  75
ATOM     75  C   UNL     1       2.068  -2.061  -1.157  1.00  0.00     0.335 C 
ATOM     76  O   UNL     1       1.106  -2.186  -0.403  1.00  0.00    -0.249 OA
BRANCH  75  77
ATOM     77  C   UNL     1       1.892  -1.817  -2.723  1.00  0.00     0.228 C 
ATOM     78  C   UNL     1       2.663  -2.788  -3.592  1.00  0.00     0.047 C 
ATOM     79  O   UNL     1       2.109  -0.553  -3.373  1.00  0.00    -0.361 OA
ATOM     80  C   UNL     1       2.471  -2.235  -5.004  1.00  0.00     0.037 C 
ATOM     81  C   UNL     1       2.235  -0.735  -4.851  1.00  0.00     0.138 C 
BRANCH  81  82
ATOM     82  C   UNL     1       3.316   0.289  -5.366  1.00  0.00     0.147 C 
BRANCH  82  83
ATOM     83  N   UNL     1       3.896   0.539  -6.689  1.00  0.00    -0.353 N 
ATOM     84  C   UNL     1       4.897   1.462  -7.112  1.00  0.00     0.223 C 
ATOM     85  H   UNL     1       3.532  -0.026  -7.407  1.00  0.00     0.163 HD
ATOM     86  O   UNL     1       5.208   1.390  -8.307  1.00  0.00    -0.275 OA
BRANCH  84  87
ATOM     87  C   UNL     1       5.513   2.755  -6.082  1.00  0.00     0.083 C 
ATOM     88  C   UNL     1       4.651   4.256  -6.872  1.00  0.00     0.042 C 
ATOM     89  C   UNL     1       7.577   3.344  -5.283  1.00  0.00     0.042 C 
ATOM     90  C   UNL     1       5.270   5.847  -6.498  1.00  0.00     0.161 C 
ATOM     91  C   UNL     1       7.775   5.235  -5.114  1.00  0.00     0.161 C 
ATOM     92  O   UNL     1       6.741   6.169  -5.943  1.00  0.00    -0.381 OA
ENDBRANCH  84  87
ENDBRANCH  82  83
ENDBRANCH  81  82
ENDBRANCH  75  77
ENDBRANCH  74  75
ENDBRANCH  73  74
ENDBRANCH   1  73
TORSDOF 17
