REMARK SMILES CC(C)(C)OC(=O)N1CCN(C(=O)c2ccc3c(c2)OCO3)[C@H](C(=O)OCCOC(=O)c2ccc(-c3c4nc(c(-c5c(F)cc(S(=O)(=O)[O-])cc5F)c5ccc([nH]5)c(-c5c(F)cc(S(=O)(=O)[O-])cc5F)c5nc(c(-c6c(F)cc(S(=O)(=O)[O-])cc6F)c6ccc3[nH]6)C=C5)C=C4)cc2)C1
REMARK SMILES IDX 27 1 26 2 24 3 25 4 23 5 8 6 9 7 98 8 10 9 11 10 6 11 7 12
REMARK SMILES IDX 5 13 2 14 1 15 3 16 4 17 12 18 13 19 14 20 15 21 19 22 16 23
REMARK SMILES IDX 18 24 17 25 20 26 22 27 21 28 28 29 29 30 30 31 31 32 32 33
REMARK SMILES IDX 33 34 97 35 34 36 96 37 35 38 36 39 37 40 90 41 38 42 95 43
REMARK SMILES IDX 89 44 91 45 39 46 94 47 88 48 87 49 40 51 74 52 53 53 73 54
REMARK SMILES IDX 54 55 57 56 72 57 92 58 55 59 56 60 71 62 93 63 58 64 41 65
REMARK SMILES IDX 42 66 51 67 43 68 44 69 50 70 52 71 45 72 46 73 47 74 48 75
REMARK SMILES IDX 49 76 75 77 76 78 85 79 77 80 78 81 84 82 86 83 79 84 80 85
REMARK SMILES IDX 81 86 82 87 83 88 59 89 60 90 69 91 61 92 62 93 68 94 70 95
REMARK SMILES IDX 63 96 64 97 65 98 66 99 67 100
REMARK H PARENT 91 50 57 61
REMARK Flexibility Score: inf
ROOT
ATOM      1  C   UNL     1       5.938   0.621  -5.708  1.00  0.00     0.274 C 
ENDROOT
BRANCH   1   2
ATOM      2  O   UNL     1       4.521   0.540  -5.411  1.00  0.00    -0.460 OA
BRANCH   2   3
ATOM      3  C   UNL     1       3.918  -0.482  -6.067  1.00  0.00     0.330 C 
ATOM      4  O   UNL     1       4.567  -1.322  -6.664  1.00  0.00    -0.250 OA
BRANCH   3   5
ATOM      5  C   UNL     1       2.401  -0.539  -5.965  1.00  0.00     0.215 C 
ATOM      6  N   UNL     1       0.867  -1.775  -4.278  1.00  0.00    -0.304 N 
ATOM      7  C   UNL     1       0.336  -2.575  -5.371  1.00  0.00     0.144 C 
ATOM      8  C   UNL     1       2.131  -1.070  -4.515  1.00  0.00     0.160 C 
ATOM      9  C   UNL     1       0.360  -1.802  -6.678  1.00  0.00     0.142 C 
ATOM     10  N   UNL     1       1.714  -1.368  -7.038  1.00  0.00    -0.321 N 
BRANCH   6  11
ATOM     11  C   UNL     1       0.398  -2.039  -3.001  1.00  0.00     0.410 C 
ATOM     12  O   UNL     1      -0.458  -2.887  -2.759  1.00  0.00    -0.224 OA
BRANCH  11  13
ATOM     13  O   UNL     1       0.951  -1.228  -2.068  1.00  0.00    -0.444 OA
BRANCH  13  14
ATOM     14  C   UNL     1       0.505  -1.261  -0.686  1.00  0.00     0.106 C 
ATOM     15  C   UNL     1       1.133  -0.006  -0.061  1.00  0.00     0.056 C 
ATOM     16  C   UNL     1       1.042  -2.501   0.035  1.00  0.00     0.056 C 
ATOM     17  C   UNL     1      -1.020  -1.148  -0.552  1.00  0.00     0.056 C 
ENDBRANCH  13  14
ENDBRANCH  11  13
ENDBRANCH   6  11
BRANCH  10  18
ATOM     18  C   UNL     1       1.965  -1.375  -8.429  1.00  0.00     0.254 C 
ATOM     19  O   UNL     1       1.097  -1.625  -9.265  1.00  0.00    -0.269 OA
BRANCH  18  20
ATOM     20  C   UNL     1       3.319  -1.185  -8.982  1.00  0.00     0.044 A 
ATOM     21  C   UNL     1       4.201  -2.294  -9.050  1.00  0.00     0.018 A 
ATOM     22  C   UNL     1       3.721   0.079  -9.421  1.00  0.00     0.064 A 
ATOM     23  C   UNL     1       5.542  -2.110  -9.410  1.00  0.00     0.051 A 
ATOM     24  C   UNL     1       5.042   0.217  -9.800  1.00  0.00     0.166 A 
ATOM     25  C   UNL     1       5.933  -0.837  -9.767  1.00  0.00     0.165 A 
ATOM     26  O   UNL     1       5.635   1.378 -10.193  1.00  0.00    -0.454 OA
ATOM     27  O   UNL     1       7.197  -0.457 -10.094  1.00  0.00    -0.454 OA
ATOM     28  C   UNL     1       6.987   0.929 -10.423  1.00  0.00     0.468 C 
ENDBRANCH  18  20
ENDBRANCH  10  18
ENDBRANCH   3   5
ENDBRANCH   2   3
ENDBRANCH   1   2
BRANCH   1  29
ATOM     29  C   UNL     1       6.859  -0.392  -4.979  1.00  0.00     0.275 C 
BRANCH  29  30
ATOM     30  O   UNL     1       6.709  -1.781  -5.370  1.00  0.00    -0.458 OA
BRANCH  30  31
ATOM     31  C   UNL     1       5.837  -2.506  -4.619  1.00  0.00     0.338 C 
ATOM     32  O   UNL     1       5.263  -2.103  -3.617  1.00  0.00    -0.246 OA
BRANCH  31  33
ATOM     33  C   UNL     1       5.492  -3.810  -5.247  1.00  0.00     0.060 A 
ATOM     34  C   UNL     1       4.170  -4.021  -5.664  1.00  0.00     0.016 A 
ATOM     35  C   UNL     1       6.394  -4.868  -5.306  1.00  0.00     0.016 A 
ATOM     36  C   UNL     1       3.729  -5.262  -6.110  1.00  0.00     0.010 A 
ATOM     37  C   UNL     1       5.954  -6.126  -5.757  1.00  0.00     0.010 A 
ATOM     38  C   UNL     1       4.613  -6.336  -6.141  1.00  0.00    -0.014 A 
BRANCH  38  39
ATOM     39  C   UNL     1       4.094  -7.689  -6.465  1.00  0.00     0.031 A 
ATOM     40  C   UNL     1       3.959  -8.707  -5.367  1.00  0.00     0.074 A 
ATOM     41  C   UNL     1       3.686  -7.991  -7.713  1.00  0.00     0.049 A 
ATOM     42  N   UNL     1       3.632  -9.971  -5.440  1.00  0.00    -0.248 NA
ATOM     43  C   UNL     1       4.231  -8.232  -4.002  1.00  0.00     0.031 C 
ATOM     44  C   UNL     1       3.658  -7.060  -8.841  1.00  0.00     0.029 A 
ATOM     45  N   UNL     1       3.214  -9.168  -8.239  1.00  0.00    -0.354 N 
ATOM     46  C   UNL     1       3.689 -10.453  -4.137  1.00  0.00     0.074 A 
ATOM     47  C   UNL     1       4.104  -9.347  -3.299  1.00  0.00     0.031 C 
ATOM     48  C   UNL     1       3.196  -7.703  -9.927  1.00  0.00     0.029 A 
ATOM     49  C   UNL     1       2.954  -9.103  -9.587  1.00  0.00     0.049 A 
ATOM     50  H   UNL     1       3.075  -9.981  -7.702  1.00  0.00     0.167 HD
ATOM     51  C   UNL     1       3.421 -11.702  -3.683  1.00  0.00     0.037 A 
ATOM     52  C   UNL     1       2.598 -10.069 -10.457  1.00  0.00     0.037 A 
ATOM     53  C   UNL     1       3.005 -12.792  -4.530  1.00  0.00     0.049 A 
ATOM     54  C   UNL     1       2.415 -11.477  -9.954  1.00  0.00     0.074 A 
ATOM     55  C   UNL     1       2.718 -14.098  -4.175  1.00  0.00     0.029 A 
ATOM     56  N   UNL     1       2.823 -12.704  -5.904  1.00  0.00    -0.354 N 
ATOM     57  N   UNL     1       2.512 -11.935  -8.728  1.00  0.00    -0.248 NA
ATOM     58  C   UNL     1       2.084 -12.502 -10.953  1.00  0.00     0.031 C 
ATOM     59  C   UNL     1       2.424 -14.814  -5.341  1.00  0.00     0.029 A 
ATOM     60  C   UNL     1       2.459 -13.940  -6.416  1.00  0.00     0.049 A 
ATOM     61  H   UNL     1       2.935 -11.884  -6.437  1.00  0.00     0.167 HD
ATOM     62  C   UNL     1       2.222 -13.293  -8.803  1.00  0.00     0.074 A 
ATOM     63  C   UNL     1       1.943 -13.581 -10.195  1.00  0.00     0.031 C 
ATOM     64  C   UNL     1       2.183 -14.215  -7.807  1.00  0.00     0.037 A 
BRANCH  51  65
ATOM     65  C   UNL     1       3.640 -11.962  -2.215  1.00  0.00     0.058 A 
ATOM     66  C   UNL     1       2.835 -11.380  -1.221  1.00  0.00     0.135 A 
ATOM     67  C   UNL     1       4.696 -12.788  -1.794  1.00  0.00     0.135 A 
ATOM     68  F   UNL     1       1.819 -10.571  -1.562  1.00  0.00    -0.206 F 
ATOM     69  C   UNL     1       3.106 -11.558   0.133  1.00  0.00     0.059 A 
ATOM     70  C   UNL     1       4.963 -13.009  -0.446  1.00  0.00     0.059 A 
ATOM     71  F   UNL     1       5.496 -13.376  -2.697  1.00  0.00    -0.206 F 
ATOM     72  C   UNL     1       4.180 -12.366   0.510  1.00  0.00     0.060 A 
BRANCH  72  73
ATOM     73  S   UNL     1       4.556 -12.542   2.267  1.00  0.00     0.124 S 
ATOM     74  O   UNL     1       5.109 -11.228   2.579  1.00  0.00    -0.237 OA
ATOM     75  O   UNL     1       3.245 -12.829   2.840  1.00  0.00    -0.237 OA
ATOM     76  O   UNL     1       5.508 -13.647   2.303  1.00  0.00    -0.744 OA
ENDBRANCH  72  73
ENDBRANCH  51  65
BRANCH  52  77
ATOM     77  C   UNL     1       2.403  -9.735 -11.894  1.00  0.00     0.058 A 
ATOM     78  C   UNL     1       1.127  -9.767 -12.475  1.00  0.00     0.135 A 
ATOM     79  C   UNL     1       3.480  -9.346 -12.707  1.00  0.00     0.135 A 
ATOM     80  F   UNL     1       0.068 -10.150 -11.747  1.00  0.00    -0.206 F 
ATOM     81  C   UNL     1       0.924  -9.421 -13.808  1.00  0.00     0.059 A 
ATOM     82  C   UNL     1       3.299  -8.969 -14.034  1.00  0.00     0.059 A 
ATOM     83  F   UNL     1       4.723  -9.297 -12.200  1.00  0.00    -0.206 F 
ATOM     84  C   UNL     1       2.015  -9.012 -14.576  1.00  0.00     0.060 A 
BRANCH  84  85
ATOM     85  S   UNL     1       1.725  -8.491 -16.282  1.00  0.00     0.124 S 
ATOM     86  O   UNL     1       1.385  -9.757 -16.923  1.00  0.00    -0.237 OA
ATOM     87  O   UNL     1       0.629  -7.540 -16.128  1.00  0.00    -0.237 OA
ATOM     88  O   UNL     1       3.002  -7.907 -16.678  1.00  0.00    -0.744 OA
ENDBRANCH  84  85
ENDBRANCH  52  77
BRANCH  64  89
ATOM     89  C   UNL     1       1.785 -15.621  -8.175  1.00  0.00     0.058 A 
ATOM     90  C   UNL     1       2.632 -16.466  -8.909  1.00  0.00     0.135 A 
ATOM     91  C   UNL     1       0.558 -16.148  -7.737  1.00  0.00     0.135 A 
ATOM     92  F   UNL     1       3.813 -16.015  -9.361  1.00  0.00    -0.206 F 
ATOM     93  C   UNL     1       2.268 -17.775  -9.214  1.00  0.00     0.059 A 
ATOM     94  C   UNL     1       0.188 -17.462  -8.002  1.00  0.00     0.059 A 
ATOM     95  F   UNL     1      -0.287 -15.387  -7.023  1.00  0.00    -0.206 F 
ATOM     96  C   UNL     1       1.045 -18.266  -8.751  1.00  0.00     0.060 A 
BRANCH  96  97
ATOM     97  S   UNL     1       0.604 -19.978  -9.119  1.00  0.00     0.124 S 
ATOM     98  O   UNL     1       0.319 -19.909 -10.549  1.00  0.00    -0.237 OA
ATOM     99  O   UNL     1       1.819 -20.698  -8.749  1.00  0.00    -0.237 OA
ATOM    100  O   UNL     1      -0.550 -20.225  -8.260  1.00  0.00    -0.744 OA
ENDBRANCH  96  97
ENDBRANCH  64  89
ENDBRANCH  38  39
ENDBRANCH  31  33
ENDBRANCH  30  31
ENDBRANCH  29  30
ENDBRANCH   1  29
TORSDOF 19
