REMARK SMILES C[C@@]([NH2+]CCC1CC1)(C(=O)OCCOC(=O)c1ccc(-c2c3nc(c(-c4c(F)cc(S(=O)(=O)[O-])cc4F)c4ccc([nH]4)c(-c4c(F)cc(S(=O)(=O)[O-])cc4F)c4nc(c(-c5c(F)cc(S(=O)(=O)[O-])cc5F)c5ccc2[nH]5)C=C4)C=C3)cc1)C(F)(F)F
REMARK SMILES IDX 12 1 11 2 9 3 10 4 2 5 1 6 3 7 4 10 5 11 6 12 7 13 8 14
REMARK SMILES IDX 83 15 84 16 85 17 86 18 13 19 14 20 15 21 16 22 17 23 18 24
REMARK SMILES IDX 82 25 19 26 81 27 20 28 21 29 22 30 75 31 23 32 80 33 74 34
REMARK SMILES IDX 76 35 24 36 79 37 73 38 72 39 25 41 59 42 38 43 58 44 39 45
REMARK SMILES IDX 42 46 57 47 77 48 40 49 41 50 56 52 78 53 43 54 26 55 27 56
REMARK SMILES IDX 36 57 28 58 29 59 35 60 37 61 30 62 31 63 32 64 33 65 34 66
REMARK SMILES IDX 60 67 61 68 70 69 62 70 63 71 69 72 71 73 64 74 65 75 66 76
REMARK SMILES IDX 67 77 68 78 44 79 45 80 54 81 46 82 47 83 53 84 55 85 48 86
REMARK SMILES IDX 49 87 50 88 51 89 52 90
REMARK H PARENT 3 8 3 9 76 40 42 51
REMARK Flexibility Score: inf
ROOT
ATOM      1  C   UNL     1      -2.955   1.079   0.581  1.00  0.00     0.274 C 
ENDROOT
BRANCH   1   2
ATOM      2  O   UNL     1      -1.551   1.028   0.250  1.00  0.00    -0.457 OA
BRANCH   2   3
ATOM      3  C   UNL     1      -0.679   0.922   1.296  1.00  0.00     0.377 C 
ATOM      4  O   UNL     1      -1.047   0.840   2.463  1.00  0.00    -0.244 OA
BRANCH   3   5
ATOM      5  C   UNL     1       0.794   0.934   0.855  1.00  0.00     0.287 C 
ATOM      6  C   UNL     1       0.918   1.147  -0.671  1.00  0.00     0.103 C 
BRANCH   5   7
ATOM      7  N   UNL     1       1.588   2.084   1.437  1.00  0.00    -0.325 N 
ATOM      8  H   UNL     1       1.506   2.864   0.784  1.00  0.00     0.347 HD
ATOM      9  H   UNL     1       2.521   1.694   1.569  1.00  0.00     0.347 HD
BRANCH   7  10
ATOM     10  C   UNL     1       1.234   2.599   2.765  1.00  0.00     0.261 C 
BRANCH  10  11
ATOM     11  C   UNL     1       1.532   1.746   4.006  1.00  0.00     0.065 C 
BRANCH  11  12
ATOM     12  C   UNL     1       2.964   1.613   4.448  1.00  0.00    -0.006 C 
ATOM     13  C   UNL     1       3.949   0.758   3.691  1.00  0.00     0.004 C 
ATOM     14  C   UNL     1       4.149   2.246   3.759  1.00  0.00     0.004 C 
ENDBRANCH  11  12
ENDBRANCH  10  11
ENDBRANCH   7  10
ENDBRANCH   5   7
BRANCH   5  15
ATOM     15  C   UNL     1       1.323  -0.489   1.134  1.00  0.00     0.455 C 
ATOM     16  F   UNL     1       0.598  -1.429   0.487  1.00  0.00    -0.164 F 
ATOM     17  F   UNL     1       2.603  -0.607   0.690  1.00  0.00    -0.164 F 
ATOM     18  F   UNL     1       1.343  -0.814   2.439  1.00  0.00    -0.164 F 
ENDBRANCH   5  15
ENDBRANCH   3   5
ENDBRANCH   2   3
ENDBRANCH   1   2
BRANCH   1  19
ATOM     19  C   UNL     1      -3.598  -0.296   0.419  1.00  0.00     0.275 C 
BRANCH  19  20
ATOM     20  O   UNL     1      -3.023  -1.194   1.381  1.00  0.00    -0.458 OA
BRANCH  20  21
ATOM     21  C   UNL     1      -2.813  -2.462   0.963  1.00  0.00     0.338 C 
ATOM     22  O   UNL     1      -3.147  -2.939  -0.114  1.00  0.00    -0.246 OA
BRANCH  21  23
ATOM     23  C   UNL     1      -2.096  -3.220   2.010  1.00  0.00     0.060 A 
ATOM     24  C   UNL     1      -1.076  -2.616   2.743  1.00  0.00     0.016 A 
ATOM     25  C   UNL     1      -2.368  -4.574   2.201  1.00  0.00     0.016 A 
ATOM     26  C   UNL     1      -0.258  -3.375   3.575  1.00  0.00     0.010 A 
ATOM     27  C   UNL     1      -1.617  -5.312   3.127  1.00  0.00     0.010 A 
ATOM     28  C   UNL     1      -0.521  -4.733   3.793  1.00  0.00    -0.014 A 
BRANCH  28  29
ATOM     29  C   UNL     1       0.383  -5.545   4.660  1.00  0.00     0.031 A 
ATOM     30  C   UNL     1       1.054  -6.781   4.109  1.00  0.00     0.074 A 
ATOM     31  C   UNL     1       0.648  -5.165   5.928  1.00  0.00     0.049 A 
ATOM     32  N   UNL     1       1.727  -7.709   4.741  1.00  0.00    -0.248 NA
ATOM     33  C   UNL     1       0.936  -7.013   2.660  1.00  0.00     0.031 C 
ATOM     34  C   UNL     1       0.106  -3.978   6.592  1.00  0.00     0.029 A 
ATOM     35  N   UNL     1       1.459  -5.731   6.882  1.00  0.00    -0.354 N 
ATOM     36  C   UNL     1       2.054  -8.663   3.784  1.00  0.00     0.074 A 
ATOM     37  C   UNL     1       1.506  -8.203   2.527  1.00  0.00     0.031 C 
ATOM     38  C   UNL     1       0.640  -3.873   7.818  1.00  0.00     0.029 A 
ATOM     39  C   UNL     1       1.493  -5.030   8.065  1.00  0.00     0.049 A 
ATOM     40  H   UNL     1       1.967  -6.561   6.734  1.00  0.00     0.167 HD
ATOM     41  C   UNL     1       2.748  -9.817   3.938  1.00  0.00     0.037 A 
ATOM     42  C   UNL     1       2.111  -5.299   9.232  1.00  0.00     0.037 A 
ATOM     43  C   UNL     1       3.355 -10.241   5.174  1.00  0.00     0.049 A 
ATOM     44  C   UNL     1       2.904  -6.567   9.369  1.00  0.00     0.074 A 
ATOM     45  C   UNL     1       4.057 -11.405   5.437  1.00  0.00     0.029 A 
ATOM     46  N   UNL     1       3.365  -9.498   6.345  1.00  0.00    -0.354 N 
ATOM     47  N   UNL     1       3.107  -7.510   8.482  1.00  0.00    -0.248 NA
ATOM     48  C   UNL     1       3.532  -6.818  10.674  1.00  0.00     0.031 C 
ATOM     49  C   UNL     1       4.484 -11.370   6.771  1.00  0.00     0.029 A 
ATOM     50  C   UNL     1       4.071 -10.171   7.329  1.00  0.00     0.049 A 
ATOM     51  H   UNL     1       2.934  -8.620   6.460  1.00  0.00     0.167 HD
ATOM     52  C   UNL     1       3.874  -8.475   9.125  1.00  0.00     0.074 A 
ATOM     53  C   UNL     1       4.133  -7.981  10.462  1.00  0.00     0.031 C 
ATOM     54  C   UNL     1       4.309  -9.671   8.657  1.00  0.00     0.037 A 
BRANCH  41  55
ATOM     55  C   UNL     1       2.866 -10.722   2.744  1.00  0.00     0.058 A 
ATOM     56  C   UNL     1       3.733 -10.435   1.678  1.00  0.00     0.135 A 
ATOM     57  C   UNL     1       2.122 -11.912   2.681  1.00  0.00     0.135 A 
ATOM     58  F   UNL     1       4.452  -9.302   1.678  1.00  0.00    -0.206 F 
ATOM     59  C   UNL     1       3.843 -11.286   0.582  1.00  0.00     0.059 A 
ATOM     60  C   UNL     1       2.232 -12.788   1.606  1.00  0.00     0.059 A 
ATOM     61  F   UNL     1       1.276 -12.232   3.673  1.00  0.00    -0.206 F 
ATOM     62  C   UNL     1       3.086 -12.460   0.554  1.00  0.00     0.060 A 
BRANCH  62  63
ATOM     63  S   UNL     1       3.244 -13.562  -0.868  1.00  0.00     0.124 S 
ATOM     64  O   UNL     1       2.452 -12.858  -1.871  1.00  0.00    -0.237 OA
ATOM     65  O   UNL     1       4.685 -13.579  -1.096  1.00  0.00    -0.237 OA
ATOM     66  O   UNL     1       2.675 -14.818  -0.387  1.00  0.00    -0.744 OA
ENDBRANCH  62  63
ENDBRANCH  41  55
BRANCH  42  67
ATOM     67  C   UNL     1       1.960  -4.367  10.381  1.00  0.00     0.058 A 
ATOM     68  C   UNL     1       3.034  -3.581  10.824  1.00  0.00     0.135 A 
ATOM     69  C   UNL     1       0.732  -4.234  11.048  1.00  0.00     0.135 A 
ATOM     70  F   UNL     1       4.231  -3.683  10.226  1.00  0.00    -0.206 F 
ATOM     71  C   UNL     1       2.898  -2.699  11.892  1.00  0.00     0.059 A 
ATOM     72  C   UNL     1       0.565  -3.341  12.100  1.00  0.00     0.059 A 
ATOM     73  F   UNL     1      -0.329  -4.956  10.655  1.00  0.00    -0.206 F 
ATOM     74  C   UNL     1       1.658  -2.584  12.522  1.00  0.00     0.060 A 
BRANCH  74  75
ATOM     75  S   UNL     1       1.461  -1.391  13.864  1.00  0.00     0.124 S 
ATOM     76  O   UNL     1       1.996  -2.135  14.997  1.00  0.00    -0.237 OA
ATOM     77  O   UNL     1       2.265  -0.264  13.402  1.00  0.00    -0.237 OA
ATOM     78  O   UNL     1       0.020  -1.153  13.884  1.00  0.00    -0.744 OA
ENDBRANCH  74  75
ENDBRANCH  42  67
BRANCH  54  79
ATOM     79  C   UNL     1       5.106 -10.517   9.606  1.00  0.00     0.058 A 
ATOM     80  C   UNL     1       4.488 -11.212  10.658  1.00  0.00     0.135 A 
ATOM     81  C   UNL     1       6.497 -10.632   9.467  1.00  0.00     0.135 A 
ATOM     82  F   UNL     1       3.160 -11.129  10.834  1.00  0.00    -0.206 F 
ATOM     83  C   UNL     1       5.229 -11.964  11.564  1.00  0.00     0.059 A 
ATOM     84  C   UNL     1       7.255 -11.395  10.351  1.00  0.00     0.059 A 
ATOM     85  F   UNL     1       7.133  -9.994   8.472  1.00  0.00    -0.206 F 
ATOM     86  C   UNL     1       6.614 -12.041  11.407  1.00  0.00     0.060 A 
BRANCH  86  87
ATOM     87  S   UNL     1       7.572 -13.008  12.594  1.00  0.00     0.124 S 
ATOM     88  O   UNL     1       7.663 -12.083  13.718  1.00  0.00    -0.237 OA
ATOM     89  O   UNL     1       6.727 -14.180  12.804  1.00  0.00    -0.237 OA
ATOM     90  O   UNL     1       8.823 -13.265  11.886  1.00  0.00    -0.744 OA
ENDBRANCH  86  87
ENDBRANCH  54  79
ENDBRANCH  28  29
ENDBRANCH  21  23
ENDBRANCH  20  21
ENDBRANCH  19  20
ENDBRANCH   1  19
TORSDOF 19
