REMARK SMILES Cc1ccc(C(c2ccccc2)(c2ccccc2)n2cnc(C[C@H]([NH3+])C(=O)OCCOC(=O)c3ccc(-c4c5nc(c(-c6c(F)cc(S(=O)(=O)[O-])cc6F)c6ccc([nH]6)c(-c6c(F)cc(S(=O)(=O)[O-])cc6F)c6nc(c(-c7c(F)cc(S(=O)(=O)[O-])cc7F)c7ccc4[nH]7)C=C6)C=C5)cc3)c2)cc1
REMARK SMILES IDX 29 1 28 2 26 3 27 4 24 5 23 6 22 7 19 8 20 9 100 10 21 11
REMARK SMILES IDX 6 12 5 13 1 14 2 15 3 16 102 17 4 18 101 19 7 20 8 21 12 22
REMARK SMILES IDX 9 23 11 24 10 25 13 26 14 27 18 28 15 29 17 30 16 31 25 32
REMARK SMILES IDX 30 36 31 37 32 38 33 39 34 40 35 41 99 42 36 43 98 44 37 45
REMARK SMILES IDX 38 46 39 47 92 48 40 49 97 50 91 51 93 52 41 53 96 54 90 55
REMARK SMILES IDX 89 56 42 58 76 59 55 60 75 61 56 62 59 63 74 64 94 65 57 66
REMARK SMILES IDX 58 67 73 69 95 70 60 71 43 72 44 73 53 74 45 75 46 76 52 77
REMARK SMILES IDX 54 78 47 79 48 80 49 81 50 82 51 83 77 84 78 85 87 86 79 87
REMARK SMILES IDX 80 88 86 89 88 90 81 91 82 92 83 93 84 94 85 95 61 96 62 97
REMARK SMILES IDX 71 98 63 99 64 100 70 101 72 102 65 103 66 104 67 105 68 106
REMARK SMILES IDX 69 107
REMARK H PARENT 25 33 25 34 25 35 93 57 59 68
REMARK Flexibility Score: inf
ROOT
ATOM      1  C   UNL     1      -9.134  -6.956   4.157  1.00  0.00     0.274 C 
ENDROOT
BRANCH   1   2
ATOM      2  O   UNL     1      -8.536  -7.121   2.865  1.00  0.00    -0.458 OA
BRANCH   2   3
ATOM      3  C   UNL     1      -8.576  -5.965   2.155  1.00  0.00     0.365 C 
ATOM      4  O   UNL     1      -9.564  -5.252   2.288  1.00  0.00    -0.245 OA
BRANCH   3   5
ATOM      5  C   UNL     1      -7.306  -5.459   1.266  1.00  0.00     0.297 C 
BRANCH   5   6
ATOM      6  C   UNL     1      -8.198  -4.641  -0.175  1.00  0.00     0.135 C 
BRANCH   6   7
ATOM      7  C   UNL     1      -8.466  -5.166  -1.630  1.00  0.00     0.065 A 
ATOM      8  N   UNL     1      -9.005  -5.378  -3.829  1.00  0.00    -0.319 N 
ATOM      9  C   UNL     1      -9.566  -6.365  -3.072  1.00  0.00     0.201 A 
ATOM     10  C   UNL     1      -8.227  -4.642  -2.911  1.00  0.00     0.112 A 
ATOM     11  N   UNL     1      -9.330  -6.201  -1.800  1.00  0.00    -0.241 NA
BRANCH   8  12
ATOM     12  C   UNL     1      -9.517  -5.068  -5.241  1.00  0.00     0.121 C 
BRANCH  12  13
ATOM     13  C   UNL     1      -9.659  -6.414  -6.113  1.00  0.00    -0.013 A 
ATOM     14  C   UNL     1     -11.102 -11.086  -7.913  1.00  0.00     0.044 C 
ATOM     15  C   UNL     1     -10.278  -9.138  -7.503  1.00  0.00    -0.051 A 
ATOM     16  C   UNL     1      -9.115  -8.757  -6.601  1.00  0.00     0.004 A 
ATOM     17  C   UNL     1     -10.722  -7.777  -7.926  1.00  0.00     0.004 A 
ATOM     18  C   UNL     1      -8.885  -7.536  -5.896  1.00  0.00     0.007 A 
ATOM     19  C   UNL     1     -10.414  -6.517  -7.289  1.00  0.00     0.007 A 
ENDBRANCH  12  13
BRANCH  12  20
ATOM     20  C   UNL     1     -10.977  -4.419  -4.991  1.00  0.00    -0.013 A 
ATOM     21  C   UNL     1     -11.153  -3.280  -4.176  1.00  0.00     0.007 A 
ATOM     22  C   UNL     1     -12.189  -5.051  -5.372  1.00  0.00     0.007 A 
ATOM     23  C   UNL     1     -12.421  -2.764  -3.853  1.00  0.00     0.000 A 
ATOM     24  C   UNL     1     -13.459  -4.539  -5.062  1.00  0.00     0.000 A 
ATOM     25  C   UNL     1     -13.575  -3.386  -4.306  1.00  0.00     0.000 A 
ENDBRANCH  12  20
BRANCH  12  26
ATOM     26  C   UNL     1      -8.453  -4.142  -5.964  1.00  0.00    -0.013 A 
ATOM     27  C   UNL     1      -7.513  -4.687  -6.875  1.00  0.00     0.007 A 
ATOM     28  C   UNL     1      -8.268  -2.782  -5.654  1.00  0.00     0.007 A 
ATOM     29  C   UNL     1      -6.432  -3.955  -7.377  1.00  0.00     0.000 A 
ATOM     30  C   UNL     1      -7.173  -2.050  -6.136  1.00  0.00     0.000 A 
ATOM     31  C   UNL     1      -6.246  -2.640  -6.984  1.00  0.00     0.000 A 
ENDBRANCH  12  26
ENDBRANCH   8  12
ENDBRANCH   6   7
ENDBRANCH   5   6
BRANCH   5  32
ATOM     32  N   UNL     1      -5.278  -5.868   1.510  1.00  0.00    -0.346 N 
ATOM     33  H   UNL     1      -5.056  -6.762   1.071  1.00  0.00     0.345 HD
ATOM     34  H   UNL     1      -5.057  -5.914   2.505  1.00  0.00     0.345 HD
ATOM     35  H   UNL     1      -4.727  -5.129   1.073  1.00  0.00     0.345 HD
ENDBRANCH   5  32
ENDBRANCH   3   5
ENDBRANCH   2   3
ENDBRANCH   1   2
BRANCH   1  36
ATOM     36  C   UNL     1      -8.319  -6.008   5.098  1.00  0.00     0.275 C 
BRANCH  36  37
ATOM     37  O   UNL     1      -7.948  -4.681   4.567  1.00  0.00    -0.458 OA
BRANCH  37  38
ATOM     38  C   UNL     1      -6.687  -4.207   4.271  1.00  0.00     0.338 C 
ATOM     39  O   UNL     1      -6.171  -3.249   4.826  1.00  0.00    -0.246 OA
BRANCH  38  40
ATOM     40  C   UNL     1      -6.081  -4.804   3.045  1.00  0.00     0.060 A 
ATOM     41  C   UNL     1      -5.801  -3.931   1.425  1.00  0.00     0.016 A 
ATOM     42  C   UNL     1      -6.248  -6.585   3.094  1.00  0.00     0.016 A 
ATOM     43  C   UNL     1      -5.848  -4.937  -0.143  1.00  0.00     0.010 A 
ATOM     44  C   UNL     1      -6.401  -7.530   1.591  1.00  0.00     0.010 A 
ATOM     45  C   UNL     1      -6.305  -6.734  -0.033  1.00  0.00    -0.014 A 
BRANCH  45  46
ATOM     46  C   UNL     1      -6.955  -7.692  -0.930  1.00  0.00     0.031 A 
ATOM     47  C   UNL     1      -6.264  -8.317  -2.058  1.00  0.00     0.074 A 
ATOM     48  C   UNL     1      -8.113  -8.288  -0.486  1.00  0.00     0.049 A 
ATOM     49  N   UNL     1      -6.880  -9.059  -2.924  1.00  0.00    -0.248 NA
ATOM     50  C   UNL     1      -4.835  -8.189  -2.328  1.00  0.00     0.031 C 
ATOM     51  C   UNL     1      -8.522  -9.656  -0.742  1.00  0.00     0.029 A 
ATOM     52  N   UNL     1      -9.207  -7.801   0.291  1.00  0.00    -0.354 N 
ATOM     53  C   UNL     1      -5.910  -9.872  -3.438  1.00  0.00     0.074 A 
ATOM     54  C   UNL     1      -4.697  -9.097  -3.307  1.00  0.00     0.031 C 
ATOM     55  C   UNL     1      -9.823  -9.789  -0.459  1.00  0.00     0.029 A 
ATOM     56  C   UNL     1     -10.370  -8.489  -0.110  1.00  0.00     0.049 A 
ATOM     57  H   UNL     1      -9.157  -7.106   0.986  1.00  0.00     0.167 HD
ATOM     58  C   UNL     1      -6.183 -11.195  -3.644  1.00  0.00     0.037 A 
ATOM     59  C   UNL     1     -11.582  -7.965  -0.486  1.00  0.00     0.037 A 
ATOM     60  C   UNL     1      -7.603 -11.570  -3.441  1.00  0.00     0.049 A 
ATOM     61  C   UNL     1     -12.047  -8.595  -1.792  1.00  0.00     0.074 A 
ATOM     62  C   UNL     1      -8.288 -12.590  -2.793  1.00  0.00     0.029 A 
ATOM     63  N   UNL     1      -8.608 -10.714  -3.871  1.00  0.00    -0.354 N 
ATOM     64  N   UNL     1     -11.664  -9.768  -2.233  1.00  0.00    -0.248 NA
ATOM     65  C   UNL     1     -12.825  -7.875  -2.800  1.00  0.00     0.031 C 
ATOM     66  C   UNL     1      -9.698 -12.387  -2.975  1.00  0.00     0.029 A 
ATOM     67  C   UNL     1      -9.872 -11.260  -3.754  1.00  0.00     0.049 A 
ATOM     68  H   UNL     1      -8.437  -9.810  -4.223  1.00  0.00     0.167 HD
ATOM     69  C   UNL     1     -11.755  -9.764  -3.606  1.00  0.00     0.074 A 
ATOM     70  C   UNL     1     -12.603  -8.622  -3.894  1.00  0.00     0.031 C 
ATOM     71  C   UNL     1     -10.963 -10.546  -4.403  1.00  0.00     0.037 A 
BRANCH  58  72
ATOM     72  C   UNL     1      -5.107 -12.230  -3.927  1.00  0.00     0.058 A 
ATOM     73  C   UNL     1      -5.451 -13.458  -4.530  1.00  0.00     0.135 A 
ATOM     74  C   UNL     1      -3.740 -12.104  -3.588  1.00  0.00     0.135 A 
ATOM     75  F   UNL     1      -6.718 -13.731  -4.874  1.00  0.00    -0.206 F 
ATOM     76  C   UNL     1      -4.517 -14.465  -4.792  1.00  0.00     0.059 A 
ATOM     77  C   UNL     1      -2.777 -13.059  -3.914  1.00  0.00     0.059 A 
ATOM     78  F   UNL     1      -3.276 -11.084  -2.855  1.00  0.00    -0.206 F 
ATOM     79  C   UNL     1      -3.177 -14.250  -4.496  1.00  0.00     0.060 A 
BRANCH  79  80
ATOM     80  S   UNL     1      -1.970 -15.542  -4.839  1.00  0.00     0.124 S 
ATOM     81  O   UNL     1      -2.281 -16.519  -3.801  1.00  0.00    -0.237 OA
ATOM     82  O   UNL     1      -2.304 -15.932  -6.204  1.00  0.00    -0.237 OA
ATOM     83  O   UNL     1      -0.689 -14.856  -4.686  1.00  0.00    -0.744 OA
ENDBRANCH  79  80
ENDBRANCH  58  72
BRANCH  59  84
ATOM     84  C   UNL     1     -11.996  -6.619   0.056  1.00  0.00     0.058 A 
ATOM     85  C   UNL     1     -12.321  -6.526   1.422  1.00  0.00     0.135 A 
ATOM     86  C   UNL     1     -11.904  -5.389  -0.617  1.00  0.00     0.135 A 
ATOM     87  F   UNL     1     -12.556  -7.646   2.126  1.00  0.00    -0.206 F 
ATOM     88  C   UNL     1     -12.352  -5.307   2.115  1.00  0.00     0.059 A 
ATOM     89  C   UNL     1     -11.850  -4.160   0.060  1.00  0.00     0.059 A 
ATOM     90  F   UNL     1     -11.832  -5.342  -1.951  1.00  0.00    -0.206 F 
ATOM     91  C   UNL     1     -11.999  -4.138   1.442  1.00  0.00     0.060 A 
BRANCH  91  92
ATOM     92  S   UNL     1     -11.438  -2.674   2.373  1.00  0.00     0.124 S 
ATOM     93  O   UNL     1     -12.493  -1.708   2.078  1.00  0.00    -0.237 OA
ATOM     94  O   UNL     1     -11.401  -3.133   3.761  1.00  0.00    -0.237 OA
ATOM     95  O   UNL     1     -10.139  -2.365   1.774  1.00  0.00    -0.744 OA
ENDBRANCH  91  92
ENDBRANCH  59  84
BRANCH  71  96
ATOM     96  C   UNL     1     -10.933 -10.472  -5.915  1.00  0.00     0.058 A 
ATOM     97  C   UNL     1     -12.284  -9.734  -6.898  1.00  0.00     0.135 A 
ATOM     98  C   UNL     1      -9.428 -11.042  -6.816  1.00  0.00     0.135 A 
ATOM     99  F   UNL     1     -13.512  -9.606  -6.370  1.00  0.00    -0.206 F 
ATOM    100  C   UNL     1     -12.144  -9.512  -8.692  1.00  0.00     0.059 A 
ATOM    101  C   UNL     1      -9.200 -10.675  -8.600  1.00  0.00     0.059 A 
ATOM    102  F   UNL     1      -8.467 -11.762  -6.227  1.00  0.00    -0.206 F 
ATOM    103  C   UNL     1     -10.563  -9.920  -9.520  1.00  0.00     0.060 A 
BRANCH 103 104
ATOM    104  S   UNL     1     -10.561  -9.976 -11.306  1.00  0.00     0.124 S 
ATOM    105  O   UNL     1     -11.809 -10.683 -11.582  1.00  0.00    -0.237 OA
ATOM    106  O   UNL     1     -10.550  -8.559 -11.651  1.00  0.00    -0.237 OA
ATOM    107  O   UNL     1      -9.344 -10.719 -11.609  1.00  0.00    -0.744 OA
ENDBRANCH 103 104
ENDBRANCH  71  96
ENDBRANCH  45  46
ENDBRANCH  38  40
ENDBRANCH  37  38
ENDBRANCH  36  37
ENDBRANCH   1  36
TORSDOF 21
