REMARK SMILES CS(=O)(=O)[C@@H]1CCC[C@@H](Sc2ccc(C(=O)OCCOC(=O)c3ccc(-c4c5nc(c(-c6c(F)cc(S(=O)(=O)[O-])cc6F)c6ccc([nH]6)c(-c6c(F)cc(S(=O)(=O)[O-])cc6F)c6nc(c(-c7c(F)cc(S(=O)(=O)[O-])cc7F)c7ccc4[nH]7)C=C6)C=C5)cc3)cn2)C1
REMARK SMILES IDX 18 1 17 2 15 3 16 4 14 5 11 6 12 7 90 8 13 9 89 10 10 11
REMARK SMILES IDX 9 12 5 13 6 14 91 15 7 16 8 17 2 18 1 19 3 20 4 21 19 22
REMARK SMILES IDX 20 23 21 24 22 25 23 26 24 27 88 28 25 29 87 30 26 31 27 32
REMARK SMILES IDX 28 33 81 34 29 35 86 36 80 37 82 38 30 39 85 40 79 41 78 42
REMARK SMILES IDX 31 44 65 45 44 46 64 47 45 48 48 49 63 50 83 51 46 52 47 53
REMARK SMILES IDX 62 55 84 56 49 57 32 58 33 59 42 60 34 61 35 62 41 63 43 64
REMARK SMILES IDX 36 65 37 66 38 67 39 68 40 69 66 70 67 71 76 72 68 73 69 74
REMARK SMILES IDX 75 75 77 76 70 77 71 78 72 79 73 80 74 81 50 82 51 83 60 84
REMARK SMILES IDX 52 85 53 86 59 87 61 88 54 89 55 90 56 91 57 92 58 93
REMARK H PARENT 82 43 48 54
REMARK Flexibility Score: inf
ROOT
ATOM      1  C   UNL     1       5.555  -4.072   0.694  1.00  0.00     0.275 C 
ENDROOT
BRANCH   1   2
ATOM      2  O   UNL     1       4.931  -3.062   1.508  1.00  0.00    -0.458 OA
BRANCH   2   3
ATOM      3  C   UNL     1       5.407  -2.917   2.772  1.00  0.00     0.339 C 
ATOM      4  O   UNL     1       6.305  -3.543   3.299  1.00  0.00    -0.246 OA
BRANCH   3   5
ATOM      5  C   UNL     1       4.655  -1.844   3.439  1.00  0.00     0.078 A 
ATOM      6  C   UNL     1       3.217   0.161   4.722  1.00  0.00     0.096 A 
ATOM      7  C   UNL     1       2.583  -0.845   4.026  1.00  0.00     0.036 A 
ATOM      8  N   UNL     1       4.559   0.137   4.839  1.00  0.00    -0.249 NA
ATOM      9  C   UNL     1       3.282  -1.831   3.345  1.00  0.00     0.020 A 
ATOM     10  C   UNL     1       5.245  -0.874   4.234  1.00  0.00     0.128 A 
BRANCH   6  11
ATOM     11  S   UNL     1       2.412   1.523   5.519  1.00  0.00    -0.103 SA
BRANCH  11  12
ATOM     12  C   UNL     1       0.582   1.532   5.171  1.00  0.00     0.054 C 
ATOM     13  C   UNL     1       0.108   0.881   2.759  1.00  0.00     0.109 C 
ATOM     14  C   UNL     1      -0.806  -0.266   3.223  1.00  0.00     0.020 C 
ATOM     15  C   UNL     1       0.148   2.006   3.779  1.00  0.00     0.034 C 
ATOM     16  C   UNL     1      -0.694  -0.707   4.690  1.00  0.00     0.002 C 
ATOM     17  C   UNL     1      -0.224   0.341   5.700  1.00  0.00     0.015 C 
BRANCH  13  18
ATOM     18  S   UNL     1      -0.339   1.455   1.105  1.00  0.00     0.150 S 
ATOM     19  C   UNL     1       0.562   0.333   0.054  1.00  0.00     0.158 C 
ATOM     20  O   UNL     1       0.224   2.773   0.897  1.00  0.00    -0.229 OA
ATOM     21  O   UNL     1      -1.753   1.218   0.888  1.00  0.00    -0.229 OA
ENDBRANCH  13  18
ENDBRANCH  11  12
ENDBRANCH   6  11
ENDBRANCH   3   5
ENDBRANCH   2   3
ENDBRANCH   1   2
BRANCH   1  22
ATOM     22  C   UNL     1       6.478  -3.449  -0.353  1.00  0.00     0.275 C 
BRANCH  22  23
ATOM     23  O   UNL     1       7.585  -2.790   0.285  1.00  0.00    -0.458 OA
BRANCH  23  24
ATOM     24  C   UNL     1       7.502  -1.440   0.319  1.00  0.00     0.338 C 
ATOM     25  O   UNL     1       6.638  -0.741  -0.184  1.00  0.00    -0.246 OA
BRANCH  24  26
ATOM     26  C   UNL     1       8.549  -0.893   1.192  1.00  0.00     0.060 A 
ATOM     27  C   UNL     1       8.348  -0.982   2.562  1.00  0.00     0.016 A 
ATOM     28  C   UNL     1       9.590  -0.119   0.694  1.00  0.00     0.016 A 
ATOM     29  C   UNL     1       9.068  -0.183   3.437  1.00  0.00     0.010 A 
ATOM     30  C   UNL     1      10.418   0.569   1.594  1.00  0.00     0.010 A 
ATOM     31  C   UNL     1      10.136   0.588   2.975  1.00  0.00    -0.014 A 
BRANCH  31  32
ATOM     32  C   UNL     1      10.906   1.448   3.922  1.00  0.00     0.031 A 
ATOM     33  C   UNL     1      11.096   2.912   3.614  1.00  0.00     0.074 A 
ATOM     34  C   UNL     1      11.414   0.943   5.067  1.00  0.00     0.049 A 
ATOM     35  N   UNL     1      11.943   3.764   4.130  1.00  0.00    -0.248 NA
ATOM     36  C   UNL     1      10.233   3.486   2.568  1.00  0.00     0.031 C 
ATOM     37  C   UNL     1      11.245  -0.431   5.547  1.00  0.00     0.029 A 
ATOM     38  N   UNL     1      12.179   1.533   6.045  1.00  0.00    -0.354 N 
ATOM     39  C   UNL     1      11.777   4.945   3.415  1.00  0.00     0.074 A 
ATOM     40  C   UNL     1      10.743   4.702   2.433  1.00  0.00     0.031 C 
ATOM     41  C   UNL     1      11.841  -0.565   6.740  1.00  0.00     0.029 A 
ATOM     42  C   UNL     1      12.549   0.669   7.051  1.00  0.00     0.049 A 
ATOM     43  H   UNL     1      12.437   2.483   6.029  1.00  0.00     0.167 HD
ATOM     44  C   UNL     1      12.435   6.120   3.564  1.00  0.00     0.037 A 
ATOM     45  C   UNL     1      13.418   0.817   8.069  1.00  0.00     0.037 A 
ATOM     46  C   UNL     1      13.405   6.365   4.602  1.00  0.00     0.049 A 
ATOM     47  C   UNL     1      14.164   2.113   8.199  1.00  0.00     0.074 A 
ATOM     48  C   UNL     1      14.130   7.518   4.849  1.00  0.00     0.029 A 
ATOM     49  N   UNL     1      13.765   5.449   5.581  1.00  0.00    -0.354 N 
ATOM     50  N   UNL     1      14.082   3.187   7.452  1.00  0.00    -0.248 NA
ATOM     51  C   UNL     1      15.141   2.209   9.291  1.00  0.00     0.031 C 
ATOM     52  C   UNL     1      14.955   7.286   5.956  1.00  0.00     0.029 A 
ATOM     53  C   UNL     1      14.707   6.007   6.429  1.00  0.00     0.049 A 
ATOM     54  H   UNL     1      13.403   4.537   5.661  1.00  0.00     0.167 HD
ATOM     55  C   UNL     1      14.986   4.094   7.990  1.00  0.00     0.074 A 
ATOM     56  C   UNL     1      15.592   3.447   9.137  1.00  0.00     0.031 C 
ATOM     57  C   UNL     1      15.290   5.347   7.571  1.00  0.00     0.037 A 
BRANCH  44  58
ATOM     58  C   UNL     1      12.169   7.208   2.558  1.00  0.00     0.058 A 
ATOM     59  C   UNL     1      10.958   7.917   2.515  1.00  0.00     0.135 A 
ATOM     60  C   UNL     1      13.161   7.558   1.626  1.00  0.00     0.135 A 
ATOM     61  F   UNL     1       9.967   7.615   3.369  1.00  0.00    -0.206 F 
ATOM     62  C   UNL     1      10.728   8.908   1.563  1.00  0.00     0.059 A 
ATOM     63  C   UNL     1      12.964   8.566   0.686  1.00  0.00     0.059 A 
ATOM     64  F   UNL     1      14.340   6.915   1.620  1.00  0.00    -0.206 F 
ATOM     65  C   UNL     1      11.736   9.223   0.651  1.00  0.00     0.060 A 
BRANCH  65  66
ATOM     66  S   UNL     1      11.423  10.504  -0.583  1.00  0.00     0.124 S 
ATOM     67  O   UNL     1      10.518   9.813  -1.496  1.00  0.00    -0.237 OA
ATOM     68  O   UNL     1      10.825  11.569   0.215  1.00  0.00    -0.237 OA
ATOM     69  O   UNL     1      12.750  10.795  -1.117  1.00  0.00    -0.744 OA
ENDBRANCH  65  66
ENDBRANCH  44  58
BRANCH  45  70
ATOM     70  C   UNL     1      13.677  -0.322   8.993  1.00  0.00     0.058 A 
ATOM     71  C   UNL     1      13.271  -0.277  10.334  1.00  0.00     0.135 A 
ATOM     72  C   UNL     1      14.302  -1.497   8.541  1.00  0.00     0.135 A 
ATOM     73  F   UNL     1      12.682   0.827  10.819  1.00  0.00    -0.206 F 
ATOM     74  C   UNL     1      13.475  -1.352  11.194  1.00  0.00     0.059 A 
ATOM     75  C   UNL     1      14.488  -2.596   9.372  1.00  0.00     0.059 A 
ATOM     76  F   UNL     1      14.701  -1.599   7.263  1.00  0.00    -0.206 F 
ATOM     77  C   UNL     1      14.078  -2.511  10.701  1.00  0.00     0.060 A 
BRANCH  77  78
ATOM     78  S   UNL     1      14.277  -3.926  11.805  1.00  0.00     0.124 S 
ATOM     79  O   UNL     1      15.379  -3.485  12.652  1.00  0.00    -0.237 OA
ATOM     80  O   UNL     1      12.968  -4.003  12.447  1.00  0.00    -0.237 OA
ATOM     81  O   UNL     1      14.582  -5.024  10.892  1.00  0.00    -0.744 OA
ENDBRANCH  77  78
ENDBRANCH  45  70
BRANCH  57  82
ATOM     82  C   UNL     1      16.292   6.115   8.385  1.00  0.00     0.058 A 
ATOM     83  C   UNL     1      17.663   5.819   8.340  1.00  0.00     0.135 A 
ATOM     84  C   UNL     1      15.875   7.190   9.186  1.00  0.00     0.135 A 
ATOM     85  F   UNL     1      18.110   4.795   7.597  1.00  0.00    -0.206 F 
ATOM     86  C   UNL     1      18.585   6.550   9.081  1.00  0.00     0.059 A 
ATOM     87  C   UNL     1      16.783   7.951   9.914  1.00  0.00     0.059 A 
ATOM     88  F   UNL     1      14.575   7.518   9.256  1.00  0.00    -0.206 F 
ATOM     89  C   UNL     1      18.136   7.616   9.864  1.00  0.00     0.060 A 
BRANCH  89  90
ATOM     90  S   UNL     1      19.347   8.578  10.794  1.00  0.00     0.124 S 
ATOM     91  O   UNL     1      19.679   7.662  11.880  1.00  0.00    -0.237 OA
ATOM     92  O   UNL     1      20.398   8.797   9.805  1.00  0.00    -0.237 OA
ATOM     93  O   UNL     1      18.604   9.773  11.184  1.00  0.00    -0.744 OA
ENDBRANCH  89  90
ENDBRANCH  57  82
ENDBRANCH  31  32
ENDBRANCH  24  26
ENDBRANCH  23  24
ENDBRANCH  22  23
ENDBRANCH   1  22
TORSDOF 17
