REMARK SMILES C[C@H](CC(=O)OCCOC(=O)c1ccc(-c2c3nc(c(-c4c(F)cc(S(=O)(=O)[O-])cc4F)c4ccc([nH]4)c(-c4c(F)cc(S(=O)(=O)[O-])cc4F)c4nc(c(-c5c(F)cc(S(=O)(=O)[O-])cc5F)c5ccc2[nH]5)C=C4)C=C3)cc1)NC(=O)Cc1cn2ccsc2n1
REMARK SMILES IDX 7 1 6 2 4 3 5 4 3 5 2 6 1 7 78 8 79 9 80 11 81 12 82 13
REMARK SMILES IDX 83 14 89 15 84 16 88 17 85 18 87 19 86 20 8 21 9 22 10 23
REMARK SMILES IDX 11 24 12 25 13 26 77 27 14 28 76 29 15 30 16 31 17 32 70 33
REMARK SMILES IDX 18 34 75 35 69 36 71 37 19 38 74 39 68 40 67 41 20 43 54 44
REMARK SMILES IDX 33 45 53 46 34 47 37 48 52 49 72 50 35 51 36 52 51 54 73 55
REMARK SMILES IDX 38 56 21 57 22 58 31 59 23 60 24 61 30 62 32 63 25 64 26 65
REMARK SMILES IDX 27 66 28 67 29 68 55 69 56 70 65 71 57 72 58 73 64 74 66 75
REMARK SMILES IDX 59 76 60 77 61 78 62 79 63 80 39 81 40 82 49 83 41 84 42 85
REMARK SMILES IDX 48 86 50 87 43 88 44 89 45 90 46 91 47 92
REMARK H PARENT 78 10 71 42 37 53
REMARK Flexibility Score: inf
ROOT
ATOM      1  C   UNL     1      -1.785   1.221  -2.408  1.00  0.00     0.274 C 
ENDROOT
BRANCH   1   2
ATOM      2  O   UNL     1      -1.227   0.964  -1.102  1.00  0.00    -0.462 OA
BRANCH   2   3
ATOM      3  C   UNL     1      -0.148   0.142  -1.094  1.00  0.00     0.307 C 
ATOM      4  O   UNL     1       0.347  -0.365  -2.095  1.00  0.00    -0.252 OA
BRANCH   3   5
ATOM      5  C   UNL     1       0.377  -0.180   0.281  1.00  0.00     0.147 C 
BRANCH   5   6
ATOM      6  C   UNL     1       0.141   0.797   1.435  1.00  0.00     0.090 C 
ATOM      7  C   UNL     1       0.686   2.206   1.265  1.00  0.00     0.031 C 
BRANCH   6   8
ATOM      8  N   UNL     1      -1.254   0.798   1.836  1.00  0.00    -0.353 N 
ATOM      9  C   UNL     1      -1.860   0.035   2.797  1.00  0.00     0.226 C 
ATOM     10  H   UNL     1      -1.839   1.428   1.355  1.00  0.00     0.163 HD
ATOM     11  O   UNL     1      -3.093   0.025   2.828  1.00  0.00    -0.275 OA
BRANCH   9  12
ATOM     12  C   UNL     1      -1.023  -0.660   3.864  1.00  0.00     0.157 C 
BRANCH  12  13
ATOM     13  C   UNL     1      -0.216  -1.817   3.368  1.00  0.00     0.070 A 
ATOM     14  C   UNL     1       1.164  -1.887   3.174  1.00  0.00     0.118 A 
ATOM     15  N   UNL     1      -0.816  -3.025   3.040  1.00  0.00    -0.223 NA
ATOM     16  N   UNL     1       1.371  -3.105   2.607  1.00  0.00    -0.297 N 
ATOM     17  C   UNL     1       0.176  -3.755   2.608  1.00  0.00     0.193 A 
ATOM     18  C   UNL     1       2.423  -3.780   2.036  1.00  0.00     0.104 A 
ATOM     19  S   UNL     1       0.334  -5.342   1.922  1.00  0.00    -0.105 S 
ATOM     20  C   UNL     1       2.048  -4.997   1.608  1.00  0.00     0.087 A 
ENDBRANCH  12  13
ENDBRANCH   9  12
ENDBRANCH   6   8
ENDBRANCH   5   6
ENDBRANCH   3   5
ENDBRANCH   2   3
ENDBRANCH   1   2
BRANCH   1  21
ATOM     21  C   UNL     1      -1.243   2.521  -3.002  1.00  0.00     0.275 C 
BRANCH  21  22
ATOM     22  O   UNL     1       0.186   2.449  -3.172  1.00  0.00    -0.458 OA
BRANCH  22  23
ATOM     23  C   UNL     1       0.903   3.155  -2.275  1.00  0.00     0.338 C 
ATOM     24  O   UNL     1       0.466   3.893  -1.397  1.00  0.00    -0.246 OA
BRANCH  23  25
ATOM     25  C   UNL     1       2.341   2.914  -2.429  1.00  0.00     0.060 A 
ATOM     26  C   UNL     1       2.932   1.830  -1.780  1.00  0.00     0.016 A 
ATOM     27  C   UNL     1       3.133   3.878  -3.049  1.00  0.00     0.016 A 
ATOM     28  C   UNL     1       4.317   1.738  -1.689  1.00  0.00     0.010 A 
ATOM     29  C   UNL     1       4.524   3.748  -3.018  1.00  0.00     0.010 A 
ATOM     30  C   UNL     1       5.130   2.694  -2.312  1.00  0.00    -0.014 A 
BRANCH  30  31
ATOM     31  C   UNL     1       6.609   2.587  -2.210  1.00  0.00     0.031 A 
ATOM     32  C   UNL     1       7.406   3.646  -1.496  1.00  0.00     0.074 A 
ATOM     33  C   UNL     1       7.233   1.524  -2.754  1.00  0.00     0.049 A 
ATOM     34  N   UNL     1       8.704   3.760  -1.374  1.00  0.00    -0.248 NA
ATOM     35  C   UNL     1       6.647   4.723  -0.841  1.00  0.00     0.031 C 
ATOM     36  C   UNL     1       6.568   0.422  -3.454  1.00  0.00     0.029 A 
ATOM     37  N   UNL     1       8.563   1.195  -2.807  1.00  0.00    -0.354 N 
ATOM     38  C   UNL     1       8.921   4.931  -0.655  1.00  0.00     0.074 A 
ATOM     39  C   UNL     1       7.618   5.503  -0.387  1.00  0.00     0.031 C 
ATOM     40  C   UNL     1       7.489  -0.469  -3.848  1.00  0.00     0.029 A 
ATOM     41  C   UNL     1       8.813   0.027  -3.488  1.00  0.00     0.049 A 
ATOM     42  H   UNL     1       9.271   1.742  -2.397  1.00  0.00     0.167 HD
ATOM     43  C   UNL     1      10.096   5.473  -0.253  1.00  0.00     0.037 A 
ATOM     44  C   UNL     1       9.977  -0.565  -3.814  1.00  0.00     0.037 A 
ATOM     45  C   UNL     1      11.388   4.886  -0.513  1.00  0.00     0.049 A 
ATOM     46  C   UNL     1      11.268   0.076  -3.388  1.00  0.00     0.074 A 
ATOM     47  C   UNL     1      12.636   5.348  -0.131  1.00  0.00     0.029 A 
ATOM     48  N   UNL     1      11.600   3.711  -1.220  1.00  0.00    -0.354 N 
ATOM     49  N   UNL     1      11.454   1.182  -2.708  1.00  0.00    -0.248 NA
ATOM     50  C   UNL     1      12.506  -0.614  -3.771  1.00  0.00     0.031 C 
ATOM     51  C   UNL     1      13.604   4.480  -0.648  1.00  0.00     0.029 A 
ATOM     52  C   UNL     1      12.958   3.443  -1.301  1.00  0.00     0.049 A 
ATOM     53  H   UNL     1      10.890   3.150  -1.607  1.00  0.00     0.167 HD
ATOM     54  C   UNL     1      12.831   1.309  -2.560  1.00  0.00     0.074 A 
ATOM     55  C   UNL     1      13.425   0.155  -3.204  1.00  0.00     0.031 C 
ATOM     56  C   UNL     1      13.539   2.291  -1.948  1.00  0.00     0.037 A 
BRANCH  43  57
ATOM     57  C   UNL     1      10.046   6.784   0.489  1.00  0.00     0.058 A 
ATOM     58  C   UNL     1       9.555   6.878   1.801  1.00  0.00     0.135 A 
ATOM     59  C   UNL     1      10.537   7.957  -0.109  1.00  0.00     0.135 A 
ATOM     60  F   UNL     1       9.060   5.793   2.417  1.00  0.00    -0.206 F 
ATOM     61  C   UNL     1       9.525   8.092   2.482  1.00  0.00     0.059 A 
ATOM     62  C   UNL     1      10.543   9.176   0.564  1.00  0.00     0.059 A 
ATOM     63  F   UNL     1      11.019   7.927  -1.361  1.00  0.00    -0.206 F 
ATOM     64  C   UNL     1      10.022   9.236   1.855  1.00  0.00     0.060 A 
BRANCH  64  65
ATOM     65  S   UNL     1       9.979  10.801   2.754  1.00  0.00     0.124 S 
ATOM     66  O   UNL     1       8.551  11.104   2.741  1.00  0.00    -0.237 OA
ATOM     67  O   UNL     1      10.535  10.430   4.051  1.00  0.00    -0.237 OA
ATOM     68  O   UNL     1      10.815  11.682   1.945  1.00  0.00    -0.744 OA
ENDBRANCH  64  65
ENDBRANCH  43  57
BRANCH  44  69
ATOM     69  C   UNL     1       9.971  -1.830  -4.596  1.00  0.00     0.058 A 
ATOM     70  C   UNL     1      10.376  -3.041  -4.015  1.00  0.00     0.135 A 
ATOM     71  C   UNL     1       9.544  -1.857  -5.934  1.00  0.00     0.135 A 
ATOM     72  F   UNL     1      10.797  -3.066  -2.742  1.00  0.00    -0.206 F 
ATOM     73  C   UNL     1      10.374  -4.230  -4.736  1.00  0.00     0.059 A 
ATOM     74  C   UNL     1       9.503  -3.039  -6.665  1.00  0.00     0.059 A 
ATOM     75  F   UNL     1       9.130  -0.728  -6.530  1.00  0.00    -0.206 F 
ATOM     76  C   UNL     1       9.932  -4.219  -6.060  1.00  0.00     0.060 A 
BRANCH  76  77
ATOM     77  S   UNL     1       9.884  -5.778  -6.969  1.00  0.00     0.124 S 
ATOM     78  O   UNL     1      11.302  -6.019  -7.211  1.00  0.00    -0.237 OA
ATOM     79  O   UNL     1       9.238  -6.670  -6.011  1.00  0.00    -0.237 OA
ATOM     80  O   UNL     1       9.088  -5.454  -8.149  1.00  0.00    -0.744 OA
ENDBRANCH  76  77
ENDBRANCH  44  69
BRANCH  56  81
ATOM     81  C   UNL     1      15.035   2.133  -1.911  1.00  0.00     0.058 A 
ATOM     82  C   UNL     1      15.824   2.257  -3.066  1.00  0.00     0.135 A 
ATOM     83  C   UNL     1      15.689   1.854  -0.700  1.00  0.00     0.135 A 
ATOM     84  F   UNL     1      15.250   2.518  -4.252  1.00  0.00    -0.206 F 
ATOM     85  C   UNL     1      17.201   2.063  -3.030  1.00  0.00     0.059 A 
ATOM     86  C   UNL     1      17.069   1.689  -0.635  1.00  0.00     0.059 A 
ATOM     87  F   UNL     1      14.986   1.738   0.438  1.00  0.00    -0.206 F 
ATOM     88  C   UNL     1      17.814   1.773  -1.810  1.00  0.00     0.060 A 
BRANCH  88  89
ATOM     89  S   UNL     1      19.599   1.511  -1.776  1.00  0.00     0.124 S 
ATOM     90  O   UNL     1      19.712   0.184  -2.373  1.00  0.00    -0.237 OA
ATOM     91  O   UNL     1      20.093   2.617  -2.590  1.00  0.00    -0.237 OA
ATOM     92  O   UNL     1      19.927   1.590  -0.356  1.00  0.00    -0.744 OA
ENDBRANCH  88  89
ENDBRANCH  56  81
ENDBRANCH  30  31
ENDBRANCH  23  25
ENDBRANCH  22  23
ENDBRANCH  21  22
ENDBRANCH   1  21
TORSDOF 18
