REMARK SMILES CC1(C)[C@H](C(=O)N(Cc2ccccc2)Cc2ccccc2)CC[C@@]1(C)C(=O)OCCOC(=O)c1ccc(-c2c3nc(c(-c4c(F)cc(S(=O)(=O)[O-])cc4F)c4ccc([nH]4)c(-c4c(F)cc(S(=O)(=O)[O-])cc4F)c4nc(c(-c5c(F)cc(S(=O)(=O)[O-])cc5F)c5ccc2[nH]5)C=C4)C=C3)cc1
REMARK SMILES IDX 29 1 28 2 26 3 27 4 24 5 1 6 2 7 3 8 4 9 22 10 23 11 25 12
REMARK SMILES IDX 5 13 6 14 7 15 8 16 9 17 10 18 14 19 11 20 13 21 12 22 15 23
REMARK SMILES IDX 16 24 17 25 21 26 18 27 20 28 19 29 30 30 31 31 32 32 33 33
REMARK SMILES IDX 34 34 35 35 99 36 36 37 98 38 37 39 38 40 39 41 92 42 40 43
REMARK SMILES IDX 97 44 91 45 93 46 41 47 96 48 90 49 89 50 42 52 76 53 55 54
REMARK SMILES IDX 75 55 56 56 59 57 74 58 94 59 57 60 58 61 73 63 95 64 60 65
REMARK SMILES IDX 43 66 44 67 53 68 45 69 46 70 52 71 54 72 47 73 48 74 49 75
REMARK SMILES IDX 50 76 51 77 77 78 78 79 87 80 79 81 80 82 86 83 88 84 81 85
REMARK SMILES IDX 82 86 83 87 84 88 85 89 61 90 62 91 71 92 63 93 64 94 70 95
REMARK SMILES IDX 72 96 65 97 66 98 67 99 68 100 69 101
REMARK H PARENT 93 51 59 62
REMARK Flexibility Score: inf
ROOT
ATOM      1  C   UNL     1       4.617   1.168   0.481  1.00  0.00     0.274 C 
ENDROOT
BRANCH   1   2
ATOM      2  O   UNL     1       3.273   0.936   0.941  1.00  0.00    -0.462 OA
BRANCH   2   3
ATOM      3  C   UNL     1       3.044  -0.221   1.626  1.00  0.00     0.312 C 
ATOM      4  O   UNL     1       3.897  -1.066   1.860  1.00  0.00    -0.252 OA
BRANCH   3   5
ATOM      5  C   UNL     1       1.554  -0.354   1.997  1.00  0.00     0.071 C 
ATOM      6  C   UNL     1       1.418  -0.756  -0.606  1.00  0.00     0.013 C 
ATOM      7  C   UNL     1       0.699  -0.865   0.765  1.00  0.00    -0.008 C 
ATOM      8  C   UNL     1      -0.579  -0.040   0.600  1.00  0.00     0.013 C 
ATOM      9  C   UNL     1       0.471  -2.371   1.075  1.00  0.00     0.085 C 
ATOM     10  C   UNL     1       0.598  -2.603   2.567  1.00  0.00     0.015 C 
ATOM     11  C   UNL     1       1.390  -1.427   3.117  1.00  0.00     0.020 C 
ATOM     12  C   UNL     1       1.073   0.993   2.589  1.00  0.00     0.024 C 
BRANCH   9  13
ATOM     13  C   UNL     1      -0.647  -3.108   0.320  1.00  0.00     0.226 C 
ATOM     14  O   UNL     1      -0.258  -3.869  -0.582  1.00  0.00    -0.275 OA
ATOM     15  N   UNL     1      -2.016  -2.924   0.525  1.00  0.00    -0.334 N 
BRANCH  15  16
ATOM     16  C   UNL     1      -2.667  -2.353   1.729  1.00  0.00     0.155 C 
BRANCH  16  17
ATOM     17  C   UNL     1      -3.732  -1.276   1.564  1.00  0.00    -0.029 A 
ATOM     18  C   UNL     1      -3.569  -0.034   2.212  1.00  0.00     0.005 A 
ATOM     19  C   UNL     1      -4.939  -1.478   0.885  1.00  0.00     0.005 A 
ATOM     20  C   UNL     1      -4.497   1.001   2.073  1.00  0.00     0.000 A 
ATOM     21  C   UNL     1      -5.885  -0.452   0.762  1.00  0.00     0.000 A 
ATOM     22  C   UNL     1      -5.653   0.794   1.334  1.00  0.00     0.000 A 
ENDBRANCH  16  17
ENDBRANCH  15  16
BRANCH  15  23
ATOM     23  C   UNL     1      -2.874  -3.672  -0.410  1.00  0.00     0.155 C 
BRANCH  23  24
ATOM     24  C   UNL     1      -3.173  -2.985  -1.734  1.00  0.00    -0.029 A 
ATOM     25  C   UNL     1      -2.322  -2.031  -2.309  1.00  0.00     0.005 A 
ATOM     26  C   UNL     1      -4.286  -3.395  -2.484  1.00  0.00     0.005 A 
ATOM     27  C   UNL     1      -2.586  -1.468  -3.558  1.00  0.00     0.000 A 
ATOM     28  C   UNL     1      -4.546  -2.846  -3.745  1.00  0.00     0.000 A 
ATOM     29  C   UNL     1      -3.700  -1.877  -4.279  1.00  0.00     0.000 A 
ENDBRANCH  23  24
ENDBRANCH  15  23
ENDBRANCH   9  13
ENDBRANCH   3   5
ENDBRANCH   2   3
ENDBRANCH   1   2
BRANCH   1  30
ATOM     30  C   UNL     1       5.163   2.434   1.130  1.00  0.00     0.275 C 
BRANCH  30  31
ATOM     31  O   UNL     1       5.167   2.265   2.557  1.00  0.00    -0.458 OA
BRANCH  31  32
ATOM     32  C   UNL     1       4.261   3.018   3.221  1.00  0.00     0.338 C 
ATOM     33  O   UNL     1       3.528   3.881   2.759  1.00  0.00    -0.246 OA
BRANCH  32  34
ATOM     34  C   UNL     1       4.223   2.631   4.637  1.00  0.00     0.060 A 
ATOM     35  C   UNL     1       3.726   1.379   4.993  1.00  0.00     0.016 A 
ATOM     36  C   UNL     1       4.495   3.587   5.611  1.00  0.00     0.016 A 
ATOM     37  C   UNL     1       3.354   1.136   6.313  1.00  0.00     0.010 A 
ATOM     38  C   UNL     1       4.245   3.289   6.953  1.00  0.00     0.010 A 
ATOM     39  C   UNL     1       3.619   2.082   7.315  1.00  0.00    -0.014 A 
BRANCH  39  40
ATOM     40  C   UNL     1       3.216   1.841   8.729  1.00  0.00     0.031 A 
ATOM     41  C   UNL     1       2.345   2.842   9.449  1.00  0.00     0.074 A 
ATOM     42  C   UNL     1       3.634   0.737   9.381  1.00  0.00     0.049 A 
ATOM     43  N   UNL     1       2.095   2.953  10.728  1.00  0.00    -0.248 NA
ATOM     44  C   UNL     1       1.687   3.868   8.622  1.00  0.00     0.031 C 
ATOM     45  C   UNL     1       4.446  -0.337   8.804  1.00  0.00     0.029 A 
ATOM     46  N   UNL     1       3.435   0.336  10.679  1.00  0.00    -0.354 N 
ATOM     47  C   UNL     1       1.321   4.101  10.869  1.00  0.00     0.074 A 
ATOM     48  C   UNL     1       1.128   4.643   9.541  1.00  0.00     0.031 C 
ATOM     49  C   UNL     1       4.644  -1.288   9.729  1.00  0.00     0.029 A 
ATOM     50  C   UNL     1       4.060  -0.849  10.990  1.00  0.00     0.049 A 
ATOM     51  H   UNL     1       2.897   0.848  11.326  1.00  0.00     0.167 HD
ATOM     52  C   UNL     1       0.828   4.654  12.004  1.00  0.00     0.037 A 
ATOM     53  C   UNL     1       4.197  -1.489  12.166  1.00  0.00     0.037 A 
ATOM     54  C   UNL     1       0.964   4.066  13.312  1.00  0.00     0.049 A 
ATOM     55  C   UNL     1       3.618  -0.874  13.406  1.00  0.00     0.074 A 
ATOM     56  C   UNL     1       0.500   4.543  14.526  1.00  0.00     0.029 A 
ATOM     57  N   UNL     1       1.585   2.853  13.572  1.00  0.00    -0.354 N 
ATOM     58  N   UNL     1       2.969   0.258  13.536  1.00  0.00    -0.248 NA
ATOM     59  C   UNL     1       3.806  -1.612  14.662  1.00  0.00     0.031 C 
ATOM     60  C   UNL     1       0.853   3.625  15.522  1.00  0.00     0.029 A 
ATOM     61  C   UNL     1       1.509   2.562  14.924  1.00  0.00     0.049 A 
ATOM     62  H   UNL     1       2.017   2.284  12.895  1.00  0.00     0.167 HD
ATOM     63  C   UNL     1       2.666   0.367  14.887  1.00  0.00     0.074 A 
ATOM     64  C   UNL     1       3.185  -0.824  15.529  1.00  0.00     0.031 C 
ATOM     65  C   UNL     1       2.025   1.367  15.539  1.00  0.00     0.037 A 
BRANCH  52  66
ATOM     66  C   UNL     1       0.127   5.979  11.890  1.00  0.00     0.058 A 
ATOM     67  C   UNL     1      -1.171   6.095  11.370  1.00  0.00     0.135 A 
ATOM     68  C   UNL     1       0.756   7.150  12.345  1.00  0.00     0.135 A 
ATOM     69  F   UNL     1      -1.812   5.011  10.905  1.00  0.00    -0.206 F 
ATOM     70  C   UNL     1      -1.813   7.328  11.285  1.00  0.00     0.059 A 
ATOM     71  C   UNL     1       0.126   8.390  12.289  1.00  0.00     0.059 A 
ATOM     72  F   UNL     1       1.999   7.096  12.851  1.00  0.00    -0.206 F 
ATOM     73  C   UNL     1      -1.154   8.470  11.744  1.00  0.00     0.060 A 
BRANCH  73  74
ATOM     74  S   UNL     1      -1.996  10.065  11.634  1.00  0.00     0.124 S 
ATOM     75  O   UNL     1      -1.836  10.379  10.218  1.00  0.00    -0.237 OA
ATOM     76  O   UNL     1      -3.353   9.736  12.060  1.00  0.00    -0.237 OA
ATOM     77  O   UNL     1      -1.242  10.910  12.554  1.00  0.00    -0.744 OA
ENDBRANCH  73  74
ENDBRANCH  52  66
BRANCH  53  78
ATOM     78  C   UNL     1       4.954  -2.767  12.223  1.00  0.00     0.058 A 
ATOM     79  C   UNL     1       4.293  -3.987  12.420  1.00  0.00     0.135 A 
ATOM     80  C   UNL     1       6.345  -2.795  12.040  1.00  0.00     0.135 A 
ATOM     81  F   UNL     1       2.965  -4.008  12.607  1.00  0.00    -0.206 F 
ATOM     82  C   UNL     1       4.985  -5.194  12.437  1.00  0.00     0.059 A 
ATOM     83  C   UNL     1       7.055  -3.990  12.027  1.00  0.00     0.059 A 
ATOM     84  F   UNL     1       7.020  -1.654  11.832  1.00  0.00    -0.206 F 
ATOM     85  C   UNL     1       6.366  -5.185  12.235  1.00  0.00     0.060 A 
BRANCH  85  86
ATOM     86  S   UNL     1       7.252  -6.758  12.182  1.00  0.00     0.124 S 
ATOM     87  O   UNL     1       7.401  -7.057  13.601  1.00  0.00    -0.237 OA
ATOM     88  O   UNL     1       6.327  -7.612  11.443  1.00  0.00    -0.237 OA
ATOM     89  O   UNL     1       8.482  -6.421  11.472  1.00  0.00    -0.744 OA
ENDBRANCH  85  86
ENDBRANCH  53  78
BRANCH  65  90
ATOM     90  C   UNL     1       1.819   1.191  17.015  1.00  0.00     0.058 A 
ATOM     91  C   UNL     1       2.864   1.388  17.930  1.00  0.00     0.135 A 
ATOM     92  C   UNL     1       0.557   0.840  17.518  1.00  0.00     0.135 A 
ATOM     93  F   UNL     1       4.090   1.717  17.494  1.00  0.00    -0.206 F 
ATOM     94  C   UNL     1       2.672   1.216  19.296  1.00  0.00     0.059 A 
ATOM     95  C   UNL     1       0.337   0.681  18.882  1.00  0.00     0.059 A 
ATOM     96  F   UNL     1      -0.475   0.648  16.681  1.00  0.00    -0.206 F 
ATOM     97  C   UNL     1       1.405   0.856  19.762  1.00  0.00     0.060 A 
BRANCH  97  98
ATOM     98  S   UNL     1       1.158   0.644  21.537  1.00  0.00     0.124 S 
ATOM     99  O   UNL     1       1.709  -0.689  21.752  1.00  0.00    -0.237 OA
ATOM    100  O   UNL     1       1.930   1.748  22.100  1.00  0.00    -0.237 OA
ATOM    101  O   UNL     1      -0.290   0.759  21.691  1.00  0.00    -0.744 OA
ENDBRANCH  97  98
ENDBRANCH  65  90
ENDBRANCH  39  40
ENDBRANCH  32  34
ENDBRANCH  31  32
ENDBRANCH  30  31
ENDBRANCH   1  30
TORSDOF 19
