REMARK SMILES Cc1cccc(O[C@@H](C)C(=O)N2CC[C@@H](C(=O)OCCOC(=O)c3ccc(-c4c5nc(c(-c6c(F)cc(S(=O)(=O)[O-])cc6F)c6ccc([nH]6)c(-c6c(F)cc(S(=O)(=O)[O-])cc6F)c6nc(c(-c7c(F)cc(S(=O)(=O)[O-])cc7F)c7ccc4[nH]7)C=C6)C=C5)cc3)[C@@H]2C)c1
REMARK SMILES IDX 19 1 18 2 16 3 17 4 15 5 12 6 13 7 90 8 14 9 91 10 10 11
REMARK SMILES IDX 11 12 8 13 9 14 7 15 6 16 1 17 2 18 3 19 92 20 4 21 5 22
REMARK SMILES IDX 20 23 21 24 22 25 23 26 24 27 25 28 89 29 26 30 88 31 27 32
REMARK SMILES IDX 28 33 29 34 82 35 30 36 87 37 81 38 83 39 31 40 86 41 80 42
REMARK SMILES IDX 79 43 32 45 66 46 45 47 65 48 46 49 49 50 64 51 84 52 47 53
REMARK SMILES IDX 48 54 63 56 85 57 50 58 33 59 34 60 43 61 35 62 36 63 42 64
REMARK SMILES IDX 44 65 37 66 38 67 39 68 40 69 41 70 67 71 68 72 77 73 69 74
REMARK SMILES IDX 70 75 76 76 78 77 71 78 72 79 73 80 74 81 75 82 51 83 52 84
REMARK SMILES IDX 61 85 53 86 54 87 60 88 62 89 55 90 56 91 57 92 58 93 59 94
REMARK H PARENT 83 44 49 55
REMARK Flexibility Score: inf
ROOT
ATOM      1  C   UNL     1       2.979  -2.133   1.961  1.00  0.00     0.274 C 
ENDROOT
BRANCH   1   2
ATOM      2  O   UNL     1       3.588  -1.165   1.116  1.00  0.00    -0.462 OA
BRANCH   2   3
ATOM      3  C   UNL     1       3.422  -0.979  -0.287  1.00  0.00     0.311 C 
ATOM      4  O   UNL     1       3.998  -2.009  -0.752  1.00  0.00    -0.252 OA
BRANCH   3   5
ATOM      5  C   UNL     1       2.552   0.796  -1.208  1.00  0.00     0.123 C 
ATOM      6  N   UNL     1       0.892   2.877  -1.562  1.00  0.00    -0.336 N 
ATOM      7  C   UNL     1       2.172   3.256  -2.077  1.00  0.00     0.121 C 
ATOM      8  C   UNL     1       0.845   1.399  -1.359  1.00  0.00     0.096 C 
ATOM      9  C   UNL     1       3.103   2.460  -1.211  1.00  0.00     0.039 C 
ATOM     10  C   UNL     1       0.100   0.842  -2.591  1.00  0.00     0.032 C 
BRANCH   6  11
ATOM     11  C   UNL     1      -0.103   3.834  -1.586  1.00  0.00     0.263 C 
ATOM     12  O   UNL     1       0.027   4.830  -2.317  1.00  0.00    -0.271 OA
BRANCH  11  13
ATOM     13  C   UNL     1      -1.283   3.857  -0.577  1.00  0.00     0.259 C 
ATOM     14  C   UNL     1      -0.852   4.660   0.667  1.00  0.00     0.064 C 
BRANCH  13  15
ATOM     15  O   UNL     1      -2.166   2.761  -0.406  1.00  0.00    -0.481 OA
BRANCH  15  16
ATOM     16  C   UNL     1      -1.933   1.745   0.460  1.00  0.00     0.120 A 
ATOM     17  C   UNL     1       0.236   0.853   3.405  1.00  0.00     0.044 C 
ATOM     18  C   UNL     1      -0.824   0.685   2.349  1.00  0.00    -0.047 A 
ATOM     19  C   UNL     1      -1.421  -0.531   2.012  1.00  0.00     0.003 A 
ATOM     20  C   UNL     1      -1.099   1.806   1.567  1.00  0.00     0.049 A 
ATOM     21  C   UNL     1      -2.274  -0.608   0.907  1.00  0.00     0.004 A 
ATOM     22  C   UNL     1      -2.549   0.533   0.150  1.00  0.00     0.046 A 
ENDBRANCH  15  16
ENDBRANCH  13  15
ENDBRANCH  11  13
ENDBRANCH   6  11
ENDBRANCH   3   5
ENDBRANCH   2   3
ENDBRANCH   1   2
BRANCH   1  23
ATOM     23  C   UNL     1       1.610  -2.781   1.709  1.00  0.00     0.275 C 
BRANCH  23  24
ATOM     24  O   UNL     1       0.886  -2.938   0.450  1.00  0.00    -0.458 OA
BRANCH  24  25
ATOM     25  C   UNL     1       0.698  -2.281  -0.720  1.00  0.00     0.338 C 
ATOM     26  O   UNL     1      -0.208  -2.558  -1.494  1.00  0.00    -0.246 OA
BRANCH  25  27
ATOM     27  C   UNL     1       1.518  -1.088  -0.962  1.00  0.00     0.060 A 
ATOM     28  C   UNL     1       2.761  -1.038  -2.264  1.00  0.00     0.016 A 
ATOM     29  C   UNL     1       1.706  -0.085   0.495  1.00  0.00     0.016 A 
ATOM     30  C   UNL     1       4.316  -0.119  -1.966  1.00  0.00     0.010 A 
ATOM     31  C   UNL     1       3.187   0.847   0.777  1.00  0.00     0.010 A 
ATOM     32  C   UNL     1       4.546   0.731  -0.398  1.00  0.00    -0.014 A 
BRANCH  32  33
ATOM     33  C   UNL     1       5.786   0.992   0.340  1.00  0.00     0.031 A 
ATOM     34  C   UNL     1       6.026   2.372   0.832  1.00  0.00     0.074 A 
ATOM     35  C   UNL     1       6.391  -0.086   0.891  1.00  0.00     0.049 A 
ATOM     36  N   UNL     1       7.137   3.028   0.750  1.00  0.00    -0.248 NA
ATOM     37  C   UNL     1       4.941   3.212   1.357  1.00  0.00     0.031 C 
ATOM     38  C   UNL     1       7.288  -0.143   2.038  1.00  0.00     0.029 A 
ATOM     39  N   UNL     1       6.323  -1.421   0.526  1.00  0.00    -0.354 N 
ATOM     40  C   UNL     1       6.941   4.160   1.535  1.00  0.00     0.074 A 
ATOM     41  C   UNL     1       5.534   4.390   1.506  1.00  0.00     0.031 C 
ATOM     42  C   UNL     1       7.918  -1.337   2.041  1.00  0.00     0.029 A 
ATOM     43  C   UNL     1       7.513  -2.055   0.841  1.00  0.00     0.049 A 
ATOM     44  H   UNL     1       5.545  -1.854   0.106  1.00  0.00     0.167 HD
ATOM     45  C   UNL     1       7.814   4.492   2.537  1.00  0.00     0.037 A 
ATOM     46  C   UNL     1       8.339  -2.474  -0.164  1.00  0.00     0.037 A 
ATOM     47  C   UNL     1       8.831   3.444   2.645  1.00  0.00     0.049 A 
ATOM     48  C   UNL     1       9.533  -1.536  -0.276  1.00  0.00     0.074 A 
ATOM     49  C   UNL     1       9.091   2.450   3.575  1.00  0.00     0.029 A 
ATOM     50  N   UNL     1       9.559   3.112   1.516  1.00  0.00    -0.354 N 
ATOM     51  N   UNL     1       9.574  -0.346   0.270  1.00  0.00    -0.248 NA
ATOM     52  C   UNL     1      10.801  -1.881  -0.907  1.00  0.00     0.031 C 
ATOM     53  C   UNL     1       9.977   1.509   2.970  1.00  0.00     0.029 A 
ATOM     54  C   UNL     1      10.249   1.934   1.680  1.00  0.00     0.049 A 
ATOM     55  H   UNL     1       9.581   3.655   0.695  1.00  0.00     0.167 HD
ATOM     56  C   UNL     1      10.811   0.219   0.110  1.00  0.00     0.074 A 
ATOM     57  C   UNL     1      11.546  -0.796  -0.623  1.00  0.00     0.031 C 
ATOM     58  C   UNL     1      11.112   1.464   0.599  1.00  0.00     0.037 A 
BRANCH  45  59
ATOM     59  C   UNL     1       7.602   5.565   3.612  1.00  0.00     0.058 A 
ATOM     60  C   UNL     1       8.498   5.665   4.701  1.00  0.00     0.135 A 
ATOM     61  C   UNL     1       6.599   6.565   3.616  1.00  0.00     0.135 A 
ATOM     62  F   UNL     1       9.557   4.851   4.809  1.00  0.00    -0.206 F 
ATOM     63  C   UNL     1       8.381   6.623   5.715  1.00  0.00     0.059 A 
ATOM     64  C   UNL     1       6.433   7.503   4.641  1.00  0.00     0.059 A 
ATOM     65  F   UNL     1       5.762   6.750   2.592  1.00  0.00    -0.206 F 
ATOM     66  C   UNL     1       7.338   7.536   5.684  1.00  0.00     0.060 A 
BRANCH  66  67
ATOM     67  S   UNL     1       7.225   8.796   6.966  1.00  0.00     0.124 S 
ATOM     68  O   UNL     1       7.093   7.989   8.175  1.00  0.00    -0.237 OA
ATOM     69  O   UNL     1       8.489   9.507   6.808  1.00  0.00    -0.237 OA
ATOM     70  O   UNL     1       6.033   9.556   6.595  1.00  0.00    -0.744 OA
ENDBRANCH  66  67
ENDBRANCH  45  59
BRANCH  46  71
ATOM     71  C   UNL     1       7.592  -3.204  -1.245  1.00  0.00     0.058 A 
ATOM     72  C   UNL     1       6.961  -4.411  -0.858  1.00  0.00     0.135 A 
ATOM     73  C   UNL     1       7.102  -2.593  -2.410  1.00  0.00     0.135 A 
ATOM     74  F   UNL     1       7.397  -5.069   0.230  1.00  0.00    -0.206 F 
ATOM     75  C   UNL     1       5.801  -4.883  -1.470  1.00  0.00     0.059 A 
ATOM     76  C   UNL     1       5.950  -3.071  -3.064  1.00  0.00     0.059 A 
ATOM     77  F   UNL     1       7.641  -1.445  -2.846  1.00  0.00    -0.206 F 
ATOM     78  C   UNL     1       5.267  -4.173  -2.540  1.00  0.00     0.060 A 
BRANCH  78  79
ATOM     79  S   UNL     1       3.595  -4.622  -3.097  1.00  0.00     0.124 S 
ATOM     80  O   UNL     1       3.764  -6.020  -3.479  1.00  0.00    -0.237 OA
ATOM     81  O   UNL     1       2.788  -4.400  -1.901  1.00  0.00    -0.237 OA
ATOM     82  O   UNL     1       3.347  -3.702  -4.204  1.00  0.00    -0.744 OA
ENDBRANCH  78  79
ENDBRANCH  46  71
BRANCH  58  83
ATOM     83  C   UNL     1      12.260   2.373   0.160  1.00  0.00     0.058 A 
ATOM     84  C   UNL     1      13.083   2.133  -0.951  1.00  0.00     0.135 A 
ATOM     85  C   UNL     1      12.489   3.631   0.793  1.00  0.00     0.135 A 
ATOM     86  F   UNL     1      12.905   1.081  -1.756  1.00  0.00    -0.206 F 
ATOM     87  C   UNL     1      14.112   2.997  -1.328  1.00  0.00     0.059 A 
ATOM     88  C   UNL     1      13.440   4.552   0.369  1.00  0.00     0.059 A 
ATOM     89  F   UNL     1      11.788   4.044   1.858  1.00  0.00    -0.206 F 
ATOM     90  C   UNL     1      14.285   4.203  -0.662  1.00  0.00     0.060 A 
BRANCH  90  91
ATOM     91  S   UNL     1      15.616   5.298  -1.159  1.00  0.00     0.124 S 
ATOM     92  O   UNL     1      16.777   4.603  -0.613  1.00  0.00    -0.237 OA
ATOM     93  O   UNL     1      15.498   5.289  -2.614  1.00  0.00    -0.237 OA
ATOM     94  O   UNL     1      15.278   6.564  -0.515  1.00  0.00    -0.744 OA
ENDBRANCH  90  91
ENDBRANCH  58  83
ENDBRANCH  32  33
ENDBRANCH  25  27
ENDBRANCH  24  25
ENDBRANCH  23  24
ENDBRANCH   1  23
TORSDOF 18
