REMARK SMILES CCSc1cccc(-c2ccc([C@@H](C)C(=O)OCCOC(=O)c3ccc(-c4c5nc(c(-c6c(F)cc(S(=O)(=O)[O-])cc6F)c6ccc([nH]6)c(-c6c(F)cc(S(=O)(=O)[O-])cc6F)c6nc(c(-c7c(F)cc(S(=O)(=O)[O-])cc7F)c7ccc4[nH]7)C=C6)C=C5)cc3)cc2)c1
REMARK SMILES IDX 18 1 17 2 15 3 16 4 13 5 14 6 12 7 9 8 10 9 90 10 11 11
REMARK SMILES IDX 89 12 8 13 4 14 5 15 91 16 6 17 7 18 3 19 2 20 1 21 19 22
REMARK SMILES IDX 20 23 21 24 22 25 23 26 24 27 88 28 25 29 87 30 26 31 27 32
REMARK SMILES IDX 28 33 81 34 29 35 86 36 80 37 82 38 30 39 85 40 79 41 78 42
REMARK SMILES IDX 31 44 65 45 44 46 64 47 45 48 48 49 63 50 83 51 46 52 47 53
REMARK SMILES IDX 62 55 84 56 49 57 32 58 33 59 42 60 34 61 35 62 41 63 43 64
REMARK SMILES IDX 36 65 37 66 38 67 39 68 40 69 66 70 67 71 76 72 68 73 69 74
REMARK SMILES IDX 75 75 77 76 70 77 71 78 72 79 73 80 74 81 50 82 51 83 60 84
REMARK SMILES IDX 52 85 53 86 59 87 61 88 54 89 55 90 56 91 57 92 58 93
REMARK H PARENT 82 43 48 54
REMARK Flexibility Score: inf
ROOT
ATOM      1  C   UNL     1       7.831   6.999  -5.279  1.00  0.00     0.274 C 
ENDROOT
BRANCH   1   2
ATOM      2  O   UNL     1       7.976   6.022  -4.229  1.00  0.00    -0.462 OA
BRANCH   2   3
ATOM      3  C   UNL     1       8.306   6.495  -2.999  1.00  0.00     0.313 C 
ATOM      4  O   UNL     1       8.549   7.674  -2.758  1.00  0.00    -0.252 OA
BRANCH   3   5
ATOM      5  C   UNL     1       8.426   5.411  -1.933  1.00  0.00     0.126 C 
ATOM      6  C   UNL     1       9.895   5.030  -1.752  1.00  0.00     0.025 C 
BRANCH   5   7
ATOM      7  C   UNL     1       7.528   4.195  -2.110  1.00  0.00    -0.034 A 
ATOM      8  C   UNL     1       5.854   1.909  -2.359  1.00  0.00    -0.018 A 
ATOM      9  C   UNL     1       6.923   2.127  -3.241  1.00  0.00     0.009 A 
ATOM     10  C   UNL     1       5.625   2.863  -1.361  1.00  0.00     0.009 A 
ATOM     11  C   UNL     1       7.749   3.250  -3.120  1.00  0.00     0.005 A 
ATOM     12  C   UNL     1       6.454   3.983  -1.232  1.00  0.00     0.005 A 
BRANCH   8  13
ATOM     13  C   UNL     1       5.031   0.693  -2.454  1.00  0.00    -0.017 A 
ATOM     14  C   UNL     1       2.857  -0.409  -2.631  1.00  0.00     0.008 A 
ATOM     15  C   UNL     1       3.491  -1.655  -2.616  1.00  0.00     0.015 A 
ATOM     16  C   UNL     1       3.630   0.757  -2.562  1.00  0.00     0.023 A 
ATOM     17  C   UNL     1       4.877  -1.740  -2.506  1.00  0.00     0.002 A 
ATOM     18  C   UNL     1       5.637  -0.574  -2.423  1.00  0.00     0.009 A 
BRANCH  14  19
ATOM     19  S   UNL     1       1.080  -0.366  -2.781  1.00  0.00    -0.126 SA
BRANCH  19  20
ATOM     20  C   UNL     1       0.620   0.609  -1.304  1.00  0.00     0.071 C 
ATOM     21  C   UNL     1       0.981  -0.099  -0.009  1.00  0.00     0.016 C 
ENDBRANCH  19  20
ENDBRANCH  14  19
ENDBRANCH   8  13
ENDBRANCH   5   7
ENDBRANCH   3   5
ENDBRANCH   2   3
ENDBRANCH   1   2
BRANCH   1  22
ATOM     22  C   UNL     1       6.358   7.299  -5.561  1.00  0.00     0.275 C 
BRANCH  22  23
ATOM     23  O   UNL     1       5.748   7.981  -4.451  1.00  0.00    -0.458 OA
BRANCH  23  24
ATOM     24  C   UNL     1       5.008   7.196  -3.635  1.00  0.00     0.338 C 
ATOM     25  O   UNL     1       4.756   6.012  -3.774  1.00  0.00    -0.246 OA
BRANCH  24  26
ATOM     26  C   UNL     1       4.620   7.957  -2.438  1.00  0.00     0.060 A 
ATOM     27  C   UNL     1       5.210   7.602  -1.225  1.00  0.00     0.016 A 
ATOM     28  C   UNL     1       3.622   8.930  -2.485  1.00  0.00     0.016 A 
ATOM     29  C   UNL     1       4.784   8.193  -0.041  1.00  0.00     0.010 A 
ATOM     30  C   UNL     1       3.204   9.538  -1.294  1.00  0.00     0.010 A 
ATOM     31  C   UNL     1       3.767   9.156  -0.063  1.00  0.00    -0.014 A 
BRANCH  31  32
ATOM     32  C   UNL     1       3.272   9.708   1.221  1.00  0.00     0.031 A 
ATOM     33  C   UNL     1       1.948   9.257   1.772  1.00  0.00     0.074 A 
ATOM     34  C   UNL     1       4.039  10.566   1.919  1.00  0.00     0.049 A 
ATOM     35  N   UNL     1       1.351   9.611   2.881  1.00  0.00    -0.248 NA
ATOM     36  C   UNL     1       1.198   8.276   0.972  1.00  0.00     0.031 C 
ATOM     37  C   UNL     1       5.354  11.053   1.499  1.00  0.00     0.029 A 
ATOM     38  N   UNL     1       3.830  11.169   3.132  1.00  0.00    -0.354 N 
ATOM     39  C   UNL     1       0.152   8.911   2.908  1.00  0.00     0.074 A 
ATOM     40  C   UNL     1       0.096   8.124   1.694  1.00  0.00     0.031 C 
ATOM     41  C   UNL     1       5.841  11.870   2.448  1.00  0.00     0.029 A 
ATOM     42  C   UNL     1       4.862  11.987   3.525  1.00  0.00     0.049 A 
ATOM     43  H   UNL     1       3.018  11.028   3.671  1.00  0.00     0.167 HD
ATOM     44  C   UNL     1      -0.812   8.918   3.860  1.00  0.00     0.037 A 
ATOM     45  C   UNL     1       4.998  12.752   4.625  1.00  0.00     0.037 A 
ATOM     46  C   UNL     1      -0.749   9.692   5.073  1.00  0.00     0.049 A 
ATOM     47  C   UNL     1       3.906  12.757   5.658  1.00  0.00     0.074 A 
ATOM     48  C   UNL     1      -1.675   9.764   6.100  1.00  0.00     0.029 A 
ATOM     49  N   UNL     1       0.302  10.526   5.426  1.00  0.00    -0.354 N 
ATOM     50  N   UNL     1       2.775  12.093   5.665  1.00  0.00    -0.248 NA
ATOM     51  C   UNL     1       4.109  13.615   6.834  1.00  0.00     0.031 C 
ATOM     52  C   UNL     1      -1.195  10.663   7.061  1.00  0.00     0.029 A 
ATOM     53  C   UNL     1       0.044  11.125   6.648  1.00  0.00     0.049 A 
ATOM     54  H   UNL     1       1.112  10.672   4.886  1.00  0.00     0.167 HD
ATOM     55  C   UNL     1       2.136  12.444   6.849  1.00  0.00     0.074 A 
ATOM     56  C   UNL     1       3.016  13.364   7.541  1.00  0.00     0.031 C 
ATOM     57  C   UNL     1       0.929  12.043   7.320  1.00  0.00     0.037 A 
BRANCH  44  58
ATOM     58  C   UNL     1      -2.031   8.077   3.612  1.00  0.00     0.058 A 
ATOM     59  C   UNL     1      -2.002   6.680   3.743  1.00  0.00     0.135 A 
ATOM     60  C   UNL     1      -3.250   8.677   3.256  1.00  0.00     0.135 A 
ATOM     61  F   UNL     1      -0.857   6.055   4.062  1.00  0.00    -0.206 F 
ATOM     62  C   UNL     1      -3.131   5.904   3.503  1.00  0.00     0.059 A 
ATOM     63  C   UNL     1      -4.397   7.922   3.032  1.00  0.00     0.059 A 
ATOM     64  F   UNL     1      -3.331  10.010   3.116  1.00  0.00    -0.206 F 
ATOM     65  C   UNL     1      -4.324   6.534   3.143  1.00  0.00     0.060 A 
BRANCH  65  66
ATOM     66  S   UNL     1      -5.781   5.517   2.825  1.00  0.00     0.124 S 
ATOM     67  O   UNL     1      -5.479   4.987   1.498  1.00  0.00    -0.237 OA
ATOM     68  O   UNL     1      -5.736   4.551   3.917  1.00  0.00    -0.237 OA
ATOM     69  O   UNL     1      -6.881   6.474   2.884  1.00  0.00    -0.744 OA
ENDBRANCH  65  66
ENDBRANCH  44  58
BRANCH  45  70
ATOM     70  C   UNL     1       6.219  13.579   4.803  1.00  0.00     0.058 A 
ATOM     71  C   UNL     1       7.191  13.241   5.754  1.00  0.00     0.135 A 
ATOM     72  C   UNL     1       6.443  14.716   4.011  1.00  0.00     0.135 A 
ATOM     73  F   UNL     1       7.015  12.167   6.540  1.00  0.00    -0.206 F 
ATOM     74  C   UNL     1       8.341  14.005   5.923  1.00  0.00     0.059 A 
ATOM     75  C   UNL     1       7.595  15.483   4.146  1.00  0.00     0.059 A 
ATOM     76  F   UNL     1       5.546  15.073   3.078  1.00  0.00    -0.206 F 
ATOM     77  C   UNL     1       8.535  15.125   5.112  1.00  0.00     0.060 A 
BRANCH  77  78
ATOM     78  S   UNL     1      10.057  16.080   5.292  1.00  0.00     0.124 S 
ATOM     79  O   UNL     1       9.765  16.874   6.480  1.00  0.00    -0.237 OA
ATOM     80  O   UNL     1      11.063  15.035   5.453  1.00  0.00    -0.237 OA
ATOM     81  O   UNL     1      10.133  16.823   4.037  1.00  0.00    -0.744 OA
ENDBRANCH  77  78
ENDBRANCH  45  70
BRANCH  57  82
ATOM     82  C   UNL     1       0.503  12.588   8.653  1.00  0.00     0.058 A 
ATOM     83  C   UNL     1       0.055  13.910   8.795  1.00  0.00     0.135 A 
ATOM     84  C   UNL     1       0.531  11.776   9.798  1.00  0.00     0.135 A 
ATOM     85  F   UNL     1       0.015  14.727   7.730  1.00  0.00    -0.206 F 
ATOM     86  C   UNL     1      -0.321  14.420  10.033  1.00  0.00     0.059 A 
ATOM     87  C   UNL     1       0.140  12.259  11.043  1.00  0.00     0.059 A 
ATOM     88  F   UNL     1       0.943  10.501   9.713  1.00  0.00    -0.206 F 
ATOM     89  C   UNL     1      -0.268  13.588  11.153  1.00  0.00     0.060 A 
BRANCH  89  90
ATOM     90  S   UNL     1      -0.760  14.253  12.758  1.00  0.00     0.124 S 
ATOM     91  O   UNL     1       0.437  14.990  13.149  1.00  0.00    -0.237 OA
ATOM     92  O   UNL     1      -1.924  15.068  12.421  1.00  0.00    -0.237 OA
ATOM     93  O   UNL     1      -1.049  13.057  13.544  1.00  0.00    -0.744 OA
ENDBRANCH  89  90
ENDBRANCH  57  82
ENDBRANCH  31  32
ENDBRANCH  24  26
ENDBRANCH  23  24
ENDBRANCH  22  23
ENDBRANCH   1  22
TORSDOF 18
