REMARK SMILES CS(=O)(=O)c1ccc(C2=NN(c3ccc(C(=O)OCCOC(=O)c4ccc(-c5c6nc(c(-c7c(F)cc(S(=O)(=O)[O-])cc7F)c7ccc([nH]7)c(-c7c(F)cc(S(=O)(=O)[O-])cc7F)c7nc(c(-c8c(F)cc(S(=O)(=O)[O-])cc8F)c8ccc5[nH]8)C=C7)C=C6)cc4)cc3)[C@H](c3ccc(Cl)cc3)C2)cc1
REMARK SMILES IDX 19 1 18 2 16 3 17 4 15 5 12 6 13 7 91 8 14 9 90 10 11 11
REMARK SMILES IDX 9 12 10 13 100 14 92 15 8 16 5 17 6 18 102 19 7 20 101 21
REMARK SMILES IDX 2 22 1 23 3 24 4 25 93 26 94 27 99 28 95 29 98 30 96 31
REMARK SMILES IDX 97 32 20 33 21 34 22 35 23 36 24 37 25 38 89 39 26 40 88 41
REMARK SMILES IDX 27 42 28 43 29 44 82 45 30 46 87 47 81 48 83 49 31 50 86 51
REMARK SMILES IDX 80 52 79 53 32 55 66 56 45 57 65 58 46 59 49 60 64 61 84 62
REMARK SMILES IDX 47 63 48 64 63 66 85 67 50 68 33 69 34 70 43 71 35 72 36 73
REMARK SMILES IDX 42 74 44 75 37 76 38 77 39 78 40 79 41 80 67 81 68 82 77 83
REMARK SMILES IDX 69 84 70 85 76 86 78 87 71 88 72 89 73 90 74 91 75 92 51 93
REMARK SMILES IDX 52 94 61 95 53 96 54 97 60 98 62 99 55 100 56 101 57 102
REMARK SMILES IDX 58 103 59 104
REMARK H PARENT 83 54 49 65
REMARK Flexibility Score: inf
ROOT
ATOM      1  C   UNL     1      -0.532 -11.580 -11.350  1.00  0.00     0.275 C 
ENDROOT
BRANCH   1   2
ATOM      2  O   UNL     1      -0.083 -10.819 -10.212  1.00  0.00    -0.458 OA
BRANCH   2   3
ATOM      3  C   UNL     1       0.322  -9.555 -10.482  1.00  0.00     0.338 C 
ATOM      4  O   UNL     1       0.379  -9.035 -11.586  1.00  0.00    -0.246 OA
BRANCH   3   5
ATOM      5  C   UNL     1       0.660  -8.819  -9.239  1.00  0.00     0.060 A 
ATOM      6  C   UNL     1       1.464  -7.319  -7.005  1.00  0.00     0.060 A 
ATOM      7  C   UNL     1       1.061  -6.674  -8.176  1.00  0.00     0.029 A 
ATOM      8  C   UNL     1       1.391  -8.717  -6.939  1.00  0.00     0.029 A 
ATOM      9  C   UNL     1       0.689  -7.418  -9.294  1.00  0.00     0.018 A 
ATOM     10  C   UNL     1       0.989  -9.469  -8.047  1.00  0.00     0.018 A 
BRANCH   6  11
ATOM     11  N   UNL     1       2.094  -6.611  -5.982  1.00  0.00    -0.257 N 
ATOM     12  C   UNL     1       2.099  -4.980  -4.615  1.00  0.00     0.071 C 
ATOM     13  N   UNL     1       1.361  -5.954  -5.053  1.00  0.00    -0.176 NA
ATOM     14  C   UNL     1       3.428  -4.812  -5.305  1.00  0.00     0.091 C 
ATOM     15  C   UNL     1       3.419  -6.034  -6.228  1.00  0.00     0.144 C 
BRANCH  12  16
ATOM     16  C   UNL     1       1.681  -4.095  -3.508  1.00  0.00    -0.002 A 
ATOM     17  C   UNL     1       0.923  -2.526  -1.325  1.00  0.00     0.067 A 
ATOM     18  C   UNL     1       0.429  -3.829  -1.453  1.00  0.00     0.021 A 
ATOM     19  C   UNL     1       1.772  -1.992  -2.299  1.00  0.00     0.021 A 
ATOM     20  C   UNL     1       0.804  -4.609  -2.547  1.00  0.00     0.011 A 
ATOM     21  C   UNL     1       2.157  -2.784  -3.390  1.00  0.00     0.011 A 
BRANCH  17  22
ATOM     22  S   UNL     1       0.439  -1.619   0.125  1.00  0.00     0.175 S 
ATOM     23  C   UNL     1       0.919   0.067  -0.109  1.00  0.00     0.163 C 
ATOM     24  O   UNL     1       1.237  -2.150   1.214  1.00  0.00    -0.224 OA
ATOM     25  O   UNL     1      -1.010  -1.651   0.173  1.00  0.00    -0.224 OA
ENDBRANCH  17  22
ENDBRANCH  12  16
BRANCH  15  26
ATOM     26  C   UNL     1       4.462  -7.123  -6.011  1.00  0.00    -0.023 A 
ATOM     27  C   UNL     1       5.019  -7.416  -4.759  1.00  0.00     0.007 A 
ATOM     28  C   UNL     1       4.766  -7.978  -7.092  1.00  0.00     0.007 A 
ATOM     29  C   UNL     1       5.851  -8.529  -4.592  1.00  0.00     0.021 A 
ATOM     30  C   UNL     1       5.574  -9.103  -6.921  1.00  0.00     0.021 A 
ATOM     31  C   UNL     1       6.112  -9.374  -5.668  1.00  0.00     0.041 A 
ATOM     32  Cl  UNL     1       7.080 -10.779  -5.441  1.00  0.00    -0.084 Cl
ENDBRANCH  15  26
ENDBRANCH   6  11
ENDBRANCH   3   5
ENDBRANCH   2   3
ENDBRANCH   1   2
BRANCH   1  33
ATOM     33  C   UNL     1      -2.058 -11.601 -11.417  1.00  0.00     0.275 C 
BRANCH  33  34
ATOM     34  O   UNL     1      -2.562 -10.274 -11.647  1.00  0.00    -0.458 OA
BRANCH  34  35
ATOM     35  C   UNL     1      -3.318  -9.751 -10.654  1.00  0.00     0.338 C 
ATOM     36  O   UNL     1      -3.671 -10.295  -9.623  1.00  0.00    -0.246 OA
BRANCH  35  37
ATOM     37  C   UNL     1      -3.664  -8.361 -10.989  1.00  0.00     0.060 A 
ATOM     38  C   UNL     1      -2.685  -7.376 -10.883  1.00  0.00     0.016 A 
ATOM     39  C   UNL     1      -4.979  -8.014 -11.293  1.00  0.00     0.016 A 
ATOM     40  C   UNL     1      -3.021  -6.032 -11.027  1.00  0.00     0.010 A 
ATOM     41  C   UNL     1      -5.303  -6.668 -11.507  1.00  0.00     0.010 A 
ATOM     42  C   UNL     1      -4.334  -5.659 -11.349  1.00  0.00    -0.014 A 
BRANCH  42  43
ATOM     43  C   UNL     1      -4.699  -4.219 -11.471  1.00  0.00     0.031 A 
ATOM     44  C   UNL     1      -5.724  -3.620 -10.542  1.00  0.00     0.074 A 
ATOM     45  C   UNL     1      -4.108  -3.439 -12.398  1.00  0.00     0.049 A 
ATOM     46  N   UNL     1      -6.295  -2.443 -10.588  1.00  0.00    -0.248 NA
ATOM     47  C   UNL     1      -6.174  -4.460  -9.421  1.00  0.00     0.031 C 
ATOM     48  C   UNL     1      -3.069  -3.873 -13.334  1.00  0.00     0.029 A 
ATOM     49  N   UNL     1      -4.293  -2.112 -12.704  1.00  0.00    -0.354 N 
ATOM     50  C   UNL     1      -7.211  -2.423  -9.541  1.00  0.00     0.074 A 
ATOM     51  C   UNL     1      -7.118  -3.705  -8.876  1.00  0.00     0.031 C 
ATOM     52  C   UNL     1      -2.689  -2.828 -14.086  1.00  0.00     0.029 A 
ATOM     53  C   UNL     1      -3.508  -1.670 -13.743  1.00  0.00     0.049 A 
ATOM     54  H   UNL     1      -4.929  -1.532 -12.225  1.00  0.00     0.167 HD
ATOM     55  C   UNL     1      -8.053  -1.427  -9.171  1.00  0.00     0.037 A 
ATOM     56  C   UNL     1      -3.474  -0.482 -14.377  1.00  0.00     0.037 A 
ATOM     57  C   UNL     1      -8.101  -0.131  -9.799  1.00  0.00     0.049 A 
ATOM     58  C   UNL     1      -4.424   0.605 -13.958  1.00  0.00     0.074 A 
ATOM     59  C   UNL     1      -8.907   0.949  -9.482  1.00  0.00     0.029 A 
ATOM     60  N   UNL     1      -7.300   0.266 -10.859  1.00  0.00    -0.354 N 
ATOM     61  N   UNL     1      -5.322   0.589 -13.001  1.00  0.00    -0.248 NA
ATOM     62  C   UNL     1      -4.373   1.863 -14.715  1.00  0.00     0.031 C 
ATOM     63  C   UNL     1      -8.613   1.991 -10.370  1.00  0.00     0.029 A 
ATOM     64  C   UNL     1      -7.598   1.571 -11.216  1.00  0.00     0.049 A 
ATOM     65  H   UNL     1      -6.620  -0.297 -11.295  1.00  0.00     0.167 HD
ATOM     66  C   UNL     1      -5.939   1.833 -13.040  1.00  0.00     0.074 A 
ATOM     67  C   UNL     1      -5.298   2.586 -14.099  1.00  0.00     0.031 C 
ATOM     68  C   UNL     1      -6.951   2.307 -12.273  1.00  0.00     0.037 A 
BRANCH  55  69
ATOM     69  C   UNL     1      -9.018  -1.711  -8.054  1.00  0.00     0.058 A 
ATOM     70  C   UNL     1      -8.610  -1.779  -6.713  1.00  0.00     0.135 A 
ATOM     71  C   UNL     1     -10.384  -1.887  -8.332  1.00  0.00     0.135 A 
ATOM     72  F   UNL     1      -7.314  -1.633  -6.394  1.00  0.00    -0.206 F 
ATOM     73  C   UNL     1      -9.516  -2.038  -5.689  1.00  0.00     0.059 A 
ATOM     74  C   UNL     1     -11.312  -2.123  -7.322  1.00  0.00     0.059 A 
ATOM     75  F   UNL     1     -10.829  -1.830  -9.597  1.00  0.00    -0.206 F 
ATOM     76  C   UNL     1     -10.866  -2.212  -6.004  1.00  0.00     0.060 A 
BRANCH  76  77
ATOM     77  S   UNL     1     -12.035  -2.545  -4.669  1.00  0.00     0.124 S 
ATOM     78  O   UNL     1     -11.755  -3.949  -4.381  1.00  0.00    -0.237 OA
ATOM     79  O   UNL     1     -11.621  -1.593  -3.643  1.00  0.00    -0.237 OA
ATOM     80  O   UNL     1     -13.333  -2.276  -5.279  1.00  0.00    -0.744 OA
ENDBRANCH  76  77
ENDBRANCH  55  69
BRANCH  56  81
ATOM     81  C   UNL     1      -2.526  -0.273 -15.504  1.00  0.00     0.058 A 
ATOM     82  C   UNL     1      -1.415   0.571 -15.367  1.00  0.00     0.135 A 
ATOM     83  C   UNL     1      -2.697  -0.937 -16.729  1.00  0.00     0.135 A 
ATOM     84  F   UNL     1      -1.216   1.238 -14.220  1.00  0.00    -0.206 F 
ATOM     85  C   UNL     1      -0.505   0.751 -16.404  1.00  0.00     0.059 A 
ATOM     86  C   UNL     1      -1.787  -0.794 -17.771  1.00  0.00     0.059 A 
ATOM     87  F   UNL     1      -3.740  -1.763 -16.906  1.00  0.00    -0.206 F 
ATOM     88  C   UNL     1      -0.697   0.059 -17.601  1.00  0.00     0.060 A 
BRANCH  88  89
ATOM     89  S   UNL     1       0.529   0.235 -18.916  1.00  0.00     0.124 S 
ATOM     90  O   UNL     1       0.174   1.534 -19.475  1.00  0.00    -0.237 OA
ATOM     91  O   UNL     1       1.786   0.181 -18.177  1.00  0.00    -0.237 OA
ATOM     92  O   UNL     1       0.266  -0.917 -19.773  1.00  0.00    -0.744 OA
ENDBRANCH  88  89
ENDBRANCH  56  81
BRANCH  68  93
ATOM     93  C   UNL     1      -7.414   3.711 -12.537  1.00  0.00     0.058 A 
ATOM     94  C   UNL     1      -8.209   4.024 -13.650  1.00  0.00     0.135 A 
ATOM     95  C   UNL     1      -7.089   4.747 -11.647  1.00  0.00     0.135 A 
ATOM     96  F   UNL     1      -8.540   3.069 -14.533  1.00  0.00    -0.206 F 
ATOM     97  C   UNL     1      -8.650   5.322 -13.884  1.00  0.00     0.059 A 
ATOM     98  C   UNL     1      -7.537   6.049 -11.851  1.00  0.00     0.059 A 
ATOM     99  F   UNL     1      -6.337   4.498 -10.564  1.00  0.00    -0.206 F 
ATOM    100  C   UNL     1      -8.307   6.329 -12.979  1.00  0.00     0.060 A 
BRANCH 100 101
ATOM    101  S   UNL     1      -8.903   8.007 -13.279  1.00  0.00     0.124 S 
ATOM    102  O   UNL     1      -8.000   8.454 -14.335  1.00  0.00    -0.237 OA
ATOM    103  O   UNL     1     -10.288   7.783 -13.682  1.00  0.00    -0.237 OA
ATOM    104  O   UNL     1      -8.731   8.662 -11.986  1.00  0.00    -0.744 OA
ENDBRANCH 100 101
ENDBRANCH  68  93
ENDBRANCH  42  43
ENDBRANCH  35  37
ENDBRANCH  34  35
ENDBRANCH  33  34
ENDBRANCH   1  33
TORSDOF 18
