REMARK SMILES O=C(Cc1ccccc1C(=O)OCCOC(=O)c1ccc(-c2c3nc(c(-c4c(F)cc(S(=O)(=O)[O-])cc4F)c4ccc([nH]4)c(-c4c(F)cc(S(=O)(=O)[O-])cc4F)c4nc(c(-c5c(F)cc(S(=O)(=O)[O-])cc5F)c5ccc2[nH]5)C=C4)C=C3)cc1)Nc1cccc(OC[C@@H]2CCCO2)c1
REMARK SMILES IDX 12 1 10 2 11 3 9 4 4 5 5 6 6 7 8 8 7 9 3 10 2 11 1 12 84 13
REMARK SMILES IDX 85 15 86 16 97 17 87 18 89 19 88 20 90 21 91 22 92 23 93 24
REMARK SMILES IDX 96 25 94 26 95 27 13 28 14 29 15 30 16 31 17 32 18 33 19 34
REMARK SMILES IDX 83 35 20 36 82 37 21 38 22 39 23 40 76 41 24 42 81 43 75 44
REMARK SMILES IDX 77 45 25 46 80 47 74 48 73 49 26 51 60 52 39 53 59 54 40 55
REMARK SMILES IDX 43 56 58 57 78 58 41 59 42 60 57 62 79 63 44 64 27 65 28 66
REMARK SMILES IDX 37 67 29 68 30 69 36 70 38 71 31 72 32 73 33 74 34 75 35 76
REMARK SMILES IDX 61 77 62 78 71 79 63 80 64 81 70 82 72 83 65 84 66 85 67 86
REMARK SMILES IDX 68 87 69 88 45 89 46 90 55 91 47 92 48 93 54 94 56 95 49 96
REMARK SMILES IDX 50 97 51 98 52 99 53 100
REMARK H PARENT 84 14 77 50 43 61
REMARK Flexibility Score: inf
ROOT
ATOM      1  O   UNL     1       1.874   1.951  -2.072  1.00  0.00    -0.458 OA
ENDROOT
BRANCH   1   2
ATOM      2  C   UNL     1       2.983   2.653  -2.416  1.00  0.00     0.338 C 
ATOM      3  O   UNL     1       3.102   3.380  -3.384  1.00  0.00    -0.246 OA
BRANCH   2   4
ATOM      4  C   UNL     1       4.084   2.482  -1.426  1.00  0.00     0.063 A 
ATOM      5  C   UNL     1       4.534   1.241  -0.941  1.00  0.00    -0.024 A 
ATOM      6  C   UNL     1       5.691   1.210  -0.131  1.00  0.00     0.005 A 
ATOM      7  C   UNL     1       6.350   2.381   0.238  1.00  0.00     0.000 A 
ATOM      8  C   UNL     1       4.787   3.648  -1.076  1.00  0.00     0.016 A 
ATOM      9  C   UNL     1       5.890   3.604  -0.226  1.00  0.00     0.001 A 
BRANCH   5  10
ATOM     10  C   UNL     1       3.860  -0.073  -1.249  1.00  0.00     0.136 C 
BRANCH  10  11
ATOM     11  C   UNL     1       2.801  -0.515  -0.248  1.00  0.00     0.228 C 
ATOM     12  O   UNL     1       1.764  -1.029  -0.664  1.00  0.00    -0.274 OA
ATOM     13  N   UNL     1       3.166  -0.394   1.085  1.00  0.00    -0.326 N 
ATOM     14  H   UNL     1       3.988   0.115   1.270  1.00  0.00     0.169 HD
BRANCH  13  15
ATOM     15  C   UNL     1       2.488  -0.919   2.207  1.00  0.00     0.044 A 
ATOM     16  C   UNL     1       2.876  -0.475   3.476  1.00  0.00     0.026 A 
ATOM     17  C   UNL     1       1.458  -1.855   2.103  1.00  0.00     0.072 A 
ATOM     18  C   UNL     1       2.202  -0.921   4.614  1.00  0.00     0.006 A 
ATOM     19  C   UNL     1       0.741  -2.264   3.226  1.00  0.00     0.121 A 
ATOM     20  C   UNL     1       1.128  -1.802   4.484  1.00  0.00     0.046 A 
BRANCH  19  21
ATOM     21  O   UNL     1      -0.348  -3.090   3.218  1.00  0.00    -0.491 OA
BRANCH  21  22
ATOM     22  C   UNL     1      -0.975  -3.393   1.966  1.00  0.00     0.261 C 
BRANCH  22  23
ATOM     23  C   UNL     1      -1.897  -2.293   1.388  1.00  0.00     0.156 C 
ATOM     24  C   UNL     1      -1.470  -1.786   0.014  1.00  0.00     0.038 C 
ATOM     25  O   UNL     1      -2.043  -1.154   2.249  1.00  0.00    -0.375 OA
ATOM     26  C   UNL     1      -1.714  -0.299   0.080  1.00  0.00     0.031 C 
ATOM     27  C   UNL     1      -1.581   0.009   1.552  1.00  0.00     0.161 C 
ENDBRANCH  22  23
ENDBRANCH  21  22
ENDBRANCH  19  21
ENDBRANCH  13  15
ENDBRANCH  10  11
ENDBRANCH   5  10
ENDBRANCH   2   4
ENDBRANCH   1   2
BRANCH   1  28
ATOM     28  C   UNL     1       0.784   2.004  -3.021  1.00  0.00     0.275 C 
BRANCH  28  29
ATOM     29  C   UNL     1      -0.387   2.837  -2.504  1.00  0.00     0.275 C 
BRANCH  29  30
ATOM     30  O   UNL     1       0.015   4.205  -2.333  1.00  0.00    -0.458 OA
BRANCH  30  31
ATOM     31  C   UNL     1       0.109   4.614  -1.049  1.00  0.00     0.338 C 
ATOM     32  O   UNL     1      -0.173   3.983  -0.042  1.00  0.00    -0.246 OA
BRANCH  31  33
ATOM     33  C   UNL     1       0.680   5.966  -0.998  1.00  0.00     0.060 A 
ATOM     34  C   UNL     1       2.019   6.134  -1.338  1.00  0.00     0.016 A 
ATOM     35  C   UNL     1      -0.041   7.017  -0.438  1.00  0.00     0.016 A 
ATOM     36  C   UNL     1       2.683   7.307  -0.993  1.00  0.00     0.010 A 
ATOM     37  C   UNL     1       0.602   8.237  -0.199  1.00  0.00     0.010 A 
ATOM     38  C   UNL     1       1.986   8.378  -0.414  1.00  0.00    -0.014 A 
BRANCH  38  39
ATOM     39  C   UNL     1       2.708   9.607   0.034  1.00  0.00     0.031 A 
ATOM     40  C   UNL     1       2.604  10.060   1.472  1.00  0.00     0.074 A 
ATOM     41  C   UNL     1       3.471  10.313  -0.825  1.00  0.00     0.049 A 
ATOM     42  N   UNL     1       2.981  11.189   2.016  1.00  0.00    -0.248 NA
ATOM     43  C   UNL     1       1.973   9.125   2.419  1.00  0.00     0.031 C 
ATOM     44  C   UNL     1       3.705   9.974  -2.231  1.00  0.00     0.029 A 
ATOM     45  N   UNL     1       4.200  11.463  -0.640  1.00  0.00    -0.354 N 
ATOM     46  C   UNL     1       2.569  11.131   3.344  1.00  0.00     0.074 A 
ATOM     47  C   UNL     1       1.914   9.854   3.525  1.00  0.00     0.031 C 
ATOM     48  C   UNL     1       4.550  10.868  -2.766  1.00  0.00     0.029 A 
ATOM     49  C   UNL     1       4.845  11.896  -1.775  1.00  0.00     0.049 A 
ATOM     50  H   UNL     1       4.255  11.933   0.223  1.00  0.00     0.167 HD
ATOM     51  C   UNL     1       2.721  12.057   4.322  1.00  0.00     0.037 A 
ATOM     52  C   UNL     1       5.556  13.016  -2.013  1.00  0.00     0.037 A 
ATOM     53  C   UNL     1       3.439  13.296   4.154  1.00  0.00     0.049 A 
ATOM     54  C   UNL     1       5.719  14.027  -0.914  1.00  0.00     0.074 A 
ATOM     55  C   UNL     1       3.659  14.298   5.085  1.00  0.00     0.029 A 
ATOM     56  N   UNL     1       4.074  13.691   2.986  1.00  0.00    -0.354 N 
ATOM     57  N   UNL     1       5.258  13.991   0.314  1.00  0.00    -0.248 NA
ATOM     58  C   UNL     1       6.484  15.239  -1.236  1.00  0.00     0.031 C 
ATOM     59  C   UNL     1       4.407  15.309   4.471  1.00  0.00     0.029 A 
ATOM     60  C   UNL     1       4.688  14.919   3.172  1.00  0.00     0.049 A 
ATOM     61  H   UNL     1       4.088  13.174   2.148  1.00  0.00     0.167 HD
ATOM     62  C   UNL     1       5.689  15.168   0.915  1.00  0.00     0.074 A 
ATOM     63  C   UNL     1       6.461  15.886  -0.078  1.00  0.00     0.031 C 
ATOM     64  C   UNL     1       5.462  15.615   2.175  1.00  0.00     0.037 A 
BRANCH  51  65
ATOM     65  C   UNL     1       2.070  11.785   5.652  1.00  0.00     0.058 A 
ATOM     66  C   UNL     1       2.560  10.818   6.543  1.00  0.00     0.135 A 
ATOM     67  C   UNL     1       0.945  12.528   6.051  1.00  0.00     0.135 A 
ATOM     68  F   UNL     1       3.622  10.068   6.208  1.00  0.00    -0.206 F 
ATOM     69  C   UNL     1       1.940  10.573   7.765  1.00  0.00     0.059 A 
ATOM     70  C   UNL     1       0.326  12.320   7.279  1.00  0.00     0.059 A 
ATOM     71  F   UNL     1       0.435  13.469   5.240  1.00  0.00    -0.206 F 
ATOM     72  C   UNL     1       0.821  11.327   8.123  1.00  0.00     0.060 A 
BRANCH  72  73
ATOM     73  S   UNL     1       0.022  10.997   9.709  1.00  0.00     0.124 S 
ATOM     74  O   UNL     1      -0.687   9.754   9.423  1.00  0.00    -0.237 OA
ATOM     75  O   UNL     1       1.159  10.883  10.616  1.00  0.00    -0.237 OA
ATOM     76  O   UNL     1      -0.823  12.169   9.914  1.00  0.00    -0.744 OA
ENDBRANCH  72  73
ENDBRANCH  51  65
BRANCH  52  77
ATOM     77  C   UNL     1       6.137  13.249  -3.362  1.00  0.00     0.058 A 
ATOM     78  C   UNL     1       7.522  13.189  -3.573  1.00  0.00     0.135 A 
ATOM     79  C   UNL     1       5.317  13.502  -4.473  1.00  0.00     0.135 A 
ATOM     80  F   UNL     1       8.349  12.961  -2.540  1.00  0.00    -0.206 F 
ATOM     81  C   UNL     1       8.075  13.374  -4.836  1.00  0.00     0.059 A 
ATOM     82  C   UNL     1       5.844  13.662  -5.750  1.00  0.00     0.059 A 
ATOM     83  F   UNL     1       3.984  13.557  -4.327  1.00  0.00    -0.206 F 
ATOM     84  C   UNL     1       7.226  13.604  -5.920  1.00  0.00     0.060 A 
BRANCH  84  85
ATOM     85  S   UNL     1       7.946  13.771  -7.568  1.00  0.00     0.124 S 
ATOM     86  O   UNL     1       8.486  15.124  -7.517  1.00  0.00    -0.237 OA
ATOM     87  O   UNL     1       8.928  12.691  -7.588  1.00  0.00    -0.237 OA
ATOM     88  O   UNL     1       6.800  13.580  -8.453  1.00  0.00    -0.744 OA
ENDBRANCH  84  85
ENDBRANCH  52  77
BRANCH  64  89
ATOM     89  C   UNL     1       6.097  16.919   2.563  1.00  0.00     0.058 A 
ATOM     90  C   UNL     1       5.604  18.148   2.100  1.00  0.00     0.135 A 
ATOM     91  C   UNL     1       7.198  16.939   3.435  1.00  0.00     0.135 A 
ATOM     92  F   UNL     1       4.558  18.183   1.259  1.00  0.00    -0.206 F 
ATOM     93  C   UNL     1       6.199  19.352   2.464  1.00  0.00     0.059 A 
ATOM     94  C   UNL     1       7.793  18.131   3.831  1.00  0.00     0.059 A 
ATOM     95  F   UNL     1       7.701  15.790   3.914  1.00  0.00    -0.206 F 
ATOM     96  C   UNL     1       7.295  19.333   3.328  1.00  0.00     0.060 A 
BRANCH  96  97
ATOM     97  S   UNL     1       8.052  20.900   3.807  1.00  0.00     0.124 S 
ATOM     98  O   UNL     1       8.814  21.236   2.609  1.00  0.00    -0.237 OA
ATOM     99  O   UNL     1       6.890  21.742   4.076  1.00  0.00    -0.237 OA
ATOM    100  O   UNL     1       8.847  20.548   4.980  1.00  0.00    -0.744 OA
ENDBRANCH  96  97
ENDBRANCH  64  89
ENDBRANCH  38  39
ENDBRANCH  31  33
ENDBRANCH  30  31
ENDBRANCH  29  30
ENDBRANCH  28  29
ENDBRANCH   1  28
TORSDOF 20
