REMARK SMILES Cc1cc2nc(NC3=[NH+][C@H](CC(=O)OCCOC(=O)c4ccc(-c5c6nc(c(-c7c(F)cc(S(=O)(=O)[O-])cc7F)c7ccc([nH]7)c(-c7c(F)cc(S(=O)(=O)[O-])cc7F)c7nc(c(-c8c(F)cc(S(=O)(=O)[O-])cc8F)c8ccc5[nH]8)C=C7)C=C6)cc4)C(=O)N3)nc(C)c2cc1C
REMARK SMILES IDX 16 1 15 2 14 3 12 4 13 5 11 6 10 7 7 8 8 9 9 11 88 12 86 14
REMARK SMILES IDX 87 16 6 17 1 18 2 19 3 20 94 21 4 22 93 23 95 24 5 25 92 26
REMARK SMILES IDX 90 27 89 28 91 29 17 30 18 31 19 32 20 33 21 34 85 35 22 36
REMARK SMILES IDX 84 37 23 38 24 39 25 40 78 41 26 42 83 43 77 44 79 45 27 46
REMARK SMILES IDX 82 47 76 48 75 49 28 51 62 52 41 53 61 54 42 55 45 56 60 57
REMARK SMILES IDX 80 58 43 59 44 60 59 62 81 63 46 64 29 65 30 66 39 67 31 68
REMARK SMILES IDX 32 69 38 70 40 71 33 72 34 73 35 74 36 75 37 76 63 77 64 78
REMARK SMILES IDX 73 79 65 80 66 81 72 82 74 83 67 84 68 85 69 86 70 87 71 88
REMARK SMILES IDX 47 89 48 90 57 91 49 92 50 93 56 94 58 95 51 96 52 97 53 98
REMARK SMILES IDX 54 99 55 100
REMARK H PARENT 7 10 9 13 88 15 79 50 45 61
REMARK Flexibility Score: inf
ROOT
ATOM      1  C   UNL     1       0.732  -5.894   3.902  1.00  0.00     0.275 C 
ENDROOT
BRANCH   1   2
ATOM      2  C   UNL     1       1.050  -4.784   2.901  1.00  0.00     0.274 C 
BRANCH   2   3
ATOM      3  O   UNL     1       1.781  -5.307   1.780  1.00  0.00    -0.462 OA
BRANCH   3   4
ATOM      4  C   UNL     1       3.126  -5.152   1.775  1.00  0.00     0.310 C 
ATOM      5  O   UNL     1       3.755  -4.525   2.620  1.00  0.00    -0.252 OA
BRANCH   4   6
ATOM      6  C   UNL     1       3.791  -5.770   0.569  1.00  0.00     0.175 C 
BRANCH   6   7
ATOM      7  C   UNL     1       3.150  -7.068   0.096  1.00  0.00     0.262 C 
ATOM      8  N   UNL     1       1.250  -6.593  -2.850  1.00  0.00    -0.212 N 
ATOM      9  C   UNL     1       2.087  -6.968  -1.857  1.00  0.00     0.358 C 
ATOM     10  H   UNL     1       1.065  -7.219  -3.587  1.00  0.00     0.270 HD
ATOM     11  N   UNL     1       1.891  -6.732  -0.601  1.00  0.00    -0.263 N 
ATOM     12  N   UNL     1       3.232  -7.619  -2.132  1.00  0.00    -0.211 N 
ATOM     13  H   UNL     1       1.063  -6.394  -0.189  1.00  0.00     0.261 HD
ATOM     14  C   UNL     1       3.975  -7.708  -0.999  1.00  0.00     0.320 C 
ATOM     15  H   UNL     1       3.490  -7.973  -3.014  1.00  0.00     0.270 HD
ATOM     16  O   UNL     1       5.109  -8.148  -0.923  1.00  0.00    -0.252 OA
BRANCH   8  17
ATOM     17  C   UNL     1       0.645  -5.340  -2.851  1.00  0.00     0.291 A 
ATOM     18  C   UNL     1       0.957  -0.034   0.051  1.00  0.00     0.044 C 
ATOM     19  C   UNL     1       0.427  -0.954  -1.017  1.00  0.00    -0.046 A 
ATOM     20  C   UNL     1       0.953  -2.256  -1.081  1.00  0.00     0.033 A 
ATOM     21  C   UNL     1      -0.596  -0.596  -1.907  1.00  0.00    -0.047 A 
ATOM     22  C   UNL     1       0.514  -3.196  -2.003  1.00  0.00     0.078 A 
ATOM     23  C   UNL     1      -1.036  -1.543  -2.849  1.00  0.00     0.016 A 
ATOM     24  C   UNL     1      -1.237   0.763  -1.875  1.00  0.00     0.044 C 
ATOM     25  N   UNL     1       1.069  -4.404  -1.990  1.00  0.00    -0.198 NA
ATOM     26  C   UNL     1      -0.485  -2.848  -2.904  1.00  0.00     0.022 A 
ATOM     27  C   UNL     1      -0.845  -3.872  -3.797  1.00  0.00     0.052 A 
ATOM     28  N   UNL     1      -0.275  -5.101  -3.791  1.00  0.00    -0.203 NA
ATOM     29  C   UNL     1      -1.906  -3.664  -4.838  1.00  0.00     0.067 C 
ENDBRANCH   8  17
ENDBRANCH   6   7
ENDBRANCH   4   6
ENDBRANCH   3   4
ENDBRANCH   2   3
ENDBRANCH   1   2
BRANCH   1  30
ATOM     30  O   UNL     1       1.921  -6.323   4.587  1.00  0.00    -0.458 OA
BRANCH  30  31
ATOM     31  C   UNL     1       2.535  -7.413   4.068  1.00  0.00     0.338 C 
ATOM     32  O   UNL     1       2.152  -8.118   3.153  1.00  0.00    -0.246 OA
BRANCH  31  33
ATOM     33  C   UNL     1       3.843  -7.569   4.716  1.00  0.00     0.060 A 
ATOM     34  C   UNL     1       3.920  -7.893   6.070  1.00  0.00     0.016 A 
ATOM     35  C   UNL     1       5.002  -7.427   3.947  1.00  0.00     0.016 A 
ATOM     36  C   UNL     1       5.173  -8.050   6.661  1.00  0.00     0.010 A 
ATOM     37  C   UNL     1       6.253  -7.592   4.538  1.00  0.00     0.010 A 
ATOM     38  C   UNL     1       6.347  -7.898   5.901  1.00  0.00    -0.014 A 
BRANCH  38  39
ATOM     39  C   UNL     1       7.671  -8.103   6.535  1.00  0.00     0.031 A 
ATOM     40  C   UNL     1       8.572  -6.938   6.823  1.00  0.00     0.074 A 
ATOM     41  C   UNL     1       8.047  -9.355   6.858  1.00  0.00     0.049 A 
ATOM     42  N   UNL     1       9.715  -6.922   7.460  1.00  0.00    -0.248 NA
ATOM     43  C   UNL     1       8.141  -5.621   6.329  1.00  0.00     0.031 C 
ATOM     44  C   UNL     1       7.268 -10.563   6.580  1.00  0.00     0.029 A 
ATOM     45  N   UNL     1       9.166  -9.819   7.500  1.00  0.00    -0.354 N 
ATOM     46  C   UNL     1      10.130  -5.596   7.462  1.00  0.00     0.074 A 
ATOM     47  C   UNL     1       9.146  -4.845   6.713  1.00  0.00     0.031 C 
ATOM     48  C   UNL     1       7.912 -11.626   7.087  1.00  0.00     0.029 A 
ATOM     49  C   UNL     1       9.159 -11.179   7.702  1.00  0.00     0.049 A 
ATOM     50  H   UNL     1       9.903  -9.235   7.790  1.00  0.00     0.167 HD
ATOM     51  C   UNL     1      11.219  -5.056   8.060  1.00  0.00     0.037 A 
ATOM     52  C   UNL     1      10.051 -11.973   8.325  1.00  0.00     0.037 A 
ATOM     53  C   UNL     1      12.196  -5.818   8.796  1.00  0.00     0.049 A 
ATOM     54  C   UNL     1      11.268 -11.352   8.952  1.00  0.00     0.074 A 
ATOM     55  C   UNL     1      13.316  -5.361   9.468  1.00  0.00     0.029 A 
ATOM     56  N   UNL     1      12.175  -7.198   8.949  1.00  0.00    -0.354 N 
ATOM     57  N   UNL     1      11.610 -10.087   9.010  1.00  0.00    -0.248 NA
ATOM     58  C   UNL     1      12.219 -12.264   9.604  1.00  0.00     0.031 C 
ATOM     59  C   UNL     1      13.997  -6.466   9.987  1.00  0.00     0.029 A 
ATOM     60  C   UNL     1      13.275  -7.610   9.684  1.00  0.00     0.049 A 
ATOM     61  H   UNL     1      11.480  -7.795   8.589  1.00  0.00     0.167 HD
ATOM     62  C   UNL     1      12.806 -10.048   9.719  1.00  0.00     0.074 A 
ATOM     63  C   UNL     1      13.118 -11.415  10.084  1.00  0.00     0.031 C 
ATOM     64  C   UNL     1      13.575  -8.977  10.036  1.00  0.00     0.037 A 
BRANCH  51  65
ATOM     65  C   UNL     1      11.408  -3.566   7.961  1.00  0.00     0.058 A 
ATOM     66  C   UNL     1      10.575  -2.677   8.660  1.00  0.00     0.135 A 
ATOM     67  C   UNL     1      12.467  -3.020   7.217  1.00  0.00     0.135 A 
ATOM     68  F   UNL     1       9.540  -3.142   9.378  1.00  0.00    -0.206 F 
ATOM     69  C   UNL     1      10.774  -1.301   8.611  1.00  0.00     0.059 A 
ATOM     70  C   UNL     1      12.700  -1.647   7.175  1.00  0.00     0.059 A 
ATOM     71  F   UNL     1      13.295  -3.823   6.531  1.00  0.00    -0.206 F 
ATOM     72  C   UNL     1      11.842  -0.795   7.869  1.00  0.00     0.060 A 
BRANCH  72  73
ATOM     73  S   UNL     1      12.096   0.992   7.838  1.00  0.00     0.124 S 
ATOM     74  O   UNL     1      10.947   1.438   7.057  1.00  0.00    -0.237 OA
ATOM     75  O   UNL     1      12.067   1.334   9.257  1.00  0.00    -0.237 OA
ATOM     76  O   UNL     1      13.393   1.143   7.186  1.00  0.00    -0.744 OA
ENDBRANCH  72  73
ENDBRANCH  51  65
BRANCH  52  77
ATOM     77  C   UNL     1       9.794 -13.435   8.420  1.00  0.00     0.058 A 
ATOM     78  C   UNL     1       9.459 -14.028   9.645  1.00  0.00     0.135 A 
ATOM     79  C   UNL     1       9.842 -14.259   7.285  1.00  0.00     0.135 A 
ATOM     80  F   UNL     1       9.405 -13.283  10.759  1.00  0.00    -0.206 F 
ATOM     81  C   UNL     1       9.186 -15.389   9.745  1.00  0.00     0.059 A 
ATOM     82  C   UNL     1       9.549 -15.618   7.355  1.00  0.00     0.059 A 
ATOM     83  F   UNL     1      10.145 -13.737   6.086  1.00  0.00    -0.206 F 
ATOM     84  C   UNL     1       9.227 -16.175   8.592  1.00  0.00     0.060 A 
BRANCH  84  85
ATOM     85  S   UNL     1       8.815 -17.927   8.727  1.00  0.00     0.124 S 
ATOM     86  O   UNL     1       9.962 -18.444   9.465  1.00  0.00    -0.237 OA
ATOM     87  O   UNL     1       7.552 -17.888   9.457  1.00  0.00    -0.237 OA
ATOM     88  O   UNL     1       8.714 -18.359   7.336  1.00  0.00    -0.744 OA
ENDBRANCH  84  85
ENDBRANCH  52  77
BRANCH  64  89
ATOM     89  C   UNL     1      14.830  -9.232  10.824  1.00  0.00     0.058 A 
ATOM     90  C   UNL     1      15.957  -9.827  10.236  1.00  0.00     0.135 A 
ATOM     91  C   UNL     1      14.933  -8.810  12.160  1.00  0.00     0.135 A 
ATOM     92  F   UNL     1      15.909 -10.255   8.965  1.00  0.00    -0.206 F 
ATOM     93  C   UNL     1      17.138 -10.007  10.948  1.00  0.00     0.059 A 
ATOM     94  C   UNL     1      16.114  -8.956  12.883  1.00  0.00     0.059 A 
ATOM     95  F   UNL     1      13.888  -8.228  12.768  1.00  0.00    -0.206 F 
ATOM     96  C   UNL     1      17.209  -9.562  12.270  1.00  0.00     0.060 A 
BRANCH  96  97
ATOM     97  S   UNL     1      18.765  -9.759  13.163  1.00  0.00     0.124 S 
ATOM     98  O   UNL     1      18.811 -11.204  13.362  1.00  0.00    -0.237 OA
ATOM     99  O   UNL     1      19.737  -9.219  12.217  1.00  0.00    -0.237 OA
ATOM    100  O   UNL     1      18.569  -8.965  14.372  1.00  0.00    -0.744 OA
ENDBRANCH  96  97
ENDBRANCH  64  89
ENDBRANCH  38  39
ENDBRANCH  31  33
ENDBRANCH  30  31
ENDBRANCH   1  30
TORSDOF 16
