REMARK SMILES Cc1ccc2oc(-c3ccc4c(c3)OCO4)c/c(=N\[C@H](C)C(=O)OCCOC(=O)c3ccc(-c4c5nc(c(-c6c(F)cc(S(=O)(=O)[O-])cc6F)c6ccc([nH]6)c(-c6c(F)cc(S(=O)(=O)[O-])cc6F)c6nc(c(-c7c(F)cc(S(=O)(=O)[O-])cc7F)c7ccc4[nH]7)C=C6)C=C5)cc3)c2c1
REMARK SMILES IDX 26 1 25 2 24 3 22 4 23 5 20 6 21 7 19 8 1 9 2 10 3 11 97 12
REMARK SMILES IDX 4 13 96 14 5 15 18 16 6 17 17 18 7 19 8 20 9 21 13 22 10 23
REMARK SMILES IDX 12 24 11 25 14 26 16 27 15 28 27 29 28 30 29 31 30 32 31 33
REMARK SMILES IDX 95 34 32 35 94 36 33 37 34 38 35 39 88 40 36 41 93 42 87 43
REMARK SMILES IDX 89 44 37 45 92 46 86 47 85 48 38 50 72 51 51 52 71 53 52 54
REMARK SMILES IDX 55 55 70 56 90 57 53 58 54 59 69 61 91 62 56 63 39 64 40 65
REMARK SMILES IDX 49 66 41 67 42 68 48 69 50 70 43 71 44 72 45 73 46 74 47 75
REMARK SMILES IDX 73 76 74 77 83 78 75 79 76 80 82 81 84 82 77 83 78 84 79 85
REMARK SMILES IDX 80 86 81 87 57 88 58 89 67 90 59 91 60 92 66 93 68 94 61 95
REMARK SMILES IDX 62 96 63 97 64 98 65 99
REMARK H PARENT 89 49 55 60
REMARK Flexibility Score: inf
ROOT
ATOM      1  C   UNL     1       3.658   1.539  -3.400  1.00  0.00     0.275 C 
ENDROOT
BRANCH   1   2
ATOM      2  C   UNL     1       2.923   0.797  -2.279  1.00  0.00     0.274 C 
BRANCH   2   3
ATOM      3  O   UNL     1       1.527   0.670  -2.591  1.00  0.00    -0.460 OA
BRANCH   3   4
ATOM      4  C   UNL     1       0.722   1.667  -2.135  1.00  0.00     0.330 C 
ATOM      5  O   UNL     1       1.072   2.526  -1.331  1.00  0.00    -0.250 OA
BRANCH   4   6
ATOM      6  C   UNL     1      -0.675   1.624  -2.759  1.00  0.00     0.212 C 
ATOM      7  C   UNL     1      -0.750   0.895  -4.103  1.00  0.00     0.046 C 
BRANCH   6   8
ATOM      8  N   UNL     1      -1.577   1.027  -1.766  1.00  0.00    -0.270 NA
ATOM      9  C   UNL     1      -3.476  -0.827   2.674  1.00  0.00     0.044 C 
ATOM     10  C   UNL     1      -4.024  -0.466   1.325  1.00  0.00    -0.050 A 
ATOM     11  C   UNL     1      -5.350  -0.768   0.984  1.00  0.00     0.007 A 
ATOM     12  C   UNL     1      -3.204   0.147   0.375  1.00  0.00     0.017 A 
ATOM     13  C   UNL     1      -5.863  -0.419  -0.272  1.00  0.00     0.048 A 
ATOM     14  C   UNL     1      -3.718   0.490  -0.881  1.00  0.00     0.043 A 
ATOM     15  C   UNL     1      -5.050   0.231  -1.198  1.00  0.00     0.136 A 
ATOM     16  C   UNL     1      -2.852   1.119  -1.898  1.00  0.00     0.073 A 
ATOM     17  O   UNL     1      -5.608   0.595  -2.401  1.00  0.00    -0.456 OA
ATOM     18  C   UNL     1      -3.585   1.772  -3.002  1.00  0.00     0.076 A 
ATOM     19  C   UNL     1      -4.868   1.446  -3.200  1.00  0.00     0.136 A 
BRANCH  19  20
ATOM     20  C   UNL     1      -5.560   1.998  -4.365  1.00  0.00     0.021 A 
ATOM     21  C   UNL     1      -5.476   1.339  -5.614  1.00  0.00     0.016 A 
ATOM     22  C   UNL     1      -6.218   3.230  -4.263  1.00  0.00     0.062 A 
ATOM     23  C   UNL     1      -6.048   1.902  -6.759  1.00  0.00     0.051 A 
ATOM     24  C   UNL     1      -6.780   3.753  -5.408  1.00  0.00     0.166 A 
ATOM     25  C   UNL     1      -6.698   3.109  -6.620  1.00  0.00     0.165 A 
ATOM     26  O   UNL     1      -7.455   4.930  -5.491  1.00  0.00    -0.454 OA
ATOM     27  O   UNL     1      -7.316   3.799  -7.616  1.00  0.00    -0.454 OA
ATOM     28  C   UNL     1      -7.855   4.915  -6.876  1.00  0.00     0.468 C 
ENDBRANCH  19  20
ENDBRANCH   6   8
ENDBRANCH   4   6
ENDBRANCH   3   4
ENDBRANCH   2   3
ENDBRANCH   1   2
BRANCH   1  29
ATOM     29  O   UNL     1       3.412   2.958  -3.361  1.00  0.00    -0.458 OA
BRANCH  29  30
ATOM     30  C   UNL     1       2.390   3.408  -4.129  1.00  0.00     0.338 C 
ATOM     31  O   UNL     1       1.683   2.752  -4.873  1.00  0.00    -0.246 OA
BRANCH  30  32
ATOM     32  C   UNL     1       2.149   4.832  -3.846  1.00  0.00     0.060 A 
ATOM     33  C   UNL     1       3.149   5.780  -4.056  1.00  0.00     0.016 A 
ATOM     34  C   UNL     1       0.878   5.224  -3.415  1.00  0.00     0.016 A 
ATOM     35  C   UNL     1       2.872   7.127  -3.812  1.00  0.00     0.010 A 
ATOM     36  C   UNL     1       0.598   6.568  -3.184  1.00  0.00     0.010 A 
ATOM     37  C   UNL     1       1.597   7.529  -3.373  1.00  0.00    -0.014 A 
BRANCH  37  38
ATOM     38  C   UNL     1       1.301   8.964  -3.157  1.00  0.00     0.031 A 
ATOM     39  C   UNL     1       1.141   9.515  -1.770  1.00  0.00     0.074 A 
ATOM     40  C   UNL     1       1.177   9.767  -4.231  1.00  0.00     0.049 A 
ATOM     41  N   UNL     1       1.006  10.760  -1.393  1.00  0.00    -0.248 NA
ATOM     42  C   UNL     1       1.117   8.545  -0.663  1.00  0.00     0.031 C 
ATOM     43  C   UNL     1       1.243   9.321  -5.624  1.00  0.00     0.029 A 
ATOM     44  N   UNL     1       0.988  11.122  -4.322  1.00  0.00    -0.354 N 
ATOM     45  C   UNL     1       0.904  10.728  -0.008  1.00  0.00     0.074 A 
ATOM     46  C   UNL     1       0.929   9.336   0.385  1.00  0.00     0.031 C 
ATOM     47  C   UNL     1       1.147  10.389  -6.431  1.00  0.00     0.029 A 
ATOM     48  C   UNL     1       0.996  11.590  -5.614  1.00  0.00     0.049 A 
ATOM     49  H   UNL     1       0.858  11.703  -3.538  1.00  0.00     0.167 HD
ATOM     50  C   UNL     1       0.829  11.769   0.855  1.00  0.00     0.037 A 
ATOM     51  C   UNL     1       0.917  12.849  -6.086  1.00  0.00     0.037 A 
ATOM     52  C   UNL     1       0.801  13.150   0.446  1.00  0.00     0.049 A 
ATOM     53  C   UNL     1       0.831  13.990  -5.111  1.00  0.00     0.074 A 
ATOM     54  C   UNL     1       0.769  14.283   1.240  1.00  0.00     0.029 A 
ATOM     55  N   UNL     1       0.794  13.586  -0.872  1.00  0.00    -0.354 N 
ATOM     56  N   UNL     1       0.824  13.950  -3.799  1.00  0.00    -0.248 NA
ATOM     57  C   UNL     1       0.753  15.344  -5.673  1.00  0.00     0.031 C 
ATOM     58  C   UNL     1       0.701  15.402   0.403  1.00  0.00     0.029 A 
ATOM     59  C   UNL     1       0.737  14.970  -0.913  1.00  0.00     0.049 A 
ATOM     60  H   UNL     1       0.825  12.999  -1.661  1.00  0.00     0.167 HD
ATOM     61  C   UNL     1       0.760  15.274  -3.379  1.00  0.00     0.074 A 
ATOM     62  C   UNL     1       0.743  16.090  -4.576  1.00  0.00     0.031 C 
ATOM     63  C   UNL     1       0.720  15.766  -2.116  1.00  0.00     0.037 A 
BRANCH  50  64
ATOM     64  C   UNL     1       0.796  11.460   2.327  1.00  0.00     0.058 A 
ATOM     65  C   UNL     1       1.933  10.977   2.995  1.00  0.00     0.135 A 
ATOM     66  C   UNL     1      -0.356  11.703   3.091  1.00  0.00     0.135 A 
ATOM     67  F   UNL     1       3.059  10.717   2.312  1.00  0.00    -0.206 F 
ATOM     68  C   UNL     1       1.923  10.727   4.363  1.00  0.00     0.059 A 
ATOM     69  C   UNL     1      -0.381  11.484   4.467  1.00  0.00     0.059 A 
ATOM     70  F   UNL     1      -1.471  12.167   2.505  1.00  0.00    -0.206 F 
ATOM     71  C   UNL     1       0.761  10.986   5.092  1.00  0.00     0.060 A 
BRANCH  71  72
ATOM     72  S   UNL     1       0.775  10.672   6.870  1.00  0.00     0.124 S 
ATOM     73  O   UNL     1       0.809   9.213   6.910  1.00  0.00    -0.237 OA
ATOM     74  O   UNL     1       1.999  11.345   7.295  1.00  0.00    -0.237 OA
ATOM     75  O   UNL     1      -0.466  11.282   7.335  1.00  0.00    -0.744 OA
ENDBRANCH  71  72
ENDBRANCH  50  64
BRANCH  51  76
ATOM     76  C   UNL     1       0.985  13.086  -7.552  1.00  0.00     0.058 A 
ATOM     77  C   UNL     1       2.134  13.636  -8.138  1.00  0.00     0.135 A 
ATOM     78  C   UNL     1      -0.069  12.714  -8.401  1.00  0.00     0.135 A 
ATOM     79  F   UNL     1       3.167  14.010  -7.367  1.00  0.00    -0.206 F 
ATOM     80  C   UNL     1       2.237  13.811  -9.514  1.00  0.00     0.059 A 
ATOM     81  C   UNL     1       0.019  12.858  -9.782  1.00  0.00     0.059 A 
ATOM     82  F   UNL     1      -1.183  12.167  -7.889  1.00  0.00    -0.206 F 
ATOM     83  C   UNL     1       1.177  13.411 -10.329  1.00  0.00     0.060 A 
BRANCH  83  84
ATOM     84  S   UNL     1       1.354  13.576 -12.118  1.00  0.00     0.124 S 
ATOM     85  O   UNL     1       1.286  15.023 -12.289  1.00  0.00    -0.237 OA
ATOM     86  O   UNL     1       2.659  12.965 -12.353  1.00  0.00    -0.237 OA
ATOM     87  O   UNL     1       0.216  12.825 -12.640  1.00  0.00    -0.744 OA
ENDBRANCH  83  84
ENDBRANCH  51  76
BRANCH  63  88
ATOM     88  C   UNL     1       0.660  17.259  -1.953  1.00  0.00     0.058 A 
ATOM     89  C   UNL     1      -0.520  17.976  -2.203  1.00  0.00     0.135 A 
ATOM     90  C   UNL     1       1.766  17.966  -1.454  1.00  0.00     0.135 A 
ATOM     91  F   UNL     1      -1.602  17.348  -2.688  1.00  0.00    -0.206 F 
ATOM     92  C   UNL     1      -0.600  19.344  -1.968  1.00  0.00     0.059 A 
ATOM     93  C   UNL     1       1.701  19.330  -1.189  1.00  0.00     0.059 A 
ATOM     94  F   UNL     1       2.916  17.324  -1.191  1.00  0.00    -0.206 F 
ATOM     95  C   UNL     1       0.513  20.011  -1.453  1.00  0.00     0.060 A 
BRANCH  95  96
ATOM     96  S   UNL     1       0.371  21.775  -1.094  1.00  0.00     0.124 S 
ATOM     97  O   UNL     1       0.335  22.347  -2.436  1.00  0.00    -0.237 OA
ATOM     98  O   UNL     1      -0.879  21.840  -0.343  1.00  0.00    -0.237 OA
ATOM     99  O   UNL     1       1.575  22.064  -0.321  1.00  0.00    -0.744 OA
ENDBRANCH  95  96
ENDBRANCH  63  88
ENDBRANCH  37  38
ENDBRANCH  30  32
ENDBRANCH  29  30
ENDBRANCH   1  29
TORSDOF 16
