REMARK SMILES Cc1cc(N2N=C(C(=O)OCCOC(=O)c3ccc(-c4c5nc(c(-c6c(F)cc(S(=O)(=O)[O-])cc6F)c6ccc([nH]6)c(-c6c(F)cc(S(=O)(=O)[O-])cc6F)c6nc(c(-c7c(F)cc(S(=O)(=O)[O-])cc7F)c7ccc4[nH]7)C=C6)C=C5)cc3)C[C@H]2c2ccccc2)c([N+](=O)[O-])cc1C
REMARK SMILES IDX 12 1 11 2 10 3 8 4 9 5 7 6 5 7 6 8 83 9 82 10 4 11 1 12 2 13
REMARK SMILES IDX 3 14 95 15 94 16 96 17 90 18 91 19 92 20 93 21 84 22 85 23
REMARK SMILES IDX 89 24 86 25 88 26 87 27 13 28 14 29 15 30 16 31 17 32 81 33
REMARK SMILES IDX 18 34 80 35 19 36 20 37 21 38 74 39 22 40 79 41 73 42 75 43
REMARK SMILES IDX 23 44 78 45 72 46 71 47 24 49 58 50 37 51 57 52 38 53 41 54
REMARK SMILES IDX 56 55 76 56 39 57 40 58 55 60 77 61 42 62 25 63 26 64 35 65
REMARK SMILES IDX 27 66 28 67 34 68 36 69 29 70 30 71 31 72 32 73 33 74 59 75
REMARK SMILES IDX 60 76 69 77 61 78 62 79 68 80 70 81 63 82 64 83 65 84 66 85
REMARK SMILES IDX 67 86 43 87 44 88 53 89 45 90 46 91 52 92 54 93 47 94 48 95
REMARK SMILES IDX 49 96 50 97 51 98
REMARK H PARENT 75 48 41 59
REMARK Flexibility Score: inf
ROOT
ATOM      1  C   UNL     1      -8.863   1.295   2.485  1.00  0.00     0.275 C 
ENDROOT
BRANCH   1   2
ATOM      2  C   UNL     1      -8.085   2.599   2.314  1.00  0.00     0.275 C 
BRANCH   2   3
ATOM      3  O   UNL     1      -6.979   2.388   1.382  1.00  0.00    -0.458 OA
BRANCH   3   4
ATOM      4  C   UNL     1      -5.920   3.203   1.583  1.00  0.00     0.354 C 
ATOM      5  O   UNL     1      -5.763   4.153   2.261  1.00  0.00    -0.245 OA
BRANCH   4   6
ATOM      6  C   UNL     1      -4.815   2.690   0.650  1.00  0.00     0.148 C 
ATOM      7  N   UNL     1      -2.996   1.882  -0.061  1.00  0.00    -0.250 N 
ATOM      8  N   UNL     1      -3.732   2.086   1.056  1.00  0.00    -0.169 NA
ATOM      9  C   UNL     1      -3.518   2.590  -1.246  1.00  0.00     0.144 C 
ATOM     10  C   UNL     1      -4.973   2.839  -0.837  1.00  0.00     0.098 C 
BRANCH   7  11
ATOM     11  C   UNL     1      -1.902   1.041  -0.068  1.00  0.00     0.138 A 
ATOM     12  C   UNL     1       1.855   1.444   0.566  1.00  0.00     0.045 C 
ATOM     13  C   UNL     1       0.537   0.782   0.261  1.00  0.00    -0.046 A 
ATOM     14  C   UNL     1      -0.633   1.573   0.226  1.00  0.00     0.039 A 
ATOM     15  C   UNL     1       0.443  -0.600   0.011  1.00  0.00    -0.041 A 
ATOM     16  C   UNL     1      -0.815  -1.156  -0.266  1.00  0.00     0.091 A 
ATOM     17  C   UNL     1       1.625  -1.530   0.108  1.00  0.00     0.045 C 
ATOM     18  C   UNL     1      -1.960  -0.338  -0.324  1.00  0.00     0.294 A 
BRANCH  18  19
ATOM     19  N   UNL     1      -3.214  -0.986  -0.686  1.00  0.00     0.065 N 
ATOM     20  O   UNL     1      -3.459  -2.084  -0.165  1.00  0.00    -0.258 OA
ATOM     21  O   UNL     1      -3.924  -0.440  -1.545  1.00  0.00    -0.258 OA
ENDBRANCH  18  19
ENDBRANCH   7  11
BRANCH   9  22
ATOM     22  C   UNL     1      -2.698   3.844  -1.524  1.00  0.00    -0.023 A 
ATOM     23  C   UNL     1      -2.935   5.076  -0.885  1.00  0.00     0.006 A 
ATOM     24  C   UNL     1      -1.615   3.758  -2.422  1.00  0.00     0.006 A 
ATOM     25  C   UNL     1      -2.139   6.190  -1.165  1.00  0.00     0.000 A 
ATOM     26  C   UNL     1      -0.811   4.868  -2.691  1.00  0.00     0.000 A 
ATOM     27  C   UNL     1      -1.079   6.086  -2.068  1.00  0.00     0.000 A 
ENDBRANCH   9  22
ENDBRANCH   4   6
ENDBRANCH   3   4
ENDBRANCH   2   3
ENDBRANCH   1   2
BRANCH   1  28
ATOM     28  O   UNL     1      -8.024   0.284   3.082  1.00  0.00    -0.458 OA
BRANCH  28  29
ATOM     29  C   UNL     1      -7.297  -0.439   2.192  1.00  0.00     0.338 C 
ATOM     30  O   UNL     1      -7.393  -0.416   0.977  1.00  0.00    -0.246 OA
BRANCH  29  31
ATOM     31  C   UNL     1      -6.218  -1.137   2.910  1.00  0.00     0.060 A 
ATOM     32  C   UNL     1      -4.904  -0.870   2.506  1.00  0.00     0.016 A 
ATOM     33  C   UNL     1      -6.482  -2.061   3.932  1.00  0.00     0.016 A 
ATOM     34  C   UNL     1      -3.842  -1.537   3.111  1.00  0.00     0.010 A 
ATOM     35  C   UNL     1      -5.415  -2.744   4.528  1.00  0.00     0.010 A 
ATOM     36  C   UNL     1      -4.092  -2.496   4.107  1.00  0.00    -0.014 A 
BRANCH  36  37
ATOM     37  C   UNL     1      -2.956  -3.270   4.659  1.00  0.00     0.031 A 
ATOM     38  C   UNL     1      -2.667  -4.650   4.140  1.00  0.00     0.074 A 
ATOM     39  C   UNL     1      -2.157  -2.716   5.589  1.00  0.00     0.049 A 
ATOM     40  N   UNL     1      -1.733  -5.489   4.507  1.00  0.00    -0.248 NA
ATOM     41  C   UNL     1      -3.544  -5.153   3.071  1.00  0.00     0.031 C 
ATOM     42  C   UNL     1      -2.317  -1.373   6.149  1.00  0.00     0.029 A 
ATOM     43  N   UNL     1      -1.045  -3.213   6.219  1.00  0.00    -0.354 N 
ATOM     44  C   UNL     1      -1.926  -6.630   3.740  1.00  0.00     0.074 A 
ATOM     45  C   UNL     1      -3.063  -6.374   2.880  1.00  0.00     0.031 C 
ATOM     46  C   UNL     1      -1.334  -1.152   7.038  1.00  0.00     0.029 A 
ATOM     47  C   UNL     1      -0.486  -2.339   7.119  1.00  0.00     0.049 A 
ATOM     48  H   UNL     1      -0.682  -4.111   6.042  1.00  0.00     0.167 HD
ATOM     49  C   UNL     1      -1.220  -7.785   3.751  1.00  0.00     0.037 A 
ATOM     50  C   UNL     1       0.586  -2.483   7.920  1.00  0.00     0.037 A 
ATOM     51  C   UNL     1      -0.061  -8.027   4.569  1.00  0.00     0.049 A 
ATOM     52  C   UNL     1       1.369  -3.765   7.893  1.00  0.00     0.074 A 
ATOM     53  C   UNL     1       0.737  -9.157   4.622  1.00  0.00     0.029 A 
ATOM     54  N   UNL     1       0.472  -7.119   5.471  1.00  0.00    -0.354 N 
ATOM     55  N   UNL     1       1.169  -4.836   7.165  1.00  0.00    -0.248 NA
ATOM     56  C   UNL     1       2.522  -3.858   8.801  1.00  0.00     0.031 C 
ATOM     57  C   UNL     1       1.750  -8.935   5.564  1.00  0.00     0.029 A 
ATOM     58  C   UNL     1       1.585  -7.664   6.088  1.00  0.00     0.049 A 
ATOM     59  H   UNL     1       0.112  -6.220   5.646  1.00  0.00     0.167 HD
ATOM     60  C   UNL     1       2.165  -5.733   7.530  1.00  0.00     0.074 A 
ATOM     61  C   UNL     1       2.980  -5.073   8.529  1.00  0.00     0.031 C 
ATOM     62  C   UNL     1       2.380  -6.994   7.083  1.00  0.00     0.037 A 
BRANCH  49  63
ATOM     63  C   UNL     1      -1.695  -8.891   2.859  1.00  0.00     0.058 A 
ATOM     64  C   UNL     1      -1.345  -8.937   1.501  1.00  0.00     0.135 A 
ATOM     65  C   UNL     1      -2.475  -9.937   3.382  1.00  0.00     0.135 A 
ATOM     66  F   UNL     1      -0.612  -7.951   0.954  1.00  0.00    -0.206 F 
ATOM     67  C   UNL     1      -1.762  -9.986   0.685  1.00  0.00     0.059 A 
ATOM     68  C   UNL     1      -2.894 -10.999   2.588  1.00  0.00     0.059 A 
ATOM     69  F   UNL     1      -2.837  -9.931   4.676  1.00  0.00    -0.206 F 
ATOM     70  C   UNL     1      -2.540 -11.010   1.237  1.00  0.00     0.060 A 
BRANCH  70  71
ATOM     71  S   UNL     1      -3.064 -12.383   0.184  1.00  0.00     0.124 S 
ATOM     72  O   UNL     1      -4.254 -11.825  -0.451  1.00  0.00    -0.237 OA
ATOM     73  O   UNL     1      -1.911 -12.575  -0.691  1.00  0.00    -0.237 OA
ATOM     74  O   UNL     1      -3.305 -13.462   1.137  1.00  0.00    -0.744 OA
ENDBRANCH  70  71
ENDBRANCH  49  63
BRANCH  50  75
ATOM     75  C   UNL     1       0.979  -1.381   8.830  1.00  0.00     0.058 A 
ATOM     76  C   UNL     1       2.069  -0.548   8.523  1.00  0.00     0.135 A 
ATOM     77  C   UNL     1       0.271  -1.143  10.019  1.00  0.00     0.135 A 
ATOM     78  F   UNL     1       2.777  -0.749   7.398  1.00  0.00    -0.206 F 
ATOM     79  C   UNL     1       2.453   0.485   9.371  1.00  0.00     0.059 A 
ATOM     80  C   UNL     1       0.629  -0.109  10.878  1.00  0.00     0.059 A 
ATOM     81  F   UNL     1      -0.783  -1.913  10.346  1.00  0.00    -0.206 F 
ATOM     82  C   UNL     1       1.728   0.694  10.549  1.00  0.00     0.060 A 
BRANCH  82  83
ATOM     83  S   UNL     1       2.183   2.066  11.634  1.00  0.00     0.124 S 
ATOM     84  O   UNL     1       3.138   1.424  12.530  1.00  0.00    -0.237 OA
ATOM     85  O   UNL     1       2.741   3.043  10.703  1.00  0.00    -0.237 OA
ATOM     86  O   UNL     1       0.906   2.444  12.232  1.00  0.00    -0.744 OA
ENDBRANCH  82  83
ENDBRANCH  50  75
BRANCH  62  87
ATOM     87  C   UNL     1       3.535  -7.738   7.681  1.00  0.00     0.058 A 
ATOM     88  C   UNL     1       3.410  -8.385   8.922  1.00  0.00     0.135 A 
ATOM     89  C   UNL     1       4.761  -7.827   7.003  1.00  0.00     0.135 A 
ATOM     90  F   UNL     1       2.256  -8.320   9.608  1.00  0.00    -0.206 F 
ATOM     91  C   UNL     1       4.473  -9.086   9.481  1.00  0.00     0.059 A 
ATOM     92  C   UNL     1       5.835  -8.531   7.539  1.00  0.00     0.059 A 
ATOM     93  F   UNL     1       4.924  -7.226   5.811  1.00  0.00    -0.206 F 
ATOM     94  C   UNL     1       5.684  -9.148   8.784  1.00  0.00     0.060 A 
BRANCH  94  95
ATOM     95  S   UNL     1       7.061 -10.077   9.495  1.00  0.00     0.124 S 
ATOM     96  O   UNL     1       7.689  -9.068  10.340  1.00  0.00    -0.237 OA
ATOM     97  O   UNL     1       6.389 -11.164  10.200  1.00  0.00    -0.237 OA
ATOM     98  O   UNL     1       7.827 -10.483   8.320  1.00  0.00    -0.744 OA
ENDBRANCH  94  95
ENDBRANCH  62  87
ENDBRANCH  36  37
ENDBRANCH  29  31
ENDBRANCH  28  29
ENDBRANCH   1  28
TORSDOF 17
