REMARK SMILES C[C@H](NC(=O)NCCc1ccccc1F)C(=O)OCCOC(=O)c1ccc(-c2c3nc(c(-c4c(F)cc(S(=O)(=O)[O-])cc4F)c4ccc([nH]4)c(-c4c(F)cc(S(=O)(=O)[O-])cc4F)c4nc(c(-c5c(F)cc(S(=O)(=O)[O-])cc5F)c5ccc2[nH]5)C=C4)C=C3)cc1
REMARK SMILES IDX 19 1 18 2 16 3 17 4 2 5 1 6 3 7 4 8 5 10 6 11 7 13 8 14 9 15
REMARK SMILES IDX 10 16 14 17 11 18 13 19 15 20 12 21 20 22 21 23 22 24 23 25
REMARK SMILES IDX 24 26 25 27 89 28 26 29 88 30 27 31 28 32 29 33 82 34 30 35
REMARK SMILES IDX 87 36 81 37 83 38 31 39 86 40 80 41 79 42 32 44 66 45 45 46
REMARK SMILES IDX 65 47 46 48 49 49 64 50 84 51 47 52 48 53 63 55 85 56 50 57
REMARK SMILES IDX 33 58 34 59 43 60 35 61 36 62 42 63 44 64 37 65 38 66 39 67
REMARK SMILES IDX 40 68 41 69 67 70 68 71 77 72 69 73 70 74 76 75 78 76 71 77
REMARK SMILES IDX 72 78 73 79 74 80 75 81 51 82 52 83 61 84 53 85 54 86 60 87
REMARK SMILES IDX 62 88 55 89 56 90 57 91 58 92 59 93
REMARK H PARENT 3 9 6 12 83 43 49 54
REMARK Flexibility Score: inf
ROOT
ATOM      1  C   UNL     1      -3.047  -1.115  -0.721  1.00  0.00     0.274 C 
ENDROOT
BRANCH   1   2
ATOM      2  O   UNL     1      -1.629  -1.079  -0.488  1.00  0.00    -0.461 OA
BRANCH   2   3
ATOM      3  C   UNL     1      -0.830  -0.912  -1.577  1.00  0.00     0.328 C 
ATOM      4  O   UNL     1      -1.225  -0.936  -2.737  1.00  0.00    -0.250 OA
BRANCH   3   5
ATOM      5  C   UNL     1       0.622  -0.575  -1.186  1.00  0.00     0.190 C 
ATOM      6  C   UNL     1       1.652  -1.075  -2.192  1.00  0.00     0.043 C 
BRANCH   5   7
ATOM      7  N   UNL     1       0.978  -0.763   0.216  1.00  0.00    -0.325 N 
ATOM      8  C   UNL     1       1.032  -1.788   1.063  1.00  0.00     0.315 C 
ATOM      9  H   UNL     1       1.246   0.082   0.644  1.00  0.00     0.166 HD
ATOM     10  O   UNL     1       1.306  -1.552   2.242  1.00  0.00    -0.249 OA
ATOM     11  N   UNL     1       0.781  -3.055   0.734  1.00  0.00    -0.338 N 
ATOM     12  H   UNL     1       0.661  -3.635   1.521  1.00  0.00     0.165 HD
BRANCH  11  13
ATOM     13  C   UNL     1       0.644  -3.776  -0.516  1.00  0.00     0.122 C 
BRANCH  13  14
ATOM     14  C   UNL     1       1.999  -4.241  -1.060  1.00  0.00     0.060 C 
BRANCH  14  15
ATOM     15  C   UNL     1       2.477  -5.505  -0.391  1.00  0.00    -0.010 A 
ATOM     16  C   UNL     1       2.925  -5.498   0.937  1.00  0.00     0.007 A 
ATOM     17  C   UNL     1       2.449  -6.721  -1.080  1.00  0.00     0.126 A 
ATOM     18  C   UNL     1       3.299  -6.689   1.562  1.00  0.00     0.000 A 
ATOM     19  C   UNL     1       2.838  -7.908  -0.469  1.00  0.00     0.039 A 
ATOM     20  F   UNL     1       2.032  -6.761  -2.354  1.00  0.00    -0.207 F 
ATOM     21  C   UNL     1       3.255  -7.894   0.861  1.00  0.00     0.003 A 
ENDBRANCH  14  15
ENDBRANCH  13  14
ENDBRANCH  11  13
ENDBRANCH   5   7
ENDBRANCH   3   5
ENDBRANCH   2   3
ENDBRANCH   1   2
BRANCH   1  22
ATOM     22  C   UNL     1      -3.677   0.239  -0.384  1.00  0.00     0.275 C 
BRANCH  22  23
ATOM     23  O   UNL     1      -3.327   1.240  -1.357  1.00  0.00    -0.458 OA
BRANCH  23  24
ATOM     24  C   UNL     1      -2.188   1.922  -1.104  1.00  0.00     0.338 C 
ATOM     25  O   UNL     1      -1.445   1.804  -0.140  1.00  0.00    -0.246 OA
BRANCH  24  26
ATOM     26  C   UNL     1      -1.865   2.775  -2.250  1.00  0.00     0.060 A 
ATOM     27  C   UNL     1      -0.796   2.414  -3.075  1.00  0.00     0.016 A 
ATOM     28  C   UNL     1      -2.552   3.970  -2.451  1.00  0.00     0.016 A 
ATOM     29  C   UNL     1      -0.378   3.265  -4.087  1.00  0.00     0.010 A 
ATOM     30  C   UNL     1      -2.153   4.809  -3.490  1.00  0.00     0.010 A 
ATOM     31  C   UNL     1      -1.057   4.467  -4.302  1.00  0.00    -0.014 A 
BRANCH  31  32
ATOM     32  C   UNL     1      -0.610   5.390  -5.365  1.00  0.00     0.031 A 
ATOM     33  C   UNL     1       0.001   6.704  -4.989  1.00  0.00     0.074 A 
ATOM     34  C   UNL     1      -0.782   5.051  -6.655  1.00  0.00     0.049 A 
ATOM     35  N   UNL     1       0.252   7.740  -5.741  1.00  0.00    -0.248 NA
ATOM     36  C   UNL     1       0.369   6.876  -3.575  1.00  0.00     0.031 C 
ATOM     37  C   UNL     1      -1.303   3.766  -7.127  1.00  0.00     0.029 A 
ATOM     38  N   UNL     1      -0.555   5.764  -7.802  1.00  0.00    -0.354 N 
ATOM     39  C   UNL     1       0.760   8.709  -4.886  1.00  0.00     0.074 A 
ATOM     40  C   UNL     1       0.791   8.133  -3.559  1.00  0.00     0.031 C 
ATOM     41  C   UNL     1      -1.363   3.785  -8.466  1.00  0.00     0.029 A 
ATOM     42  C   UNL     1      -0.957   5.105  -8.939  1.00  0.00     0.049 A 
ATOM     43  H   UNL     1      -0.145   6.658  -7.811  1.00  0.00     0.167 HD
ATOM     44  C   UNL     1       1.149   9.968  -5.191  1.00  0.00     0.037 A 
ATOM     45  C   UNL     1      -1.044   5.538 -10.211  1.00  0.00     0.037 A 
ATOM     46  C   UNL     1       1.135  10.505  -6.526  1.00  0.00     0.049 A 
ATOM     47  C   UNL     1      -0.661   6.954 -10.523  1.00  0.00     0.074 A 
ATOM     48  C   UNL     1       1.535  11.757  -6.955  1.00  0.00     0.029 A 
ATOM     49  N   UNL     1       0.694   9.816  -7.648  1.00  0.00    -0.354 N 
ATOM     50  N   UNL     1      -0.216   7.880  -9.706  1.00  0.00    -0.248 NA
ATOM     51  C   UNL     1      -0.812   7.397 -11.914  1.00  0.00     0.031 C 
ATOM     52  C   UNL     1       1.302  11.838  -8.332  1.00  0.00     0.029 A 
ATOM     53  C   UNL     1       0.789  10.624  -8.767  1.00  0.00     0.049 A 
ATOM     54  H   UNL     1       0.362   8.889  -7.647  1.00  0.00     0.167 HD
ATOM     55  C   UNL     1      -0.032   9.016 -10.482  1.00  0.00     0.074 A 
ATOM     56  C   UNL     1      -0.404   8.659 -11.837  1.00  0.00     0.031 C 
ATOM     57  C   UNL     1       0.404  10.243 -10.105  1.00  0.00     0.037 A 
BRANCH  44  58
ATOM     58  C   UNL     1       1.570  10.856  -4.056  1.00  0.00     0.058 A 
ATOM     59  C   UNL     1       0.720  11.884  -3.616  1.00  0.00     0.135 A 
ATOM     60  C   UNL     1       2.801  10.698  -3.402  1.00  0.00     0.135 A 
ATOM     61  F   UNL     1      -0.474  12.071  -4.200  1.00  0.00    -0.206 F 
ATOM     62  C   UNL     1       1.074  12.722  -2.564  1.00  0.00     0.059 A 
ATOM     63  C   UNL     1       3.167  11.512  -2.333  1.00  0.00     0.059 A 
ATOM     64  F   UNL     1       3.638   9.714  -3.766  1.00  0.00    -0.206 F 
ATOM     65  C   UNL     1       2.299  12.526  -1.925  1.00  0.00     0.060 A 
BRANCH  65  66
ATOM     66  S   UNL     1       2.711  13.565  -0.507  1.00  0.00     0.124 S 
ATOM     67  O   UNL     1       3.092  14.816  -1.152  1.00  0.00    -0.237 OA
ATOM     68  O   UNL     1       1.455  13.588   0.237  1.00  0.00    -0.237 OA
ATOM     69  O   UNL     1       3.796  12.833   0.141  1.00  0.00    -0.744 OA
ENDBRANCH  65  66
ENDBRANCH  44  58
BRANCH  45  70
ATOM     70  C   UNL     1      -1.553   4.607 -11.249  1.00  0.00     0.058 A 
ATOM     71  C   UNL     1      -2.905   4.226 -11.278  1.00  0.00     0.135 A 
ATOM     72  C   UNL     1      -0.676   3.983 -12.146  1.00  0.00     0.135 A 
ATOM     73  F   UNL     1      -3.781   4.789 -10.431  1.00  0.00    -0.206 F 
ATOM     74  C   UNL     1      -3.358   3.219 -12.121  1.00  0.00     0.059 A 
ATOM     75  C   UNL     1      -1.111   2.986 -13.014  1.00  0.00     0.059 A 
ATOM     76  F   UNL     1       0.621   4.325 -12.161  1.00  0.00    -0.206 F 
ATOM     77  C   UNL     1      -2.448   2.590 -12.972  1.00  0.00     0.060 A 
BRANCH  77  78
ATOM     78  S   UNL     1      -3.035   1.222 -13.995  1.00  0.00     0.124 S 
ATOM     79  O   UNL     1      -3.260   0.186 -12.992  1.00  0.00    -0.237 OA
ATOM     80  O   UNL     1      -4.234   1.787 -14.605  1.00  0.00    -0.237 OA
ATOM     81  O   UNL     1      -1.923   0.983 -14.908  1.00  0.00    -0.744 OA
ENDBRANCH  77  78
ENDBRANCH  45  70
BRANCH  57  82
ATOM     82  C   UNL     1       0.507  11.299 -11.166  1.00  0.00     0.058 A 
ATOM     83  C   UNL     1       1.761  11.690 -11.659  1.00  0.00     0.135 A 
ATOM     84  C   UNL     1      -0.625  11.998 -11.607  1.00  0.00     0.135 A 
ATOM     85  F   UNL     1       2.873  11.049 -11.265  1.00  0.00    -0.206 F 
ATOM     86  C   UNL     1       1.893  12.764 -12.531  1.00  0.00     0.059 A 
ATOM     87  C   UNL     1      -0.519  13.065 -12.493  1.00  0.00     0.059 A 
ATOM     88  F   UNL     1      -1.847  11.649 -11.172  1.00  0.00    -0.206 F 
ATOM     89  C   UNL     1       0.747  13.454 -12.931  1.00  0.00     0.060 A 
BRANCH  89  90
ATOM     90  S   UNL     1       0.939  14.867 -14.038  1.00  0.00     0.124 S 
ATOM     91  O   UNL     1       1.521  15.866 -13.148  1.00  0.00    -0.237 OA
ATOM     92  O   UNL     1       1.828  14.337 -15.066  1.00  0.00    -0.237 OA
ATOM     93  O   UNL     1      -0.426  15.138 -14.480  1.00  0.00    -0.744 OA
ENDBRANCH  89  90
ENDBRANCH  57  82
ENDBRANCH  31  32
ENDBRANCH  24  26
ENDBRANCH  23  24
ENDBRANCH  22  23
ENDBRANCH   1  22
TORSDOF 18
