REMARK SMILES COc1ccc(C(=O)Nc2ccccc2C(=O)N[C@@H](C(=O)OCCOC(=O)c2ccc(-c3c4nc(c(-c5c(F)cc(S(=O)(=O)[O-])cc5F)c5ccc([nH]5)c(-c5c(F)cc(S(=O)(=O)[O-])cc5F)c5nc(c(-c6c(F)cc(S(=O)(=O)[O-])cc6F)c6ccc3[nH]6)C=C5)C=C4)cc2)C(C)C)cc1
REMARK SMILES IDX 23 1 22 2 20 3 21 4 19 5 18 6 16 7 17 8 15 10 10 11 11 12
REMARK SMILES IDX 12 13 14 14 13 15 9 16 7 17 8 18 6 20 3 21 4 22 98 23 5 24
REMARK SMILES IDX 97 25 2 26 1 27 94 28 95 29 96 30 24 31 25 32 26 33 27 34
REMARK SMILES IDX 28 35 29 36 93 37 30 38 92 39 31 40 32 41 33 42 86 43 34 44
REMARK SMILES IDX 91 45 85 46 87 47 35 48 90 49 84 50 83 51 36 53 70 54 49 55
REMARK SMILES IDX 69 56 50 57 53 58 68 59 88 60 51 61 52 62 67 64 89 65 54 66
REMARK SMILES IDX 37 67 38 68 47 69 39 70 40 71 46 72 48 73 41 74 42 75 43 76
REMARK SMILES IDX 44 77 45 78 71 79 72 80 81 81 73 82 74 83 80 84 82 85 75 86
REMARK SMILES IDX 76 87 77 88 78 89 79 90 55 91 56 92 65 93 57 94 58 95 64 96
REMARK SMILES IDX 66 97 59 98 60 99 61 100 62 101 63 102
REMARK H PARENT 18 9 9 19 87 52 53 63
REMARK Flexibility Score: inf
ROOT
ATOM      1  C   UNL     1       2.966  -1.977  -9.994  1.00  0.00     0.274 C 
ENDROOT
BRANCH   1   2
ATOM      2  O   UNL     1       2.716  -1.377  -8.704  1.00  0.00    -0.461 OA
BRANCH   2   3
ATOM      3  C   UNL     1       2.689  -0.013  -8.667  1.00  0.00     0.329 C 
ATOM      4  O   UNL     1       2.847   0.698  -9.654  1.00  0.00    -0.250 OA
BRANCH   3   5
ATOM      5  C   UNL     1       2.361   0.559  -7.254  1.00  0.00     0.195 C 
BRANCH   5   6
ATOM      6  N   UNL     1       2.437  -0.516  -6.253  1.00  0.00    -0.338 N 
ATOM      7  C   UNL     1       3.438  -0.957  -5.416  1.00  0.00     0.254 C 
ATOM      8  O   UNL     1       3.311  -2.109  -4.991  1.00  0.00    -0.269 OA
ATOM      9  H   UNL     1       1.599  -1.025  -6.162  1.00  0.00     0.164 HD
BRANCH   7  10
ATOM     10  C   UNL     1       4.661  -0.189  -5.009  1.00  0.00     0.063 A 
ATOM     11  C   UNL     1       4.850   1.198  -5.032  1.00  0.00     0.054 A 
ATOM     12  C   UNL     1       6.134   1.747  -4.857  1.00  0.00     0.027 A 
ATOM     13  C   UNL     1       7.186   0.954  -4.413  1.00  0.00     0.002 A 
ATOM     14  C   UNL     1       5.735  -0.967  -4.523  1.00  0.00     0.016 A 
ATOM     15  C   UNL     1       6.969  -0.397  -4.188  1.00  0.00     0.001 A 
BRANCH  11  16
ATOM     16  N   UNL     1       3.831   2.158  -5.016  1.00  0.00    -0.321 N 
ATOM     17  C   UNL     1       2.838   2.270  -4.068  1.00  0.00     0.255 C 
ATOM     18  O   UNL     1       2.193   3.314  -3.999  1.00  0.00    -0.269 OA
ATOM     19  H   UNL     1       3.823   2.814  -5.751  1.00  0.00     0.170 HD
BRANCH  17  20
ATOM     20  C   UNL     1       2.612   1.233  -3.043  1.00  0.00     0.040 A 
ATOM     21  C   UNL     1       1.850  -0.420  -0.952  1.00  0.00     0.118 A 
ATOM     22  C   UNL     1       1.241  -0.575  -2.186  1.00  0.00     0.047 A 
ATOM     23  C   UNL     1       2.901   0.484  -0.775  1.00  0.00     0.047 A 
ATOM     24  C   UNL     1       1.613   0.273  -3.220  1.00  0.00     0.017 A 
ATOM     25  C   UNL     1       3.281   1.323  -1.824  1.00  0.00     0.017 A 
BRANCH  21  26
ATOM     26  O   UNL     1       1.353  -1.146   0.094  1.00  0.00    -0.497 OA
ATOM     27  C   UNL     1       0.660  -0.270   0.988  1.00  0.00     0.278 C 
ENDBRANCH  21  26
ENDBRANCH  17  20
ENDBRANCH  11  16
ENDBRANCH   7  10
ENDBRANCH   5   6
BRANCH   5  28
ATOM     28  C   UNL     1       0.950   1.226  -7.332  1.00  0.00     0.017 C 
ATOM     29  C   UNL     1       0.121   1.448  -6.070  1.00  0.00     0.010 C 
ATOM     30  C   UNL     1       0.984   2.553  -8.103  1.00  0.00     0.010 C 
ENDBRANCH   5  28
ENDBRANCH   3   5
ENDBRANCH   2   3
ENDBRANCH   1   2
BRANCH   1  31
ATOM     31  C   UNL     1       1.817  -2.907 -10.379  1.00  0.00     0.275 C 
BRANCH  31  32
ATOM     32  O   UNL     1       0.596  -2.149 -10.426  1.00  0.00    -0.458 OA
BRANCH  32  33
ATOM     33  C   UNL     1      -0.467  -2.695  -9.784  1.00  0.00     0.338 C 
ATOM     34  O   UNL     1      -0.523  -3.804  -9.284  1.00  0.00    -0.246 OA
BRANCH  33  35
ATOM     35  C   UNL     1      -1.563  -1.703  -9.672  1.00  0.00     0.060 A 
ATOM     36  C   UNL     1      -1.258  -0.364  -9.480  1.00  0.00     0.016 A 
ATOM     37  C   UNL     1      -2.889  -2.115  -9.566  1.00  0.00     0.016 A 
ATOM     38  C   UNL     1      -2.220   0.501  -8.953  1.00  0.00     0.010 A 
ATOM     39  C   UNL     1      -3.888  -1.184  -9.230  1.00  0.00     0.010 A 
ATOM     40  C   UNL     1      -3.564   0.129  -8.839  1.00  0.00    -0.014 A 
BRANCH  40  41
ATOM     41  C   UNL     1      -4.602   1.065  -8.277  1.00  0.00     0.031 A 
ATOM     42  C   UNL     1      -5.636   0.553  -7.294  1.00  0.00     0.074 A 
ATOM     43  C   UNL     1      -4.652   2.378  -8.601  1.00  0.00     0.049 A 
ATOM     44  N   UNL     1      -6.800   1.059  -6.971  1.00  0.00    -0.248 NA
ATOM     45  C   UNL     1      -5.328  -0.710  -6.604  1.00  0.00     0.031 C 
ATOM     46  C   UNL     1      -3.706   3.093  -9.459  1.00  0.00     0.029 A 
ATOM     47  N   UNL     1      -5.552   3.358  -8.236  1.00  0.00    -0.354 N 
ATOM     48  C   UNL     1      -7.410   0.122  -6.142  1.00  0.00     0.074 A 
ATOM     49  C   UNL     1      -6.471  -0.969  -5.984  1.00  0.00     0.031 C 
ATOM     50  C   UNL     1      -4.028   4.392  -9.499  1.00  0.00     0.029 A 
ATOM     51  C   UNL     1      -5.298   4.582  -8.814  1.00  0.00     0.049 A 
ATOM     52  H   UNL     1      -6.304   3.198  -7.622  1.00  0.00     0.167 HD
ATOM     53  C   UNL     1      -8.646   0.159  -5.583  1.00  0.00     0.037 A 
ATOM     54  C   UNL     1      -6.031   5.712  -8.884  1.00  0.00     0.037 A 
ATOM     55  C   UNL     1      -9.530   1.295  -5.649  1.00  0.00     0.049 A 
ATOM     56  C   UNL     1      -7.400   5.743  -8.273  1.00  0.00     0.074 A 
ATOM     57  C   UNL     1     -10.794   1.438  -5.101  1.00  0.00     0.029 A 
ATOM     58  N   UNL     1      -9.230   2.496  -6.274  1.00  0.00    -0.354 N 
ATOM     59  N   UNL     1      -8.027   4.798  -7.615  1.00  0.00    -0.248 NA
ATOM     60  C   UNL     1      -8.178   6.977  -8.447  1.00  0.00     0.031 C 
ATOM     61  C   UNL     1     -11.270   2.715  -5.423  1.00  0.00     0.029 A 
ATOM     62  C   UNL     1     -10.287   3.381  -6.136  1.00  0.00     0.049 A 
ATOM     63  H   UNL     1      -8.389   2.691  -6.747  1.00  0.00     0.167 HD
ATOM     64  C   UNL     1      -9.277   5.320  -7.304  1.00  0.00     0.074 A 
ATOM     65  C   UNL     1      -9.307   6.673  -7.822  1.00  0.00     0.031 C 
ATOM     66  C   UNL     1     -10.310   4.725  -6.658  1.00  0.00     0.037 A 
BRANCH  53  67
ATOM     67  C   UNL     1      -9.146  -1.097  -4.918  1.00  0.00     0.058 A 
ATOM     68  C   UNL     1      -8.665  -1.549  -3.682  1.00  0.00     0.135 A 
ATOM     69  C   UNL     1     -10.141  -1.864  -5.551  1.00  0.00     0.135 A 
ATOM     70  F   UNL     1      -7.708  -0.863  -3.037  1.00  0.00    -0.206 F 
ATOM     71  C   UNL     1      -9.113  -2.743  -3.119  1.00  0.00     0.059 A 
ATOM     72  C   UNL     1     -10.623  -3.045  -4.995  1.00  0.00     0.059 A 
ATOM     73  F   UNL     1     -10.645  -1.475  -6.733  1.00  0.00    -0.206 F 
ATOM     74  C   UNL     1     -10.085  -3.489  -3.790  1.00  0.00     0.060 A 
BRANCH  74  75
ATOM     75  S   UNL     1     -10.629  -5.057  -3.077  1.00  0.00     0.124 S 
ATOM     76  O   UNL     1      -9.507  -5.930  -3.409  1.00  0.00    -0.237 OA
ATOM     77  O   UNL     1     -10.777  -4.727  -1.663  1.00  0.00    -0.237 OA
ATOM     78  O   UNL     1     -11.874  -5.338  -3.785  1.00  0.00    -0.744 OA
ENDBRANCH  74  75
ENDBRANCH  53  67
BRANCH  54  79
ATOM     79  C   UNL     1      -5.511   6.869  -9.665  1.00  0.00     0.058 A 
ATOM     80  C   UNL     1      -5.086   8.044  -9.032  1.00  0.00     0.135 A 
ATOM     81  C   UNL     1      -5.368   6.790 -11.062  1.00  0.00     0.135 A 
ATOM     82  F   UNL     1      -5.221   8.177  -7.704  1.00  0.00    -0.206 F 
ATOM     83  C   UNL     1      -4.519   9.093  -9.750  1.00  0.00     0.059 A 
ATOM     84  C   UNL     1      -4.776   7.811 -11.796  1.00  0.00     0.059 A 
ATOM     85  F   UNL     1      -5.753   5.683 -11.716  1.00  0.00    -0.206 F 
ATOM     86  C   UNL     1      -4.354   8.960 -11.131  1.00  0.00     0.060 A 
BRANCH  86  87
ATOM     87  S   UNL     1      -3.517  10.275 -12.043  1.00  0.00     0.124 S 
ATOM     88  O   UNL     1      -4.571  11.278 -12.145  1.00  0.00    -0.237 OA
ATOM     89  O   UNL     1      -2.404  10.606 -11.159  1.00  0.00    -0.237 OA
ATOM     90  O   UNL     1      -3.139   9.625 -13.294  1.00  0.00    -0.744 OA
ENDBRANCH  86  87
ENDBRANCH  54  79
BRANCH  66  91
ATOM     91  C   UNL     1     -11.555   5.540  -6.456  1.00  0.00     0.058 A 
ATOM     92  C   UNL     1     -12.449   5.788  -7.508  1.00  0.00     0.135 A 
ATOM     93  C   UNL     1     -11.877   6.044  -5.186  1.00  0.00     0.135 A 
ATOM     94  F   UNL     1     -12.180   5.336  -8.744  1.00  0.00    -0.206 F 
ATOM     95  C   UNL     1     -13.614   6.523  -7.313  1.00  0.00     0.059 A 
ATOM     96  C   UNL     1     -13.047   6.764  -4.963  1.00  0.00     0.059 A 
ATOM     97  F   UNL     1     -11.057   5.830  -4.145  1.00  0.00    -0.206 F 
ATOM     98  C   UNL     1     -13.904   7.007  -6.036  1.00  0.00     0.060 A 
BRANCH  98  99
ATOM     99  S   UNL     1     -15.434   7.932  -5.785  1.00  0.00     0.124 S 
ATOM    100  O   UNL     1     -15.097   9.224  -6.373  1.00  0.00    -0.237 OA
ATOM    101  O   UNL     1     -16.409   7.135  -6.524  1.00  0.00    -0.237 OA
ATOM    102  O   UNL     1     -15.600   7.926  -4.335  1.00  0.00    -0.744 OA
ENDBRANCH  98  99
ENDBRANCH  66  91
ENDBRANCH  40  41
ENDBRANCH  33  35
ENDBRANCH  32  33
ENDBRANCH  31  32
ENDBRANCH   1  31
TORSDOF 20
