REMARK SMILES CC(C)(C(=O)N1C[C@@H]2c3ccccc3OC[C@]2(C(=O)OCCOC(=O)c2ccc(-c3c4nc(c(-c5c(F)cc(S(=O)(=O)[O-])cc5F)c5ccc([nH]5)c(-c5c(F)cc(S(=O)(=O)[O-])cc5F)c5nc(c(-c6c(F)cc(S(=O)(=O)[O-])cc6F)c6ccc3[nH]6)C=C5)C=C4)cc2)C1)[NH+]1CCOCC1
REMARK SMILES IDX 21 1 20 2 18 3 19 4 17 5 6 6 7 7 92 8 8 9 9 10 16 11 10 12
REMARK SMILES IDX 14 13 15 14 11 15 13 16 12 17 4 18 5 19 2 20 1 21 3 22 93 23
REMARK SMILES IDX 94 24 98 25 95 27 97 28 96 29 22 30 23 31 24 32 25 33 26 34
REMARK SMILES IDX 27 35 91 36 28 37 90 38 29 39 30 40 31 41 84 42 32 43 89 44
REMARK SMILES IDX 83 45 85 46 33 47 88 48 82 49 81 50 34 52 68 53 47 54 67 55
REMARK SMILES IDX 48 56 51 57 66 58 86 59 49 60 50 61 65 63 87 64 52 65 35 66
REMARK SMILES IDX 36 67 45 68 37 69 38 70 44 71 46 72 39 73 40 74 41 75 42 76
REMARK SMILES IDX 43 77 69 78 70 79 79 80 71 81 72 82 78 83 80 84 73 85 74 86
REMARK SMILES IDX 75 87 76 88 77 89 53 90 54 91 63 92 55 93 56 94 62 95 64 96
REMARK SMILES IDX 57 97 58 98 59 99 60 100 61 101
REMARK H PARENT 93 26 85 51 51 62
REMARK Flexibility Score: inf
ROOT
ATOM      1  C   UNL     1      -1.242   2.641  -3.944  1.00  0.00     0.274 C 
ENDROOT
BRANCH   1   2
ATOM      2  O   UNL     1      -1.641   2.040  -2.699  1.00  0.00    -0.461 OA
BRANCH   2   3
ATOM      3  C   UNL     1      -2.147   2.824  -1.694  1.00  0.00     0.318 C 
ATOM      4  O   UNL     1      -2.040   4.036  -1.624  1.00  0.00    -0.251 OA
BRANCH   3   5
ATOM      5  C   UNL     1      -2.720   1.901  -0.629  1.00  0.00     0.128 C 
ATOM      6  N   UNL     1      -1.587   0.783   1.156  1.00  0.00    -0.335 N 
ATOM      7  C   UNL     1      -2.806   1.360   1.702  1.00  0.00     0.129 C 
ATOM      8  C   UNL     1      -1.460   1.138  -0.225  1.00  0.00     0.142 C 
ATOM      9  C   UNL     1      -3.163   2.496   0.714  1.00  0.00     0.065 C 
ATOM     10  C   UNL     1      -4.626   2.816   0.787  1.00  0.00     0.000 A 
ATOM     11  C   UNL     1      -3.814   1.006  -1.211  1.00  0.00     0.251 C 
ATOM     12  C   UNL     1      -5.129   3.609   1.833  1.00  0.00     0.008 A 
ATOM     13  C   UNL     1      -5.511   2.315  -0.166  1.00  0.00     0.122 A 
ATOM     14  O   UNL     1      -5.115   1.598  -1.258  1.00  0.00    -0.492 OA
ATOM     15  C   UNL     1      -6.494   3.896   1.916  1.00  0.00     0.001 A 
ATOM     16  C   UNL     1      -6.876   2.604  -0.082  1.00  0.00     0.047 A 
ATOM     17  C   UNL     1      -7.369   3.390   0.960  1.00  0.00     0.004 A 
BRANCH   6  18
ATOM     18  C   UNL     1      -0.774  -0.062   1.879  1.00  0.00     0.283 C 
ATOM     19  O   UNL     1      -1.245  -0.614   2.882  1.00  0.00    -0.268 OA
BRANCH  18  20
ATOM     20  C   UNL     1       0.786  -0.189   1.534  1.00  0.00     0.171 C 
ATOM     21  C   UNL     1       1.319   0.466   0.249  1.00  0.00     0.090 C 
ATOM     22  C   UNL     1       1.396   0.649   2.694  1.00  0.00     0.090 C 
BRANCH  20  23
ATOM     23  N   UNL     1       1.265  -1.600   1.695  1.00  0.00    -0.319 N 
ATOM     24  C   UNL     1       2.663  -1.883   1.303  1.00  0.00     0.291 C 
ATOM     25  C   UNL     1       0.402  -2.681   1.187  1.00  0.00     0.291 C 
ATOM     26  H   UNL     1       1.209  -1.623   2.713  1.00  0.00     0.349 HD
ATOM     27  C   UNL     1       2.859  -2.311  -0.170  1.00  0.00     0.221 C 
ATOM     28  C   UNL     1       0.628  -3.046  -0.287  1.00  0.00     0.221 C 
ATOM     29  O   UNL     1       1.996  -3.393  -0.531  1.00  0.00    -0.370 OA
ENDBRANCH  20  23
ENDBRANCH  18  20
ENDBRANCH   6  18
ENDBRANCH   3   5
ENDBRANCH   2   3
ENDBRANCH   1   2
BRANCH   1  30
ATOM     30  C   UNL     1      -2.404   2.441  -4.909  1.00  0.00     0.275 C 
BRANCH  30  31
ATOM     31  O   UNL     1      -3.416   3.369  -4.500  1.00  0.00    -0.458 OA
BRANCH  31  32
ATOM     32  C   UNL     1      -4.703   2.976  -4.593  1.00  0.00     0.338 C 
ATOM     33  O   UNL     1      -5.131   1.970  -5.135  1.00  0.00    -0.246 OA
BRANCH  32  34
ATOM     34  C   UNL     1      -5.508   4.021  -3.935  1.00  0.00     0.060 A 
ATOM     35  C   UNL     1      -6.638   4.534  -4.557  1.00  0.00     0.016 A 
ATOM     36  C   UNL     1      -5.118   4.511  -2.686  1.00  0.00     0.016 A 
ATOM     37  C   UNL     1      -7.320   5.590  -3.948  1.00  0.00     0.010 A 
ATOM     38  C   UNL     1      -5.840   5.502  -2.040  1.00  0.00     0.010 A 
ATOM     39  C   UNL     1      -6.923   6.085  -2.687  1.00  0.00    -0.014 A 
BRANCH  39  40
ATOM     40  C   UNL     1      -7.662   7.194  -2.045  1.00  0.00     0.031 A 
ATOM     41  C   UNL     1      -7.007   8.526  -1.802  1.00  0.00     0.074 A 
ATOM     42  C   UNL     1      -8.944   6.983  -1.697  1.00  0.00     0.049 A 
ATOM     43  N   UNL     1      -7.563   9.657  -1.448  1.00  0.00    -0.248 NA
ATOM     44  C   UNL     1      -5.544   8.604  -1.951  1.00  0.00     0.031 C 
ATOM     45  C   UNL     1      -9.634   5.693  -1.778  1.00  0.00     0.029 A 
ATOM     46  N   UNL     1      -9.906   7.849  -1.250  1.00  0.00    -0.354 N 
ATOM     47  C   UNL     1      -6.526  10.578  -1.354  1.00  0.00     0.074 A 
ATOM     48  C   UNL     1      -5.298   9.861  -1.608  1.00  0.00     0.031 C 
ATOM     49  C   UNL     1     -10.931   5.872  -1.486  1.00  0.00     0.029 A 
ATOM     50  C   UNL     1     -11.155   7.281  -1.180  1.00  0.00     0.049 A 
ATOM     51  H   UNL     1      -9.721   8.785  -1.004  1.00  0.00     0.167 HD
ATOM     52  C   UNL     1      -6.600  11.909  -1.117  1.00  0.00     0.037 A 
ATOM     53  C   UNL     1     -12.354   7.846  -0.945  1.00  0.00     0.037 A 
ATOM     54  C   UNL     1      -7.838  12.605  -0.879  1.00  0.00     0.049 A 
ATOM     55  C   UNL     1     -12.423   9.333  -0.738  1.00  0.00     0.074 A 
ATOM     56  C   UNL     1      -8.043  13.958  -0.680  1.00  0.00     0.029 A 
ATOM     57  N   UNL     1      -9.083  11.996  -0.811  1.00  0.00    -0.354 N 
ATOM     58  N   UNL     1     -11.448  10.211  -0.755  1.00  0.00    -0.248 NA
ATOM     59  C   UNL     1     -13.751   9.908  -0.492  1.00  0.00     0.031 C 
ATOM     60  C   UNL     1      -9.408  14.163  -0.458  1.00  0.00     0.029 A 
ATOM     61  C   UNL     1     -10.060  12.943  -0.560  1.00  0.00     0.049 A 
ATOM     62  H   UNL     1      -9.247  11.032  -0.925  1.00  0.00     0.167 HD
ATOM     63  C   UNL     1     -12.046  11.446  -0.534  1.00  0.00     0.074 A 
ATOM     64  C   UNL     1     -13.469  11.202  -0.408  1.00  0.00     0.031 C 
ATOM     65  C   UNL     1     -11.471  12.670  -0.438  1.00  0.00     0.037 A 
BRANCH  52  66
ATOM     66  C   UNL     1      -5.321  12.701  -1.141  1.00  0.00     0.058 A 
ATOM     67  C   UNL     1      -4.627  12.926  -2.341  1.00  0.00     0.135 A 
ATOM     68  C   UNL     1      -4.805  13.283   0.028  1.00  0.00     0.135 A 
ATOM     69  F   UNL     1      -5.067  12.385  -3.489  1.00  0.00    -0.206 F 
ATOM     70  C   UNL     1      -3.456  13.676  -2.379  1.00  0.00     0.059 A 
ATOM     71  C   UNL     1      -3.648  14.060   0.011  1.00  0.00     0.059 A 
ATOM     72  F   UNL     1      -5.427  13.103   1.204  1.00  0.00    -0.206 F 
ATOM     73  C   UNL     1      -2.974  14.240  -1.197  1.00  0.00     0.060 A 
BRANCH  73  74
ATOM     74  S   UNL     1      -1.458  15.218  -1.269  1.00  0.00     0.124 S 
ATOM     75  O   UNL     1      -0.454  14.185  -1.506  1.00  0.00    -0.237 OA
ATOM     76  O   UNL     1      -1.719  16.115  -2.390  1.00  0.00    -0.237 OA
ATOM     77  O   UNL     1      -1.400  15.857   0.042  1.00  0.00    -0.744 OA
ENDBRANCH  73  74
ENDBRANCH  52  66
BRANCH  53  78
ATOM     78  C   UNL     1     -13.579   7.006  -0.982  1.00  0.00     0.058 A 
ATOM     79  C   UNL     1     -14.487   7.106  -2.046  1.00  0.00     0.135 A 
ATOM     80  C   UNL     1     -13.837   6.050   0.012  1.00  0.00     0.135 A 
ATOM     81  F   UNL     1     -14.281   8.002  -3.023  1.00  0.00    -0.206 F 
ATOM     82  C   UNL     1     -15.614   6.295  -2.120  1.00  0.00     0.059 A 
ATOM     83  C   UNL     1     -14.945   5.211  -0.052  1.00  0.00     0.059 A 
ATOM     84  F   UNL     1     -12.983   5.898   1.036  1.00  0.00    -0.206 F 
ATOM     85  C   UNL     1     -15.832   5.346  -1.119  1.00  0.00     0.060 A 
BRANCH  85  86
ATOM     86  S   UNL     1     -17.269   4.261  -1.255  1.00  0.00     0.124 S 
ATOM     87  O   UNL     1     -18.362   5.184  -0.975  1.00  0.00    -0.237 OA
ATOM     88  O   UNL     1     -17.167   3.790  -2.633  1.00  0.00    -0.237 OA
ATOM     89  O   UNL     1     -17.021   3.246  -0.234  1.00  0.00    -0.744 OA
ENDBRANCH  85  86
ENDBRANCH  53  78
BRANCH  65  90
ATOM     90  C   UNL     1     -12.376  13.840  -0.183  1.00  0.00     0.058 A 
ATOM     91  C   UNL     1     -12.936  14.064   1.084  1.00  0.00     0.135 A 
ATOM     92  C   UNL     1     -12.615  14.790  -1.189  1.00  0.00     0.135 A 
ATOM     93  F   UNL     1     -12.740  13.181   2.075  1.00  0.00    -0.206 F 
ATOM     94  C   UNL     1     -13.711  15.188   1.343  1.00  0.00     0.059 A 
ATOM     95  C   UNL     1     -13.367  15.934  -0.944  1.00  0.00     0.059 A 
ATOM     96  F   UNL     1     -12.093  14.624  -2.414  1.00  0.00    -0.206 F 
ATOM     97  C   UNL     1     -13.915  16.122   0.325  1.00  0.00     0.060 A 
BRANCH  97  98
ATOM     98  S   UNL     1     -14.874  17.604   0.696  1.00  0.00     0.124 S 
ATOM     99  O   UNL     1     -16.226  17.063   0.796  1.00  0.00    -0.237 OA
ATOM    100  O   UNL     1     -14.277  18.055   1.949  1.00  0.00    -0.237 OA
ATOM    101  O   UNL     1     -14.628  18.467  -0.456  1.00  0.00    -0.744 OA
ENDBRANCH  97  98
ENDBRANCH  65  90
ENDBRANCH  39  40
ENDBRANCH  32  34
ENDBRANCH  31  32
ENDBRANCH  30  31
ENDBRANCH   1  30
TORSDOF 17
