REMARK SMILES Cc1cccc(-c2ncc(C[NH+]3CCC4(CC3)NC(=O)C[C@H]4C(=O)OCCOC(=O)c3ccc(-c4c5nc(c(-c6c(F)cc(S(=O)(=O)[O-])cc6F)c6ccc([nH]6)c(-c6c(F)cc(S(=O)(=O)[O-])cc6F)c6nc(c(-c7c(F)cc(S(=O)(=O)[O-])cc7F)c7ccc4[nH]7)C=C6)C=C5)cc3)cn2)c1
REMARK SMILES IDX 26 1 25 2 23 3 24 4 22 5 12 6 13 7 17 8 14 10 16 11 15 12
REMARK SMILES IDX 18 13 19 14 21 16 20 17 11 18 10 19 7 20 8 21 98 22 9 23
REMARK SMILES IDX 97 24 6 25 1 26 2 27 3 28 99 29 4 30 5 31 27 32 28 33 29 34
REMARK SMILES IDX 30 35 31 36 32 37 96 38 33 39 95 40 34 41 35 42 36 43 89 44
REMARK SMILES IDX 37 45 94 46 88 47 90 48 38 49 93 50 87 51 86 52 39 54 73 55
REMARK SMILES IDX 52 56 72 57 53 58 56 59 71 60 91 61 54 62 55 63 70 65 92 66
REMARK SMILES IDX 57 67 40 68 41 69 50 70 42 71 43 72 49 73 51 74 44 75 45 76
REMARK SMILES IDX 46 77 47 78 48 79 74 80 75 81 84 82 76 83 77 84 83 85 85 86
REMARK SMILES IDX 78 87 79 88 80 89 81 90 82 91 58 92 59 93 68 94 60 95 61 96
REMARK SMILES IDX 67 97 69 98 62 99 63 100 64 101 65 102 66 103
REMARK H PARENT 12 9 18 15 90 53 56 64
REMARK Flexibility Score: inf
ROOT
ATOM      1  C   UNL     1      -0.471   4.391  -4.505  1.00  0.00     0.274 C 
ENDROOT
BRANCH   1   2
ATOM      2  O   UNL     1       0.343   4.590  -3.279  1.00  0.00    -0.462 OA
BRANCH   2   3
ATOM      3  C   UNL     1      -0.338   5.088  -2.244  1.00  0.00     0.311 C 
ATOM      4  O   UNL     1      -1.536   5.230  -2.433  1.00  0.00    -0.252 OA
BRANCH   3   5
ATOM      5  C   UNL     1       0.323   5.534  -0.899  1.00  0.00     0.134 C 
ATOM      6  N   UNL     1      -3.354   6.202   0.768  1.00  0.00    -0.331 N 
ATOM      7  C   UNL     1      -2.288   6.639   1.680  1.00  0.00     0.264 C 
ATOM      8  C   UNL     1      -2.733   5.787  -0.454  1.00  0.00     0.264 C 
ATOM      9  H   UNL     1      -3.914   7.054   0.769  1.00  0.00     0.348 HD
ATOM     10  C   UNL     1      -0.798   6.079   1.521  1.00  0.00     0.091 C 
ATOM     11  C   UNL     1      -1.817   4.590  -0.086  1.00  0.00     0.091 C 
ATOM     12  C   UNL     1      -0.486   5.088   0.345  1.00  0.00     0.064 C 
ATOM     13  N   UNL     1       0.318   3.996   0.857  1.00  0.00    -0.349 N 
ATOM     14  C   UNL     1       1.579   3.932   0.330  1.00  0.00     0.221 C 
ATOM     15  H   UNL     1      -0.014   3.355   1.527  1.00  0.00     0.164 HD
ATOM     16  C   UNL     1       1.748   5.073  -0.619  1.00  0.00     0.117 C 
ATOM     17  O   UNL     1       2.421   3.106   0.637  1.00  0.00    -0.275 OA
BRANCH   6  18
ATOM     18  C   UNL     1      -4.519   5.355   1.112  1.00  0.00     0.302 C 
BRANCH  18  19
ATOM     19  C   UNL     1      -4.372   3.838   0.945  1.00  0.00     0.043 A 
ATOM     20  C   UNL     1      -3.035   1.493   0.468  1.00  0.00     0.159 A 
ATOM     21  N   UNL     1      -3.123   1.929   1.745  1.00  0.00    -0.236 NA
ATOM     22  N   UNL     1      -3.731   2.028  -0.556  1.00  0.00    -0.236 NA
ATOM     23  C   UNL     1      -3.816   3.078   1.956  1.00  0.00     0.124 A 
ATOM     24  C   UNL     1      -4.388   3.194  -0.293  1.00  0.00     0.124 A 
BRANCH  20  25
ATOM     25  C   UNL     1      -2.063   0.411   0.186  1.00  0.00     0.019 A 
ATOM     26  C   UNL     1       1.747  -0.290   0.113  1.00  0.00     0.044 C 
ATOM     27  C   UNL     1       0.252  -0.471   0.056  1.00  0.00    -0.050 A 
ATOM     28  C   UNL     1      -0.257  -1.754  -0.145  1.00  0.00     0.003 A 
ATOM     29  C   UNL     1      -0.657   0.600   0.205  1.00  0.00     0.015 A 
ATOM     30  C   UNL     1      -1.633  -1.958  -0.217  1.00  0.00     0.001 A 
ATOM     31  C   UNL     1      -2.522  -0.887  -0.061  1.00  0.00     0.012 A 
ENDBRANCH  20  25
ENDBRANCH  18  19
ENDBRANCH   6  18
ENDBRANCH   3   5
ENDBRANCH   2   3
ENDBRANCH   1   2
BRANCH   1  32
ATOM     32  C   UNL     1      -1.839   5.175  -4.840  1.00  0.00     0.275 C 
BRANCH  32  33
ATOM     33  O   UNL     1      -2.013   6.634  -4.903  1.00  0.00    -0.458 OA
BRANCH  33  34
ATOM     34  C   UNL     1      -1.724   7.482  -3.867  1.00  0.00     0.338 C 
ATOM     35  O   UNL     1      -2.551   7.886  -3.058  1.00  0.00    -0.246 OA
BRANCH  34  36
ATOM     36  C   UNL     1      -0.268   7.755  -3.849  1.00  0.00     0.060 A 
ATOM     37  C   UNL     1       0.450   8.162  -2.710  1.00  0.00     0.016 A 
ATOM     38  C   UNL     1       0.395   7.195  -4.921  1.00  0.00     0.016 A 
ATOM     39  C   UNL     1       1.810   7.834  -2.599  1.00  0.00     0.010 A 
ATOM     40  C   UNL     1       1.570   6.570  -4.661  1.00  0.00     0.010 A 
ATOM     41  C   UNL     1       2.331   6.961  -3.551  1.00  0.00    -0.014 A 
BRANCH  41  42
ATOM     42  C   UNL     1       3.729   6.746  -3.896  1.00  0.00     0.031 A 
ATOM     43  C   UNL     1       4.435   5.519  -3.463  1.00  0.00     0.074 A 
ATOM     44  C   UNL     1       3.956   7.542  -4.974  1.00  0.00     0.049 A 
ATOM     45  N   UNL     1       5.627   5.470  -2.964  1.00  0.00    -0.248 NA
ATOM     46  C   UNL     1       3.785   4.195  -3.466  1.00  0.00     0.031 C 
ATOM     47  C   UNL     1       4.818   7.461  -6.128  1.00  0.00     0.029 A 
ATOM     48  N   UNL     1       3.208   8.698  -5.256  1.00  0.00    -0.354 N 
ATOM     49  C   UNL     1       6.000   4.132  -3.050  1.00  0.00     0.074 A 
ATOM     50  C   UNL     1       4.766   3.386  -3.043  1.00  0.00     0.031 C 
ATOM     51  C   UNL     1       4.807   8.663  -6.755  1.00  0.00     0.029 A 
ATOM     52  C   UNL     1       3.941   9.580  -6.008  1.00  0.00     0.049 A 
ATOM     53  H   UNL     1       2.284   8.853  -4.954  1.00  0.00     0.167 HD
ATOM     54  C   UNL     1       7.141   3.777  -3.723  1.00  0.00     0.037 A 
ATOM     55  C   UNL     1       4.262  10.709  -5.311  1.00  0.00     0.037 A 
ATOM     56  C   UNL     1       7.601   4.929  -4.492  1.00  0.00     0.049 A 
ATOM     57  C   UNL     1       5.677  10.521  -4.830  1.00  0.00     0.074 A 
ATOM     58  C   UNL     1       7.475   5.234  -5.837  1.00  0.00     0.029 A 
ATOM     59  N   UNL     1       7.965   6.101  -3.850  1.00  0.00    -0.354 N 
ATOM     60  N   UNL     1       6.204   9.370  -4.497  1.00  0.00    -0.248 NA
ATOM     61  C   UNL     1       6.650  11.599  -4.903  1.00  0.00     0.031 C 
ATOM     62  C   UNL     1       7.776   6.610  -5.997  1.00  0.00     0.029 A 
ATOM     63  C   UNL     1       7.998   7.154  -4.742  1.00  0.00     0.049 A 
ATOM     64  H   UNL     1       8.170   6.174  -2.890  1.00  0.00     0.167 HD
ATOM     65  C   UNL     1       7.563   9.507  -4.449  1.00  0.00     0.074 A 
ATOM     66  C   UNL     1       7.789  10.925  -4.677  1.00  0.00     0.031 C 
ATOM     67  C   UNL     1       8.434   8.465  -4.304  1.00  0.00     0.037 A 
BRANCH  54  68
ATOM     68  C   UNL     1       7.626   2.363  -4.024  1.00  0.00     0.058 A 
ATOM     69  C   UNL     1       8.568   2.125  -5.054  1.00  0.00     0.135 A 
ATOM     70  C   UNL     1       7.284   1.217  -3.272  1.00  0.00     0.135 A 
ATOM     71  F   UNL     1       9.056   3.119  -5.808  1.00  0.00    -0.206 F 
ATOM     72  C   UNL     1       9.083   0.864  -5.353  1.00  0.00     0.059 A 
ATOM     73  C   UNL     1       7.779  -0.067  -3.565  1.00  0.00     0.059 A 
ATOM     74  F   UNL     1       6.487   1.308  -2.197  1.00  0.00    -0.206 F 
ATOM     75  C   UNL     1       8.682  -0.233  -4.609  1.00  0.00     0.060 A 
BRANCH  75  76
ATOM     76  S   UNL     1       9.403  -1.838  -5.008  1.00  0.00     0.124 S 
ATOM     77  O   UNL     1       8.986  -2.023  -6.395  1.00  0.00    -0.237 OA
ATOM     78  O   UNL     1      10.827  -1.596  -4.804  1.00  0.00    -0.237 OA
ATOM     79  O   UNL     1       8.779  -2.743  -4.047  1.00  0.00    -0.744 OA
ENDBRANCH  75  76
ENDBRANCH  54  68
BRANCH  55  80
ATOM     80  C   UNL     1       3.080  11.265  -4.528  1.00  0.00     0.058 A 
ATOM     81  C   UNL     1       1.909  11.590  -5.260  1.00  0.00     0.135 A 
ATOM     82  C   UNL     1       2.925  11.205  -3.132  1.00  0.00     0.135 A 
ATOM     83  F   UNL     1       1.957  11.648  -6.602  1.00  0.00    -0.206 F 
ATOM     84  C   UNL     1       0.654  11.754  -4.666  1.00  0.00     0.059 A 
ATOM     85  C   UNL     1       1.673  11.392  -2.508  1.00  0.00     0.059 A 
ATOM     86  F   UNL     1       3.962  10.876  -2.349  1.00  0.00    -0.206 F 
ATOM     87  C   UNL     1       0.538  11.641  -3.285  1.00  0.00     0.060 A 
BRANCH  87  88
ATOM     88  S   UNL     1      -1.127  11.640  -2.552  1.00  0.00     0.124 S 
ATOM     89  O   UNL     1      -1.357  13.063  -2.330  1.00  0.00    -0.237 OA
ATOM     90  O   UNL     1      -1.925  11.031  -3.612  1.00  0.00    -0.237 OA
ATOM     91  O   UNL     1      -0.955  10.834  -1.347  1.00  0.00    -0.744 OA
ENDBRANCH  87  88
ENDBRANCH  55  80
BRANCH  67  92
ATOM     92  C   UNL     1       9.855   8.614  -3.835  1.00  0.00     0.058 A 
ATOM     93  C   UNL     1      10.290   9.711  -3.078  1.00  0.00     0.135 A 
ATOM     94  C   UNL     1      10.793   7.561  -3.989  1.00  0.00     0.135 A 
ATOM     95  F   UNL     1       9.456  10.696  -2.716  1.00  0.00    -0.206 F 
ATOM     96  C   UNL     1      11.594   9.822  -2.622  1.00  0.00     0.059 A 
ATOM     97  C   UNL     1      12.072   7.611  -3.458  1.00  0.00     0.059 A 
ATOM     98  F   UNL     1      10.496   6.428  -4.644  1.00  0.00    -0.206 F 
ATOM     99  C   UNL     1      12.479   8.770  -2.821  1.00  0.00     0.060 A 
BRANCH  99 100
ATOM    100  S   UNL     1      14.159   8.926  -2.217  1.00  0.00     0.124 S 
ATOM    101  O   UNL     1      14.776   9.691  -3.297  1.00  0.00    -0.237 OA
ATOM    102  O   UNL     1      13.977   9.643  -0.958  1.00  0.00    -0.237 OA
ATOM    103  O   UNL     1      14.602   7.543  -2.087  1.00  0.00    -0.744 OA
ENDBRANCH  99 100
ENDBRANCH  67  92
ENDBRANCH  41  42
ENDBRANCH  34  36
ENDBRANCH  33  34
ENDBRANCH  32  33
ENDBRANCH   1  32
TORSDOF 17
