REMARK SMILES O=C(COc1csc(C(=O)OCCOC(=O)c2ccc(-c3c4nc(c(-c5c(F)cc(S(=O)(=O)[O-])cc5F)c5ccc([nH]5)c(-c5c(F)cc(S(=O)(=O)[O-])cc5F)c5nc(c(-c6c(F)cc(S(=O)(=O)[O-])cc6F)c6ccc3[nH]6)C=C5)C=C4)cc2)c1)Nc1nccs1
REMARK SMILES IDX 12 1 11 2 9 3 10 4 8 5 5 6 6 7 83 8 7 9 4 10 3 11 2 12 1 13
REMARK SMILES IDX 84 14 85 16 86 17 89 18 87 19 88 20 13 21 14 22 15 23 16 24
REMARK SMILES IDX 17 25 18 26 82 27 19 28 81 29 20 30 21 31 22 32 75 33 23 34
REMARK SMILES IDX 80 35 74 36 76 37 24 38 79 39 73 40 72 41 25 43 59 44 38 45
REMARK SMILES IDX 58 46 39 47 42 48 57 49 77 50 40 51 41 52 56 54 78 55 43 56
REMARK SMILES IDX 26 57 27 58 36 59 28 60 29 61 35 62 37 63 30 64 31 65 32 66
REMARK SMILES IDX 33 67 34 68 60 69 61 70 70 71 62 72 63 73 69 74 71 75 64 76
REMARK SMILES IDX 65 77 66 78 67 79 68 80 44 81 45 82 54 83 46 84 47 85 53 86
REMARK SMILES IDX 55 87 48 88 49 89 50 90 51 91 52 92
REMARK H PARENT 84 15 76 42 42 53
REMARK Flexibility Score: inf
ROOT
ATOM      1  C   UNL     1       3.910  -1.006   8.261  1.00  0.00     0.275 C 
ENDROOT
BRANCH   1   2
ATOM      2  O   UNL     1       3.909  -0.782   6.835  1.00  0.00    -0.458 OA
BRANCH   2   3
ATOM      3  C   UNL     1       3.724  -1.902   6.072  1.00  0.00     0.348 C 
ATOM      4  O   UNL     1       3.622  -3.030   6.539  1.00  0.00    -0.245 OA
BRANCH   3   5
ATOM      5  C   UNL     1       3.612  -1.565   4.661  1.00  0.00     0.116 A 
ATOM      6  C   UNL     1       3.626  -0.535   2.560  1.00  0.00     0.131 A 
ATOM      7  C   UNL     1       2.911  -1.677   2.295  1.00  0.00     0.112 A 
ATOM      8  C   UNL     1       4.005  -0.449   3.938  1.00  0.00     0.074 A 
ATOM      9  S   UNL     1       2.915  -2.743   3.618  1.00  0.00    -0.133 S 
BRANCH   6  10
ATOM     10  O   UNL     1       4.039   0.325   1.595  1.00  0.00    -0.483 OA
BRANCH  10  11
ATOM     11  C   UNL     1       2.991   1.062   0.978  1.00  0.00     0.329 C 
BRANCH  11  12
ATOM     12  C   UNL     1       2.191   0.408  -0.162  1.00  0.00     0.264 C 
ATOM     13  O   UNL     1       1.110   0.883  -0.498  1.00  0.00    -0.271 OA
ATOM     14  N   UNL     1       2.822  -0.682  -0.721  1.00  0.00    -0.299 N 
ATOM     15  H   UNL     1       3.759  -0.867  -0.482  1.00  0.00     0.172 HD
BRANCH  14  16
ATOM     16  C   UNL     1       2.185  -1.515  -1.599  1.00  0.00     0.189 A 
ATOM     17  N   UNL     1       1.031  -1.366  -2.194  1.00  0.00    -0.229 NA
ATOM     18  S   UNL     1       2.995  -2.994  -1.879  1.00  0.00    -0.105 S 
ATOM     19  C   UNL     1       0.716  -2.520  -2.883  1.00  0.00     0.125 A 
ATOM     20  C   UNL     1       1.652  -3.531  -2.806  1.00  0.00     0.088 A 
ENDBRANCH  14  16
ENDBRANCH  11  12
ENDBRANCH  10  11
ENDBRANCH   6  10
ENDBRANCH   3   5
ENDBRANCH   2   3
ENDBRANCH   1   2
BRANCH   1  21
ATOM     21  C   UNL     1       2.557  -0.686   8.910  1.00  0.00     0.275 C 
BRANCH  21  22
ATOM     22  O   UNL     1       1.537  -1.639   8.556  1.00  0.00    -0.458 OA
BRANCH  22  23
ATOM     23  C   UNL     1       0.763  -1.276   7.507  1.00  0.00     0.338 C 
ATOM     24  O   UNL     1       0.859  -0.253   6.848  1.00  0.00    -0.246 OA
BRANCH  23  25
ATOM     25  C   UNL     1      -0.164  -2.361   7.152  1.00  0.00     0.060 A 
ATOM     26  C   UNL     1       0.132  -3.097   6.008  1.00  0.00     0.016 A 
ATOM     27  C   UNL     1      -1.366  -2.567   7.823  1.00  0.00     0.016 A 
ATOM     28  C   UNL     1      -0.786  -3.997   5.482  1.00  0.00     0.010 A 
ATOM     29  C   UNL     1      -2.272  -3.516   7.325  1.00  0.00     0.010 A 
ATOM     30  C   UNL     1      -2.002  -4.220   6.134  1.00  0.00    -0.014 A 
BRANCH  30  31
ATOM     31  C   UNL     1      -2.998  -5.152   5.539  1.00  0.00     0.031 A 
ATOM     32  C   UNL     1      -4.331  -4.629   5.075  1.00  0.00     0.074 A 
ATOM     33  C   UNL     1      -2.698  -6.457   5.388  1.00  0.00     0.049 A 
ATOM     34  N   UNL     1      -5.382  -5.290   4.662  1.00  0.00    -0.248 NA
ATOM     35  C   UNL     1      -4.508  -3.168   5.086  1.00  0.00     0.031 C 
ATOM     36  C   UNL     1      -1.419  -7.078   5.737  1.00  0.00     0.029 A 
ATOM     37  N   UNL     1      -3.448  -7.501   4.902  1.00  0.00    -0.354 N 
ATOM     38  C   UNL     1      -6.357  -4.332   4.402  1.00  0.00     0.074 A 
ATOM     39  C   UNL     1      -5.777  -3.045   4.721  1.00  0.00     0.031 C 
ATOM     40  C   UNL     1      -1.469  -8.387   5.447  1.00  0.00     0.029 A 
ATOM     41  C   UNL     1      -2.806  -8.716   4.963  1.00  0.00     0.049 A 
ATOM     42  H   UNL     1      -4.359  -7.390   4.545  1.00  0.00     0.167 HD
ATOM     43  C   UNL     1      -7.617  -4.513   3.939  1.00  0.00     0.037 A 
ATOM     44  C   UNL     1      -3.253  -9.960   4.702  1.00  0.00     0.037 A 
ATOM     45  C   UNL     1      -8.170  -5.799   3.595  1.00  0.00     0.049 A 
ATOM     46  C   UNL     1      -4.676 -10.143   4.248  1.00  0.00     0.074 A 
ATOM     47  C   UNL     1      -9.432  -6.090   3.107  1.00  0.00     0.029 A 
ATOM     48  N   UNL     1      -7.494  -7.007   3.696  1.00  0.00    -0.354 N 
ATOM     49  N   UNL     1      -5.596  -9.232   4.037  1.00  0.00    -0.248 NA
ATOM     50  C   UNL     1      -5.124 -11.520   4.004  1.00  0.00     0.031 C 
ATOM     51  C   UNL     1      -9.537  -7.478   2.963  1.00  0.00     0.029 A 
ATOM     52  C   UNL     1      -8.319  -8.047   3.300  1.00  0.00     0.049 A 
ATOM     53  H   UNL     1      -6.564  -7.110   4.003  1.00  0.00     0.167 HD
ATOM     54  C   UNL     1      -6.723  -9.924   3.606  1.00  0.00     0.074 A 
ATOM     55  C   UNL     1      -6.366 -11.327   3.579  1.00  0.00     0.031 C 
ATOM     56  C   UNL     1      -7.943  -9.440   3.263  1.00  0.00     0.037 A 
BRANCH  43  57
ATOM     57  C   UNL     1      -8.502  -3.300   3.814  1.00  0.00     0.058 A 
ATOM     58  C   UNL     1      -8.290  -2.317   2.834  1.00  0.00     0.135 A 
ATOM     59  C   UNL     1      -9.604  -3.139   4.671  1.00  0.00     0.135 A 
ATOM     60  F   UNL     1      -7.245  -2.411   1.997  1.00  0.00    -0.206 F 
ATOM     61  C   UNL     1      -9.120  -1.204   2.728  1.00  0.00     0.059 A 
ATOM     62  C   UNL     1     -10.464  -2.050   4.564  1.00  0.00     0.059 A 
ATOM     63  F   UNL     1      -9.856  -4.048   5.627  1.00  0.00    -0.206 F 
ATOM     64  C   UNL     1     -10.205  -1.080   3.598  1.00  0.00     0.060 A 
BRANCH  64  65
ATOM     65  S   UNL     1     -11.274   0.368   3.447  1.00  0.00     0.124 S 
ATOM     66  O   UNL     1     -10.409   1.424   3.964  1.00  0.00    -0.237 OA
ATOM     67  O   UNL     1     -11.539   0.412   2.013  1.00  0.00    -0.237 OA
ATOM     68  O   UNL     1     -12.422   0.034   4.284  1.00  0.00    -0.744 OA
ENDBRANCH  64  65
ENDBRANCH  43  57
BRANCH  44  69
ATOM     69  C   UNL     1      -2.354 -11.130   4.899  1.00  0.00     0.058 A 
ATOM     70  C   UNL     1      -1.907 -11.894   3.811  1.00  0.00     0.135 A 
ATOM     71  C   UNL     1      -1.914 -11.502   6.181  1.00  0.00     0.135 A 
ATOM     72  F   UNL     1      -2.306 -11.588   2.567  1.00  0.00    -0.206 F 
ATOM     73  C   UNL     1      -1.069 -12.992   3.986  1.00  0.00     0.059 A 
ATOM     74  C   UNL     1      -1.051 -12.575   6.378  1.00  0.00     0.059 A 
ATOM     75  F   UNL     1      -2.302 -10.799   7.256  1.00  0.00    -0.206 F 
ATOM     76  C   UNL     1      -0.643 -13.322   5.274  1.00  0.00     0.060 A 
BRANCH  76  77
ATOM     77  S   UNL     1       0.480 -14.720   5.483  1.00  0.00     0.124 S 
ATOM     78  O   UNL     1      -0.404 -15.849   5.224  1.00  0.00    -0.237 OA
ATOM     79  O   UNL     1       1.493 -14.454   4.466  1.00  0.00    -0.237 OA
ATOM     80  O   UNL     1       0.938 -14.580   6.863  1.00  0.00    -0.744 OA
ENDBRANCH  76  77
ENDBRANCH  44  69
BRANCH  56  81
ATOM     81  C   UNL     1      -8.969 -10.425   2.773  1.00  0.00     0.058 A 
ATOM     82  C   UNL     1      -9.606 -11.327   3.639  1.00  0.00     0.135 A 
ATOM     83  C   UNL     1      -9.362 -10.422   1.424  1.00  0.00     0.135 A 
ATOM     84  F   UNL     1      -9.261 -11.378   4.935  1.00  0.00    -0.206 F 
ATOM     85  C   UNL     1     -10.584 -12.205   3.181  1.00  0.00     0.059 A 
ATOM     86  C   UNL     1     -10.358 -11.269   0.951  1.00  0.00     0.059 A 
ATOM     87  F   UNL     1      -8.790  -9.573   0.555  1.00  0.00    -0.206 F 
ATOM     88  C   UNL     1     -10.957 -12.164   1.836  1.00  0.00     0.060 A 
BRANCH  88  89
ATOM     89  S   UNL     1     -12.258 -13.278   1.265  1.00  0.00     0.124 S 
ATOM     90  O   UNL     1     -11.571 -14.565   1.276  1.00  0.00    -0.237 OA
ATOM     91  O   UNL     1     -13.289 -13.100   2.283  1.00  0.00    -0.237 OA
ATOM     92  O   UNL     1     -12.595 -12.758  -0.057  1.00  0.00    -0.744 OA
ENDBRANCH  88  89
ENDBRANCH  56  81
ENDBRANCH  30  31
ENDBRANCH  23  25
ENDBRANCH  22  23
ENDBRANCH  21  22
ENDBRANCH   1  21
TORSDOF 18
