REMARK SMILES CS(=O)(=O)c1ccc(C2=NN(c3ccc(C(=O)OCCOC(=O)c4ccc(-c5c6nc(c(-c7c(F)cc(S(=O)(=O)[O-])cc7F)c7ccc([nH]7)c(-c7c(F)cc(S(=O)(=O)[O-])cc7F)c7nc(c(-c8c(F)cc(S(=O)(=O)[O-])cc8F)c8ccc5[nH]8)C=C7)C=C6)cc4)cc3)[C@H](c3cccs3)C2)cc1
REMARK SMILES IDX 19 1 18 2 16 3 17 4 15 5 12 6 13 7 91 8 14 9 90 10 11 11
REMARK SMILES IDX 9 12 10 13 98 14 92 15 8 16 5 17 6 18 100 19 7 20 99 21 2 22
REMARK SMILES IDX 1 23 3 24 4 25 93 26 94 27 97 28 95 29 96 30 20 31 21 32
REMARK SMILES IDX 22 33 23 34 24 35 25 36 89 37 26 38 88 39 27 40 28 41 29 42
REMARK SMILES IDX 82 43 30 44 87 45 81 46 83 47 31 48 86 49 80 50 79 51 32 53
REMARK SMILES IDX 66 54 45 55 65 56 46 57 49 58 64 59 84 60 47 61 48 62 63 64
REMARK SMILES IDX 85 65 50 66 33 67 34 68 43 69 35 70 36 71 42 72 44 73 37 74
REMARK SMILES IDX 38 75 39 76 40 77 41 78 67 79 68 80 77 81 69 82 70 83 76 84
REMARK SMILES IDX 78 85 71 86 72 87 73 88 74 89 75 90 51 91 52 92 61 93 53 94
REMARK SMILES IDX 54 95 60 96 62 97 55 98 56 99 57 100 58 101 59 102
REMARK H PARENT 83 52 49 63
REMARK Flexibility Score: inf
ROOT
ATOM      1  C   UNL     1      -0.155 -10.782 -12.409  1.00  0.00     0.275 C 
ENDROOT
BRANCH   1   2
ATOM      2  O   UNL     1       0.283 -10.091 -11.223  1.00  0.00    -0.458 OA
BRANCH   2   3
ATOM      3  C   UNL     1       0.604  -8.784 -11.396  1.00  0.00     0.338 C 
ATOM      4  O   UNL     1       0.602  -8.173 -12.452  1.00  0.00    -0.246 OA
BRANCH   3   5
ATOM      5  C   UNL     1       0.925  -8.139 -10.100  1.00  0.00     0.060 A 
ATOM      6  C   UNL     1       1.651  -6.800  -7.739  1.00  0.00     0.060 A 
ATOM      7  C   UNL     1       1.154  -6.083  -8.829  1.00  0.00     0.029 A 
ATOM      8  C   UNL     1       1.730  -8.197  -7.825  1.00  0.00     0.029 A 
ATOM      9  C   UNL     1       0.822  -6.743 -10.012  1.00  0.00     0.018 A 
ATOM     10  C   UNL     1       1.363  -8.869  -8.993  1.00  0.00     0.018 A 
BRANCH   6  11
ATOM     11  N   UNL     1       2.209  -6.144  -6.647  1.00  0.00    -0.257 N 
ATOM     12  C   UNL     1       2.175  -4.636  -5.152  1.00  0.00     0.071 C 
ATOM     13  N   UNL     1       1.433  -5.540  -5.716  1.00  0.00    -0.176 NA
ATOM     14  C   UNL     1       3.538  -4.435  -5.762  1.00  0.00     0.091 C 
ATOM     15  C   UNL     1       3.557  -5.586  -6.770  1.00  0.00     0.154 C 
BRANCH  12  16
ATOM     16  C   UNL     1       1.738  -3.860  -3.975  1.00  0.00    -0.002 A 
ATOM     17  C   UNL     1       0.970  -2.511  -1.657  1.00  0.00     0.067 A 
ATOM     18  C   UNL     1       0.521  -3.817  -1.885  1.00  0.00     0.021 A 
ATOM     19  C   UNL     1       1.780  -1.866  -2.596  1.00  0.00     0.021 A 
ATOM     20  C   UNL     1       0.900  -4.487  -3.047  1.00  0.00     0.011 A 
ATOM     21  C   UNL     1       2.172  -2.548  -3.755  1.00  0.00     0.011 A 
BRANCH  17  22
ATOM     22  S   UNL     1       0.480  -1.747  -0.129  1.00  0.00     0.175 S 
ATOM     23  C   UNL     1       0.961  -0.047  -0.200  1.00  0.00     0.163 C 
ATOM     24  O   UNL     1       1.275  -2.377   0.909  1.00  0.00    -0.224 OA
ATOM     25  O   UNL     1      -0.969  -1.784  -0.089  1.00  0.00    -0.224 OA
ENDBRANCH  17  22
ENDBRANCH  12  16
BRANCH  15  26
ATOM     26  C   UNL     1       4.636  -6.635  -6.597  1.00  0.00     0.030 A 
ATOM     27  C   UNL     1       5.200  -7.395  -7.610  1.00  0.00     0.017 A 
ATOM     28  S   UNL     1       5.191  -7.156  -5.061  1.00  0.00    -0.147 S 
ATOM     29  C   UNL     1       6.060  -8.417  -7.119  1.00  0.00     0.012 A 
ATOM     30  C   UNL     1       6.154  -8.389  -5.747  1.00  0.00     0.065 A 
ENDBRANCH  15  26
ENDBRANCH   6  11
ENDBRANCH   3   5
ENDBRANCH   2   3
ENDBRANCH   1   2
BRANCH   1  31
ATOM     31  C   UNL     1      -1.679 -10.867 -12.450  1.00  0.00     0.275 C 
BRANCH  31  32
ATOM     32  O   UNL     1      -2.238  -9.546 -12.558  1.00  0.00    -0.458 OA
BRANCH  32  33
ATOM     33  C   UNL     1      -3.094  -9.185 -11.574  1.00  0.00     0.338 C 
ATOM     34  O   UNL     1      -3.495  -9.870 -10.651  1.00  0.00    -0.246 OA
BRANCH  33  35
ATOM     35  C   UNL     1      -3.502  -7.785 -11.777  1.00  0.00     0.060 A 
ATOM     36  C   UNL     1      -2.566  -6.767 -11.615  1.00  0.00     0.016 A 
ATOM     37  C   UNL     1      -4.839  -7.477 -12.020  1.00  0.00     0.016 A 
ATOM     38  C   UNL     1      -2.968  -5.432 -11.633  1.00  0.00     0.010 A 
ATOM     39  C   UNL     1      -5.230  -6.136 -12.111  1.00  0.00     0.010 A 
ATOM     40  C   UNL     1      -4.306  -5.098 -11.887  1.00  0.00    -0.014 A 
BRANCH  40  41
ATOM     41  C   UNL     1      -4.751  -3.675 -11.860  1.00  0.00     0.031 A 
ATOM     42  C   UNL     1      -5.788  -3.232 -10.861  1.00  0.00     0.074 A 
ATOM     43  C   UNL     1      -4.228  -2.773 -12.715  1.00  0.00     0.049 A 
ATOM     44  N   UNL     1      -6.438  -2.098 -10.789  1.00  0.00    -0.248 NA
ATOM     45  C   UNL     1      -6.154  -4.199  -9.813  1.00  0.00     0.031 C 
ATOM     46  C   UNL     1      -3.187  -3.048 -13.707  1.00  0.00     0.029 A 
ATOM     47  N   UNL     1      -4.502  -1.438 -12.885  1.00  0.00    -0.354 N 
ATOM     48  C   UNL     1      -7.332  -2.238  -9.733  1.00  0.00     0.074 A 
ATOM     49  C   UNL     1      -7.138  -3.565  -9.190  1.00  0.00     0.031 C 
ATOM     50  C   UNL     1      -2.889  -1.913 -14.358  1.00  0.00     0.029 A 
ATOM     51  C   UNL     1      -3.768  -0.847 -13.887  1.00  0.00     0.049 A 
ATOM     52  H   UNL     1      -5.161  -0.949 -12.341  1.00  0.00     0.167 HD
ATOM     53  C   UNL     1      -8.235  -1.343  -9.263  1.00  0.00     0.037 A 
ATOM     54  C   UNL     1      -3.818   0.399 -14.398  1.00  0.00     0.037 A 
ATOM     55  C   UNL     1      -8.381   0.000  -9.761  1.00  0.00     0.049 A 
ATOM     56  C   UNL     1      -4.822   1.378 -13.858  1.00  0.00     0.074 A 
ATOM     57  C   UNL     1      -9.255   0.987  -9.337  1.00  0.00     0.029 A 
ATOM     58  N   UNL     1      -7.620   0.553 -10.781  1.00  0.00    -0.354 N 
ATOM     59  N   UNL     1      -5.704   1.210 -12.901  1.00  0.00    -0.248 NA
ATOM     60  C   UNL     1      -4.854   2.710 -14.480  1.00  0.00     0.031 C 
ATOM     61  C   UNL     1      -9.038   2.129 -10.116  1.00  0.00     0.029 A 
ATOM     62  C   UNL     1      -8.007   1.865 -11.003  1.00  0.00     0.049 A 
ATOM     63  H   UNL     1      -6.910   0.082 -11.274  1.00  0.00     0.167 HD
ATOM     64  C   UNL     1      -6.393   2.413 -12.804  1.00  0.00     0.074 A 
ATOM     65  C   UNL     1      -5.813   3.308 -13.785  1.00  0.00     0.031 C 
ATOM     66  C   UNL     1      -7.418   2.743 -11.982  1.00  0.00     0.037 A 
BRANCH  53  67
ATOM     67  C   UNL     1      -9.165  -1.802  -8.174  1.00  0.00     0.058 A 
ATOM     68  C   UNL     1      -8.738  -1.967  -6.848  1.00  0.00     0.135 A 
ATOM     69  C   UNL     1     -10.514  -2.062  -8.465  1.00  0.00     0.135 A 
ATOM     70  F   UNL     1      -7.455  -1.747  -6.519  1.00  0.00    -0.206 F 
ATOM     71  C   UNL     1      -9.610  -2.401  -5.853  1.00  0.00     0.059 A 
ATOM     72  C   UNL     1     -11.409  -2.474  -7.482  1.00  0.00     0.059 A 
ATOM     73  F   UNL     1     -10.975  -1.918  -9.718  1.00  0.00    -0.206 F 
ATOM     74  C   UNL     1     -10.943  -2.657  -6.181  1.00  0.00     0.060 A 
BRANCH  74  75
ATOM     75  S   UNL     1     -12.067  -3.224  -4.887  1.00  0.00     0.124 S 
ATOM     76  O   UNL     1     -11.689  -4.629  -4.770  1.00  0.00    -0.237 OA
ATOM     77  O   UNL     1     -11.703  -2.374  -3.757  1.00  0.00    -0.237 OA
ATOM     78  O   UNL     1     -13.389  -2.975  -5.453  1.00  0.00    -0.744 OA
ENDBRANCH  74  75
ENDBRANCH  53  67
BRANCH  54  79
ATOM     79  C   UNL     1      -2.903   0.776 -15.507  1.00  0.00     0.058 A 
ATOM     80  C   UNL     1      -1.828   1.650 -15.290  1.00  0.00     0.135 A 
ATOM     81  C   UNL     1      -3.063   0.240 -16.794  1.00  0.00     0.135 A 
ATOM     82  F   UNL     1      -1.643   2.198 -14.080  1.00  0.00    -0.206 F 
ATOM     83  C   UNL     1      -0.939   1.976 -16.309  1.00  0.00     0.059 A 
ATOM     84  C   UNL     1      -2.173   0.532 -17.823  1.00  0.00     0.059 A 
ATOM     85  F   UNL     1      -4.072  -0.608 -17.049  1.00  0.00    -0.206 F 
ATOM     86  C   UNL     1      -1.116   1.406 -17.572  1.00  0.00     0.060 A 
BRANCH  86  87
ATOM     87  S   UNL     1       0.091   1.763 -18.867  1.00  0.00     0.124 S 
ATOM     88  O   UNL     1      -0.330   3.090 -19.302  1.00  0.00    -0.237 OA
ATOM     89  O   UNL     1       1.355   1.701 -18.140  1.00  0.00    -0.237 OA
ATOM     90  O   UNL     1      -0.122   0.684 -19.827  1.00  0.00    -0.744 OA
ENDBRANCH  86  87
ENDBRANCH  54  79
BRANCH  66  91
ATOM     91  C   UNL     1      -7.966   4.137 -12.091  1.00  0.00     0.058 A 
ATOM     92  C   UNL     1      -8.812   4.511 -13.147  1.00  0.00     0.135 A 
ATOM     93  C   UNL     1      -7.676   5.096 -11.108  1.00  0.00     0.135 A 
ATOM     94  F   UNL     1      -9.113   3.631 -14.115  1.00  0.00    -0.206 F 
ATOM     95  C   UNL     1      -9.337   5.796 -13.234  1.00  0.00     0.059 A 
ATOM     96  C   UNL     1      -8.206   6.381 -11.166  1.00  0.00     0.059 A 
ATOM     97  F   UNL     1      -6.877   4.785 -10.075  1.00  0.00    -0.206 F 
ATOM     98  C   UNL     1      -9.027   6.725 -12.239  1.00  0.00     0.060 A 
BRANCH  98  99
ATOM     99  S   UNL     1      -9.734   8.383 -12.345  1.00  0.00     0.124 S 
ATOM    100  O   UNL     1      -8.885   9.000 -13.359  1.00  0.00    -0.237 OA
ATOM    101  O   UNL     1     -11.111   8.114 -12.750  1.00  0.00    -0.237 OA
ATOM    102  O   UNL     1      -9.578   8.905 -10.991  1.00  0.00    -0.744 OA
ENDBRANCH  98  99
ENDBRANCH  66  91
ENDBRANCH  40  41
ENDBRANCH  33  35
ENDBRANCH  32  33
ENDBRANCH  31  32
ENDBRANCH   1  31
TORSDOF 18
