REMARK SMILES O=C(OCCOC(=O)[C@H]1CC2(CC[NH+](C(=O)c3cccc(O)c3)CC2)CN1C(=O)C1CC1)c1ccc(-c2c3nc(c(-c4c(F)cc(S(=O)(=O)[O-])cc4F)c4ccc([nH]4)c(-c4c(F)cc(S(=O)(=O)[O-])cc4F)c4nc(c(-c5c(F)cc(S(=O)(=O)[O-])cc5F)c5ccc2[nH]5)C=C4)C=C3)cc1
REMARK SMILES IDX 4 1 3 2 2 3 1 4 33 5 34 6 98 7 35 8 97 9 36 10 37 11 38 12
REMARK SMILES IDX 91 13 39 14 96 15 90 16 92 17 40 18 95 19 89 20 88 21 41 23
REMARK SMILES IDX 75 24 54 25 74 26 55 27 58 28 73 29 93 30 56 31 57 32 72 34
REMARK SMILES IDX 94 35 59 36 42 37 43 38 52 39 44 40 45 41 51 42 53 43 46 44
REMARK SMILES IDX 47 45 48 46 49 47 50 48 76 49 77 50 86 51 78 52 79 53 85 54
REMARK SMILES IDX 87 55 80 56 81 57 82 58 83 59 84 60 60 61 61 62 70 63 62 64
REMARK SMILES IDX 63 65 69 66 71 67 64 68 65 69 66 70 67 71 68 72 5 73 6 74
REMARK SMILES IDX 7 75 8 76 9 77 10 78 27 79 11 80 26 81 12 82 25 83 13 84
REMARK SMILES IDX 24 85 14 86 28 88 29 89 30 90 31 91 32 92 15 93 16 94 17 95
REMARK SMILES IDX 18 96 23 97 19 98 21 99 20 100 22 101
REMARK H PARENT 92 22 58 33 14 87 22 102
REMARK Flexibility Score: inf
ROOT
ATOM      1  C   UNL     1      -1.668  -0.803   1.478  1.00  0.00     0.275 C 
ENDROOT
BRANCH   1   2
ATOM      2  O   UNL     1      -0.805  -1.097   0.355  1.00  0.00    -0.458 OA
BRANCH   2   3
ATOM      3  C   UNL     1       0.191  -0.356  -0.197  1.00  0.00     0.338 C 
ATOM      4  O   UNL     1       0.735  -0.735  -1.231  1.00  0.00    -0.246 OA
BRANCH   3   5
ATOM      5  C   UNL     1       0.775   0.810   0.515  1.00  0.00     0.060 A 
ATOM      6  C   UNL     1       0.005   1.773   1.161  1.00  0.00     0.016 A 
ATOM      7  C   UNL     1       2.175   0.944   0.516  1.00  0.00     0.016 A 
ATOM      8  C   UNL     1       0.612   2.768   1.919  1.00  0.00     0.010 A 
ATOM      9  C   UNL     1       2.789   1.952   1.267  1.00  0.00     0.010 A 
ATOM     10  C   UNL     1       2.004   2.854   1.999  1.00  0.00    -0.014 A 
BRANCH  10  11
ATOM     11  C   UNL     1       2.587   4.011   2.718  1.00  0.00     0.031 A 
ATOM     12  C   UNL     1       3.104   5.145   1.885  1.00  0.00     0.074 A 
ATOM     13  C   UNL     1       2.469   4.118   4.059  1.00  0.00     0.049 A 
ATOM     14  N   UNL     1       3.537   6.311   2.273  1.00  0.00    -0.248 NA
ATOM     15  C   UNL     1       3.039   4.983   0.419  1.00  0.00     0.031 C 
ATOM     16  C   UNL     1       1.780   3.150   4.918  1.00  0.00     0.029 A 
ATOM     17  N   UNL     1       2.908   5.072   4.947  1.00  0.00    -0.354 N 
ATOM     18  C   UNL     1       3.654   7.062   1.111  1.00  0.00     0.074 A 
ATOM     19  C   UNL     1       3.400   6.184  -0.005  1.00  0.00     0.031 C 
ATOM     20  C   UNL     1       1.876   3.540   6.198  1.00  0.00     0.029 A 
ATOM     21  C   UNL     1       2.689   4.748   6.274  1.00  0.00     0.049 A 
ATOM     22  H   UNL     1       3.339   5.910   4.663  1.00  0.00     0.167 HD
ATOM     23  C   UNL     1       3.854   8.393   1.007  1.00  0.00     0.037 A 
ATOM     24  C   UNL     1       3.149   5.333   7.407  1.00  0.00     0.037 A 
ATOM     25  C   UNL     1       4.163   9.221   2.139  1.00  0.00     0.049 A 
ATOM     26  C   UNL     1       3.911   6.629   7.199  1.00  0.00     0.074 A 
ATOM     27  C   UNL     1       4.442  10.572   2.176  1.00  0.00     0.029 A 
ATOM     28  N   UNL     1       4.261   8.749   3.443  1.00  0.00    -0.354 N 
ATOM     29  N   UNL     1       4.000   7.348   6.099  1.00  0.00    -0.248 NA
ATOM     30  C   UNL     1       4.618   7.212   8.344  1.00  0.00     0.031 C 
ATOM     31  C   UNL     1       4.764  10.905   3.497  1.00  0.00     0.029 A 
ATOM     32  C   UNL     1       4.630   9.775   4.292  1.00  0.00     0.049 A 
ATOM     33  H   UNL     1       4.092   7.820   3.721  1.00  0.00     0.167 HD
ATOM     34  C   UNL     1       4.642   8.527   6.458  1.00  0.00     0.074 A 
ATOM     35  C   UNL     1       4.987   8.391   7.859  1.00  0.00     0.031 C 
ATOM     36  C   UNL     1       4.871   9.638   5.711  1.00  0.00     0.037 A 
BRANCH  23  37
ATOM     37  C   UNL     1       3.700   9.002  -0.357  1.00  0.00     0.058 A 
ATOM     38  C   UNL     1       2.433   9.104  -0.960  1.00  0.00     0.135 A 
ATOM     39  C   UNL     1       4.806   9.471  -1.080  1.00  0.00     0.135 A 
ATOM     40  F   UNL     1       1.343   8.641  -0.326  1.00  0.00    -0.206 F 
ATOM     41  C   UNL     1       2.271   9.633  -2.236  1.00  0.00     0.059 A 
ATOM     42  C   UNL     1       4.664  10.023  -2.351  1.00  0.00     0.059 A 
ATOM     43  F   UNL     1       6.040   9.379  -0.561  1.00  0.00    -0.206 F 
ATOM     44  C   UNL     1       3.394  10.091  -2.924  1.00  0.00     0.060 A 
BRANCH  44  45
ATOM     45  S   UNL     1       3.163  10.777  -4.579  1.00  0.00     0.124 S 
ATOM     46  O   UNL     1       2.805   9.586  -5.342  1.00  0.00    -0.237 OA
ATOM     47  O   UNL     1       2.087  11.740  -4.367  1.00  0.00    -0.237 OA
ATOM     48  O   UNL     1       4.466  11.354  -4.893  1.00  0.00    -0.744 OA
ENDBRANCH  44  45
ENDBRANCH  23  37
BRANCH  24  49
ATOM     49  C   UNL     1       3.020   4.680   8.768  1.00  0.00     0.058 A 
ATOM     50  C   UNL     1       2.689   5.342   9.958  1.00  0.00     0.135 A 
ATOM     51  C   UNL     1       3.372   3.330   8.928  1.00  0.00     0.135 A 
ATOM     52  F   UNL     1       2.296   6.624   9.926  1.00  0.00    -0.206 F 
ATOM     53  C   UNL     1       2.817   4.730  11.217  1.00  0.00     0.059 A 
ATOM     54  C   UNL     1       3.449   2.669  10.148  1.00  0.00     0.059 A 
ATOM     55  F   UNL     1       3.730   2.622   7.862  1.00  0.00    -0.206 F 
ATOM     56  C   UNL     1       3.232   3.399  11.299  1.00  0.00     0.060 A 
BRANCH  56  57
ATOM     57  S   UNL     1       3.700   2.691  12.891  1.00  0.00     0.124 S 
ATOM     58  O   UNL     1       4.845   3.534  13.241  1.00  0.00    -0.237 OA
ATOM     59  O   UNL     1       2.489   2.870  13.681  1.00  0.00    -0.237 OA
ATOM     60  O   UNL     1       4.039   1.307  12.572  1.00  0.00    -0.744 OA
ENDBRANCH  56  57
ENDBRANCH  24  49
BRANCH  36  61
ATOM     61  C   UNL     1       5.298  10.874   6.448  1.00  0.00     0.058 A 
ATOM     62  C   UNL     1       6.591  11.057   6.953  1.00  0.00     0.135 A 
ATOM     63  C   UNL     1       4.373  11.922   6.605  1.00  0.00     0.135 A 
ATOM     64  F   UNL     1       7.508  10.085   6.835  1.00  0.00    -0.206 F 
ATOM     65  C   UNL     1       6.945  12.227   7.619  1.00  0.00     0.059 A 
ATOM     66  C   UNL     1       4.715  13.112   7.232  1.00  0.00     0.059 A 
ATOM     67  F   UNL     1       3.125  11.802   6.123  1.00  0.00    -0.206 F 
ATOM     68  C   UNL     1       6.000  13.248   7.752  1.00  0.00     0.060 A 
BRANCH  68  69
ATOM     69  S   UNL     1       6.471  14.770   8.597  1.00  0.00     0.124 S 
ATOM     70  O   UNL     1       6.481  14.341   9.992  1.00  0.00    -0.237 OA
ATOM     71  O   UNL     1       7.777  15.062   8.013  1.00  0.00    -0.237 OA
ATOM     72  O   UNL     1       5.408  15.704   8.236  1.00  0.00    -0.744 OA
ENDBRANCH  68  69
ENDBRANCH  36  61
ENDBRANCH  10  11
ENDBRANCH   3   5
ENDBRANCH   2   3
ENDBRANCH   1   2
BRANCH   1  73
ATOM     73  C   UNL     1      -1.095  -1.118   2.869  1.00  0.00     0.274 C 
BRANCH  73  74
ATOM     74  O   UNL     1       0.292  -0.770   2.964  1.00  0.00    -0.461 OA
BRANCH  74  75
ATOM     75  C   UNL     1       1.117  -1.658   3.611  1.00  0.00     0.328 C 
ATOM     76  O   UNL     1       0.741  -2.591   4.298  1.00  0.00    -0.250 OA
BRANCH  75  77
ATOM     77  C   UNL     1       2.577  -1.298   3.275  1.00  0.00     0.195 C 
ATOM     78  C   UNL     1       3.091  -0.243   4.266  1.00  0.00     0.046 C 
ATOM     79  N   UNL     1       3.603  -2.332   3.273  1.00  0.00    -0.328 N 
ATOM     80  C   UNL     1       4.612  -0.481   4.447  1.00  0.00     0.001 C 
ATOM     81  C   UNL     1       4.878  -1.777   3.678  1.00  0.00     0.128 C 
ATOM     82  C   UNL     1       4.992  -0.677   5.930  1.00  0.00     0.071 C 
ATOM     83  C   UNL     1       5.479   0.664   3.866  1.00  0.00     0.071 C 
ATOM     84  C   UNL     1       4.908   0.630   6.703  1.00  0.00     0.271 C 
ATOM     85  C   UNL     1       5.515   1.934   4.717  1.00  0.00     0.271 C 
ATOM     86  N   UNL     1       5.781   1.653   6.122  1.00  0.00    -0.267 N 
ATOM     87  H   UNL     1       4.805   1.777   6.151  1.00  0.00     0.357 HD
BRANCH  79  88
ATOM     88  C   UNL     1       3.670  -3.502   2.531  1.00  0.00     0.226 C 
ATOM     89  O   UNL     1       4.720  -4.134   2.429  1.00  0.00    -0.275 OA
BRANCH  88  90
ATOM     90  C   UNL     1       2.488  -4.083   1.848  1.00  0.00     0.079 C 
ATOM     91  C   UNL     1       1.364  -3.413   1.121  1.00  0.00     0.014 C 
ATOM     92  C   UNL     1       2.492  -3.971   0.327  1.00  0.00     0.014 C 
ENDBRANCH  88  90
ENDBRANCH  79  88
BRANCH  86  93
ATOM     93  C   UNL     1       6.533   2.612   6.831  1.00  0.00     0.344 C 
ATOM     94  O   UNL     1       7.017   3.603   6.284  1.00  0.00    -0.226 OA
BRANCH  93  95
ATOM     95  C   UNL     1       6.778   2.480   8.293  1.00  0.00     0.083 A 
ATOM     96  C   UNL     1       7.168   1.265   8.865  1.00  0.00     0.018 A 
ATOM     97  C   UNL     1       6.636   3.615   9.109  1.00  0.00     0.064 A 
ATOM     98  C   UNL     1       7.299   1.155  10.252  1.00  0.00     0.005 A 
ATOM     99  C   UNL     1       6.738   3.484  10.492  1.00  0.00     0.116 A 
ATOM    100  C   UNL     1       7.064   2.261  11.068  1.00  0.00     0.046 A 
BRANCH  99 101
ATOM    101  O   UNL     1       6.433   4.556  11.281  1.00  0.00    -0.508 OA
ATOM    102  H   UNL     1       6.496   4.485  12.213  1.00  0.00     0.293 HD
ENDBRANCH  99 101
ENDBRANCH  93  95
ENDBRANCH  86  93
ENDBRANCH  75  77
ENDBRANCH  74  75
ENDBRANCH  73  74
ENDBRANCH   1  73
TORSDOF 19
