REMARK SMILES CC[C@@](C)([NH3+])C(=O)Nc1cc(C(=O)OCCOC(=O)c2ccc(-c3c4nc(c(-c5c(F)cc(S(=O)(=O)[O-])cc5F)c5ccc([nH]5)c(-c5c(F)cc(S(=O)(=O)[O-])cc5F)c5nc(c(-c6c(F)cc(S(=O)(=O)[O-])cc6F)c6ccc3[nH]6)C=C5)C=C4)cc2)cc(C(F)(F)F)c1
REMARK SMILES IDX 15 1 14 2 12 3 13 4 11 5 9 6 10 7 92 8 87 9 86 10 8 11 6 12
REMARK SMILES IDX 7 13 3 15 4 16 2 17 1 18 5 19 88 23 89 24 90 25 91 26 16 27
REMARK SMILES IDX 17 28 18 29 19 30 20 31 21 32 85 33 22 34 84 35 23 36 24 37
REMARK SMILES IDX 25 38 78 39 26 40 83 41 77 42 79 43 27 44 82 45 76 46 75 47
REMARK SMILES IDX 28 49 62 50 41 51 61 52 42 53 45 54 60 55 80 56 43 57 44 58
REMARK SMILES IDX 59 60 81 61 46 62 29 63 30 64 39 65 31 66 32 67 38 68 40 69
REMARK SMILES IDX 33 70 34 71 35 72 36 73 37 74 63 75 64 76 73 77 65 78 66 79
REMARK SMILES IDX 72 80 74 81 67 82 68 83 69 84 70 85 71 86 47 87 48 88 57 89
REMARK SMILES IDX 49 90 50 91 56 92 58 93 51 94 52 95 53 96 54 97 55 98
REMARK H PARENT 8 14 5 20 5 21 5 22 79 48 45 59
REMARK Flexibility Score: inf
ROOT
ATOM      1  C   UNL     1       2.696  -9.877  -3.039  1.00  0.00     0.275 C 
ENDROOT
BRANCH   1   2
ATOM      2  O   UNL     1       2.116  -8.608  -3.400  1.00  0.00    -0.458 OA
BRANCH   2   3
ATOM      3  C   UNL     1       1.996  -7.697  -2.406  1.00  0.00     0.338 C 
ATOM      4  O   UNL     1       2.244  -7.868  -1.224  1.00  0.00    -0.246 OA
BRANCH   3   5
ATOM      5  C   UNL     1       1.646  -6.374  -2.976  1.00  0.00     0.062 A 
ATOM      6  C   UNL     1       1.949  -3.971  -2.894  1.00  0.00     0.042 A 
ATOM      7  C   UNL     1       2.155  -5.232  -2.349  1.00  0.00     0.041 A 
ATOM      8  C   UNL     1       1.206  -3.843  -4.064  1.00  0.00     0.039 A 
ATOM      9  C   UNL     1       0.604  -4.965  -4.657  1.00  0.00     0.058 A 
ATOM     10  C   UNL     1       0.850  -6.239  -4.117  1.00  0.00     0.029 A 
BRANCH   6  11
ATOM     11  N   UNL     1       2.599  -2.888  -2.302  1.00  0.00    -0.321 N 
ATOM     12  C   UNL     1       2.150  -1.625  -2.011  1.00  0.00     0.285 C 
ATOM     13  O   UNL     1       3.010  -0.749  -1.881  1.00  0.00    -0.267 OA
ATOM     14  H   UNL     1       3.536  -3.058  -2.052  1.00  0.00     0.170 HD
BRANCH  12  15
ATOM     15  C   UNL     1       0.635  -1.359  -1.687  1.00  0.00     0.171 C 
ATOM     16  C   UNL     1       0.103  -2.399  -0.686  1.00  0.00     0.090 C 
BRANCH  15  17
ATOM     17  C   UNL     1       0.468   0.077  -1.111  1.00  0.00     0.075 C 
ATOM     18  C   UNL     1       1.034   0.294   0.290  1.00  0.00     0.011 C 
ENDBRANCH  15  17
BRANCH  15  19
ATOM     19  N   UNL     1      -0.181  -1.405  -2.927  1.00  0.00    -0.345 N 
ATOM     20  H   UNL     1      -1.159  -1.230  -2.697  1.00  0.00     0.345 HD
ATOM     21  H   UNL     1      -0.092  -2.325  -3.358  1.00  0.00     0.345 HD
ATOM     22  H   UNL     1       0.148  -0.692  -3.578  1.00  0.00     0.345 HD
ENDBRANCH  15  19
ENDBRANCH  12  15
ENDBRANCH   6  11
BRANCH   9  23
ATOM     23  C   UNL     1      -0.306  -4.813  -5.848  1.00  0.00     0.416 C 
ATOM     24  F   UNL     1       0.139  -5.481  -6.946  1.00  0.00    -0.166 F 
ATOM     25  F   UNL     1      -1.552  -5.306  -5.593  1.00  0.00    -0.166 F 
ATOM     26  F   UNL     1      -0.497  -3.523  -6.237  1.00  0.00    -0.166 F 
ENDBRANCH   9  23
ENDBRANCH   3   5
ENDBRANCH   2   3
ENDBRANCH   1   2
BRANCH   1  27
ATOM     27  C   UNL     1       4.132  -9.980  -3.560  1.00  0.00     0.275 C 
BRANCH  27  28
ATOM     28  O   UNL     1       5.018  -9.148  -2.785  1.00  0.00    -0.458 OA
BRANCH  28  29
ATOM     29  C   UNL     1       5.394  -7.995  -3.382  1.00  0.00     0.338 C 
ATOM     30  O   UNL     1       5.083  -7.603  -4.494  1.00  0.00    -0.246 OA
BRANCH  29  31
ATOM     31  C   UNL     1       6.163  -7.166  -2.442  1.00  0.00     0.060 A 
ATOM     32  C   UNL     1       5.448  -6.303  -1.620  1.00  0.00     0.016 A 
ATOM     33  C   UNL     1       7.551  -7.085  -2.496  1.00  0.00     0.016 A 
ATOM     34  C   UNL     1       6.090  -5.264  -0.953  1.00  0.00     0.010 A 
ATOM     35  C   UNL     1       8.210  -6.105  -1.738  1.00  0.00     0.010 A 
ATOM     36  C   UNL     1       7.484  -5.145  -1.003  1.00  0.00    -0.014 A 
BRANCH  36  37
ATOM     37  C   UNL     1       8.164  -3.977  -0.363  1.00  0.00     0.031 A 
ATOM     38  C   UNL     1       9.021  -3.055  -1.199  1.00  0.00     0.074 A 
ATOM     39  C   UNL     1       7.995  -3.705   0.948  1.00  0.00     0.049 A 
ATOM     40  N   UNL     1       9.834  -2.103  -0.817  1.00  0.00    -0.248 NA
ATOM     41  C   UNL     1       8.969  -3.243  -2.659  1.00  0.00     0.031 C 
ATOM     42  C   UNL     1       7.156  -4.468   1.875  1.00  0.00     0.029 A 
ATOM     43  N   UNL     1       8.515  -2.701   1.731  1.00  0.00    -0.354 N 
ATOM     44  C   UNL     1      10.437  -1.625  -1.977  1.00  0.00     0.074 A 
ATOM     45  C   UNL     1       9.898  -2.395  -3.077  1.00  0.00     0.031 C 
ATOM     46  C   UNL     1       7.189  -3.886   3.084  1.00  0.00     0.029 A 
ATOM     47  C   UNL     1       8.116  -2.761   3.047  1.00  0.00     0.049 A 
ATOM     48  H   UNL     1       9.117  -2.004   1.382  1.00  0.00     0.167 HD
ATOM     49  C   UNL     1      11.353  -0.636  -2.113  1.00  0.00     0.037 A 
ATOM     50  C   UNL     1       8.483  -2.024   4.114  1.00  0.00     0.037 A 
ATOM     51  C   UNL     1      11.828   0.182  -1.027  1.00  0.00     0.049 A 
ATOM     52  C   UNL     1       9.499  -0.928   3.939  1.00  0.00     0.074 A 
ATOM     53  C   UNL     1      12.754   1.211  -1.064  1.00  0.00     0.029 A 
ATOM     54  N   UNL     1      11.392   0.087   0.286  1.00  0.00    -0.354 N 
ATOM     55  N   UNL     1      10.117  -0.544   2.849  1.00  0.00    -0.248 NA
ATOM     56  C   UNL     1       9.878  -0.174   5.143  1.00  0.00     0.031 C 
ATOM     57  C   UNL     1      12.896   1.722   0.231  1.00  0.00     0.029 A 
ATOM     58  C   UNL     1      12.029   1.038   1.067  1.00  0.00     0.049 A 
ATOM     59  H   UNL     1      10.728  -0.561   0.615  1.00  0.00     0.167 HD
ATOM     60  C   UNL     1      10.940   0.509   3.230  1.00  0.00     0.074 A 
ATOM     61  C   UNL     1      10.732   0.711   4.649  1.00  0.00     0.031 C 
ATOM     62  C   UNL     1      11.795   1.241   2.473  1.00  0.00     0.037 A 
BRANCH  49  63
ATOM     63  C   UNL     1      11.930  -0.398  -3.482  1.00  0.00     0.058 A 
ATOM     64  C   UNL     1      11.197   0.217  -4.508  1.00  0.00     0.135 A 
ATOM     65  C   UNL     1      13.260  -0.760  -3.757  1.00  0.00     0.135 A 
ATOM     66  F   UNL     1       9.916   0.567  -4.307  1.00  0.00    -0.206 F 
ATOM     67  C   UNL     1      11.752   0.442  -5.765  1.00  0.00     0.059 A 
ATOM     68  C   UNL     1      13.844  -0.521  -4.997  1.00  0.00     0.059 A 
ATOM     69  F   UNL     1      14.008  -1.351  -2.812  1.00  0.00    -0.206 F 
ATOM     70  C   UNL     1      13.076   0.068  -6.000  1.00  0.00     0.060 A 
BRANCH  70  71
ATOM     71  S   UNL     1      13.788   0.371  -7.632  1.00  0.00     0.124 S 
ATOM     72  O   UNL     1      13.157  -0.680  -8.424  1.00  0.00    -0.237 OA
ATOM     73  O   UNL     1      13.347   1.732  -7.920  1.00  0.00    -0.237 OA
ATOM     74  O   UNL     1      15.222   0.214  -7.412  1.00  0.00    -0.744 OA
ENDBRANCH  70  71
ENDBRANCH  49  63
BRANCH  50  75
ATOM     75  C   UNL     1       7.914  -2.323   5.457  1.00  0.00     0.058 A 
ATOM     76  C   UNL     1       7.038  -1.429   6.091  1.00  0.00     0.135 A 
ATOM     77  C   UNL     1       8.239  -3.509   6.135  1.00  0.00     0.135 A 
ATOM     78  F   UNL     1       6.707  -0.276   5.490  1.00  0.00    -0.206 F 
ATOM     79  C   UNL     1       6.515  -1.692   7.353  1.00  0.00     0.059 A 
ATOM     80  C   UNL     1       7.706  -3.808   7.385  1.00  0.00     0.059 A 
ATOM     81  F   UNL     1       9.063  -4.404   5.569  1.00  0.00    -0.206 F 
ATOM     82  C   UNL     1       6.854  -2.886   7.992  1.00  0.00     0.060 A 
BRANCH  82  83
ATOM     83  S   UNL     1       6.136  -3.245   9.610  1.00  0.00     0.124 S 
ATOM     84  O   UNL     1       6.936  -2.391  10.481  1.00  0.00    -0.237 OA
ATOM     85  O   UNL     1       4.744  -2.846   9.427  1.00  0.00    -0.237 OA
ATOM     86  O   UNL     1       6.353  -4.681   9.759  1.00  0.00    -0.744 OA
ENDBRANCH  82  83
ENDBRANCH  50  75
BRANCH  62  87
ATOM     87  C   UNL     1      12.528   2.364   3.151  1.00  0.00     0.058 A 
ATOM     88  C   UNL     1      13.602   2.126   4.023  1.00  0.00     0.135 A 
ATOM     89  C   UNL     1      12.175   3.698   2.892  1.00  0.00     0.135 A 
ATOM     90  F   UNL     1      13.976   0.869   4.308  1.00  0.00    -0.206 F 
ATOM     91  C   UNL     1      14.284   3.173   4.636  1.00  0.00     0.059 A 
ATOM     92  C   UNL     1      12.857   4.760   3.475  1.00  0.00     0.059 A 
ATOM     93  F   UNL     1      11.161   3.978   2.057  1.00  0.00    -0.206 F 
ATOM     94  C   UNL     1      13.902   4.487   4.357  1.00  0.00     0.060 A 
BRANCH  94  95
ATOM     95  S   UNL     1      14.808   5.839   5.139  1.00  0.00     0.124 S 
ATOM     96  O   UNL     1      14.264   5.812   6.493  1.00  0.00    -0.237 OA
ATOM     97  O   UNL     1      16.196   5.408   5.005  1.00  0.00    -0.237 OA
ATOM     98  O   UNL     1      14.440   7.002   4.337  1.00  0.00    -0.744 OA
ENDBRANCH  94  95
ENDBRANCH  62  87
ENDBRANCH  36  37
ENDBRANCH  29  31
ENDBRANCH  28  29
ENDBRANCH  27  28
ENDBRANCH   1  27
TORSDOF 19
