REMARK SMILES CC1(C)[C@@]2(C(=O)OCCOC(=O)c3ccc(-c4c5nc(c(-c6c(F)cc(S(=O)(=O)[O-])cc6F)c6ccc([nH]6)c(-c6c(F)cc(S(=O)(=O)[O-])cc6F)c6nc(c(-c7c(F)cc(S(=O)(=O)[O-])cc7F)c7ccc4[nH]7)C=C6)C=C5)cc3)CC[C@]1(C)/C(=N/NC(=O)c1ccc(Cl)cc1)C2
REMARK SMILES IDX 9 1 8 2 7 3 5 4 6 5 4 6 1 7 2 8 3 9 81 10 79 11 95 12 80 13
REMARK SMILES IDX 82 14 83 15 84 16 85 17 86 18 87 20 88 21 89 22 94 23 90 24
REMARK SMILES IDX 93 25 91 26 92 27 10 28 11 29 12 30 13 31 14 32 78 33 15 34
REMARK SMILES IDX 77 35 16 36 17 37 18 38 71 39 19 40 76 41 70 42 72 43 20 44
REMARK SMILES IDX 75 45 69 46 68 47 21 49 55 50 34 51 54 52 35 53 38 54 53 55
REMARK SMILES IDX 73 56 36 57 37 58 52 60 74 61 39 62 22 63 23 64 32 65 24 66
REMARK SMILES IDX 25 67 31 68 33 69 26 70 27 71 28 72 29 73 30 74 56 75 57 76
REMARK SMILES IDX 66 77 58 78 59 79 65 80 67 81 60 82 61 83 62 84 63 85 64 86
REMARK SMILES IDX 40 87 41 88 50 89 42 90 43 91 49 92 51 93 44 94 45 95 46 96
REMARK SMILES IDX 47 97 48 98
REMARK H PARENT 85 19 72 48 38 59
REMARK Flexibility Score: inf
ROOT
ATOM      1  C   UNL     1       4.638   4.303  -1.504  1.00  0.00     0.275 C 
ENDROOT
BRANCH   1   2
ATOM      2  C   UNL     1       4.089   3.220  -2.429  1.00  0.00     0.274 C 
BRANCH   2   3
ATOM      3  O   UNL     1       2.692   2.986  -2.141  1.00  0.00    -0.462 OA
BRANCH   3   4
ATOM      4  C   UNL     1       2.355   1.794  -1.572  1.00  0.00     0.313 C 
ATOM      5  O   UNL     1       3.154   0.926  -1.251  1.00  0.00    -0.252 OA
BRANCH   4   6
ATOM      6  C   UNL     1       0.847   1.608  -1.536  1.00  0.00     0.079 C 
ATOM      7  C   UNL     1       0.714  -0.371   0.157  1.00  0.00     0.013 C 
ATOM      8  C   UNL     1       0.153   0.993  -0.285  1.00  0.00    -0.008 C 
ATOM      9  C   UNL     1       0.112   1.914   0.957  1.00  0.00     0.013 C 
ATOM     10  C   UNL     1      -1.234   0.930  -1.015  1.00  0.00     0.014 C 
ATOM     11  C   UNL     1       0.460   0.615  -2.679  1.00  0.00     0.021 C 
ATOM     12  C   UNL     1       0.049   2.917  -1.740  1.00  0.00     0.073 C 
ATOM     13  C   UNL     1      -0.952   0.141  -2.303  1.00  0.00     0.014 C 
ATOM     14  C   UNL     1      -2.403   0.413  -0.203  1.00  0.00     0.018 C 
ATOM     15  C   UNL     1      -1.342   2.397  -1.499  1.00  0.00     0.046 C 
ATOM     16  N   UNL     1      -2.495   2.976  -1.582  1.00  0.00    -0.181 NA
BRANCH  16  17
ATOM     17  N   UNL     1      -2.718   4.293  -1.827  1.00  0.00    -0.243 N 
ATOM     18  C   UNL     1      -2.166   5.260  -2.636  1.00  0.00     0.271 C 
ATOM     19  H   UNL     1      -3.464   4.646  -1.291  1.00  0.00     0.194 HD
ATOM     20  O   UNL     1      -2.530   6.432  -2.529  1.00  0.00    -0.267 OA
BRANCH  18  21
ATOM     21  C   UNL     1      -1.173   4.965  -3.675  1.00  0.00     0.041 A 
ATOM     22  C   UNL     1       0.001   5.738  -3.690  1.00  0.00     0.015 A 
ATOM     23  C   UNL     1      -1.365   3.946  -4.615  1.00  0.00     0.015 A 
ATOM     24  C   UNL     1       1.022   5.433  -4.589  1.00  0.00     0.021 A 
ATOM     25  C   UNL     1      -0.342   3.653  -5.522  1.00  0.00     0.021 A 
ATOM     26  C   UNL     1       0.851   4.383  -5.492  1.00  0.00     0.041 A 
ATOM     27  Cl  UNL     1       2.139   3.961  -6.553  1.00  0.00    -0.084 Cl
ENDBRANCH  18  21
ENDBRANCH  16  17
ENDBRANCH   4   6
ENDBRANCH   3   4
ENDBRANCH   2   3
ENDBRANCH   1   2
BRANCH   1  28
ATOM     28  O   UNL     1       4.668   3.759  -0.177  1.00  0.00    -0.458 OA
BRANCH  28  29
ATOM     29  C   UNL     1       4.244   4.557   0.826  1.00  0.00     0.338 C 
ATOM     30  O   UNL     1       4.057   5.767   0.765  1.00  0.00    -0.246 OA
BRANCH  29  31
ATOM     31  C   UNL     1       3.928   3.722   2.008  1.00  0.00     0.060 A 
ATOM     32  C   UNL     1       3.518   2.401   1.834  1.00  0.00     0.016 A 
ATOM     33  C   UNL     1       3.892   4.280   3.285  1.00  0.00     0.016 A 
ATOM     34  C   UNL     1       2.939   1.697   2.885  1.00  0.00     0.010 A 
ATOM     35  C   UNL     1       3.421   3.520   4.367  1.00  0.00     0.010 A 
ATOM     36  C   UNL     1       2.875   2.236   4.173  1.00  0.00    -0.014 A 
BRANCH  36  37
ATOM     37  C   UNL     1       2.146   1.518   5.267  1.00  0.00     0.031 A 
ATOM     38  C   UNL     1       1.116   2.255   6.091  1.00  0.00     0.074 A 
ATOM     39  C   UNL     1       2.324   0.200   5.509  1.00  0.00     0.049 A 
ATOM     40  N   UNL     1       0.610   1.943   7.257  1.00  0.00    -0.248 NA
ATOM     41  C   UNL     1       0.607   3.524   5.543  1.00  0.00     0.031 C 
ATOM     42  C   UNL     1       3.201  -0.703   4.761  1.00  0.00     0.029 A 
ATOM     43  N   UNL     1       1.739  -0.621   6.444  1.00  0.00    -0.354 N 
ATOM     44  C   UNL     1      -0.170   3.030   7.637  1.00  0.00     0.074 A 
ATOM     45  C   UNL     1      -0.109   3.990   6.557  1.00  0.00     0.031 C 
ATOM     46  C   UNL     1       3.024  -1.958   5.198  1.00  0.00     0.029 A 
ATOM     47  C   UNL     1       2.129  -1.937   6.348  1.00  0.00     0.049 A 
ATOM     48  H   UNL     1       1.101  -0.298   7.120  1.00  0.00     0.167 HD
ATOM     49  C   UNL     1      -0.852   3.214   8.794  1.00  0.00     0.037 A 
ATOM     50  C   UNL     1       1.850  -3.001   7.127  1.00  0.00     0.037 A 
ATOM     51  C   UNL     1      -1.009   2.201   9.805  1.00  0.00     0.049 A 
ATOM     52  C   UNL     1       1.044  -2.802   8.377  1.00  0.00     0.074 A 
ATOM     53  C   UNL     1      -1.639   2.291  11.035  1.00  0.00     0.029 A 
ATOM     54  N   UNL     1      -0.581   0.889   9.674  1.00  0.00    -0.354 N 
ATOM     55  N   UNL     1       0.499  -1.702   8.839  1.00  0.00    -0.248 NA
ATOM     56  C   UNL     1       0.858  -3.977   9.239  1.00  0.00     0.031 C 
ATOM     57  C   UNL     1      -1.596   1.030  11.644  1.00  0.00     0.029 A 
ATOM     58  C   UNL     1      -0.959   0.152  10.783  1.00  0.00     0.049 A 
ATOM     59  H   UNL     1      -0.082   0.533   8.903  1.00  0.00     0.167 HD
ATOM     60  C   UNL     1      -0.078  -2.048  10.055  1.00  0.00     0.074 A 
ATOM     61  C   UNL     1       0.151  -3.467  10.238  1.00  0.00     0.031 C 
ATOM     62  C   UNL     1      -0.721  -1.258  10.949  1.00  0.00     0.037 A 
BRANCH  49  63
ATOM     63  C   UNL     1      -1.422   4.580   9.053  1.00  0.00     0.058 A 
ATOM     64  C   UNL     1      -2.576   5.052   8.411  1.00  0.00     0.135 A 
ATOM     65  C   UNL     1      -0.793   5.431   9.978  1.00  0.00     0.135 A 
ATOM     66  F   UNL     1      -3.202   4.289   7.501  1.00  0.00    -0.206 F 
ATOM     67  C   UNL     1      -3.071   6.330   8.655  1.00  0.00     0.059 A 
ATOM     68  C   UNL     1      -1.283   6.703  10.255  1.00  0.00     0.059 A 
ATOM     69  F   UNL     1       0.316   5.029  10.620  1.00  0.00    -0.206 F 
ATOM     70  C   UNL     1      -2.413   7.151   9.574  1.00  0.00     0.060 A 
BRANCH  70  71
ATOM     71  S   UNL     1      -3.052   8.812   9.882  1.00  0.00     0.124 S 
ATOM     72  O   UNL     1      -2.515   9.545   8.740  1.00  0.00    -0.237 OA
ATOM     73  O   UNL     1      -4.497   8.603   9.878  1.00  0.00    -0.237 OA
ATOM     74  O   UNL     1      -2.478   9.158  11.179  1.00  0.00    -0.744 OA
ENDBRANCH  70  71
ENDBRANCH  49  63
BRANCH  50  75
ATOM     75  C   UNL     1       2.393  -4.340   6.775  1.00  0.00     0.058 A 
ATOM     76  C   UNL     1       1.548  -5.356   6.308  1.00  0.00     0.135 A 
ATOM     77  C   UNL     1       3.766  -4.618   6.862  1.00  0.00     0.135 A 
ATOM     78  F   UNL     1       0.226  -5.143   6.224  1.00  0.00    -0.206 F 
ATOM     79  C   UNL     1       2.045  -6.599   5.928  1.00  0.00     0.059 A 
ATOM     80  C   UNL     1       4.290  -5.843   6.464  1.00  0.00     0.059 A 
ATOM     81  F   UNL     1       4.617  -3.675   7.298  1.00  0.00    -0.206 F 
ATOM     82  C   UNL     1       3.420  -6.830   6.002  1.00  0.00     0.060 A 
BRANCH  82  83
ATOM     83  S   UNL     1       4.081  -8.405   5.416  1.00  0.00     0.124 S 
ATOM     84  O   UNL     1       3.893  -9.255   6.585  1.00  0.00    -0.237 OA
ATOM     85  O   UNL     1       3.227  -8.698   4.269  1.00  0.00    -0.237 OA
ATOM     86  O   UNL     1       5.465  -8.078   5.085  1.00  0.00    -0.744 OA
ENDBRANCH  82  83
ENDBRANCH  50  75
BRANCH  62  87
ATOM     87  C   UNL     1      -1.231  -1.923  12.192  1.00  0.00     0.058 A 
ATOM     88  C   UNL     1      -0.369  -2.251  13.250  1.00  0.00     0.135 A 
ATOM     89  C   UNL     1      -2.592  -2.237  12.325  1.00  0.00     0.135 A 
ATOM     90  F   UNL     1       0.941  -1.975  13.164  1.00  0.00    -0.206 F 
ATOM     91  C   UNL     1      -0.835  -2.900  14.388  1.00  0.00     0.059 A 
ATOM     92  C   UNL     1      -3.082  -2.872  13.461  1.00  0.00     0.059 A 
ATOM     93  F   UNL     1      -3.454  -1.936  11.342  1.00  0.00    -0.206 F 
ATOM     94  C   UNL     1      -2.192  -3.216  14.480  1.00  0.00     0.060 A 
BRANCH  94  95
ATOM     95  S   UNL     1      -2.792  -4.068  15.954  1.00  0.00     0.124 S 
ATOM     96  O   UNL     1      -2.420  -5.449  15.664  1.00  0.00    -0.237 OA
ATOM     97  O   UNL     1      -2.040  -3.420  17.024  1.00  0.00    -0.237 OA
ATOM     98  O   UNL     1      -4.225  -3.787  15.945  1.00  0.00    -0.744 OA
ENDBRANCH  94  95
ENDBRANCH  62  87
ENDBRANCH  36  37
ENDBRANCH  29  31
ENDBRANCH  28  29
ENDBRANCH   1  28
TORSDOF 16
