REMARK SMILES C[C@H](Sc1ccc(S(C)(=O)=O)cc1)c1ccc(C(=O)OCCOC(=O)c2ccc(-c3c4nc(c(-c5c(F)cc(S(=O)(=O)[O-])cc5F)c5ccc([nH]5)c(-c5c(F)cc(S(=O)(=O)[O-])cc5F)c5nc(c(-c6c(F)cc(S(=O)(=O)[O-])cc6F)c6ccc3[nH]6)C=C5)C=C4)cc2)o1
REMARK SMILES IDX 21 1 20 2 18 3 19 4 17 5 14 6 15 7 92 8 16 9 2 10 1 11 3 12
REMARK SMILES IDX 4 13 5 14 13 15 6 16 12 17 7 18 8 19 9 20 10 21 11 22 22 23
REMARK SMILES IDX 23 24 24 25 25 26 26 27 27 28 91 29 28 30 90 31 29 32 30 33
REMARK SMILES IDX 31 34 84 35 32 36 89 37 83 38 85 39 33 40 88 41 82 42 81 43
REMARK SMILES IDX 34 45 68 46 47 47 67 48 48 49 51 50 66 51 86 52 49 53 50 54
REMARK SMILES IDX 65 56 87 57 52 58 35 59 36 60 45 61 37 62 38 63 44 64 46 65
REMARK SMILES IDX 39 66 40 67 41 68 42 69 43 70 69 71 70 72 79 73 71 74 72 75
REMARK SMILES IDX 78 76 80 77 73 78 74 79 75 80 76 81 77 82 53 83 54 84 63 85
REMARK SMILES IDX 55 86 56 87 62 88 64 89 57 90 58 91 59 92 60 93 61 94
REMARK H PARENT 85 44 51 55
REMARK Flexibility Score: inf
ROOT
ATOM      1  C   UNL     1      -6.439   2.999  -1.476  1.00  0.00     0.275 C 
ENDROOT
BRANCH   1   2
ATOM      2  O   UNL     1      -5.496   1.912  -1.442  1.00  0.00    -0.456 OA
BRANCH   2   3
ATOM      3  C   UNL     1      -4.302   2.124  -2.074  1.00  0.00     0.374 C 
ATOM      4  O   UNL     1      -4.077   3.059  -2.829  1.00  0.00    -0.242 OA
BRANCH   3   5
ATOM      5  C   UNL     1      -3.337   1.147  -1.622  1.00  0.00     0.211 A 
ATOM      6  C   UNL     1      -1.266   0.463  -1.194  1.00  0.00     0.118 A 
ATOM      7  C   UNL     1      -2.123  -0.385  -0.517  1.00  0.00     0.048 A 
ATOM      8  O   UNL     1      -2.014   1.360  -1.910  1.00  0.00    -0.453 OA
ATOM      9  C   UNL     1      -3.443   0.032  -0.814  1.00  0.00     0.058 A 
BRANCH   6  10
ATOM     10  C   UNL     1       0.216   0.707  -1.209  1.00  0.00     0.115 C 
ATOM     11  C   UNL     1       0.792   1.004  -2.592  1.00  0.00     0.028 C 
BRANCH  10  12
ATOM     12  S   UNL     1       1.264  -0.512  -0.311  1.00  0.00    -0.115 SA
BRANCH  12  13
ATOM     13  C   UNL     1       0.646  -2.130  -0.733  1.00  0.00     0.008 A 
ATOM     14  C   UNL     1       0.138  -2.485  -1.985  1.00  0.00     0.016 A 
ATOM     15  C   UNL     1       0.690  -3.103   0.278  1.00  0.00     0.016 A 
ATOM     16  C   UNL     1      -0.371  -3.766  -2.211  1.00  0.00     0.021 A 
ATOM     17  C   UNL     1       0.184  -4.388   0.064  1.00  0.00     0.021 A 
ATOM     18  C   UNL     1      -0.366  -4.703  -1.176  1.00  0.00     0.067 A 
BRANCH  18  19
ATOM     19  S   UNL     1      -1.076  -6.303  -1.462  1.00  0.00     0.175 S 
ATOM     20  C   UNL     1      -2.817  -5.965  -1.528  1.00  0.00     0.163 C 
ATOM     21  O   UNL     1      -0.647  -6.740  -2.776  1.00  0.00    -0.224 OA
ATOM     22  O   UNL     1      -0.833  -7.120  -0.288  1.00  0.00    -0.224 OA
ENDBRANCH  18  19
ENDBRANCH  12  13
ENDBRANCH  10  12
ENDBRANCH   6  10
ENDBRANCH   3   5
ENDBRANCH   2   3
ENDBRANCH   1   2
BRANCH   1  23
ATOM     23  C   UNL     1      -6.436   3.753  -0.140  1.00  0.00     0.275 C 
BRANCH  23  24
ATOM     24  O   UNL     1      -5.257   4.569   0.005  1.00  0.00    -0.458 OA
BRANCH  24  25
ATOM     25  C   UNL     1      -4.211   3.979   0.633  1.00  0.00     0.338 C 
ATOM     26  O   UNL     1      -4.184   2.855   1.106  1.00  0.00    -0.246 OA
BRANCH  25  27
ATOM     27  C   UNL     1      -3.026   4.853   0.542  1.00  0.00     0.060 A 
ATOM     28  C   UNL     1      -1.853   4.311   0.011  1.00  0.00     0.016 A 
ATOM     29  C   UNL     1      -3.048   6.171   1.001  1.00  0.00     0.016 A 
ATOM     30  C   UNL     1      -0.698   5.084  -0.073  1.00  0.00     0.010 A 
ATOM     31  C   UNL     1      -1.885   6.947   0.923  1.00  0.00     0.010 A 
ATOM     32  C   UNL     1      -0.703   6.405   0.389  1.00  0.00    -0.014 A 
BRANCH  32  33
ATOM     33  C   UNL     1       0.548   7.199   0.341  1.00  0.00     0.031 A 
ATOM     34  C   UNL     1       1.361   7.393   1.588  1.00  0.00     0.074 A 
ATOM     35  C   UNL     1       0.967   7.715  -0.830  1.00  0.00     0.049 A 
ATOM     36  N   UNL     1       2.473   8.062   1.753  1.00  0.00    -0.248 NA
ATOM     37  C   UNL     1       0.857   6.747   2.809  1.00  0.00     0.031 C 
ATOM     38  C   UNL     1       0.279   7.564  -2.112  1.00  0.00     0.029 A 
ATOM     39  N   UNL     1       2.075   8.466  -1.130  1.00  0.00    -0.354 N 
ATOM     40  C   UNL     1       2.799   7.928   3.097  1.00  0.00     0.074 A 
ATOM     41  C   UNL     1       1.755   7.129   3.706  1.00  0.00     0.031 C 
ATOM     42  C   UNL     1       0.983   8.199  -3.063  1.00  0.00     0.029 A 
ATOM     43  C   UNL     1       2.152   8.827  -2.453  1.00  0.00     0.049 A 
ATOM     44  H   UNL     1       2.751   8.722  -0.461  1.00  0.00     0.167 HD
ATOM     45  C   UNL     1       3.872   8.422   3.759  1.00  0.00     0.037 A 
ATOM     46  C   UNL     1       3.057   9.590  -3.098  1.00  0.00     0.037 A 
ATOM     47  C   UNL     1       4.910   9.211   3.148  1.00  0.00     0.049 A 
ATOM     48  C   UNL     1       4.215  10.166  -2.331  1.00  0.00     0.074 A 
ATOM     49  C   UNL     1       6.045   9.745   3.733  1.00  0.00     0.029 A 
ATOM     50  N   UNL     1       4.936   9.586   1.813  1.00  0.00    -0.354 N 
ATOM     51  N   UNL     1       4.515  10.024  -1.062  1.00  0.00    -0.248 NA
ATOM     52  C   UNL     1       5.156  11.010  -3.082  1.00  0.00     0.031 C 
ATOM     53  C   UNL     1       6.740  10.471   2.759  1.00  0.00     0.029 A 
ATOM     54  C   UNL     1       6.057  10.360   1.559  1.00  0.00     0.049 A 
ATOM     55  H   UNL     1       4.258   9.338   1.143  1.00  0.00     0.167 HD
ATOM     56  C   UNL     1       5.686  10.748  -0.865  1.00  0.00     0.074 A 
ATOM     57  C   UNL     1       6.046  11.317  -2.148  1.00  0.00     0.031 C 
ATOM     58  C   UNL     1       6.398  10.923   0.276  1.00  0.00     0.037 A 
BRANCH  45  59
ATOM     59  C   UNL     1       3.957   8.142   5.233  1.00  0.00     0.058 A 
ATOM     60  C   UNL     1       4.300   6.873   5.725  1.00  0.00     0.135 A 
ATOM     61  C   UNL     1       3.692   9.159   6.165  1.00  0.00     0.135 A 
ATOM     62  F   UNL     1       4.546   5.863   4.875  1.00  0.00    -0.206 F 
ATOM     63  C   UNL     1       4.345   6.612   7.091  1.00  0.00     0.059 A 
ATOM     64  C   UNL     1       3.752   8.925   7.535  1.00  0.00     0.059 A 
ATOM     65  F   UNL     1       3.359  10.389   5.746  1.00  0.00    -0.206 F 
ATOM     66  C   UNL     1       4.061   7.643   7.988  1.00  0.00     0.060 A 
BRANCH  66  67
ATOM     67  S   UNL     1       4.095   7.287   9.758  1.00  0.00     0.124 S 
ATOM     68  O   UNL     1       2.827   6.586   9.937  1.00  0.00    -0.237 OA
ATOM     69  O   UNL     1       5.295   6.469   9.894  1.00  0.00    -0.237 OA
ATOM     70  O   UNL     1       4.171   8.611  10.368  1.00  0.00    -0.744 OA
ENDBRANCH  66  67
ENDBRANCH  45  59
BRANCH  46  71
ATOM     71  C   UNL     1       2.893   9.854  -4.550  1.00  0.00     0.058 A 
ATOM     72  C   UNL     1       3.734   9.247  -5.494  1.00  0.00     0.135 A 
ATOM     73  C   UNL     1       1.875  10.695  -5.024  1.00  0.00     0.135 A 
ATOM     74  F   UNL     1       4.728   8.444  -5.088  1.00  0.00    -0.206 F 
ATOM     75  C   UNL     1       3.571   9.465  -6.859  1.00  0.00     0.059 A 
ATOM     76  C   UNL     1       1.680  10.913  -6.383  1.00  0.00     0.059 A 
ATOM     77  F   UNL     1       1.039  11.292  -4.159  1.00  0.00    -0.206 F 
ATOM     78  C   UNL     1       2.538  10.297  -7.294  1.00  0.00     0.060 A 
BRANCH  78  79
ATOM     79  S   UNL     1       2.288  10.519  -9.069  1.00  0.00     0.124 S 
ATOM     80  O   UNL     1       3.357  11.454  -9.401  1.00  0.00    -0.237 OA
ATOM     81  O   UNL     1       2.447   9.160  -9.577  1.00  0.00    -0.237 OA
ATOM     82  O   UNL     1       0.932  11.054  -9.150  1.00  0.00    -0.744 OA
ENDBRANCH  78  79
ENDBRANCH  46  71
BRANCH  58  83
ATOM     83  C   UNL     1       7.647  11.753   0.185  1.00  0.00     0.058 A 
ATOM     84  C   UNL     1       7.592  13.152   0.100  1.00  0.00     0.135 A 
ATOM     85  C   UNL     1       8.912  11.146   0.232  1.00  0.00     0.135 A 
ATOM     86  F   UNL     1       6.407  13.780   0.045  1.00  0.00    -0.206 F 
ATOM     87  C   UNL     1       8.750  13.922   0.046  1.00  0.00     0.059 A 
ATOM     88  C   UNL     1      10.083  11.897   0.200  1.00  0.00     0.059 A 
ATOM     89  F   UNL     1       9.018   9.811   0.322  1.00  0.00    -0.206 F 
ATOM     90  C   UNL     1       9.991  13.285   0.096  1.00  0.00     0.060 A 
BRANCH  90  91
ATOM     91  S   UNL     1      11.489  14.293   0.060  1.00  0.00     0.124 S 
ATOM     92  O   UNL     1      11.585  14.626  -1.358  1.00  0.00    -0.237 OA
ATOM     93  O   UNL     1      11.147  15.400   0.949  1.00  0.00    -0.237 OA
ATOM     94  O   UNL     1      12.518  13.389   0.565  1.00  0.00    -0.744 OA
ENDBRANCH  90  91
ENDBRANCH  58  83
ENDBRANCH  32  33
ENDBRANCH  25  27
ENDBRANCH  24  25
ENDBRANCH  23  24
ENDBRANCH   1  23
TORSDOF 18
