REMARK SMILES C[C@H](c1cccc(-c2cc(C(=O)OCCOC(=O)c3ccc(-c4c5nc(c(-c6c(F)cc(S(=O)(=O)[O-])cc6F)c6ccc([nH]6)c(-c6c(F)cc(S(=O)(=O)[O-])cc6F)c6nc(c(-c7c(F)cc(S(=O)(=O)[O-])cc7F)c7ccc4[nH]7)C=C6)C=C5)cc3)cc(S(=O)(=O)N3CCOCC3)c2)c1)[NH+](C)C
REMARK SMILES IDX 14 1 13 2 11 3 12 4 10 5 8 6 9 7 96 8 86 9 85 10 7 11 3 12
REMARK SMILES IDX 4 13 97 14 5 15 6 16 2 17 1 18 98 19 99 20 100 21 87 23
REMARK SMILES IDX 88 24 89 25 90 26 91 27 95 28 92 29 94 30 93 31 15 32 16 33
REMARK SMILES IDX 17 34 18 35 19 36 20 37 84 38 21 39 83 40 22 41 23 42 24 43
REMARK SMILES IDX 77 44 25 45 82 46 76 47 78 48 26 49 81 50 75 51 74 52 27 54
REMARK SMILES IDX 61 55 40 56 60 57 41 58 44 59 59 60 79 61 42 62 43 63 58 65
REMARK SMILES IDX 80 66 45 67 28 68 29 69 38 70 30 71 31 72 37 73 39 74 32 75
REMARK SMILES IDX 33 76 34 77 35 78 36 79 62 80 63 81 72 82 64 83 65 84 71 85
REMARK SMILES IDX 73 86 66 87 67 88 68 89 69 90 70 91 46 92 47 93 56 94 48 95
REMARK SMILES IDX 49 96 55 97 57 98 50 99 51 100 52 101 53 102 54 103
REMARK H PARENT 98 22 78 53 44 64
REMARK Flexibility Score: inf
ROOT
ATOM      1  C   UNL     1       2.615   9.052  -2.801  1.00  0.00     0.275 C 
ENDROOT
BRANCH   1   2
ATOM      2  O   UNL     1       2.835   8.100  -1.739  1.00  0.00    -0.458 OA
BRANCH   2   3
ATOM      3  C   UNL     1       1.750   7.396  -1.329  1.00  0.00     0.338 C 
ATOM      4  O   UNL     1       0.597   7.546  -1.692  1.00  0.00    -0.246 OA
BRANCH   3   5
ATOM      5  C   UNL     1       2.199   6.260  -0.491  1.00  0.00     0.062 A 
ATOM      6  C   UNL     1       2.120   3.857  -0.133  1.00  0.00    -0.016 A 
ATOM      7  C   UNL     1       1.601   5.006  -0.720  1.00  0.00     0.024 A 
ATOM      8  C   UNL     1       3.128   4.017   0.813  1.00  0.00     0.030 A 
ATOM      9  C   UNL     1       3.668   5.258   1.124  1.00  0.00     0.084 A 
ATOM     10  C   UNL     1       3.234   6.394   0.443  1.00  0.00     0.037 A 
BRANCH   6  11
ATOM     11  C   UNL     1       1.748   2.492  -0.517  1.00  0.00    -0.018 A 
ATOM     12  C   UNL     1       0.969   0.259   0.138  1.00  0.00     0.010 A 
ATOM     13  C   UNL     1       1.364  -0.228  -1.116  1.00  0.00     0.010 A 
ATOM     14  C   UNL     1       1.147   1.628   0.409  1.00  0.00     0.018 A 
ATOM     15  C   UNL     1       1.963   0.616  -2.049  1.00  0.00     0.001 A 
ATOM     16  C   UNL     1       2.164   1.963  -1.747  1.00  0.00     0.009 A 
BRANCH  12  17
ATOM     17  C   UNL     1       0.393  -0.703   1.177  1.00  0.00     0.211 C 
ATOM     18  C   UNL     1       1.030  -0.485   2.563  1.00  0.00     0.081 C 
BRANCH  17  19
ATOM     19  N   UNL     1      -1.082  -0.760   1.157  1.00  0.00    -0.334 N 
ATOM     20  C   UNL     1      -1.616  -1.800   2.034  1.00  0.00     0.333 C 
ATOM     21  C   UNL     1      -1.764   0.507   1.395  1.00  0.00     0.333 C 
ATOM     22  H   UNL     1      -1.289  -1.005   0.189  1.00  0.00     0.348 HD
ENDBRANCH  17  19
ENDBRANCH  12  17
ENDBRANCH   6  11
BRANCH   9  23
ATOM     23  S   UNL     1       4.938   5.383   2.357  1.00  0.00     0.243 S 
ATOM     24  O   UNL     1       6.141   5.801   1.661  1.00  0.00    -0.207 OA
ATOM     25  O   UNL     1       4.376   6.162   3.434  1.00  0.00    -0.207 OA
BRANCH  23  26
ATOM     26  N   UNL     1       5.175   3.815   2.912  1.00  0.00    -0.193 NA
ATOM     27  C   UNL     1       6.087   2.867   2.229  1.00  0.00     0.131 C 
ATOM     28  C   UNL     1       4.404   3.266   4.047  1.00  0.00     0.131 C 
ATOM     29  C   UNL     1       5.452   1.479   2.045  1.00  0.00     0.177 C 
ATOM     30  C   UNL     1       3.834   1.882   3.721  1.00  0.00     0.177 C 
ATOM     31  O   UNL     1       4.853   0.992   3.253  1.00  0.00    -0.379 OA
ENDBRANCH  23  26
ENDBRANCH   9  23
ENDBRANCH   3   5
ENDBRANCH   2   3
ENDBRANCH   1   2
BRANCH   1  32
ATOM     32  C   UNL     1       3.202   8.520  -4.109  1.00  0.00     0.275 C 
BRANCH  32  33
ATOM     33  O   UNL     1       2.437   7.380  -4.539  1.00  0.00    -0.458 OA
BRANCH  33  34
ATOM     34  C   UNL     1       3.139   6.271  -4.871  1.00  0.00     0.338 C 
ATOM     35  O   UNL     1       4.351   6.147  -4.920  1.00  0.00    -0.246 OA
BRANCH  34  36
ATOM     36  C   UNL     1       2.200   5.163  -5.133  1.00  0.00     0.060 A 
ATOM     37  C   UNL     1       1.251   4.846  -4.169  1.00  0.00     0.016 A 
ATOM     38  C   UNL     1       2.320   4.367  -6.268  1.00  0.00     0.016 A 
ATOM     39  C   UNL     1       0.507   3.672  -4.269  1.00  0.00     0.010 A 
ATOM     40  C   UNL     1       1.468   3.263  -6.433  1.00  0.00     0.010 A 
ATOM     41  C   UNL     1       0.575   2.872  -5.417  1.00  0.00    -0.014 A 
BRANCH  41  42
ATOM     42  C   UNL     1      -0.275   1.643  -5.546  1.00  0.00     0.031 A 
ATOM     43  C   UNL     1       0.337   0.313  -5.922  1.00  0.00     0.074 A 
ATOM     44  C   UNL     1      -1.609   1.702  -5.332  1.00  0.00     0.049 A 
ATOM     45  N   UNL     1      -0.254  -0.804  -6.268  1.00  0.00    -0.248 NA
ATOM     46  C   UNL     1       1.806   0.232  -5.929  1.00  0.00     0.031 C 
ATOM     47  C   UNL     1      -2.355   2.899  -4.938  1.00  0.00     0.029 A 
ATOM     48  N   UNL     1      -2.579   0.730  -5.417  1.00  0.00    -0.354 N 
ATOM     49  C   UNL     1       0.764  -1.693  -6.600  1.00  0.00     0.074 A 
ATOM     50  C   UNL     1       2.013  -0.988  -6.405  1.00  0.00     0.031 C 
ATOM     51  C   UNL     1      -3.646   2.583  -4.764  1.00  0.00     0.029 A 
ATOM     52  C   UNL     1      -3.848   1.192  -5.148  1.00  0.00     0.049 A 
ATOM     53  H   UNL     1      -2.385  -0.207  -5.647  1.00  0.00     0.167 HD
ATOM     54  C   UNL     1       0.668  -2.974  -7.035  1.00  0.00     0.037 A 
ATOM     55  C   UNL     1      -5.053   0.599  -5.253  1.00  0.00     0.037 A 
ATOM     56  C   UNL     1      -0.571  -3.697  -7.169  1.00  0.00     0.049 A 
ATOM     57  C   UNL     1      -5.141  -0.811  -5.754  1.00  0.00     0.074 A 
ATOM     58  C   UNL     1      -0.761  -5.014  -7.557  1.00  0.00     0.029 A 
ATOM     59  N   UNL     1      -1.830  -3.173  -6.916  1.00  0.00    -0.354 N 
ATOM     60  N   UNL     1      -4.171  -1.620  -6.106  1.00  0.00    -0.248 NA
ATOM     61  C   UNL     1      -6.487  -1.381  -5.902  1.00  0.00     0.031 C 
ATOM     62  C   UNL     1      -2.137  -5.271  -7.581  1.00  0.00     0.029 A 
ATOM     63  C   UNL     1      -2.803  -4.129  -7.167  1.00  0.00     0.049 A 
ATOM     64  H   UNL     1      -2.007  -2.256  -6.605  1.00  0.00     0.167 HD
ATOM     65  C   UNL     1      -4.788  -2.791  -6.526  1.00  0.00     0.074 A 
ATOM     66  C   UNL     1      -6.214  -2.597  -6.358  1.00  0.00     0.031 C 
ATOM     67  C   UNL     1      -4.221  -3.921  -7.016  1.00  0.00     0.037 A 
BRANCH  54  68
ATOM     68  C   UNL     1       1.939  -3.668  -7.448  1.00  0.00     0.058 A 
ATOM     69  C   UNL     1       2.896  -4.104  -6.519  1.00  0.00     0.135 A 
ATOM     70  C   UNL     1       2.189  -3.919  -8.809  1.00  0.00     0.135 A 
ATOM     71  F   UNL     1       2.716  -3.878  -5.208  1.00  0.00    -0.206 F 
ATOM     72  C   UNL     1       4.071  -4.731  -6.925  1.00  0.00     0.059 A 
ATOM     73  C   UNL     1       3.345  -4.567  -9.235  1.00  0.00     0.059 A 
ATOM     74  F   UNL     1       1.306  -3.528  -9.741  1.00  0.00    -0.206 F 
ATOM     75  C   UNL     1       4.290  -4.952  -8.286  1.00  0.00     0.060 A 
BRANCH  75  76
ATOM     76  S   UNL     1       5.828  -5.744  -8.801  1.00  0.00     0.124 S 
ATOM     77  O   UNL     1       6.786  -4.657  -8.628  1.00  0.00    -0.237 OA
ATOM     78  O   UNL     1       5.946  -6.848  -7.853  1.00  0.00    -0.237 OA
ATOM     79  O   UNL     1       5.564  -6.135 -10.183  1.00  0.00    -0.744 OA
ENDBRANCH  75  76
ENDBRANCH  54  68
BRANCH  55  80
ATOM     80  C   UNL     1      -6.279   1.383  -4.939  1.00  0.00     0.058 A 
ATOM     81  C   UNL     1      -7.032   1.123  -3.786  1.00  0.00     0.135 A 
ATOM     82  C   UNL     1      -6.679   2.455  -5.755  1.00  0.00     0.135 A 
ATOM     83  F   UNL     1      -6.702   0.099  -2.986  1.00  0.00    -0.206 F 
ATOM     84  C   UNL     1      -8.129   1.908  -3.442  1.00  0.00     0.059 A 
ATOM     85  C   UNL     1      -7.753   3.271  -5.417  1.00  0.00     0.059 A 
ATOM     86  F   UNL     1      -5.985   2.750  -6.865  1.00  0.00    -0.206 F 
ATOM     87  C   UNL     1      -8.473   2.989  -4.257  1.00  0.00     0.060 A 
BRANCH  87  88
ATOM     88  S   UNL     1      -9.828   4.068  -3.748  1.00  0.00     0.124 S 
ATOM     89  O   UNL     1     -10.992   3.261  -4.091  1.00  0.00    -0.237 OA
ATOM     90  O   UNL     1      -9.568   4.239  -2.321  1.00  0.00    -0.237 OA
ATOM     91  O   UNL     1      -9.626   5.265  -4.560  1.00  0.00    -0.744 OA
ENDBRANCH  87  88
ENDBRANCH  55  80
BRANCH  67  92
ATOM     92  C   UNL     1      -5.147  -5.037  -7.411  1.00  0.00     0.058 A 
ATOM     93  C   UNL     1      -5.914  -4.970  -8.585  1.00  0.00     0.135 A 
ATOM     94  C   UNL     1      -5.245  -6.197  -6.628  1.00  0.00     0.135 A 
ATOM     95  F   UNL     1      -5.864  -3.877  -9.363  1.00  0.00    -0.206 F 
ATOM     96  C   UNL     1      -6.762  -6.007  -8.958  1.00  0.00     0.059 A 
ATOM     97  C   UNL     1      -6.069  -7.257  -6.994  1.00  0.00     0.059 A 
ATOM     98  F   UNL     1      -4.527  -6.314  -5.499  1.00  0.00    -0.206 F 
ATOM     99  C   UNL     1      -6.833  -7.147  -8.155  1.00  0.00     0.060 A 
BRANCH  99 100
ATOM    100  S   UNL     1      -7.918  -8.499  -8.663  1.00  0.00     0.124 S 
ATOM    101  O   UNL     1      -9.232  -7.964  -8.324  1.00  0.00    -0.237 OA
ATOM    102  O   UNL     1      -7.628  -8.615 -10.089  1.00  0.00    -0.237 OA
ATOM    103  O   UNL     1      -7.466  -9.621  -7.845  1.00  0.00    -0.744 OA
ENDBRANCH  99 100
ENDBRANCH  67  92
ENDBRANCH  41  42
ENDBRANCH  34  36
ENDBRANCH  33  34
ENDBRANCH  32  33
ENDBRANCH   1  32
TORSDOF 19
