REMARK SMILES CC1(C)CSC[C@H](Nc2cc(C(=O)OCCOC(=O)c3ccc(-c4c5nc(c(-c6c(F)cc(S(=O)(=O)[O-])cc6F)c6ccc([nH]6)c(-c6c(F)cc(S(=O)(=O)[O-])cc6F)c6nc(c(-c7c(F)cc(S(=O)(=O)[O-])cc7F)c7ccc4[nH]7)C=C6)C=C5)cc3)ccc2F)C1
REMARK SMILES IDX 16 1 15 2 14 3 12 4 13 5 11 6 9 7 10 8 88 9 87 10 89 11
REMARK SMILES IDX 86 12 8 13 7 15 1 16 2 17 3 18 4 19 90 20 5 21 6 22 17 23
REMARK SMILES IDX 18 24 19 25 20 26 21 27 85 28 22 29 84 30 23 31 24 32 25 33
REMARK SMILES IDX 78 34 26 35 83 36 77 37 79 38 27 39 82 40 76 41 75 42 28 44
REMARK SMILES IDX 62 45 41 46 61 47 42 48 45 49 60 50 80 51 43 52 44 53 59 55
REMARK SMILES IDX 81 56 46 57 29 58 30 59 39 60 31 61 32 62 38 63 40 64 33 65
REMARK SMILES IDX 34 66 35 67 36 68 37 69 63 70 64 71 73 72 65 73 66 74 72 75
REMARK SMILES IDX 74 76 67 77 68 78 69 79 70 80 71 81 47 82 48 83 57 84 49 85
REMARK SMILES IDX 50 86 56 87 58 88 51 89 52 90 53 91 54 92 55 93
REMARK H PARENT 8 14 79 43 45 54
REMARK Flexibility Score: inf
ROOT
ATOM      1  C   UNL     1      -4.085 -10.164  -2.174  1.00  0.00     0.275 C 
ENDROOT
BRANCH   1   2
ATOM      2  C   UNL     1      -4.619  -9.000  -3.012  1.00  0.00     0.275 C 
BRANCH   2   3
ATOM      3  O   UNL     1      -3.593  -8.023  -3.295  1.00  0.00    -0.458 OA
BRANCH   3   4
ATOM      4  C   UNL     1      -3.628  -6.907  -2.525  1.00  0.00     0.338 C 
ATOM      5  O   UNL     1      -4.443  -6.651  -1.658  1.00  0.00    -0.246 OA
BRANCH   4   6
ATOM      6  C   UNL     1      -2.477  -6.020  -2.814  1.00  0.00     0.062 A 
ATOM      7  C   UNL     1      -0.779  -4.503  -1.900  1.00  0.00     0.071 A 
ATOM      8  C   UNL     1      -1.817  -5.421  -1.732  1.00  0.00     0.044 A 
ATOM      9  C   UNL     1      -0.470  -4.133  -3.212  1.00  0.00     0.146 A 
ATOM     10  C   UNL     1      -1.112  -4.722  -4.309  1.00  0.00     0.042 A 
ATOM     11  F   UNL     1       0.469  -3.204  -3.450  1.00  0.00    -0.205 F 
ATOM     12  C   UNL     1      -2.111  -5.681  -4.114  1.00  0.00     0.019 A 
BRANCH   7  13
ATOM     13  N   UNL     1      -0.217  -3.936  -0.758  1.00  0.00    -0.379 N 
ATOM     14  H   UNL     1       0.275  -4.500  -0.119  1.00  0.00     0.160 HD
BRANCH  13  15
ATOM     15  C   UNL     1      -0.359  -2.494  -0.508  1.00  0.00     0.089 C 
ATOM     16  C   UNL     1       1.159   0.238  -0.023  1.00  0.00     0.012 C 
ATOM     17  C   UNL     1       0.523  -0.623   1.088  1.00  0.00    -0.024 C 
ATOM     18  C   UNL     1       1.377  -0.439   2.362  1.00  0.00     0.012 C 
ATOM     19  C   UNL     1      -0.908  -0.146   1.414  1.00  0.00     0.076 C 
ATOM     20  C   UNL     1       0.544  -2.123   0.690  1.00  0.00     0.033 C 
ATOM     21  S   UNL     1      -2.096  -0.381   0.059  1.00  0.00    -0.159 SA
ATOM     22  C   UNL     1      -1.831  -2.155  -0.209  1.00  0.00     0.094 C 
ENDBRANCH  13  15
ENDBRANCH   7  13
ENDBRANCH   4   6
ENDBRANCH   3   4
ENDBRANCH   2   3
ENDBRANCH   1   2
BRANCH   1  23
ATOM     23  O   UNL     1      -3.799  -9.749  -0.825  1.00  0.00    -0.458 OA
BRANCH  23  24
ATOM     24  C   UNL     1      -2.492  -9.522  -0.570  1.00  0.00     0.338 C 
ATOM     25  O   UNL     1      -1.555  -9.649  -1.342  1.00  0.00    -0.246 OA
BRANCH  24  26
ATOM     26  C   UNL     1      -2.313  -8.989   0.787  1.00  0.00     0.060 A 
ATOM     27  C   UNL     1      -2.524  -7.630   0.978  1.00  0.00     0.016 A 
ATOM     28  C   UNL     1      -1.723  -9.748   1.792  1.00  0.00     0.016 A 
ATOM     29  C   UNL     1      -1.983  -6.987   2.085  1.00  0.00     0.010 A 
ATOM     30  C   UNL     1      -1.327  -9.122   2.983  1.00  0.00     0.010 A 
ATOM     31  C   UNL     1      -1.399  -7.723   3.124  1.00  0.00    -0.014 A 
BRANCH  31  32
ATOM     32  C   UNL     1      -0.857  -7.026   4.332  1.00  0.00     0.031 A 
ATOM     33  C   UNL     1       0.565  -7.269   4.786  1.00  0.00     0.074 A 
ATOM     34  C   UNL     1      -1.627  -6.147   5.013  1.00  0.00     0.049 A 
ATOM     35  N   UNL     1       1.151  -6.903   5.898  1.00  0.00    -0.248 NA
ATOM     36  C   UNL     1       1.441  -8.030   3.878  1.00  0.00     0.031 C 
ATOM     37  C   UNL     1      -2.999  -5.768   4.664  1.00  0.00     0.029 A 
ATOM     38  N   UNL     1      -1.363  -5.397   6.134  1.00  0.00    -0.354 N 
ATOM     39  C   UNL     1       2.441  -7.423   5.843  1.00  0.00     0.074 A 
ATOM     40  C   UNL     1       2.549  -8.150   4.598  1.00  0.00     0.031 C 
ATOM     41  C   UNL     1      -3.429  -4.817   5.504  1.00  0.00     0.029 A 
ATOM     42  C   UNL     1      -2.416  -4.602   6.528  1.00  0.00     0.049 A 
ATOM     43  H   UNL     1      -0.503  -5.426   6.612  1.00  0.00     0.167 HD
ATOM     44  C   UNL     1       3.447  -7.294   6.744  1.00  0.00     0.037 A 
ATOM     45  C   UNL     1      -2.579  -3.822   7.615  1.00  0.00     0.037 A 
ATOM     46  C   UNL     1       3.347  -6.527   7.960  1.00  0.00     0.049 A 
ATOM     47  C   UNL     1      -1.480  -3.767   8.638  1.00  0.00     0.074 A 
ATOM     48  C   UNL     1       4.304  -6.350   8.946  1.00  0.00     0.029 A 
ATOM     49  N   UNL     1       2.239  -5.788   8.345  1.00  0.00    -0.354 N 
ATOM     50  N   UNL     1      -0.297  -4.332   8.607  1.00  0.00    -0.248 NA
ATOM     51  C   UNL     1      -1.746  -2.988   9.854  1.00  0.00     0.031 C 
ATOM     52  C   UNL     1       3.761  -5.535   9.944  1.00  0.00     0.029 A 
ATOM     53  C   UNL     1       2.485  -5.160   9.556  1.00  0.00     0.049 A 
ATOM     54  H   UNL     1       1.400  -5.720   7.835  1.00  0.00     0.167 HD
ATOM     55  C   UNL     1       0.331  -3.956   9.788  1.00  0.00     0.074 A 
ATOM     56  C   UNL     1      -0.595  -3.099  10.500  1.00  0.00     0.031 C 
ATOM     57  C   UNL     1       1.561  -4.295  10.245  1.00  0.00     0.037 A 
BRANCH  44  58
ATOM     58  C   UNL     1       4.753  -7.990   6.464  1.00  0.00     0.058 A 
ATOM     59  C   UNL     1       5.170  -9.072   7.259  1.00  0.00     0.135 A 
ATOM     60  C   UNL     1       5.640  -7.527   5.479  1.00  0.00     0.135 A 
ATOM     61  F   UNL     1       4.362  -9.561   8.212  1.00  0.00    -0.206 F 
ATOM     62  C   UNL     1       6.428  -9.648   7.108  1.00  0.00     0.059 A 
ATOM     63  C   UNL     1       6.893  -8.106   5.292  1.00  0.00     0.059 A 
ATOM     64  F   UNL     1       5.285  -6.511   4.677  1.00  0.00    -0.206 F 
ATOM     65  C   UNL     1       7.286  -9.153   6.125  1.00  0.00     0.060 A 
BRANCH  65  66
ATOM     66  S   UNL     1       8.917  -9.909   5.947  1.00  0.00     0.124 S 
ATOM     67  O   UNL     1       9.566  -9.522   7.194  1.00  0.00    -0.237 OA
ATOM     68  O   UNL     1       8.583 -11.324   5.815  1.00  0.00    -0.237 OA
ATOM     69  O   UNL     1       9.450  -9.284   4.740  1.00  0.00    -0.744 OA
ENDBRANCH  65  66
ENDBRANCH  44  58
BRANCH  45  70
ATOM     70  C   UNL     1      -3.843  -3.058   7.812  1.00  0.00     0.058 A 
ATOM     71  C   UNL     1      -5.070  -3.706   8.025  1.00  0.00     0.135 A 
ATOM     72  C   UNL     1      -3.842  -1.655   7.794  1.00  0.00     0.135 A 
ATOM     73  F   UNL     1      -5.131  -5.047   8.045  1.00  0.00    -0.206 F 
ATOM     74  C   UNL     1      -6.252  -2.994   8.192  1.00  0.00     0.059 A 
ATOM     75  C   UNL     1      -5.007  -0.919   7.995  1.00  0.00     0.059 A 
ATOM     76  F   UNL     1      -2.693  -0.989   7.607  1.00  0.00    -0.206 F 
ATOM     77  C   UNL     1      -6.210  -1.600   8.180  1.00  0.00     0.060 A 
BRANCH  77  78
ATOM     78  S   UNL     1      -7.750  -0.695   8.439  1.00  0.00     0.124 S 
ATOM     79  O   UNL     1      -8.461  -0.968   7.194  1.00  0.00    -0.237 OA
ATOM     80  O   UNL     1      -8.287  -1.343   9.631  1.00  0.00    -0.237 OA
ATOM     81  O   UNL     1      -7.306   0.682   8.621  1.00  0.00    -0.744 OA
ENDBRANCH  77  78
ENDBRANCH  45  70
BRANCH  57  82
ATOM     82  C   UNL     1       1.999  -3.704  11.555  1.00  0.00     0.058 A 
ATOM     83  C   UNL     1       3.018  -2.739  11.592  1.00  0.00     0.135 A 
ATOM     84  C   UNL     1       1.447  -4.122  12.776  1.00  0.00     0.135 A 
ATOM     85  F   UNL     1       3.584  -2.307  10.454  1.00  0.00    -0.206 F 
ATOM     86  C   UNL     1       3.482  -2.217  12.794  1.00  0.00     0.059 A 
ATOM     87  C   UNL     1       1.873  -3.590  13.989  1.00  0.00     0.059 A 
ATOM     88  F   UNL     1       0.461  -5.033  12.793  1.00  0.00    -0.206 F 
ATOM     89  C   UNL     1       2.902  -2.648  13.988  1.00  0.00     0.060 A 
BRANCH  89  90
ATOM     90  S   UNL     1       3.494  -1.935  15.537  1.00  0.00     0.124 S 
ATOM     91  O   UNL     1       4.821  -2.528  15.651  1.00  0.00    -0.237 OA
ATOM     92  O   UNL     1       3.459  -0.504  15.249  1.00  0.00    -0.237 OA
ATOM     93  O   UNL     1       2.514  -2.394  16.517  1.00  0.00    -0.744 OA
ENDBRANCH  89  90
ENDBRANCH  57  82
ENDBRANCH  31  32
ENDBRANCH  24  26
ENDBRANCH  23  24
ENDBRANCH   1  23
TORSDOF 16
