REMARK SMILES C/C=C/C[C@@H](C(=O)OCCOC(=O)c1ccc(-c2c3nc(c(-c4c(F)cc(S(=O)(=O)[O-])cc4F)c4ccc([nH]4)c(-c4c(F)cc(S(=O)(=O)[O-])cc4F)c4nc(c(-c5c(F)cc(S(=O)(=O)[O-])cc5F)c5ccc2[nH]5)C=C4)C=C3)cc1)c1cccc(Cl)c1
REMARK SMILES IDX 10 1 9 2 8 3 6 4 7 5 5 6 4 7 3 8 1 9 2 10 80 11 81 12 86 13
REMARK SMILES IDX 82 14 84 15 83 16 85 17 11 18 12 19 13 20 14 21 15 22 79 23
REMARK SMILES IDX 16 24 78 25 17 26 18 27 19 28 72 29 20 30 77 31 71 32 73 33
REMARK SMILES IDX 21 34 76 35 70 36 69 37 22 39 56 40 35 41 55 42 36 43 39 44
REMARK SMILES IDX 54 45 74 46 37 47 38 48 53 50 75 51 40 52 23 53 24 54 33 55
REMARK SMILES IDX 25 56 26 57 32 58 34 59 27 60 28 61 29 62 30 63 31 64 57 65
REMARK SMILES IDX 58 66 67 67 59 68 60 69 66 70 68 71 61 72 62 73 63 74 64 75
REMARK SMILES IDX 65 76 41 77 42 78 51 79 43 80 44 81 50 82 52 83 45 84 46 85
REMARK SMILES IDX 47 86 48 87 49 88
REMARK H PARENT 73 38 39 49
REMARK Flexibility Score: inf
ROOT
ATOM      1  C   UNL     1      -2.599   4.303   2.645  1.00  0.00     0.275 C 
ENDROOT
BRANCH   1   2
ATOM      2  C   UNL     1      -1.073   4.297   2.798  1.00  0.00     0.274 C 
BRANCH   2   3
ATOM      3  O   UNL     1      -0.543   2.981   3.059  1.00  0.00    -0.462 OA
BRANCH   3   4
ATOM      4  C   UNL     1      -0.427   2.622   4.369  1.00  0.00     0.313 C 
ATOM      5  O   UNL     1      -0.720   3.397   5.271  1.00  0.00    -0.252 OA
BRANCH   4   6
ATOM      6  C   UNL     1       0.190   1.204   4.556  1.00  0.00     0.133 C 
BRANCH   6   7
ATOM      7  C   UNL     1      -0.385   0.189   3.518  1.00  0.00     0.047 C 
BRANCH   7   8
ATOM      8  C   UNL     1      -0.045   0.393   2.061  1.00  0.00    -0.030 C 
ATOM      9  C   UNL     1       1.063  -0.213  -0.095  1.00  0.00     0.035 C 
ATOM     10  C   UNL     1       0.785  -0.395   1.361  1.00  0.00    -0.035 C 
ENDBRANCH   7   8
ENDBRANCH   6   7
BRANCH   6  11
ATOM     11  C   UNL     1       0.068   0.691   6.027  1.00  0.00    -0.032 A 
ATOM     12  C   UNL     1       0.282   1.560   7.117  1.00  0.00     0.005 A 
ATOM     13  C   UNL     1      -0.246  -0.644   6.355  1.00  0.00     0.025 A 
ATOM     14  C   UNL     1       0.063   1.161   8.443  1.00  0.00     0.002 A 
ATOM     15  C   UNL     1      -0.429  -1.052   7.684  1.00  0.00     0.041 A 
ATOM     16  C   UNL     1      -0.305  -0.147   8.728  1.00  0.00     0.020 A 
ATOM     17  Cl  UNL     1      -0.847  -2.688   8.018  1.00  0.00    -0.084 Cl
ENDBRANCH   6  11
ENDBRANCH   4   6
ENDBRANCH   3   4
ENDBRANCH   2   3
ENDBRANCH   1   2
BRANCH   1  18
ATOM     18  O   UNL     1      -3.272   4.006   3.884  1.00  0.00    -0.458 OA
BRANCH  18  19
ATOM     19  C   UNL     1      -3.626   2.708   4.045  1.00  0.00     0.338 C 
ATOM     20  O   UNL     1      -3.512   1.821   3.209  1.00  0.00    -0.246 OA
BRANCH  19  21
ATOM     21  C   UNL     1      -3.995   2.436   5.449  1.00  0.00     0.060 A 
ATOM     22  C   UNL     1      -3.409   1.317   6.046  1.00  0.00     0.016 A 
ATOM     23  C   UNL     1      -4.906   3.212   6.170  1.00  0.00     0.016 A 
ATOM     24  C   UNL     1      -3.692   0.987   7.367  1.00  0.00     0.010 A 
ATOM     25  C   UNL     1      -5.220   2.857   7.493  1.00  0.00     0.010 A 
ATOM     26  C   UNL     1      -4.609   1.745   8.098  1.00  0.00    -0.014 A 
BRANCH  26  27
ATOM     27  C   UNL     1      -4.979   1.271   9.453  1.00  0.00     0.031 A 
ATOM     28  C   UNL     1      -6.099   0.282   9.598  1.00  0.00     0.074 A 
ATOM     29  C   UNL     1      -4.254   1.633  10.528  1.00  0.00     0.049 A 
ATOM     30  N   UNL     1      -6.567  -0.286  10.679  1.00  0.00    -0.248 NA
ATOM     31  C   UNL     1      -6.771  -0.134   8.357  1.00  0.00     0.031 C 
ATOM     32  C   UNL     1      -3.089   2.517  10.501  1.00  0.00     0.029 A 
ATOM     33  N   UNL     1      -4.387   1.292  11.851  1.00  0.00    -0.354 N 
ATOM     34  C   UNL     1      -7.589  -1.124  10.252  1.00  0.00     0.074 A 
ATOM     35  C   UNL     1      -7.678  -0.986   8.814  1.00  0.00     0.031 C 
ATOM     36  C   UNL     1      -2.622   2.659  11.755  1.00  0.00     0.029 A 
ATOM     37  C   UNL     1      -3.472   1.904  12.675  1.00  0.00     0.049 A 
ATOM     38  H   UNL     1      -5.074   0.668  12.180  1.00  0.00     0.167 HD
ATOM     39  C   UNL     1      -8.386  -1.930  10.993  1.00  0.00     0.037 A 
ATOM     40  C   UNL     1      -3.352   1.877  14.018  1.00  0.00     0.037 A 
ATOM     41  C   UNL     1      -8.309  -2.051  12.426  1.00  0.00     0.049 A 
ATOM     42  C   UNL     1      -4.309   1.036  14.829  1.00  0.00     0.074 A 
ATOM     43  C   UNL     1      -9.092  -2.824  13.267  1.00  0.00     0.029 A 
ATOM     44  N   UNL     1      -7.405  -1.377  13.233  1.00  0.00    -0.354 N 
ATOM     45  N   UNL     1      -5.279   0.255  14.415  1.00  0.00    -0.248 NA
ATOM     46  C   UNL     1      -4.155   1.073  16.291  1.00  0.00     0.031 C 
ATOM     47  C   UNL     1      -8.699  -2.573  14.585  1.00  0.00     0.029 A 
ATOM     48  C   UNL     1      -7.628  -1.695  14.564  1.00  0.00     0.049 A 
ATOM     49  H   UNL     1      -6.707  -0.762  12.909  1.00  0.00     0.167 HD
ATOM     50  C   UNL     1      -5.828  -0.314  15.562  1.00  0.00     0.074 A 
ATOM     51  C   UNL     1      -5.073   0.201  16.684  1.00  0.00     0.031 C 
ATOM     52  C   UNL     1      -6.863  -1.185  15.675  1.00  0.00     0.037 A 
BRANCH  39  53
ATOM     53  C   UNL     1      -9.458  -2.697  10.272  1.00  0.00     0.058 A 
ATOM     54  C   UNL     1      -9.165  -3.810   9.469  1.00  0.00     0.135 A 
ATOM     55  C   UNL     1     -10.805  -2.327  10.415  1.00  0.00     0.135 A 
ATOM     56  F   UNL     1      -7.892  -4.192   9.280  1.00  0.00    -0.206 F 
ATOM     57  C   UNL     1     -10.170  -4.519   8.818  1.00  0.00     0.059 A 
ATOM     58  C   UNL     1     -11.827  -3.036   9.795  1.00  0.00     0.059 A 
ATOM     59  F   UNL     1     -11.137  -1.265  11.166  1.00  0.00    -0.206 F 
ATOM     60  C   UNL     1     -11.499  -4.125   8.989  1.00  0.00     0.060 A 
BRANCH  60  61
ATOM     61  S   UNL     1     -12.794  -5.060   8.148  1.00  0.00     0.124 S 
ATOM     62  O   UNL     1     -12.589  -4.659   6.760  1.00  0.00    -0.237 OA
ATOM     63  O   UNL     1     -12.441  -6.439   8.468  1.00  0.00    -0.237 OA
ATOM     64  O   UNL     1     -14.023  -4.571   8.766  1.00  0.00    -0.744 OA
ENDBRANCH  60  61
ENDBRANCH  39  53
BRANCH  40  65
ATOM     65  C   UNL     1      -2.315   2.703  14.698  1.00  0.00     0.058 A 
ATOM     66  C   UNL     1      -1.258   2.115  15.409  1.00  0.00     0.135 A 
ATOM     67  C   UNL     1      -2.391   4.105  14.687  1.00  0.00     0.135 A 
ATOM     68  F   UNL     1      -1.147   0.779  15.465  1.00  0.00    -0.206 F 
ATOM     69  C   UNL     1      -0.330   2.884  16.107  1.00  0.00     0.059 A 
ATOM     70  C   UNL     1      -1.458   4.896  15.350  1.00  0.00     0.059 A 
ATOM     71  F   UNL     1      -3.378   4.721  14.018  1.00  0.00    -0.206 F 
ATOM     72  C   UNL     1      -0.440   4.276  16.072  1.00  0.00     0.060 A 
BRANCH  72  73
ATOM     73  S   UNL     1       0.779   5.268  16.960  1.00  0.00     0.124 S 
ATOM     74  O   UNL     1       0.377   5.057  18.346  1.00  0.00    -0.237 OA
ATOM     75  O   UNL     1       2.035   4.644  16.557  1.00  0.00    -0.237 OA
ATOM     76  O   UNL     1       0.561   6.614  16.437  1.00  0.00    -0.744 OA
ENDBRANCH  72  73
ENDBRANCH  40  65
BRANCH  52  77
ATOM     77  C   UNL     1      -7.213  -1.678  17.055  1.00  0.00     0.058 A 
ATOM     78  C   UNL     1      -7.808  -0.846  18.017  1.00  0.00     0.135 A 
ATOM     79  C   UNL     1      -6.982  -3.019  17.407  1.00  0.00     0.135 A 
ATOM     80  F   UNL     1      -8.051   0.444  17.736  1.00  0.00    -0.206 F 
ATOM     81  C   UNL     1      -8.126  -1.314  19.289  1.00  0.00     0.059 A 
ATOM     82  C   UNL     1      -7.322  -3.516  18.662  1.00  0.00     0.059 A 
ATOM     83  F   UNL     1      -6.430  -3.865  16.523  1.00  0.00    -0.206 F 
ATOM     84  C   UNL     1      -7.877  -2.651  19.603  1.00  0.00     0.060 A 
BRANCH  84  85
ATOM     85  S   UNL     1      -8.303  -3.250  21.252  1.00  0.00     0.124 S 
ATOM     86  O   UNL     1      -7.247  -2.652  22.064  1.00  0.00    -0.237 OA
ATOM     87  O   UNL     1      -9.641  -2.703  21.449  1.00  0.00    -0.237 OA
ATOM     88  O   UNL     1      -8.241  -4.702  21.114  1.00  0.00    -0.744 OA
ENDBRANCH  84  85
ENDBRANCH  52  77
ENDBRANCH  26  27
ENDBRANCH  19  21
ENDBRANCH  18  19
ENDBRANCH   1  18
TORSDOF 17
