REMARK SMILES C[C@@H]1[C@H](C)CCC[C@H]1NC(=O)C[N@H+]1CCC[C@@H]1C(=O)OCCOC(=O)c1ccc(-c2c3nc(c(-c4c(F)cc(S(=O)(=O)[O-])cc4F)c4ccc([nH]4)c(-c4c(F)cc(S(=O)(=O)[O-])cc4F)c4nc(c(-c5c(F)cc(S(=O)(=O)[O-])cc5F)c5ccc2[nH]5)C=C4)C=C3)cc1
REMARK SMILES IDX 21 1 20 2 18 3 19 4 17 5 13 6 14 7 15 9 16 10 12 11 10 12
REMARK SMILES IDX 9 13 11 15 8 16 1 17 2 18 3 19 4 20 5 21 7 22 6 23 22 24
REMARK SMILES IDX 23 25 24 26 25 27 26 28 27 29 91 30 28 31 90 32 29 33 30 34
REMARK SMILES IDX 31 35 84 36 32 37 89 38 83 39 85 40 33 41 88 42 82 43 81 44
REMARK SMILES IDX 34 46 68 47 47 48 67 49 48 50 51 51 66 52 86 53 49 54 50 55
REMARK SMILES IDX 65 57 87 58 52 59 35 60 36 61 45 62 37 63 38 64 44 65 46 66
REMARK SMILES IDX 39 67 40 68 41 69 42 70 43 71 69 72 70 73 79 74 71 75 72 76
REMARK SMILES IDX 78 77 80 78 73 79 74 80 75 81 76 82 77 83 53 84 54 85 63 86
REMARK SMILES IDX 55 87 56 88 62 89 64 90 57 91 58 92 59 93 60 94 61 95
REMARK H PARENT 13 8 9 14 85 45 51 56
REMARK Flexibility Score: inf
ROOT
ATOM      1  C   UNL     1      -3.284   4.226   1.760  1.00  0.00     0.274 C 
ENDROOT
BRANCH   1   2
ATOM      2  O   UNL     1      -1.926   3.801   2.020  1.00  0.00    -0.458 OA
BRANCH   2   3
ATOM      3  C   UNL     1      -1.143   4.696   2.681  1.00  0.00     0.365 C 
ATOM      4  O   UNL     1      -1.549   5.759   3.146  1.00  0.00    -0.245 OA
BRANCH   3   5
ATOM      5  C   UNL     1       0.337   4.307   2.758  1.00  0.00     0.295 C 
ATOM      6  N   UNL     1       1.131   4.531   1.556  1.00  0.00    -0.315 N 
ATOM      7  C   UNL     1       2.457   4.019   1.768  1.00  0.00     0.263 C 
ATOM      8  H   UNL     1       0.552   4.171   0.797  1.00  0.00     0.349 HD
ATOM      9  C   UNL     1       2.102   2.669   2.368  1.00  0.00     0.068 C 
ATOM     10  C   UNL     1       0.712   2.845   2.998  1.00  0.00     0.083 C 
BRANCH   6  11
ATOM     11  C   UNL     1       0.817   5.408   0.460  1.00  0.00     0.364 C 
BRANCH  11  12
ATOM     12  C   UNL     1      -0.414   4.899  -0.305  1.00  0.00     0.275 C 
ATOM     13  N   UNL     1      -0.456   3.648  -0.855  1.00  0.00    -0.348 N 
ATOM     14  H   UNL     1      -1.360   3.340  -1.093  1.00  0.00     0.163 HD
ATOM     15  O   UNL     1      -1.416   5.608  -0.438  1.00  0.00    -0.268 OA
BRANCH  13  16
ATOM     16  C   UNL     1       0.610   2.685  -1.152  1.00  0.00     0.085 C 
ATOM     17  C   UNL     1       1.546   0.379  -0.603  1.00  0.00     0.010 C 
ATOM     18  C   UNL     1       0.293   1.277  -0.578  1.00  0.00     0.011 C 
ATOM     19  C   UNL     1      -0.910   0.619  -1.301  1.00  0.00    -0.009 C 
ATOM     20  C   UNL     1      -1.229  -0.779  -0.762  1.00  0.00     0.008 C 
ATOM     21  C   UNL     1      -0.707   0.581  -2.823  1.00  0.00     0.004 C 
ATOM     22  C   UNL     1       0.811   2.619  -2.673  1.00  0.00     0.025 C 
ATOM     23  C   UNL     1      -0.365   1.956  -3.393  1.00  0.00     0.002 C 
ENDBRANCH  13  16
ENDBRANCH  11  12
ENDBRANCH   6  11
ENDBRANCH   3   5
ENDBRANCH   2   3
ENDBRANCH   1   2
BRANCH   1  24
ATOM     24  C   UNL     1      -4.301   3.181   2.217  1.00  0.00     0.275 C 
BRANCH  24  25
ATOM     25  O   UNL     1      -4.163   2.926   3.623  1.00  0.00    -0.458 OA
BRANCH  25  26
ATOM     26  C   UNL     1      -3.351   1.883   3.908  1.00  0.00     0.338 C 
ATOM     27  O   UNL     1      -2.851   1.091   3.129  1.00  0.00    -0.246 OA
BRANCH  26  28
ATOM     28  C   UNL     1      -2.977   1.945   5.324  1.00  0.00     0.060 A 
ATOM     29  C   UNL     1      -1.673   2.344   5.606  1.00  0.00     0.016 A 
ATOM     30  C   UNL     1      -3.826   1.525   6.340  1.00  0.00     0.016 A 
ATOM     31  C   UNL     1      -1.166   2.250   6.891  1.00  0.00     0.010 A 
ATOM     32  C   UNL     1      -3.334   1.472   7.649  1.00  0.00     0.010 A 
ATOM     33  C   UNL     1      -1.992   1.800   7.924  1.00  0.00    -0.014 A 
BRANCH  33  34
ATOM     34  C   UNL     1      -1.417   1.603   9.274  1.00  0.00     0.031 A 
ATOM     35  C   UNL     1      -1.240   0.207   9.802  1.00  0.00     0.074 A 
ATOM     36  C   UNL     1      -1.017   2.666   9.995  1.00  0.00     0.049 A 
ATOM     37  N   UNL     1      -0.861  -0.185  10.990  1.00  0.00    -0.248 NA
ATOM     38  C   UNL     1      -1.531  -0.894   8.869  1.00  0.00     0.031 C 
ATOM     39  C   UNL     1      -1.081   4.061   9.551  1.00  0.00     0.029 A 
ATOM     40  N   UNL     1      -0.477   2.741  11.252  1.00  0.00    -0.354 N 
ATOM     41  C   UNL     1      -0.904  -1.574  10.961  1.00  0.00     0.074 A 
ATOM     42  C   UNL     1      -1.353  -1.957   9.640  1.00  0.00     0.031 C 
ATOM     43  C   UNL     1      -0.594   4.852  10.520  1.00  0.00     0.029 A 
ATOM     44  C   UNL     1      -0.241   4.029  11.672  1.00  0.00     0.049 A 
ATOM     45  H   UNL     1      -0.277   1.949  11.802  1.00  0.00     0.167 HD
ATOM     46  C   UNL     1      -0.598  -2.446  11.951  1.00  0.00     0.037 A 
ATOM     47  C   UNL     1       0.178   4.492  12.865  1.00  0.00     0.037 A 
ATOM     48  C   UNL     1      -0.127  -2.046  13.251  1.00  0.00     0.049 A 
ATOM     49  C   UNL     1       0.471   3.506  13.962  1.00  0.00     0.074 A 
ATOM     50  C   UNL     1       0.213  -2.845  14.329  1.00  0.00     0.029 A 
ATOM     51  N   UNL     1       0.078  -0.732  13.648  1.00  0.00    -0.354 N 
ATOM     52  N   UNL     1       0.390   2.196  13.936  1.00  0.00    -0.248 NA
ATOM     53  C   UNL     1       0.903   4.058  15.252  1.00  0.00     0.031 C 
ATOM     54  C   UNL     1       0.590  -2.011  15.388  1.00  0.00     0.029 A 
ATOM     55  C   UNL     1       0.527  -0.695  14.957  1.00  0.00     0.049 A 
ATOM     56  H   UNL     1      -0.073   0.059  13.081  1.00  0.00     0.167 HD
ATOM     57  C   UNL     1       0.778   1.766  15.199  1.00  0.00     0.074 A 
ATOM     58  C   UNL     1       1.108   2.955  15.960  1.00  0.00     0.031 C 
ATOM     59  C   UNL     1       0.853   0.503  15.689  1.00  0.00     0.037 A 
BRANCH  46  60
ATOM     60  C   UNL     1      -0.802  -3.909  11.675  1.00  0.00     0.058 A 
ATOM     61  C   UNL     1       0.051  -4.633  10.828  1.00  0.00     0.135 A 
ATOM     62  C   UNL     1      -1.864  -4.601  12.282  1.00  0.00     0.135 A 
ATOM     63  F   UNL     1       1.068  -4.017  10.206  1.00  0.00    -0.206 F 
ATOM     64  C   UNL     1      -0.157  -5.986  10.571  1.00  0.00     0.059 A 
ATOM     65  C   UNL     1      -2.076  -5.958  12.058  1.00  0.00     0.059 A 
ATOM     66  F   UNL     1      -2.713  -3.955  13.097  1.00  0.00    -0.206 F 
ATOM     67  C   UNL     1      -1.226  -6.638  11.188  1.00  0.00     0.060 A 
BRANCH  67  68
ATOM     68  S   UNL     1      -1.487  -8.391  10.842  1.00  0.00     0.124 S 
ATOM     69  O   UNL     1      -2.042  -8.341   9.492  1.00  0.00    -0.237 OA
ATOM     70  O   UNL     1      -0.138  -8.937  10.951  1.00  0.00    -0.237 OA
ATOM     71  O   UNL     1      -2.416  -8.809  11.887  1.00  0.00    -0.744 OA
ENDBRANCH  67  68
ENDBRANCH  46  60
BRANCH  47  72
ATOM     72  C   UNL     1       0.314   5.955  13.088  1.00  0.00     0.058 A 
ATOM     73  C   UNL     1       1.573   6.552  13.240  1.00  0.00     0.135 A 
ATOM     74  C   UNL     1      -0.815   6.789  13.137  1.00  0.00     0.135 A 
ATOM     75  F   UNL     1       2.681   5.796  13.208  1.00  0.00    -0.206 F 
ATOM     76  C   UNL     1       1.710   7.921  13.446  1.00  0.00     0.059 A 
ATOM     77  C   UNL     1      -0.703   8.164  13.315  1.00  0.00     0.059 A 
ATOM     78  F   UNL     1      -2.043   6.269  12.984  1.00  0.00    -0.206 F 
ATOM     79  C   UNL     1       0.565   8.720  13.480  1.00  0.00     0.060 A 
BRANCH  79  80
ATOM     80  S   UNL     1       0.754  10.502  13.699  1.00  0.00     0.124 S 
ATOM     81  O   UNL     1       1.061  10.591  15.121  1.00  0.00    -0.237 OA
ATOM     82  O   UNL     1       1.853  10.810  12.788  1.00  0.00    -0.237 OA
ATOM     83  O   UNL     1      -0.547  11.029  13.298  1.00  0.00    -0.744 OA
ENDBRANCH  79  80
ENDBRANCH  47  72
BRANCH  59  84
ATOM     84  C   UNL     1       1.340   0.347  17.101  1.00  0.00     0.058 A 
ATOM     85  C   UNL     1       0.529   0.671  18.199  1.00  0.00     0.135 A 
ATOM     86  C   UNL     1       2.622  -0.165  17.356  1.00  0.00     0.135 A 
ATOM     87  F   UNL     1      -0.702   1.171  18.006  1.00  0.00    -0.206 F 
ATOM     88  C   UNL     1       0.983   0.517  19.505  1.00  0.00     0.059 A 
ATOM     89  C   UNL     1       3.086  -0.351  18.653  1.00  0.00     0.059 A 
ATOM     90  F   UNL     1       3.431  -0.500  16.339  1.00  0.00    -0.206 F 
ATOM     91  C   UNL     1       2.264   0.007  19.721  1.00  0.00     0.060 A 
BRANCH  91  92
ATOM     92  S   UNL     1       2.837  -0.210  21.419  1.00  0.00     0.124 S 
ATOM     93  O   UNL     1       3.161   1.161  21.797  1.00  0.00    -0.237 OA
ATOM     94  O   UNL     1       1.667  -0.788  22.075  1.00  0.00    -0.237 OA
ATOM     95  O   UNL     1       3.977  -1.111  21.280  1.00  0.00    -0.744 OA
ENDBRANCH  91  92
ENDBRANCH  59  84
ENDBRANCH  33  34
ENDBRANCH  26  28
ENDBRANCH  25  26
ENDBRANCH  24  25
ENDBRANCH   1  24
TORSDOF 17
