REMARK SMILES O=C(OCCOC(=O)c1cnccc1C(=O)N1CCC(Cc2ccccc2)CC1)c1ccc(-c2c3nc(c(-c4c(F)cc(S(=O)(=O)[O-])cc4F)c4ccc([nH]4)c(-c4c(F)cc(S(=O)(=O)[O-])cc4F)c4nc(c(-c5c(F)cc(S(=O)(=O)[O-])cc5F)c5ccc2[nH]5)C=C4)C=C3)cc1
REMARK SMILES IDX 4 1 3 2 2 3 1 4 30 5 31 6 95 7 32 8 94 9 33 10 34 11 35 12
REMARK SMILES IDX 88 13 36 14 93 15 87 16 89 17 37 18 92 19 86 20 85 21 38 23
REMARK SMILES IDX 72 24 51 25 71 26 52 27 55 28 70 29 90 30 53 31 54 32 69 34
REMARK SMILES IDX 91 35 56 36 39 37 40 38 49 39 41 40 42 41 48 42 50 43 43 44
REMARK SMILES IDX 44 45 45 46 46 47 47 48 73 49 74 50 83 51 75 52 76 53 82 54
REMARK SMILES IDX 84 55 77 56 78 57 79 58 80 59 81 60 57 61 58 62 67 63 59 64
REMARK SMILES IDX 60 65 66 66 68 67 61 68 62 69 63 70 64 71 65 72 5 73 6 74
REMARK SMILES IDX 7 75 8 76 9 77 10 78 14 79 11 80 13 81 12 82 15 83 16 84
REMARK SMILES IDX 17 85 18 86 29 87 19 88 28 89 20 90 21 91 22 92 23 93 27 94
REMARK SMILES IDX 24 95 26 96 25 97
REMARK H PARENT 89 22 55 33
REMARK Flexibility Score: inf
ROOT
ATOM      1  C   UNL     1       4.053  -0.347  -1.417  1.00  0.00     0.275 C 
ENDROOT
BRANCH   1   2
ATOM      2  O   UNL     1       3.072  -1.279  -0.932  1.00  0.00    -0.458 OA
BRANCH   2   3
ATOM      3  C   UNL     1       2.665  -1.535   0.333  1.00  0.00     0.338 C 
ATOM      4  O   UNL     1       1.585  -2.108   0.479  1.00  0.00    -0.246 OA
BRANCH   3   5
ATOM      5  C   UNL     1       3.419  -1.137   1.572  1.00  0.00     0.060 A 
ATOM      6  C   UNL     1       4.725  -0.637   1.622  1.00  0.00     0.016 A 
ATOM      7  C   UNL     1       2.724  -1.259   2.790  1.00  0.00     0.016 A 
ATOM      8  C   UNL     1       5.292  -0.199   2.821  1.00  0.00     0.010 A 
ATOM      9  C   UNL     1       3.291  -0.841   3.998  1.00  0.00     0.010 A 
ATOM     10  C   UNL     1       4.584  -0.312   4.016  1.00  0.00    -0.014 A 
BRANCH  10  11
ATOM     11  C   UNL     1       5.292  -0.090   5.294  1.00  0.00     0.031 A 
ATOM     12  C   UNL     1       5.876  -1.286   5.972  1.00  0.00     0.074 A 
ATOM     13  C   UNL     1       5.479   1.144   5.794  1.00  0.00     0.049 A 
ATOM     14  N   UNL     1       6.585  -1.342   7.062  1.00  0.00    -0.248 NA
ATOM     15  C   UNL     1       5.673  -2.585   5.306  1.00  0.00     0.031 C 
ATOM     16  C   UNL     1       5.071   2.368   5.127  1.00  0.00     0.029 A 
ATOM     17  N   UNL     1       6.049   1.585   6.959  1.00  0.00    -0.354 N 
ATOM     18  C   UNL     1       6.946  -2.673   7.196  1.00  0.00     0.074 A 
ATOM     19  C   UNL     1       6.334  -3.402   6.109  1.00  0.00     0.031 C 
ATOM     20  C   UNL     1       5.324   3.425   5.915  1.00  0.00     0.029 A 
ATOM     21  C   UNL     1       5.938   2.946   7.145  1.00  0.00     0.049 A 
ATOM     22  H   UNL     1       6.496   0.987   7.601  1.00  0.00     0.167 HD
ATOM     23  C   UNL     1       7.740  -3.225   8.137  1.00  0.00     0.037 A 
ATOM     24  C   UNL     1       6.292   3.713   8.194  1.00  0.00     0.037 A 
ATOM     25  C   UNL     1       8.295  -2.482   9.234  1.00  0.00     0.049 A 
ATOM     26  C   UNL     1       7.038   3.046   9.316  1.00  0.00     0.074 A 
ATOM     27  C   UNL     1       9.078  -2.940  10.275  1.00  0.00     0.029 A 
ATOM     28  N   UNL     1       8.100  -1.121   9.442  1.00  0.00    -0.354 N 
ATOM     29  N   UNL     1       7.392   1.786   9.425  1.00  0.00    -0.248 NA
ATOM     30  C   UNL     1       7.469   3.893  10.434  1.00  0.00     0.031 C 
ATOM     31  C   UNL     1       9.304  -1.869  11.147  1.00  0.00     0.029 A 
ATOM     32  C   UNL     1       8.718  -0.729  10.616  1.00  0.00     0.049 A 
ATOM     33  H   UNL     1       7.597  -0.525   8.842  1.00  0.00     0.167 HD
ATOM     34  C   UNL     1       8.127   1.696  10.599  1.00  0.00     0.074 A 
ATOM     35  C   UNL     1       8.164   3.031  11.165  1.00  0.00     0.031 C 
ATOM     36  C   UNL     1       8.731   0.613  11.150  1.00  0.00     0.037 A 
BRANCH  23  37
ATOM     37  C   UNL     1       7.987  -4.699   8.029  1.00  0.00     0.058 A 
ATOM     38  C   UNL     1       8.790  -5.242   7.011  1.00  0.00     0.135 A 
ATOM     39  C   UNL     1       7.370  -5.586   8.924  1.00  0.00     0.135 A 
ATOM     40  F   UNL     1       9.368  -4.439   6.104  1.00  0.00    -0.206 F 
ATOM     41  C   UNL     1       8.953  -6.616   6.871  1.00  0.00     0.059 A 
ATOM     42  C   UNL     1       7.540  -6.962   8.818  1.00  0.00     0.059 A 
ATOM     43  F   UNL     1       6.574  -5.118   9.897  1.00  0.00    -0.206 F 
ATOM     44  C   UNL     1       8.321  -7.467   7.780  1.00  0.00     0.060 A 
BRANCH  44  45
ATOM     45  S   UNL     1       8.535  -9.248   7.581  1.00  0.00     0.124 S 
ATOM     46  O   UNL     1       7.740  -9.505   6.384  1.00  0.00    -0.237 OA
ATOM     47  O   UNL     1       9.980  -9.370   7.420  1.00  0.00    -0.237 OA
ATOM     48  O   UNL     1       7.995  -9.796   8.822  1.00  0.00    -0.744 OA
ENDBRANCH  44  45
ENDBRANCH  23  37
BRANCH  24  49
ATOM     49  C   UNL     1       5.961   5.166   8.220  1.00  0.00     0.058 A 
ATOM     50  C   UNL     1       6.956   6.152   8.145  1.00  0.00     0.135 A 
ATOM     51  C   UNL     1       4.628   5.600   8.325  1.00  0.00     0.135 A 
ATOM     52  F   UNL     1       8.245   5.797   8.046  1.00  0.00    -0.206 F 
ATOM     53  C   UNL     1       6.647   7.511   8.200  1.00  0.00     0.059 A 
ATOM     54  C   UNL     1       4.292   6.952   8.360  1.00  0.00     0.059 A 
ATOM     55  F   UNL     1       3.632   4.702   8.388  1.00  0.00    -0.206 F 
ATOM     56  C   UNL     1       5.311   7.901   8.309  1.00  0.00     0.060 A 
BRANCH  56  57
ATOM     57  S   UNL     1       4.925   9.666   8.370  1.00  0.00     0.124 S 
ATOM     58  O   UNL     1       5.470  10.043   9.670  1.00  0.00    -0.237 OA
ATOM     59  O   UNL     1       5.643  10.177   7.207  1.00  0.00    -0.237 OA
ATOM     60  O   UNL     1       3.470   9.699   8.266  1.00  0.00    -0.744 OA
ENDBRANCH  56  57
ENDBRANCH  24  49
BRANCH  36  61
ATOM     61  C   UNL     1       9.507   0.836  12.415  1.00  0.00     0.058 A 
ATOM     62  C   UNL     1       8.868   1.080  13.639  1.00  0.00     0.135 A 
ATOM     63  C   UNL     1      10.908   0.731  12.408  1.00  0.00     0.135 A 
ATOM     64  F   UNL     1       7.532   1.196  13.694  1.00  0.00    -0.206 F 
ATOM     65  C   UNL     1       9.594   1.233  14.813  1.00  0.00     0.059 A 
ATOM     66  C   UNL     1      11.650   0.848  13.576  1.00  0.00     0.059 A 
ATOM     67  F   UNL     1      11.563   0.487  11.262  1.00  0.00    -0.206 F 
ATOM     68  C   UNL     1      10.985   1.109  14.772  1.00  0.00     0.060 A 
BRANCH  68  69
ATOM     69  S   UNL     1      11.910   1.260  16.313  1.00  0.00     0.124 S 
ATOM     70  O   UNL     1      11.830   2.695  16.563  1.00  0.00    -0.237 OA
ATOM     71  O   UNL     1      11.142   0.413  17.221  1.00  0.00    -0.237 OA
ATOM     72  O   UNL     1      13.235   0.755  15.965  1.00  0.00    -0.744 OA
ENDBRANCH  68  69
ENDBRANCH  36  61
ENDBRANCH  10  11
ENDBRANCH   3   5
ENDBRANCH   2   3
ENDBRANCH   1   2
BRANCH   1  73
ATOM     73  C   UNL     1       3.689   1.116  -1.186  1.00  0.00     0.275 C 
BRANCH  73  74
ATOM     74  O   UNL     1       3.279   1.372   0.168  1.00  0.00    -0.458 OA
BRANCH  74  75
ATOM     75  C   UNL     1       2.084   1.978   0.346  1.00  0.00     0.340 C 
ATOM     76  O   UNL     1       1.289   2.303  -0.529  1.00  0.00    -0.246 OA
BRANCH  75  77
ATOM     77  C   UNL     1       1.791   2.138   1.767  1.00  0.00     0.091 A 
ATOM     78  C   UNL     1       0.768   1.325   2.249  1.00  0.00     0.127 A 
ATOM     79  C   UNL     1       2.390   3.041   2.648  1.00  0.00     0.057 A 
ATOM     80  N   UNL     1       0.354   1.297   3.538  1.00  0.00    -0.264 NA
ATOM     81  C   UNL     1       1.945   3.039   3.985  1.00  0.00     0.035 A 
ATOM     82  C   UNL     1       0.964   2.148   4.384  1.00  0.00     0.112 A 
BRANCH  79  83
ATOM     83  C   UNL     1       3.514   3.990   2.348  1.00  0.00     0.254 C 
ATOM     84  O   UNL     1       3.888   4.788   3.203  1.00  0.00    -0.269 OA
ATOM     85  N   UNL     1       4.203   3.860   1.158  1.00  0.00    -0.339 N 
ATOM     86  C   UNL     1       5.627   3.518   1.205  1.00  0.00     0.120 C 
ATOM     87  C   UNL     1       3.675   4.508  -0.033  1.00  0.00     0.120 C 
ATOM     88  C   UNL     1       6.550   4.554   0.561  1.00  0.00     0.025 C 
ATOM     89  C   UNL     1       4.594   5.588  -0.565  1.00  0.00     0.025 C 
ATOM     90  C   UNL     1       6.000   5.012  -0.797  1.00  0.00    -0.003 C 
BRANCH  90  91
ATOM     91  C   UNL     1       6.860   6.076  -1.491  1.00  0.00     0.039 C 
BRANCH  91  92
ATOM     92  C   UNL     1       8.268   5.659  -1.833  1.00  0.00    -0.048 A 
ATOM     93  C   UNL     1       9.347   6.356  -1.275  1.00  0.00     0.004 A 
ATOM     94  C   UNL     1       8.526   4.625  -2.743  1.00  0.00     0.004 A 
ATOM     95  C   UNL     1      10.658   6.037  -1.626  1.00  0.00     0.000 A 
ATOM     96  C   UNL     1       9.840   4.303  -3.092  1.00  0.00     0.000 A 
ATOM     97  C   UNL     1      10.905   5.013  -2.537  1.00  0.00     0.000 A 
ENDBRANCH  91  92
ENDBRANCH  90  91
ENDBRANCH  79  83
ENDBRANCH  75  77
ENDBRANCH  74  75
ENDBRANCH  73  74
ENDBRANCH   1  73
TORSDOF 17
