REMARK SMILES O=C(Cc1csc(NC(=O)[C@H]2CC(=O)N(C3CC3)C2)n1)OCCOC(=O)c1ccc(-c2c3nc(c(-c4c(F)cc(S(=O)(=O)[O-])cc4F)c4ccc([nH]4)c(-c4c(F)cc(S(=O)(=O)[O-])cc4F)c4nc(c(-c5c(F)cc(S(=O)(=O)[O-])cc5F)c5ccc2[nH]5)C=C4)C=C3)cc1
REMARK SMILES IDX 22 1 21 2 2 3 1 4 3 5 4 6 5 7 20 8 6 9 7 10 8 11 9 12 10 14
REMARK SMILES IDX 11 15 12 16 19 17 13 18 15 19 14 20 16 21 17 22 18 23 23 24
REMARK SMILES IDX 24 25 25 26 26 27 27 28 28 29 92 30 29 31 91 32 30 33 31 34
REMARK SMILES IDX 32 35 85 36 33 37 90 38 84 39 86 40 34 41 89 42 83 43 82 44
REMARK SMILES IDX 35 46 69 47 48 48 68 49 49 50 52 51 67 52 87 53 50 54 51 55
REMARK SMILES IDX 66 57 88 58 53 59 36 60 37 61 46 62 38 63 39 64 45 65 47 66
REMARK SMILES IDX 40 67 41 68 42 69 43 70 44 71 70 72 71 73 80 74 72 75 73 76
REMARK SMILES IDX 79 77 81 78 74 79 75 80 76 81 77 82 78 83 54 84 55 85 64 86
REMARK SMILES IDX 56 87 57 88 63 89 65 90 58 91 59 92 60 93 61 94 62 95
REMARK H PARENT 8 13 86 45 52 56
REMARK Flexibility Score: inf
ROOT
ATOM      1  C   UNL     1       2.973   9.512   0.575  1.00  0.00     0.274 C 
ENDROOT
BRANCH   1   2
ATOM      2  O   UNL     1       4.153  10.175   1.079  1.00  0.00    -0.462 OA
BRANCH   2   3
ATOM      3  C   UNL     1       5.307  10.432   0.417  1.00  0.00     0.312 C 
ATOM      4  O   UNL     1       6.271  10.871   1.046  1.00  0.00    -0.252 OA
BRANCH   3   5
ATOM      5  C   UNL     1       5.371  10.287  -1.079  1.00  0.00     0.179 C 
BRANCH   5   6
ATOM      6  C   UNL     1       5.380   8.898  -1.593  1.00  0.00     0.065 A 
ATOM      7  C   UNL     1       4.452   8.366  -2.469  1.00  0.00     0.093 A 
ATOM      8  N   UNL     1       6.410   8.040  -1.254  1.00  0.00    -0.224 NA
ATOM      9  S   UNL     1       4.807   6.727  -2.734  1.00  0.00    -0.105 S 
ATOM     10  C   UNL     1       6.264   6.893  -1.875  1.00  0.00     0.189 A 
BRANCH  10  11
ATOM     11  N   UNL     1       7.213   5.914  -1.756  1.00  0.00    -0.302 N 
ATOM     12  C   UNL     1       7.384   4.692  -2.326  1.00  0.00     0.231 C 
ATOM     13  H   UNL     1       7.927   6.146  -1.119  1.00  0.00     0.172 HD
ATOM     14  O   UNL     1       8.310   3.991  -1.902  1.00  0.00    -0.274 OA
BRANCH  12  15
ATOM     15  C   UNL     1       6.494   4.184  -3.430  1.00  0.00     0.107 C 
ATOM     16  C   UNL     1       6.751   4.844  -4.783  1.00  0.00     0.115 C 
ATOM     17  C   UNL     1       6.718   2.721  -3.772  1.00  0.00     0.133 C 
ATOM     18  C   UNL     1       6.101   3.859  -5.721  1.00  0.00     0.223 C 
ATOM     19  N   UNL     1       6.096   2.620  -5.071  1.00  0.00    -0.339 N 
ATOM     20  O   UNL     1       5.665   4.141  -6.824  1.00  0.00    -0.275 OA
BRANCH  19  21
ATOM     21  C   UNL     1       5.564   1.386  -5.549  1.00  0.00     0.085 C 
ATOM     22  C   UNL     1       4.685   1.257  -6.762  1.00  0.00     0.027 C 
ATOM     23  C   UNL     1       6.099   0.753  -6.802  1.00  0.00     0.027 C 
ENDBRANCH  19  21
ENDBRANCH  12  15
ENDBRANCH  10  11
ENDBRANCH   5   6
ENDBRANCH   3   5
ENDBRANCH   2   3
ENDBRANCH   1   2
BRANCH   1  24
ATOM     24  C   UNL     1       1.843  10.495   0.276  1.00  0.00     0.275 C 
BRANCH  24  25
ATOM     25  O   UNL     1       2.120  11.216  -0.936  1.00  0.00    -0.458 OA
BRANCH  25  26
ATOM     26  C   UNL     1       2.600  12.477  -0.781  1.00  0.00     0.338 C 
ATOM     27  O   UNL     1       2.752  13.076   0.268  1.00  0.00    -0.246 OA
BRANCH  26  28
ATOM     28  C   UNL     1       3.139  12.928  -2.084  1.00  0.00     0.060 A 
ATOM     29  C   UNL     1       4.388  13.565  -2.093  1.00  0.00     0.016 A 
ATOM     30  C   UNL     1       2.478  12.652  -3.285  1.00  0.00     0.016 A 
ATOM     31  C   UNL     1       4.978  13.928  -3.305  1.00  0.00     0.010 A 
ATOM     32  C   UNL     1       3.061  13.033  -4.495  1.00  0.00     0.010 A 
ATOM     33  C   UNL     1       4.305  13.686  -4.509  1.00  0.00    -0.014 A 
BRANCH  33  34
ATOM     34  C   UNL     1       4.805  14.270  -5.775  1.00  0.00     0.031 A 
ATOM     35  C   UNL     1       4.294  15.623  -6.179  1.00  0.00     0.074 A 
ATOM     36  C   UNL     1       5.656  13.599  -6.570  1.00  0.00     0.049 A 
ATOM     37  N   UNL     1       4.534  16.309  -7.265  1.00  0.00    -0.248 NA
ATOM     38  C   UNL     1       3.380  16.285  -5.233  1.00  0.00     0.031 C 
ATOM     39  C   UNL     1       6.227  12.284  -6.284  1.00  0.00     0.029 A 
ATOM     40  N   UNL     1       6.170  13.930  -7.800  1.00  0.00    -0.354 N 
ATOM     41  C   UNL     1       3.802  17.482  -7.134  1.00  0.00     0.074 A 
ATOM     42  C   UNL     1       3.088  17.403  -5.878  1.00  0.00     0.031 C 
ATOM     43  C   UNL     1       6.989  11.905  -7.326  1.00  0.00     0.029 A 
ATOM     44  C   UNL     1       6.944  12.941  -8.358  1.00  0.00     0.049 A 
ATOM     45  H   UNL     1       6.000  14.794  -8.240  1.00  0.00     0.167 HD
ATOM     46  C   UNL     1       3.733  18.534  -7.983  1.00  0.00     0.037 A 
ATOM     47  C   UNL     1       7.528  12.873  -9.572  1.00  0.00     0.037 A 
ATOM     48  C   UNL     1       4.426  18.604  -9.239  1.00  0.00     0.049 A 
ATOM     49  C   UNL     1       7.397  14.033 -10.526  1.00  0.00     0.074 A 
ATOM     50  C   UNL     1       4.445  19.641 -10.154  1.00  0.00     0.029 A 
ATOM     51  N   UNL     1       5.206  17.587  -9.768  1.00  0.00    -0.354 N 
ATOM     52  N   UNL     1       6.758  15.167 -10.362  1.00  0.00    -0.248 NA
ATOM     53  C   UNL     1       8.067  13.907 -11.829  1.00  0.00     0.031 C 
ATOM     54  C   UNL     1       5.201  19.233 -11.258  1.00  0.00     0.029 A 
ATOM     55  C   UNL     1       5.688  17.959 -11.010  1.00  0.00     0.049 A 
ATOM     56  H   UNL     1       5.389  16.727  -9.324  1.00  0.00     0.167 HD
ATOM     57  C   UNL     1       6.970  15.898 -11.527  1.00  0.00     0.074 A 
ATOM     58  C   UNL     1       7.798  15.080 -12.389  1.00  0.00     0.031 C 
ATOM     59  C   UNL     1       6.523  17.137 -11.851  1.00  0.00     0.037 A 
BRANCH  46  60
ATOM     60  C   UNL     1       2.846  19.675  -7.580  1.00  0.00     0.058 A 
ATOM     61  C   UNL     1       3.206  20.556  -6.548  1.00  0.00     0.135 A 
ATOM     62  C   UNL     1       1.613  19.877  -8.220  1.00  0.00     0.135 A 
ATOM     63  F   UNL     1       4.365  20.390  -5.891  1.00  0.00    -0.206 F 
ATOM     64  C   UNL     1       2.356  21.577  -6.138  1.00  0.00     0.059 A 
ATOM     65  C   UNL     1       0.758  20.906  -7.842  1.00  0.00     0.059 A 
ATOM     66  F   UNL     1       1.222  19.057  -9.207  1.00  0.00    -0.206 F 
ATOM     67  C   UNL     1       1.129  21.738  -6.785  1.00  0.00     0.060 A 
BRANCH  67  68
ATOM     68  S   UNL     1       0.018  23.043  -6.221  1.00  0.00     0.124 S 
ATOM     69  O   UNL     1      -0.517  22.457  -4.997  1.00  0.00    -0.237 OA
ATOM     70  O   UNL     1       0.926  24.172  -6.038  1.00  0.00    -0.237 OA
ATOM     71  O   UNL     1      -0.931  23.178  -7.321  1.00  0.00    -0.744 OA
ENDBRANCH  67  68
ENDBRANCH  46  60
BRANCH  47  72
ATOM     72  C   UNL     1       8.284  11.653  -9.960  1.00  0.00     0.058 A 
ATOM     73  C   UNL     1       9.683  11.666 -10.048  1.00  0.00     0.135 A 
ATOM     74  C   UNL     1       7.621  10.448 -10.240  1.00  0.00     0.135 A 
ATOM     75  F   UNL     1      10.361  12.797  -9.802  1.00  0.00    -0.206 F 
ATOM     76  C   UNL     1      10.400  10.529 -10.407  1.00  0.00     0.059 A 
ATOM     77  C   UNL     1       8.317   9.292 -10.581  1.00  0.00     0.059 A 
ATOM     78  F   UNL     1       6.283  10.384 -10.161  1.00  0.00    -0.206 F 
ATOM     79  C   UNL     1       9.708   9.345 -10.669  1.00  0.00     0.060 A 
BRANCH  79  80
ATOM     80  S   UNL     1      10.655   7.862 -11.077  1.00  0.00     0.124 S 
ATOM     81  O   UNL     1      11.077   8.150 -12.443  1.00  0.00    -0.237 OA
ATOM     82  O   UNL     1      11.707   7.883 -10.066  1.00  0.00    -0.237 OA
ATOM     83  O   UNL     1       9.677   6.788 -10.930  1.00  0.00    -0.744 OA
ENDBRANCH  79  80
ENDBRANCH  47  72
BRANCH  59  84
ATOM     84  C   UNL     1       6.935  17.711 -13.178  1.00  0.00     0.058 A 
ATOM     85  C   UNL     1       6.335  17.297 -14.377  1.00  0.00     0.135 A 
ATOM     86  C   UNL     1       7.864  18.763 -13.237  1.00  0.00     0.135 A 
ATOM     87  F   UNL     1       5.445  16.293 -14.375  1.00  0.00    -0.206 F 
ATOM     88  C   UNL     1       6.641  17.907 -15.589  1.00  0.00     0.059 A 
ATOM     89  C   UNL     1       8.170  19.401 -14.435  1.00  0.00     0.059 A 
ATOM     90  F   UNL     1       8.459  19.202 -12.116  1.00  0.00    -0.206 F 
ATOM     91  C   UNL     1       7.554  18.964 -15.607  1.00  0.00     0.060 A 
BRANCH  91  92
ATOM     92  S   UNL     1       7.885  19.800 -17.174  1.00  0.00     0.124 S 
ATOM     93  O   UNL     1       8.750  18.836 -17.845  1.00  0.00    -0.237 OA
ATOM     94  O   UNL     1       6.547  19.952 -17.738  1.00  0.00    -0.237 OA
ATOM     95  O   UNL     1       8.530  21.044 -16.765  1.00  0.00    -0.744 OA
ENDBRANCH  91  92
ENDBRANCH  59  84
ENDBRANCH  33  34
ENDBRANCH  26  28
ENDBRANCH  25  26
ENDBRANCH  24  25
ENDBRANCH   1  24
TORSDOF 18
