REMARK SMILES COc1cc2c(cc1OC)[C@H](C(=O)OCCOC(=O)c1ccc(-c3c4nc(c(-c5c(F)cc(S(=O)(=O)[O-])cc5F)c5ccc([nH]5)c(-c5c(F)cc(S(=O)(=O)[O-])cc5F)c5nc(c(-c6c(F)cc(S(=O)(=O)[O-])cc6F)c6ccc3[nH]6)C=C5)C=C4)cc1)[C@@H](c1ccc(SC)cc1)N(C)C2=O
REMARK SMILES IDX 16 1 15 2 14 3 12 4 13 5 11 6 3 7 4 8 8 9 5 10 7 11 6 12
REMARK SMILES IDX 97 13 95 14 98 15 86 16 96 17 2 18 1 19 9 20 10 21 87 22
REMARK SMILES IDX 88 23 94 24 89 25 93 26 90 27 91 28 92 29 17 30 18 31 19 32
REMARK SMILES IDX 20 33 21 34 85 35 22 36 84 37 23 38 24 39 25 40 78 41 26 42
REMARK SMILES IDX 83 43 77 44 79 45 27 46 82 47 76 48 75 49 28 51 62 52 41 53
REMARK SMILES IDX 61 54 42 55 45 56 60 57 80 58 43 59 44 60 59 62 81 63 46 64
REMARK SMILES IDX 29 65 30 66 39 67 31 68 32 69 38 70 40 71 33 72 34 73 35 74
REMARK SMILES IDX 36 75 37 76 63 77 64 78 73 79 65 80 66 81 72 82 74 83 67 84
REMARK SMILES IDX 68 85 69 86 70 87 71 88 47 89 48 90 57 91 49 92 50 93 56 94
REMARK SMILES IDX 58 95 51 96 52 97 53 98 54 99 55 100
REMARK H PARENT 79 50 45 61
REMARK Flexibility Score: inf
ROOT
ATOM      1  C   UNL     1      -0.248  -8.444   5.174  1.00  0.00     0.275 C 
ENDROOT
BRANCH   1   2
ATOM      2  C   UNL     1      -0.696  -7.431   4.125  1.00  0.00     0.274 C 
BRANCH   2   3
ATOM      3  O   UNL     1       0.285  -7.273   3.078  1.00  0.00    -0.462 OA
BRANCH   3   4
ATOM      4  C   UNL     1       1.169  -6.253   3.278  1.00  0.00     0.316 C 
ATOM      5  O   UNL     1       1.243  -5.587   4.304  1.00  0.00    -0.251 OA
BRANCH   4   6
ATOM      6  C   UNL     1       1.924  -5.907   2.000  1.00  0.00     0.157 C 
ATOM      7  C   UNL     1       0.900  -1.776   1.139  1.00  0.00     0.161 A 
ATOM      8  C   UNL     1       2.213  -2.241   0.970  1.00  0.00     0.064 A 
ATOM      9  C   UNL     1      -0.099  -2.671   1.533  1.00  0.00     0.161 A 
ATOM     10  C   UNL     1       2.542  -3.588   1.189  1.00  0.00     0.048 A 
ATOM     11  C   UNL     1       0.243  -4.012   1.743  1.00  0.00     0.056 A 
ATOM     12  C   UNL     1       1.568  -4.476   1.627  1.00  0.00    -0.015 A 
ATOM     13  C   UNL     1       3.913  -4.056   0.876  1.00  0.00     0.254 C 
ATOM     14  N   UNL     1       4.256  -5.363   1.232  1.00  0.00    -0.333 N 
ATOM     15  O   UNL     1       4.665  -3.292   0.275  1.00  0.00    -0.269 OA
ATOM     16  C   UNL     1       3.453  -6.103   2.249  1.00  0.00     0.134 C 
ATOM     17  C   UNL     1       5.618  -5.773   0.901  1.00  0.00     0.147 C 
BRANCH   7  18
ATOM     18  O   UNL     1       0.602  -0.450   0.973  1.00  0.00    -0.493 OA
ATOM     19  C   UNL     1       1.123   0.118  -0.225  1.00  0.00     0.278 C 
ENDBRANCH   7  18
BRANCH   9  20
ATOM     20  O   UNL     1      -1.432  -2.438   1.740  1.00  0.00    -0.493 OA
ATOM     21  C   UNL     1      -1.889  -1.096   1.768  1.00  0.00     0.278 C 
ENDBRANCH   9  20
BRANCH  16  22
ATOM     22  C   UNL     1       3.885  -7.574   2.431  1.00  0.00    -0.024 A 
ATOM     23  C   UNL     1       3.140  -8.665   1.970  1.00  0.00     0.007 A 
ATOM     24  C   UNL     1       5.100  -7.870   3.082  1.00  0.00     0.007 A 
ATOM     25  C   UNL     1       3.585  -9.983   2.163  1.00  0.00     0.015 A 
ATOM     26  C   UNL     1       5.563  -9.187   3.236  1.00  0.00     0.015 A 
ATOM     27  C   UNL     1       4.804 -10.264   2.790  1.00  0.00     0.007 A 
BRANCH  27  28
ATOM     28  S   UNL     1       5.271 -11.986   2.899  1.00  0.00    -0.130 SA
ATOM     29  C   UNL     1       6.737 -11.984   3.966  1.00  0.00     0.091 C 
ENDBRANCH  27  28
ENDBRANCH  16  22
ENDBRANCH   4   6
ENDBRANCH   3   4
ENDBRANCH   2   3
ENDBRANCH   1   2
BRANCH   1  30
ATOM     30  O   UNL     1       0.987  -8.015   5.764  1.00  0.00    -0.458 OA
BRANCH  30  31
ATOM     31  C   UNL     1       1.910  -8.981   5.970  1.00  0.00     0.338 C 
ATOM     32  O   UNL     1       1.746 -10.184   5.797  1.00  0.00    -0.246 OA
BRANCH  31  33
ATOM     33  C   UNL     1       3.179  -8.397   6.454  1.00  0.00     0.060 A 
ATOM     34  C   UNL     1       3.625  -7.150   6.017  1.00  0.00     0.016 A 
ATOM     35  C   UNL     1       3.995  -9.157   7.291  1.00  0.00     0.016 A 
ATOM     36  C   UNL     1       4.920  -6.719   6.309  1.00  0.00     0.010 A 
ATOM     37  C   UNL     1       5.255  -8.678   7.667  1.00  0.00     0.010 A 
ATOM     38  C   UNL     1       5.761  -7.481   7.130  1.00  0.00    -0.014 A 
BRANCH  38  39
ATOM     39  C   UNL     1       7.177  -7.072   7.366  1.00  0.00     0.031 A 
ATOM     40  C   UNL     1       8.312  -8.000   6.998  1.00  0.00     0.074 A 
ATOM     41  C   UNL     1       7.468  -5.857   7.873  1.00  0.00     0.049 A 
ATOM     42  N   UNL     1       9.598  -7.877   7.213  1.00  0.00    -0.248 NA
ATOM     43  C   UNL     1       7.950  -9.234   6.286  1.00  0.00     0.031 C 
ATOM     44  C   UNL     1       6.490  -4.826   8.226  1.00  0.00     0.029 A 
ATOM     45  N   UNL     1       8.678  -5.284   8.178  1.00  0.00    -0.354 N 
ATOM     46  C   UNL     1      10.188  -9.021   6.685  1.00  0.00     0.074 A 
ATOM     47  C   UNL     1       9.122  -9.836   6.149  1.00  0.00     0.031 C 
ATOM     48  C   UNL     1       7.138  -3.739   8.671  1.00  0.00     0.029 A 
ATOM     49  C   UNL     1       8.568  -4.026   8.721  1.00  0.00     0.049 A 
ATOM     50  H   UNL     1       9.541  -5.731   8.022  1.00  0.00     0.167 HD
ATOM     51  C   UNL     1      11.496  -9.372   6.652  1.00  0.00     0.037 A 
ATOM     52  C   UNL     1       9.501  -3.210   9.249  1.00  0.00     0.037 A 
ATOM     53  C   UNL     1      12.562  -8.576   7.198  1.00  0.00     0.049 A 
ATOM     54  C   UNL     1      10.932  -3.659   9.300  1.00  0.00     0.074 A 
ATOM     55  C   UNL     1      13.915  -8.861   7.247  1.00  0.00     0.029 A 
ATOM     56  N   UNL     1      12.392  -7.337   7.796  1.00  0.00    -0.354 N 
ATOM     57  N   UNL     1      11.465  -4.768   8.844  1.00  0.00    -0.248 NA
ATOM     58  C   UNL     1      11.886  -2.756   9.958  1.00  0.00     0.031 C 
ATOM     59  C   UNL     1      14.559  -7.811   7.912  1.00  0.00     0.029 A 
ATOM     60  C   UNL     1      13.612  -6.855   8.239  1.00  0.00     0.049 A 
ATOM     61  H   UNL     1      11.531  -6.870   7.893  1.00  0.00     0.167 HD
ATOM     62  C   UNL     1      12.818  -4.693   9.155  1.00  0.00     0.074 A 
ATOM     63  C   UNL     1      13.024  -3.424   9.823  1.00  0.00     0.031 C 
ATOM     64  C   UNL     1      13.800  -5.595   8.910  1.00  0.00     0.037 A 
BRANCH  51  65
ATOM     65  C   UNL     1      11.839 -10.702   6.041  1.00  0.00     0.058 A 
ATOM     66  C   UNL     1      11.834 -10.901   4.652  1.00  0.00     0.135 A 
ATOM     67  C   UNL     1      12.188 -11.789   6.859  1.00  0.00     0.135 A 
ATOM     68  F   UNL     1      11.480  -9.902   3.828  1.00  0.00    -0.206 F 
ATOM     69  C   UNL     1      12.143 -12.138   4.095  1.00  0.00     0.059 A 
ATOM     70  C   UNL     1      12.518 -13.030   6.323  1.00  0.00     0.059 A 
ATOM     71  F   UNL     1      12.199 -11.653   8.194  1.00  0.00    -0.206 F 
ATOM     72  C   UNL     1      12.479 -13.198   4.939  1.00  0.00     0.060 A 
BRANCH  72  73
ATOM     73  S   UNL     1      12.858 -14.803   4.205  1.00  0.00     0.124 S 
ATOM     74  O   UNL     1      11.528 -15.262   3.816  1.00  0.00    -0.237 OA
ATOM     75  O   UNL     1      13.751 -14.444   3.109  1.00  0.00    -0.237 OA
ATOM     76  O   UNL     1      13.480 -15.539   5.301  1.00  0.00    -0.744 OA
ENDBRANCH  72  73
ENDBRANCH  51  65
BRANCH  52  77
ATOM     77  C   UNL     1       9.085  -1.905   9.825  1.00  0.00     0.058 A 
ATOM     78  C   UNL     1       9.403  -0.698   9.189  1.00  0.00     0.135 A 
ATOM     79  C   UNL     1       8.321  -1.847  11.002  1.00  0.00     0.135 A 
ATOM     80  F   UNL     1      10.144  -0.704   8.070  1.00  0.00    -0.206 F 
ATOM     81  C   UNL     1       8.972   0.524   9.695  1.00  0.00     0.059 A 
ATOM     82  C   UNL     1       7.857  -0.641  11.512  1.00  0.00     0.059 A 
ATOM     83  F   UNL     1       7.984  -2.978  11.641  1.00  0.00    -0.206 F 
ATOM     84  C   UNL     1       8.192   0.541  10.853  1.00  0.00     0.060 A 
BRANCH  84  85
ATOM     85  S   UNL     1       7.558   2.120  11.459  1.00  0.00     0.124 S 
ATOM     86  O   UNL     1       8.722   2.654  12.156  1.00  0.00    -0.237 OA
ATOM     87  O   UNL     1       7.184   2.801  10.223  1.00  0.00    -0.237 OA
ATOM     88  O   UNL     1       6.438   1.724  12.307  1.00  0.00    -0.744 OA
ENDBRANCH  84  85
ENDBRANCH  52  77
BRANCH  64  89
ATOM     89  C   UNL     1      15.188  -5.231   9.351  1.00  0.00     0.058 A 
ATOM     90  C   UNL     1      15.567  -5.289  10.700  1.00  0.00     0.135 A 
ATOM     91  C   UNL     1      16.154  -4.844   8.409  1.00  0.00     0.135 A 
ATOM     92  F   UNL     1      14.677  -5.649  11.638  1.00  0.00    -0.206 F 
ATOM     93  C   UNL     1      16.853  -4.947  11.106  1.00  0.00     0.059 A 
ATOM     94  C   UNL     1      17.451  -4.518   8.790  1.00  0.00     0.059 A 
ATOM     95  F   UNL     1      15.842  -4.785   7.105  1.00  0.00    -0.206 F 
ATOM     96  C   UNL     1      17.786  -4.557  10.144  1.00  0.00     0.060 A 
BRANCH  96  97
ATOM     97  S   UNL     1      19.456  -4.123  10.675  1.00  0.00     0.124 S 
ATOM     98  O   UNL     1      19.260  -2.764  11.171  1.00  0.00    -0.237 OA
ATOM     99  O   UNL     1      19.739  -5.133  11.690  1.00  0.00    -0.237 OA
ATOM    100  O   UNL     1      20.240  -4.239   9.449  1.00  0.00    -0.744 OA
ENDBRANCH  96  97
ENDBRANCH  64  89
ENDBRANCH  38  39
ENDBRANCH  31  33
ENDBRANCH  30  31
ENDBRANCH   1  30
TORSDOF 18
