REMARK SMILES C=CCCCOC(F)(F)C(=O)OCCOC(=O)c1ccc(-c2c3nc(c(-c4c(F)cc(S(=O)(=O)[O-])cc4F)c4ccc([nH]4)c(-c4c(F)cc(S(=O)(=O)[O-])cc4F)c4nc(c(-c5c(F)cc(S(=O)(=O)[O-])cc5F)c5ccc2[nH]5)C=C4)C=C3)cc1
REMARK SMILES IDX 13 1 12 2 10 3 11 4 7 5 8 6 9 7 6 8 5 9 4 10 3 11 2 12 1 13
REMARK SMILES IDX 14 14 15 15 16 16 17 17 18 18 19 19 83 20 20 21 82 22 21 23
REMARK SMILES IDX 22 24 23 25 76 26 24 27 81 28 75 29 77 30 25 31 80 32 74 33
REMARK SMILES IDX 73 34 26 36 60 37 39 38 59 39 40 40 43 41 58 42 78 43 41 44
REMARK SMILES IDX 42 45 57 47 79 48 44 49 27 50 28 51 37 52 29 53 30 54 36 55
REMARK SMILES IDX 38 56 31 57 32 58 33 59 34 60 35 61 61 62 62 63 71 64 63 65
REMARK SMILES IDX 64 66 70 67 72 68 65 69 66 70 67 71 68 72 69 73 45 74 46 75
REMARK SMILES IDX 55 76 47 77 48 78 54 79 56 80 49 81 50 82 51 83 52 84 53 85
REMARK H PARENT 77 35 43 46
REMARK Flexibility Score: inf
ROOT
ATOM      1  C   UNL     1      -1.802  -1.474   6.374  1.00  0.00     0.275 C 
ENDROOT
BRANCH   1   2
ATOM      2  O   UNL     1      -1.188  -1.296   5.083  1.00  0.00    -0.456 OA
BRANCH   2   3
ATOM      3  C   UNL     1      -0.774  -2.432   4.441  1.00  0.00     0.408 C 
ATOM      4  O   UNL     1      -0.817  -3.554   4.941  1.00  0.00    -0.242 OA
BRANCH   3   5
ATOM      5  C   UNL     1      -0.286  -2.137   3.005  1.00  0.00     0.456 C 
ATOM      6  F   UNL     1       0.919  -2.732   2.771  1.00  0.00    -0.164 F 
ATOM      7  F   UNL     1      -0.097  -0.808   2.773  1.00  0.00    -0.164 F 
BRANCH   5   8
ATOM      8  O   UNL     1      -1.237  -2.608   2.057  1.00  0.00    -0.311 OA
BRANCH   8   9
ATOM      9  C   UNL     1      -0.736  -3.033   0.802  1.00  0.00     0.168 C 
BRANCH   9  10
ATOM     10  C   UNL     1      -1.244  -2.125  -0.318  1.00  0.00     0.033 C 
BRANCH  10  11
ATOM     11  C   UNL     1      -0.840  -0.654  -0.180  1.00  0.00     0.029 C 
BRANCH  11  12
ATOM     12  C   UNL     1       0.648  -0.432  -0.141  1.00  0.00    -0.035 C 
ATOM     13  C   UNL     1       1.286   0.522  -0.829  1.00  0.00     0.004 C 
ENDBRANCH  11  12
ENDBRANCH  10  11
ENDBRANCH   9  10
ENDBRANCH   8   9
ENDBRANCH   5   8
ENDBRANCH   3   5
ENDBRANCH   2   3
ENDBRANCH   1   2
BRANCH   1  14
ATOM     14  C   UNL     1      -3.328  -1.397   6.278  1.00  0.00     0.275 C 
BRANCH  14  15
ATOM     15  O   UNL     1      -3.890  -2.588   5.693  1.00  0.00    -0.458 OA
BRANCH  15  16
ATOM     16  C   UNL     1      -4.013  -2.566   4.348  1.00  0.00     0.338 C 
ATOM     17  O   UNL     1      -3.702  -1.645   3.600  1.00  0.00    -0.246 OA
BRANCH  16  18
ATOM     18  C   UNL     1      -4.488  -3.869   3.866  1.00  0.00     0.060 A 
ATOM     19  C   UNL     1      -3.646  -4.625   3.049  1.00  0.00     0.016 A 
ATOM     20  C   UNL     1      -5.785  -4.305   4.138  1.00  0.00     0.016 A 
ATOM     21  C   UNL     1      -4.106  -5.798   2.460  1.00  0.00     0.010 A 
ATOM     22  C   UNL     1      -6.236  -5.503   3.574  1.00  0.00     0.010 A 
ATOM     23  C   UNL     1      -5.406  -6.249   2.716  1.00  0.00    -0.014 A 
BRANCH  23  24
ATOM     24  C   UNL     1      -5.914  -7.476   2.056  1.00  0.00     0.031 A 
ATOM     25  C   UNL     1      -7.005  -7.370   1.027  1.00  0.00     0.074 A 
ATOM     26  C   UNL     1      -5.390  -8.678   2.367  1.00  0.00     0.049 A 
ATOM     27  N   UNL     1      -7.710  -8.318   0.470  1.00  0.00    -0.248 NA
ATOM     28  C   UNL     1      -7.349  -6.014   0.569  1.00  0.00     0.031 C 
ATOM     29  C   UNL     1      -4.281  -8.904   3.296  1.00  0.00     0.029 A 
ATOM     30  N   UNL     1      -5.725  -9.937   1.937  1.00  0.00    -0.354 N 
ATOM     31  C   UNL     1      -8.606  -7.676  -0.378  1.00  0.00     0.074 A 
ATOM     32  C   UNL     1      -8.356  -6.255  -0.259  1.00  0.00     0.031 C 
ATOM     33  C   UNL     1      -4.023 -10.220   3.360  1.00  0.00     0.029 A 
ATOM     34  C   UNL     1      -4.989 -10.934   2.532  1.00  0.00     0.049 A 
ATOM     35  H   UNL     1      -6.425 -10.110   1.267  1.00  0.00     0.167 HD
ATOM     36  C   UNL     1      -9.550  -8.226  -1.178  1.00  0.00     0.037 A 
ATOM     37  C   UNL     1      -5.107 -12.274   2.450  1.00  0.00     0.037 A 
ATOM     38  C   UNL     1      -9.771  -9.643  -1.306  1.00  0.00     0.049 A 
ATOM     39  C   UNL     1      -6.197 -12.860   1.595  1.00  0.00     0.074 A 
ATOM     40  C   UNL     1     -10.727 -10.304  -2.057  1.00  0.00     0.029 A 
ATOM     41  N   UNL     1      -9.010 -10.619  -0.679  1.00  0.00    -0.354 N 
ATOM     42  N   UNL     1      -7.088 -12.241   0.859  1.00  0.00    -0.248 NA
ATOM     43  C   UNL     1      -6.310 -14.325   1.572  1.00  0.00     0.031 C 
ATOM     44  C   UNL     1     -10.556 -11.680  -1.870  1.00  0.00     0.029 A 
ATOM     45  C   UNL     1      -9.472 -11.876  -1.029  1.00  0.00     0.049 A 
ATOM     46  H   UNL     1      -8.253 -10.444  -0.074  1.00  0.00     0.167 HD
ATOM     47  C   UNL     1      -7.851 -13.240   0.265  1.00  0.00     0.074 A 
ATOM     48  C   UNL     1      -7.314 -14.505   0.724  1.00  0.00     0.031 C 
ATOM     49  C   UNL     1      -8.902 -13.121  -0.582  1.00  0.00     0.037 A 
BRANCH  36  50
ATOM     50  C   UNL     1     -10.435  -7.293  -1.954  1.00  0.00     0.058 A 
ATOM     51  C   UNL     1      -9.974  -6.610  -3.089  1.00  0.00     0.135 A 
ATOM     52  C   UNL     1     -11.775  -7.105  -1.575  1.00  0.00     0.135 A 
ATOM     53  F   UNL     1      -8.697  -6.739  -3.483  1.00  0.00    -0.206 F 
ATOM     54  C   UNL     1     -10.803  -5.758  -3.812  1.00  0.00     0.059 A 
ATOM     55  C   UNL     1     -12.628  -6.274  -2.295  1.00  0.00     0.059 A 
ATOM     56  F   UNL     1     -12.266  -7.733  -0.495  1.00  0.00    -0.206 F 
ATOM     57  C   UNL     1     -12.129  -5.594  -3.405  1.00  0.00     0.060 A 
BRANCH  57  58
ATOM     58  S   UNL     1     -13.197  -4.488  -4.351  1.00  0.00     0.124 S 
ATOM     59  O   UNL     1     -12.721  -3.179  -3.912  1.00  0.00    -0.237 OA
ATOM     60  O   UNL     1     -12.880  -4.847  -5.730  1.00  0.00    -0.237 OA
ATOM     61  O   UNL     1     -14.539  -4.848  -3.906  1.00  0.00    -0.744 OA
ENDBRANCH  57  58
ENDBRANCH  36  50
BRANCH  37  62
ATOM     62  C   UNL     1      -4.194 -13.153   3.228  1.00  0.00     0.058 A 
ATOM     63  C   UNL     1      -3.227 -13.939   2.585  1.00  0.00     0.135 A 
ATOM     64  C   UNL     1      -4.273 -13.227   4.627  1.00  0.00     0.135 A 
ATOM     65  F   UNL     1      -3.120 -13.909   1.248  1.00  0.00    -0.206 F 
ATOM     66  C   UNL     1      -2.382 -14.782   3.299  1.00  0.00     0.059 A 
ATOM     67  C   UNL     1      -3.422 -14.043   5.365  1.00  0.00     0.059 A 
ATOM     68  F   UNL     1      -5.173 -12.485   5.291  1.00  0.00    -0.206 F 
ATOM     69  C   UNL     1      -2.489 -14.829   4.690  1.00  0.00     0.060 A 
BRANCH  69  70
ATOM     70  S   UNL     1      -1.367 -15.899   5.617  1.00  0.00     0.124 S 
ATOM     71  O   UNL     1      -1.979 -17.207   5.414  1.00  0.00    -0.237 OA
ATOM     72  O   UNL     1      -0.094 -15.678   4.938  1.00  0.00    -0.237 OA
ATOM     73  O   UNL     1      -1.445 -15.367   6.974  1.00  0.00    -0.744 OA
ENDBRANCH  69  70
ENDBRANCH  37  62
BRANCH  49  74
ATOM     74  C   UNL     1      -9.506 -14.388  -1.114  1.00  0.00     0.058 A 
ATOM     75  C   UNL     1     -10.367 -15.176  -0.337  1.00  0.00     0.135 A 
ATOM     76  C   UNL     1      -9.268 -14.780  -2.441  1.00  0.00     0.135 A 
ATOM     77  F   UNL     1     -10.618 -14.846   0.940  1.00  0.00    -0.206 F 
ATOM     78  C   UNL     1     -10.968 -16.318  -0.856  1.00  0.00     0.059 A 
ATOM     79  C   UNL     1      -9.873 -15.907  -2.986  1.00  0.00     0.059 A 
ATOM     80  F   UNL     1      -8.456 -14.053  -3.225  1.00  0.00    -0.206 F 
ATOM     81  C   UNL     1     -10.716 -16.674  -2.183  1.00  0.00     0.060 A 
BRANCH  81  82
ATOM     82  S   UNL     1     -11.542 -18.129  -2.864  1.00  0.00     0.124 S 
ATOM     83  O   UNL     1     -10.752 -19.212  -2.287  1.00  0.00    -0.237 OA
ATOM     84  O   UNL     1     -12.900 -17.990  -2.348  1.00  0.00    -0.237 OA
ATOM     85  O   UNL     1     -11.406 -17.950  -4.306  1.00  0.00    -0.744 OA
ENDBRANCH  81  82
ENDBRANCH  49  74
ENDBRANCH  23  24
ENDBRANCH  16  18
ENDBRANCH  15  16
ENDBRANCH  14  15
ENDBRANCH   1  14
TORSDOF 19
