REMARK SMILES CC(C)N(CCCC(=O)OCCOC(=O)c1ccc(-c2c3nc(c(-c4c(F)cc(S(=O)(=O)[O-])cc4F)c4ccc([nH]4)c(-c4c(F)cc(S(=O)(=O)[O-])cc4F)c4nc(c(-c5c(F)cc(S(=O)(=O)[O-])cc5F)c5ccc2[nH]5)C=C4)C=C3)cc1)C(=O)[C@H]1CCCCC[C@H]1[NH3+]
REMARK SMILES IDX 8 1 9 2 7 3 6 4 5 5 4 6 2 7 1 8 3 9 82 10 83 11 84 12 85 13
REMARK SMILES IDX 86 14 87 15 90 17 89 18 88 19 91 21 10 25 11 26 12 27 13 28
REMARK SMILES IDX 14 29 15 30 16 31 17 32 81 33 18 34 80 35 19 36 20 37 21 38
REMARK SMILES IDX 74 39 22 40 79 41 73 42 75 43 23 44 78 45 72 46 71 47 24 49
REMARK SMILES IDX 58 50 37 51 57 52 38 53 41 54 56 55 76 56 39 57 40 58 55 60
REMARK SMILES IDX 77 61 42 62 25 63 26 64 35 65 27 66 28 67 34 68 36 69 29 70
REMARK SMILES IDX 30 71 31 72 32 73 33 74 59 75 60 76 69 77 61 78 62 79 68 80
REMARK SMILES IDX 70 81 63 82 64 83 65 84 66 85 67 86 43 87 44 88 53 89 45 90
REMARK SMILES IDX 46 91 52 92 54 93 47 94 48 95 49 96 50 97 51 98
REMARK H PARENT 91 22 91 23 91 24 75 48 41 59
REMARK Flexibility Score: 90.00
ROOT
ATOM      1  C   UNL     1      -3.426  -2.385  -2.003  1.00  0.00     0.305 C 
ATOM      2  O   UNL     1      -2.461  -1.866  -2.574  1.00  0.00    -0.252 OA
ENDROOT
BRANCH   1   3
ATOM      3  C   UNL     1      -4.248  -1.463  -0.942  1.00  0.00     0.124 C 
BRANCH   3   4
ATOM      4  C   UNL     1      -5.636  -1.372   0.528  1.00  0.00     0.033 C 
BRANCH   4   5
ATOM      5  C   UNL     1      -5.891  -2.007   2.006  1.00  0.00     0.120 C 
BRANCH   5   6
ATOM      6  N   UNL     1      -5.034  -1.582   3.082  1.00  0.00    -0.340 N 
BRANCH   6   7
ATOM      7  C   UNL     1      -5.447  -1.909   4.454  1.00  0.00     0.078 C 
ATOM      8  C   UNL     1      -4.556  -2.989   5.072  1.00  0.00     0.031 C 
ATOM      9  C   UNL     1      -5.556  -0.674   5.340  1.00  0.00     0.031 C 
ENDBRANCH   6   7
BRANCH   6  10
ATOM     10  C   UNL     1      -3.772  -1.124   2.791  1.00  0.00     0.231 C 
ATOM     11  O   UNL     1      -2.945  -0.775   3.626  1.00  0.00    -0.274 OA
BRANCH  10  12
ATOM     12  C   UNL     1      -3.481  -1.164   1.313  1.00  0.00     0.136 C 
BRANCH  12  13
ATOM     13  C   UNL     1      -3.886  -2.919   0.732  1.00  0.00     0.020 C 
BRANCH  13  14
ATOM     14  C   UNL     1      -5.362  -3.441  -0.313  1.00  0.00     0.001 C 
BRANCH  14  15
ATOM     15  C   UNL     1      -6.268  -2.396  -1.554  1.00  0.00     0.000 CG0
ATOM     16  G   UNL     1      -6.419  -0.553  -1.573  1.00  0.00     0.000 G0
ENDBRANCH  14  15
ENDBRANCH  13  14
ENDBRANCH  12  13
BRANCH  12  17
ATOM     17  C   UNL     1      -3.992   0.445   0.486  1.00  0.00     0.193 C 
BRANCH  17  18
ATOM     18  C   UNL     1      -5.397   0.707  -0.697  1.00  0.00     0.066 C 
BRANCH  18  19
ATOM     19  C   UNL     1      -6.419  -0.553  -1.573  1.00  0.00     0.006 CG0
ATOM     20  G   UNL     1      -6.268  -2.396  -1.554  1.00  0.00     0.000 G0
ENDBRANCH  18  19
ENDBRANCH  17  18
BRANCH  17  21
ATOM     21  N   UNL     1      -3.969   1.575   1.419  1.00  0.00    -0.354 N 
ATOM     22  H   UNL     1      -4.775   1.518   2.042  1.00  0.00     0.344 HD
ATOM     23  H   UNL     1      -4.006   2.449   0.895  1.00  0.00     0.344 HD
ATOM     24  H   UNL     1      -3.111   1.544   1.969  1.00  0.00     0.344 HD
ENDBRANCH  17  21
ENDBRANCH  12  17
ENDBRANCH  10  12
ENDBRANCH   6  10
ENDBRANCH   5   6
ENDBRANCH   4   5
ENDBRANCH   3   4
ENDBRANCH   1   3
BRANCH   1  25
ATOM     25  O   UNL     1      -3.783  -3.654  -2.251  1.00  0.00    -0.462 OA
BRANCH  25  26
ATOM     26  C   UNL     1      -2.923  -4.417  -3.124  1.00  0.00     0.274 C 
BRANCH  26  27
ATOM     27  C   UNL     1      -3.515  -4.531  -4.524  1.00  0.00     0.275 C 
BRANCH  27  28
ATOM     28  O   UNL     1      -3.731  -3.223  -5.072  1.00  0.00    -0.458 OA
BRANCH  28  29
ATOM     29  C   UNL     1      -5.022  -2.892  -5.284  1.00  0.00     0.338 C 
ATOM     30  O   UNL     1      -6.009  -3.598  -5.129  1.00  0.00    -0.246 OA
BRANCH  29  31
ATOM     31  C   UNL     1      -5.103  -1.504  -5.749  1.00  0.00     0.060 A 
ATOM     32  C   UNL     1      -4.738  -0.454  -4.905  1.00  0.00     0.016 A 
ATOM     33  C   UNL     1      -5.660  -1.250  -6.999  1.00  0.00     0.016 A 
ATOM     34  C   UNL     1      -4.997   0.864  -5.277  1.00  0.00     0.010 A 
ATOM     35  C   UNL     1      -5.839   0.070  -7.404  1.00  0.00     0.010 A 
ATOM     36  C   UNL     1      -5.537   1.139  -6.538  1.00  0.00    -0.014 A 
BRANCH  36  37
ATOM     37  C   UNL     1      -5.823   2.520  -6.998  1.00  0.00     0.031 A 
ATOM     38  C   UNL     1      -7.223   2.866  -7.418  1.00  0.00     0.074 A 
ATOM     39  C   UNL     1      -4.825   3.411  -7.150  1.00  0.00     0.049 A 
ATOM     40  N   UNL     1      -7.639   3.802  -8.227  1.00  0.00    -0.248 NA
ATOM     41  C   UNL     1      -8.295   2.013  -6.877  1.00  0.00     0.031 C 
ATOM     42  C   UNL     1      -3.439   3.224  -6.718  1.00  0.00     0.029 A 
ATOM     43  N   UNL     1      -4.820   4.640  -7.762  1.00  0.00    -0.354 N 
ATOM     44  C   UNL     1      -9.009   3.606  -8.356  1.00  0.00     0.074 A 
ATOM     45  C   UNL     1      -9.357   2.475  -7.522  1.00  0.00     0.031 C 
ATOM     46  C   UNL     1      -2.712   4.285  -7.101  1.00  0.00     0.029 A 
ATOM     47  C   UNL     1      -3.559   5.177  -7.883  1.00  0.00     0.049 A 
ATOM     48  H   UNL     1      -5.635   5.091  -8.082  1.00  0.00     0.167 HD
ATOM     49  C   UNL     1      -9.883   4.300  -9.123  1.00  0.00     0.037 A 
ATOM     50  C   UNL     1      -3.120   6.221  -8.611  1.00  0.00     0.037 A 
ATOM     51  C   UNL     1      -9.509   5.449  -9.907  1.00  0.00     0.049 A 
ATOM     52  C   UNL     1      -4.099   6.971  -9.469  1.00  0.00     0.074 A 
ATOM     53  C   UNL     1     -10.304   6.238 -10.719  1.00  0.00     0.029 A 
ATOM     54  N   UNL     1      -8.229   5.985  -9.958  1.00  0.00    -0.354 N 
ATOM     55  N   UNL     1      -5.377   6.737  -9.655  1.00  0.00    -0.248 NA
ATOM     56  C   UNL     1      -3.577   8.113 -10.230  1.00  0.00     0.031 C 
ATOM     57  C   UNL     1      -9.500   7.238 -11.278  1.00  0.00     0.029 A 
ATOM     58  C   UNL     1      -8.213   7.094 -10.783  1.00  0.00     0.049 A 
ATOM     59  H   UNL     1      -7.448   5.627  -9.477  1.00  0.00     0.167 HD
ATOM     60  C   UNL     1      -5.817   7.717 -10.536  1.00  0.00     0.074 A 
ATOM     61  C   UNL     1      -4.670   8.548 -10.843  1.00  0.00     0.031 C 
ATOM     62  C   UNL     1      -7.057   7.914 -11.048  1.00  0.00     0.037 A 
BRANCH  49  63
ATOM     63  C   UNL     1     -11.305   3.817  -9.186  1.00  0.00     0.058 A 
ATOM     64  C   UNL     1     -12.196   3.977  -8.115  1.00  0.00     0.135 A 
ATOM     65  C   UNL     1     -11.793   3.212 -10.357  1.00  0.00     0.135 A 
ATOM     66  F   UNL     1     -11.778   4.530  -6.965  1.00  0.00    -0.206 F 
ATOM     67  C   UNL     1     -13.514   3.537  -8.193  1.00  0.00     0.059 A 
ATOM     68  C   UNL     1     -13.113   2.785 -10.466  1.00  0.00     0.059 A 
ATOM     69  F   UNL     1     -10.982   3.029 -11.412  1.00  0.00    -0.206 F 
ATOM     70  C   UNL     1     -13.963   2.940  -9.373  1.00  0.00     0.060 A 
BRANCH  70  71
ATOM     71  S   UNL     1     -15.678   2.381  -9.464  1.00  0.00     0.124 S 
ATOM     72  O   UNL     1     -15.630   1.164  -8.658  1.00  0.00    -0.237 OA
ATOM     73  O   UNL     1     -16.406   3.500  -8.876  1.00  0.00    -0.237 OA
ATOM     74  O   UNL     1     -15.894   2.179 -10.893  1.00  0.00    -0.744 OA
ENDBRANCH  70  71
ENDBRANCH  49  63
BRANCH  50  75
ATOM     75  C   UNL     1      -1.676   6.574  -8.599  1.00  0.00     0.058 A 
ATOM     76  C   UNL     1      -1.226   7.732  -7.950  1.00  0.00     0.135 A 
ATOM     77  C   UNL     1      -0.716   5.748  -9.204  1.00  0.00     0.135 A 
ATOM     78  F   UNL     1      -2.108   8.557  -7.364  1.00  0.00    -0.206 F 
ATOM     79  C   UNL     1       0.124   8.064  -7.906  1.00  0.00     0.059 A 
ATOM     80  C   UNL     1       0.642   6.045  -9.152  1.00  0.00     0.059 A 
ATOM     81  F   UNL     1      -1.094   4.619  -9.825  1.00  0.00    -0.206 F 
ATOM     82  C   UNL     1       1.052   7.212  -8.507  1.00  0.00     0.060 A 
BRANCH  82  83
ATOM     83  S   UNL     1       2.807   7.619  -8.394  1.00  0.00     0.124 S 
ATOM     84  O   UNL     1       2.926   8.679  -9.388  1.00  0.00    -0.237 OA
ATOM     85  O   UNL     1       2.939   8.034  -7.000  1.00  0.00    -0.237 OA
ATOM     86  O   UNL     1       3.465   6.360  -8.729  1.00  0.00    -0.744 OA
ENDBRANCH  82  83
ENDBRANCH  50  75
BRANCH  62  87
ATOM     87  C   UNL     1      -7.248   9.105 -11.939  1.00  0.00     0.058 A 
ATOM     88  C   UNL     1      -6.817   9.105 -13.273  1.00  0.00     0.135 A 
ATOM     89  C   UNL     1      -7.923  10.240 -11.460  1.00  0.00     0.135 A 
ATOM     90  F   UNL     1      -6.160   8.046 -13.772  1.00  0.00    -0.206 F 
ATOM     91  C   UNL     1      -7.038  10.199 -14.103  1.00  0.00     0.059 A 
ATOM     92  C   UNL     1      -8.172  11.335 -12.278  1.00  0.00     0.059 A 
ATOM     93  F   UNL     1      -8.360  10.281 -10.192  1.00  0.00    -0.206 F 
ATOM     94  C   UNL     1      -7.718  11.309 -13.596  1.00  0.00     0.060 A 
BRANCH  94  95
ATOM     95  S   UNL     1      -8.039  12.707 -14.693  1.00  0.00     0.124 S 
ATOM     96  O   UNL     1      -6.731  13.353 -14.733  1.00  0.00    -0.237 OA
ATOM     97  O   UNL     1      -8.459  12.049 -15.926  1.00  0.00    -0.237 OA
ATOM     98  O   UNL     1      -9.086  13.448 -13.998  1.00  0.00    -0.744 OA
ENDBRANCH  94  95
ENDBRANCH  62  87
ENDBRANCH  36  37
ENDBRANCH  29  31
ENDBRANCH  28  29
ENDBRANCH  27  28
ENDBRANCH  26  27
ENDBRANCH  25  26
ENDBRANCH   1  25
TORSDOF 21
