REMARK SMILES Cc1ccc(OCCC[N@H+]2CCCC[C@@H]2C(=O)OCCOC(=O)c2ccc(-c3c4nc(c(-c5c(F)cc(S(=O)(=O)[O-])cc5F)c5ccc([nH]5)c(-c5c(F)cc(S(=O)(=O)[O-])cc5F)c5nc(c(-c6c(F)cc(S(=O)(=O)[O-])cc6F)c6ccc3[nH]6)C=C5)C=C4)cc2)cc1C
REMARK SMILES IDX 19 1 18 2 16 3 17 4 15 5 10 6 11 7 12 9 14 10 13 11 9 12
REMARK SMILES IDX 8 13 7 14 6 15 5 16 1 17 2 18 3 19 91 20 4 21 90 22 92 23
REMARK SMILES IDX 20 24 21 25 22 26 23 27 24 28 25 29 89 30 26 31 88 32 27 33
REMARK SMILES IDX 28 34 29 35 82 36 30 37 87 38 81 39 83 40 31 41 86 42 80 43
REMARK SMILES IDX 79 44 32 46 66 47 45 48 65 49 46 50 49 51 64 52 84 53 47 54
REMARK SMILES IDX 48 55 63 57 85 58 50 59 33 60 34 61 43 62 35 63 36 64 42 65
REMARK SMILES IDX 44 66 37 67 38 68 39 69 40 70 41 71 67 72 68 73 77 74 69 75
REMARK SMILES IDX 70 76 76 77 78 78 71 79 72 80 73 81 74 82 75 83 51 84 52 85
REMARK SMILES IDX 61 86 53 87 54 88 60 89 62 90 55 91 56 92 57 93 58 94 59 95
REMARK H PARENT 10 8 83 45 49 56
REMARK Flexibility Score: inf
ROOT
ATOM      1  C   UNL     1      -0.282   0.494  -2.244  1.00  0.00     0.274 C 
ENDROOT
BRANCH   1   2
ATOM      2  O   UNL     1      -1.354   1.443  -2.071  1.00  0.00    -0.458 OA
BRANCH   2   3
ATOM      3  C   UNL     1      -1.535   1.885  -0.798  1.00  0.00     0.365 C 
ATOM      4  O   UNL     1      -0.836   1.542   0.148  1.00  0.00    -0.245 OA
BRANCH   3   5
ATOM      5  C   UNL     1      -2.692   2.870  -0.620  1.00  0.00     0.295 C 
ATOM      6  N   UNL     1      -3.994   2.202  -0.282  1.00  0.00    -0.323 N 
ATOM      7  C   UNL     1      -5.027   3.255  -0.088  1.00  0.00     0.262 C 
ATOM      8  H   UNL     1      -4.233   1.568  -1.045  1.00  0.00     0.348 HD
ATOM      9  C   UNL     1      -5.168   4.223  -1.264  1.00  0.00     0.062 C 
ATOM     10  C   UNL     1      -2.801   3.784  -1.848  1.00  0.00     0.078 C 
ATOM     11  C   UNL     1      -3.836   4.870  -1.613  1.00  0.00     0.013 C 
BRANCH   6  12
ATOM     12  C   UNL     1      -3.900   1.419   0.983  1.00  0.00     0.266 C 
BRANCH  12  13
ATOM     13  C   UNL     1      -4.441  -0.017   0.867  1.00  0.00     0.103 C 
BRANCH  13  14
ATOM     14  C   UNL     1      -3.572  -0.981   0.051  1.00  0.00     0.235 C 
BRANCH  14  15
ATOM     15  O   UNL     1      -2.952  -1.987   0.884  1.00  0.00    -0.493 OA
BRANCH  15  16
ATOM     16  C   UNL     1      -1.649  -1.676   1.166  1.00  0.00     0.119 A 
ATOM     17  C   UNL     1       2.381  -0.289   1.714  1.00  0.00     0.044 C 
ATOM     18  C   UNL     1       1.006  -0.878   1.560  1.00  0.00    -0.048 A 
ATOM     19  C   UNL     1      -0.034  -0.324   2.322  1.00  0.00     0.007 A 
ATOM     20  C   UNL     1       0.723  -1.954   0.695  1.00  0.00    -0.045 A 
ATOM     21  C   UNL     1      -1.352  -0.738   2.143  1.00  0.00     0.047 A 
ATOM     22  C   UNL     1      -0.619  -2.340   0.501  1.00  0.00     0.050 A 
ATOM     23  C   UNL     1       1.815  -2.732   0.014  1.00  0.00     0.045 C 
ENDBRANCH  15  16
ENDBRANCH  14  15
ENDBRANCH  13  14
ENDBRANCH  12  13
ENDBRANCH   6  12
ENDBRANCH   3   5
ENDBRANCH   2   3
ENDBRANCH   1   2
BRANCH   1  24
ATOM     24  C   UNL     1       1.087   1.144  -2.493  1.00  0.00     0.275 C 
BRANCH  24  25
ATOM     25  O   UNL     1       1.626   1.775  -1.315  1.00  0.00    -0.458 OA
BRANCH  25  26
ATOM     26  C   UNL     1       1.323   3.090  -1.190  1.00  0.00     0.338 C 
ATOM     27  O   UNL     1       0.758   3.782  -2.021  1.00  0.00    -0.246 OA
BRANCH  26  28
ATOM     28  C   UNL     1       1.602   3.573   0.179  1.00  0.00     0.060 A 
ATOM     29  C   UNL     1       0.597   4.322   0.802  1.00  0.00     0.016 A 
ATOM     30  C   UNL     1       2.828   3.381   0.819  1.00  0.00     0.016 A 
ATOM     31  C   UNL     1       0.813   4.902   2.047  1.00  0.00     0.010 A 
ATOM     32  C   UNL     1       3.056   3.983   2.066  1.00  0.00     0.010 A 
ATOM     33  C   UNL     1       2.062   4.779   2.665  1.00  0.00    -0.014 A 
BRANCH  33  34
ATOM     34  C   UNL     1       2.364   5.694   3.796  1.00  0.00     0.031 A 
ATOM     35  C   UNL     1       3.088   6.980   3.491  1.00  0.00     0.074 A 
ATOM     36  C   UNL     1       1.912   5.451   5.040  1.00  0.00     0.049 A 
ATOM     37  N   UNL     1       3.383   7.975   4.286  1.00  0.00    -0.248 NA
ATOM     38  C   UNL     1       3.534   7.171   2.100  1.00  0.00     0.031 C 
ATOM     39  C   UNL     1       1.174   4.261   5.460  1.00  0.00     0.029 A 
ATOM     40  N   UNL     1       2.003   6.209   6.182  1.00  0.00    -0.354 N 
ATOM     41  C   UNL     1       4.054   8.902   3.497  1.00  0.00     0.074 A 
ATOM     42  C   UNL     1       4.149   8.342   2.168  1.00  0.00     0.031 C 
ATOM     43  C   UNL     1       0.886   4.366   6.771  1.00  0.00     0.029 A 
ATOM     44  C   UNL     1       1.423   5.626   7.284  1.00  0.00     0.049 A 
ATOM     45  H   UNL     1       2.443   7.089   6.209  1.00  0.00     0.167 HD
ATOM     46  C   UNL     1       4.533  10.120   3.841  1.00  0.00     0.037 A 
ATOM     47  C   UNL     1       1.339   6.061   8.557  1.00  0.00     0.037 A 
ATOM     48  C   UNL     1       4.417  10.696   5.153  1.00  0.00     0.049 A 
ATOM     49  C   UNL     1       1.897   7.418   8.917  1.00  0.00     0.074 A 
ATOM     50  C   UNL     1       4.845  11.938   5.587  1.00  0.00     0.029 A 
ATOM     51  N   UNL     1       3.829  10.071   6.241  1.00  0.00    -0.354 N 
ATOM     52  N   UNL     1       2.486   8.302   8.146  1.00  0.00    -0.248 NA
ATOM     53  C   UNL     1       1.764   7.843  10.319  1.00  0.00     0.031 C 
ATOM     54  C   UNL     1       4.549  12.050   6.949  1.00  0.00     0.029 A 
ATOM     55  C   UNL     1       3.898  10.895   7.351  1.00  0.00     0.049 A 
ATOM     56  H   UNL     1       3.423   9.174   6.227  1.00  0.00     0.167 HD
ATOM     57  C   UNL     1       2.763   9.396   8.963  1.00  0.00     0.074 A 
ATOM     58  C   UNL     1       2.263   9.070  10.281  1.00  0.00     0.031 C 
ATOM     59  C   UNL     1       3.377  10.565   8.652  1.00  0.00     0.037 A 
BRANCH  46  60
ATOM     60  C   UNL     1       5.244  10.910   2.781  1.00  0.00     0.058 A 
ATOM     61  C   UNL     1       4.547  11.545   1.742  1.00  0.00     0.135 A 
ATOM     62  C   UNL     1       6.638  11.068   2.833  1.00  0.00     0.135 A 
ATOM     63  F   UNL     1       3.216  11.404   1.635  1.00  0.00    -0.206 F 
ATOM     64  C   UNL     1       5.210  12.302   0.782  1.00  0.00     0.059 A 
ATOM     65  C   UNL     1       7.319  11.838   1.896  1.00  0.00     0.059 A 
ATOM     66  F   UNL     1       7.351  10.472   3.802  1.00  0.00    -0.206 F 
ATOM     67  C   UNL     1       6.596  12.445   0.870  1.00  0.00     0.060 A 
BRANCH  67  68
ATOM     68  S   UNL     1       7.439  13.455  -0.366  1.00  0.00     0.124 S 
ATOM     69  O   UNL     1       7.398  12.581  -1.534  1.00  0.00    -0.237 OA
ATOM     70  O   UNL     1       6.590  14.641  -0.432  1.00  0.00    -0.237 OA
ATOM     71  O   UNL     1       8.762  13.667   0.214  1.00  0.00    -0.744 OA
ENDBRANCH  67  68
ENDBRANCH  46  60
BRANCH  47  72
ATOM     72  C   UNL     1       0.717   5.211   9.610  1.00  0.00     0.058 A 
ATOM     73  C   UNL     1      -0.487   5.577  10.229  1.00  0.00     0.135 A 
ATOM     74  C   UNL     1       1.358   4.049  10.066  1.00  0.00     0.135 A 
ATOM     75  F   UNL     1      -1.133   6.686   9.836  1.00  0.00    -0.206 F 
ATOM     76  C   UNL     1      -1.013   4.848  11.292  1.00  0.00     0.059 A 
ATOM     77  C   UNL     1       0.839   3.288  11.109  1.00  0.00     0.059 A 
ATOM     78  F   UNL     1       2.507   3.648   9.501  1.00  0.00    -0.206 F 
ATOM     79  C   UNL     1      -0.336   3.708  11.731  1.00  0.00     0.060 A 
BRANCH  79  80
ATOM     80  S   UNL     1      -1.017   2.768  13.115  1.00  0.00     0.124 S 
ATOM     81  O   UNL     1      -0.653   3.611  14.248  1.00  0.00    -0.237 OA
ATOM     82  O   UNL     1      -2.438   2.720  12.786  1.00  0.00    -0.237 OA
ATOM     83  O   UNL     1      -0.317   1.490  13.026  1.00  0.00    -0.744 OA
ENDBRANCH  79  80
ENDBRANCH  47  72
BRANCH  59  84
ATOM     84  C   UNL     1       3.503  11.595   9.741  1.00  0.00     0.058 A 
ATOM     85  C   UNL     1       4.400  11.438  10.809  1.00  0.00     0.135 A 
ATOM     86  C   UNL     1       2.742  12.775   9.693  1.00  0.00     0.135 A 
ATOM     87  F   UNL     1       5.152  10.330  10.902  1.00  0.00    -0.206 F 
ATOM     88  C   UNL     1       4.511  12.396  11.812  1.00  0.00     0.059 A 
ATOM     89  C   UNL     1       2.857  13.759  10.669  1.00  0.00     0.059 A 
ATOM     90  F   UNL     1       1.881  12.984   8.683  1.00  0.00    -0.206 F 
ATOM     91  C   UNL     1       3.731  13.552  11.735  1.00  0.00     0.060 A 
BRANCH  91  92
ATOM     92  S   UNL     1       3.887  14.795  13.036  1.00  0.00     0.124 S 
ATOM     93  O   UNL     1       3.114  14.189  14.114  1.00  0.00    -0.237 OA
ATOM     94  O   UNL     1       5.330  14.854  13.245  1.00  0.00    -0.237 OA
ATOM     95  O   UNL     1       3.299  15.989  12.435  1.00  0.00    -0.744 OA
ENDBRANCH  91  92
ENDBRANCH  59  84
ENDBRANCH  33  34
ENDBRANCH  26  28
ENDBRANCH  25  26
ENDBRANCH  24  25
ENDBRANCH   1  24
TORSDOF 19
