REMARK SMILES C[C@@H](Sc1nc(-c2ccc3c(c2)OCO3)ccc1C#N)C(=O)OCCOC(=O)c1ccc(-c2c3nc(c(-c4c(F)cc(S(=O)(=O)[O-])cc4F)c4ccc([nH]4)c(-c4c(F)cc(S(=O)(=O)[O-])cc4F)c4nc(c(-c5c(F)cc(S(=O)(=O)[O-])cc5F)c5ccc2[nH]5)C=C4)C=C3)cc1
REMARK SMILES IDX 24 1 23 2 21 3 22 4 2 5 1 6 3 7 4 8 5 9 18 10 6 11 17 12
REMARK SMILES IDX 16 13 19 14 20 15 7 16 8 17 12 18 9 19 11 20 10 21 13 22
REMARK SMILES IDX 15 23 14 24 25 25 26 26 27 27 28 28 29 29 30 30 94 31 31 32
REMARK SMILES IDX 93 33 32 34 33 35 34 36 87 37 35 38 92 39 86 40 88 41 36 42
REMARK SMILES IDX 91 43 85 44 84 45 37 47 71 48 50 49 70 50 51 51 54 52 69 53
REMARK SMILES IDX 89 54 52 55 53 56 68 58 90 59 55 60 38 61 39 62 48 63 40 64
REMARK SMILES IDX 41 65 47 66 49 67 42 68 43 69 44 70 45 71 46 72 72 73 73 74
REMARK SMILES IDX 82 75 74 76 75 77 81 78 83 79 76 80 77 81 78 82 79 83 80 84
REMARK SMILES IDX 56 85 57 86 66 87 58 88 59 89 65 90 67 91 60 92 61 93 62 94
REMARK SMILES IDX 63 95 64 96
REMARK H PARENT 88 46 54 57
REMARK Flexibility Score: inf
ROOT
ATOM      1  C   UNL     1      -2.970  -0.500  -1.272  1.00  0.00     0.274 C 
ENDROOT
BRANCH   1   2
ATOM      2  O   UNL     1      -1.536  -0.616  -1.193  1.00  0.00    -0.461 OA
BRANCH   2   3
ATOM      3  C   UNL     1      -0.819   0.259  -1.954  1.00  0.00     0.319 C 
ATOM      4  O   UNL     1      -1.325   1.079  -2.713  1.00  0.00    -0.251 OA
BRANCH   3   5
ATOM      5  C   UNL     1       0.693   0.106  -1.780  1.00  0.00     0.160 C 
ATOM      6  C   UNL     1       1.095  -0.558  -0.467  1.00  0.00     0.032 C 
BRANCH   5   7
ATOM      7  S   UNL     1       1.331  -0.773  -3.248  1.00  0.00    -0.090 SA
BRANCH   7   8
ATOM      8  C   UNL     1       3.091  -0.655  -2.942  1.00  0.00     0.115 A 
ATOM      9  N   UNL     1       3.624   0.598  -2.902  1.00  0.00    -0.240 NA
ATOM     10  C   UNL     1       3.858  -1.812  -2.807  1.00  0.00     0.084 A 
ATOM     11  C   UNL     1       4.971   0.713  -2.764  1.00  0.00     0.072 A 
ATOM     12  C   UNL     1       5.233  -1.674  -2.630  1.00  0.00     0.024 A 
ATOM     13  C   UNL     1       5.795  -0.403  -2.616  1.00  0.00     0.030 A 
BRANCH  10  14
ATOM     14  C   UNL     1       3.283  -3.125  -2.827  1.00  0.00     0.102 C 
ATOM     15  N   UNL     1       2.848  -4.198  -2.825  1.00  0.00    -0.192 NA
ENDBRANCH  10  14
BRANCH  11  16
ATOM     16  C   UNL     1       5.562   2.059  -2.828  1.00  0.00     0.004 A 
ATOM     17  C   UNL     1       6.489   2.372  -3.860  1.00  0.00     0.014 A 
ATOM     18  C   UNL     1       5.306   3.027  -1.842  1.00  0.00     0.061 A 
ATOM     19  C   UNL     1       7.166   3.596  -3.899  1.00  0.00     0.051 A 
ATOM     20  C   UNL     1       5.998   4.225  -1.898  1.00  0.00     0.166 A 
ATOM     21  C   UNL     1       6.905   4.498  -2.894  1.00  0.00     0.165 A 
ATOM     22  O   UNL     1       5.905   5.242  -0.999  1.00  0.00    -0.454 OA
ATOM     23  O   UNL     1       7.494   5.714  -2.750  1.00  0.00    -0.454 OA
ATOM     24  C   UNL     1       6.840   6.194  -1.555  1.00  0.00     0.468 C 
ENDBRANCH  11  16
ENDBRANCH   7   8
ENDBRANCH   5   7
ENDBRANCH   3   5
ENDBRANCH   2   3
ENDBRANCH   1   2
BRANCH   1  25
ATOM     25  C   UNL     1      -3.542   0.333  -0.120  1.00  0.00     0.275 C 
BRANCH  25  26
ATOM     26  O   UNL     1      -3.124   1.708  -0.188  1.00  0.00    -0.458 OA
BRANCH  26  27
ATOM     27  C   UNL     1      -2.002   1.994   0.513  1.00  0.00     0.338 C 
ATOM     28  O   UNL     1      -1.354   1.230   1.208  1.00  0.00    -0.246 OA
BRANCH  27  29
ATOM     29  C   UNL     1      -1.561   3.366   0.232  1.00  0.00     0.060 A 
ATOM     30  C   UNL     1      -0.408   3.541  -0.535  1.00  0.00     0.016 A 
ATOM     31  C   UNL     1      -2.190   4.461   0.820  1.00  0.00     0.016 A 
ATOM     32  C   UNL     1       0.145   4.803  -0.700  1.00  0.00     0.010 A 
ATOM     33  C   UNL     1      -1.650   5.738   0.630  1.00  0.00     0.010 A 
ATOM     34  C   UNL     1      -0.470   5.914  -0.116  1.00  0.00    -0.014 A 
BRANCH  34  35
ATOM     35  C   UNL     1       0.151   7.253  -0.262  1.00  0.00     0.031 A 
ATOM     36  C   UNL     1       0.742   7.938   0.937  1.00  0.00     0.074 A 
ATOM     37  C   UNL     1       0.195   7.837  -1.475  1.00  0.00     0.049 A 
ATOM     38  N   UNL     1       1.235   9.145   1.039  1.00  0.00    -0.248 NA
ATOM     39  C   UNL     1       0.776   7.166   2.189  1.00  0.00     0.031 C 
ATOM     40  C   UNL     1      -0.303   7.242  -2.717  1.00  0.00     0.029 A 
ATOM     41  N   UNL     1       0.673   9.063  -1.861  1.00  0.00    -0.354 N 
ATOM     42  C   UNL     1       1.613   9.289   2.369  1.00  0.00     0.074 A 
ATOM     43  C   UNL     1       1.271   8.053   3.041  1.00  0.00     0.031 C 
ATOM     44  C   UNL     1      -0.103   8.103  -3.727  1.00  0.00     0.029 A 
ATOM     45  C   UNL     1       0.478   9.331  -3.195  1.00  0.00     0.049 A 
ATOM     46  H   UNL     1       1.114   9.690  -1.243  1.00  0.00     0.167 HD
ATOM     47  C   UNL     1       2.195  10.355   2.968  1.00  0.00     0.037 A 
ATOM     48  C   UNL     1       0.705  10.455  -3.902  1.00  0.00     0.037 A 
ATOM     49  C   UNL     1       2.541  11.572   2.278  1.00  0.00     0.049 A 
ATOM     50  C   UNL     1       1.290  11.650  -3.199  1.00  0.00     0.074 A 
ATOM     51  C   UNL     1       3.151  12.705   2.786  1.00  0.00     0.029 A 
ATOM     52  N   UNL     1       2.300  11.819   0.932  1.00  0.00    -0.354 N 
ATOM     53  N   UNL     1       1.647  11.774  -1.942  1.00  0.00    -0.248 NA
ATOM     54  C   UNL     1       1.500  12.858  -4.006  1.00  0.00     0.031 C 
ATOM     55  C   UNL     1       3.226  13.658   1.764  1.00  0.00     0.029 A 
ATOM     56  C   UNL     1       2.725  13.096   0.601  1.00  0.00     0.049 A 
ATOM     57  H   UNL     1       1.889  11.181   0.306  1.00  0.00     0.167 HD
ATOM     58  C   UNL     1       2.150  13.064  -1.815  1.00  0.00     0.074 A 
ATOM     59  C   UNL     1       2.064  13.674  -3.126  1.00  0.00     0.031 C 
ATOM     60  C   UNL     1       2.638  13.687  -0.713  1.00  0.00     0.037 A 
BRANCH  47  61
ATOM     61  C   UNL     1       2.465  10.269   4.446  1.00  0.00     0.058 A 
ATOM     62  C   UNL     1       3.451   9.422   4.977  1.00  0.00     0.135 A 
ATOM     63  C   UNL     1       1.747  11.077   5.345  1.00  0.00     0.135 A 
ATOM     64  F   UNL     1       4.157   8.616   4.168  1.00  0.00    -0.206 F 
ATOM     65  C   UNL     1       3.696   9.358   6.345  1.00  0.00     0.059 A 
ATOM     66  C   UNL     1       1.998  11.052   6.714  1.00  0.00     0.059 A 
ATOM     67  F   UNL     1       0.792  11.905   4.895  1.00  0.00    -0.206 F 
ATOM     68  C   UNL     1       2.966  10.179   7.206  1.00  0.00     0.060 A 
BRANCH  68  69
ATOM     69  S   UNL     1       3.304  10.088   8.977  1.00  0.00     0.124 S 
ATOM     70  O   UNL     1       2.756   8.777   9.312  1.00  0.00    -0.237 OA
ATOM     71  O   UNL     1       4.758  10.197   9.022  1.00  0.00    -0.237 OA
ATOM     72  O   UNL     1       2.575  11.230   9.523  1.00  0.00    -0.744 OA
ENDBRANCH  68  69
ENDBRANCH  47  61
BRANCH  48  73
ATOM     73  C   UNL     1       0.354  10.508  -5.347  1.00  0.00     0.058 A 
ATOM     74  C   UNL     1       1.348  10.609  -6.331  1.00  0.00     0.135 A 
ATOM     75  C   UNL     1      -0.983  10.450  -5.774  1.00  0.00     0.135 A 
ATOM     76  F   UNL     1       2.640  10.677  -5.975  1.00  0.00    -0.206 F 
ATOM     77  C   UNL     1       1.031  10.668  -7.685  1.00  0.00     0.059 A 
ATOM     78  C   UNL     1      -1.323  10.475  -7.123  1.00  0.00     0.059 A 
ATOM     79  F   UNL     1      -1.973  10.342  -4.875  1.00  0.00    -0.206 F 
ATOM     80  C   UNL     1      -0.309  10.596  -8.071  1.00  0.00     0.060 A 
BRANCH  80  81
ATOM     81  S   UNL     1      -0.704  10.635  -9.832  1.00  0.00     0.124 S 
ATOM     82  O   UNL     1      -0.406  12.022 -10.169  1.00  0.00    -0.237 OA
ATOM     83  O   UNL     1       0.211   9.636 -10.373  1.00  0.00    -0.237 OA
ATOM     84  O   UNL     1      -2.117  10.267  -9.868  1.00  0.00    -0.744 OA
ENDBRANCH  80  81
ENDBRANCH  48  73
BRANCH  60  85
ATOM     85  C   UNL     1       3.158  15.089  -0.885  1.00  0.00     0.058 A 
ATOM     86  C   UNL     1       2.300  16.175  -1.117  1.00  0.00     0.135 A 
ATOM     87  C   UNL     1       4.532  15.353  -0.767  1.00  0.00     0.135 A 
ATOM     88  F   UNL     1       0.978  15.978  -1.246  1.00  0.00    -0.206 F 
ATOM     89  C   UNL     1       2.789  17.471  -1.252  1.00  0.00     0.059 A 
ATOM     90  C   UNL     1       5.039  16.645  -0.865  1.00  0.00     0.059 A 
ATOM     91  F   UNL     1       5.397  14.352  -0.535  1.00  0.00    -0.206 F 
ATOM     92  C   UNL     1       4.160  17.696  -1.120  1.00  0.00     0.060 A 
BRANCH  92  93
ATOM     93  S   UNL     1       4.777  19.387  -1.263  1.00  0.00     0.124 S 
ATOM     94  O   UNL     1       4.621  19.637  -2.692  1.00  0.00    -0.237 OA
ATOM     95  O   UNL     1       3.870  20.123  -0.387  1.00  0.00    -0.237 OA
ATOM     96  O   UNL     1       6.154  19.288  -0.789  1.00  0.00    -0.744 OA
ENDBRANCH  92  93
ENDBRANCH  60  85
ENDBRANCH  34  35
ENDBRANCH  27  29
ENDBRANCH  26  27
ENDBRANCH  25  26
ENDBRANCH   1  25
TORSDOF 18
