REMARK SMILES O=C(OCCOC(=O)[C@H]1C[C@](F)(c2cccc(F)c2)C1)c1ccc(-c2c3nc(c(-c4c(F)cc(S(=O)(=O)[O-])cc4F)c4ccc([nH]4)c(-c4c(F)cc(S(=O)(=O)[O-])cc4F)c4nc(c(-c5c(F)cc(S(=O)(=O)[O-])cc5F)c5ccc2[nH]5)C=C4)C=C3)cc1
REMARK SMILES IDX 4 1 3 2 2 3 1 4 21 5 22 6 86 7 23 8 85 9 24 10 25 11 26 12
REMARK SMILES IDX 79 13 27 14 84 15 78 16 80 17 28 18 83 19 77 20 76 21 29 23
REMARK SMILES IDX 63 24 42 25 62 26 43 27 46 28 61 29 81 30 44 31 45 32 60 34
REMARK SMILES IDX 82 35 47 36 30 37 31 38 40 39 32 40 33 41 39 42 41 43 34 44
REMARK SMILES IDX 35 45 36 46 37 47 38 48 64 49 65 50 74 51 66 52 67 53 73 54
REMARK SMILES IDX 75 55 68 56 69 57 70 58 71 59 72 60 48 61 49 62 58 63 50 64
REMARK SMILES IDX 51 65 57 66 59 67 52 68 53 69 54 70 55 71 56 72 5 73 6 74
REMARK SMILES IDX 7 75 8 76 9 77 10 78 20 79 11 80 12 81 13 82 14 83 19 84
REMARK SMILES IDX 15 85 17 86 16 87 18 88
REMARK H PARENT 80 22 46 33
REMARK Flexibility Score: inf
ROOT
ATOM      1  C   UNL     1       4.163   0.126  -1.662  1.00  0.00     0.275 C 
ENDROOT
BRANCH   1   2
ATOM      2  O   UNL     1       3.070  -0.620  -1.102  1.00  0.00    -0.458 OA
BRANCH   2   3
ATOM      3  C   UNL     1       2.861  -1.058   0.162  1.00  0.00     0.338 C 
ATOM      4  O   UNL     1       1.814  -1.667   0.384  1.00  0.00    -0.246 OA
BRANCH   3   5
ATOM      5  C   UNL     1       3.758  -0.774   1.337  1.00  0.00     0.060 A 
ATOM      6  C   UNL     1       5.066  -0.276   1.301  1.00  0.00     0.016 A 
ATOM      7  C   UNL     1       3.185  -0.981   2.605  1.00  0.00     0.016 A 
ATOM      8  C   UNL     1       5.730   0.129   2.468  1.00  0.00     0.010 A 
ATOM      9  C   UNL     1       3.838  -0.566   3.772  1.00  0.00     0.010 A 
ATOM     10  C   UNL     1       5.102   0.036   3.707  1.00  0.00    -0.014 A 
BRANCH  10  11
ATOM     11  C   UNL     1       5.787   0.469   4.949  1.00  0.00     0.031 A 
ATOM     12  C   UNL     1       6.217  -0.595   5.908  1.00  0.00     0.074 A 
ATOM     13  C   UNL     1       6.020   1.770   5.224  1.00  0.00     0.049 A 
ATOM     14  N   UNL     1       6.835  -0.467   7.049  1.00  0.00    -0.248 NA
ATOM     15  C   UNL     1       5.948  -1.990   5.515  1.00  0.00     0.031 C 
ATOM     16  C   UNL     1       5.745   2.892   4.332  1.00  0.00     0.029 A 
ATOM     17  N   UNL     1       6.518   2.381   6.351  1.00  0.00    -0.354 N 
ATOM     18  C   UNL     1       7.102  -1.761   7.463  1.00  0.00     0.074 A 
ATOM     19  C   UNL     1       6.455  -2.659   6.536  1.00  0.00     0.031 C 
ATOM     20  C   UNL     1       5.967   4.051   4.974  1.00  0.00     0.029 A 
ATOM     21  C   UNL     1       6.454   3.758   6.311  1.00  0.00     0.049 A 
ATOM     22  H   UNL     1       6.885   1.881   7.115  1.00  0.00     0.167 HD
ATOM     23  C   UNL     1       7.900  -2.164   8.474  1.00  0.00     0.037 A 
ATOM     24  C   UNL     1       6.773   4.682   7.239  1.00  0.00     0.037 A 
ATOM     25  C   UNL     1       8.511  -1.262   9.406  1.00  0.00     0.049 A 
ATOM     26  C   UNL     1       7.456   4.207   8.489  1.00  0.00     0.074 A 
ATOM     27  C   UNL     1       9.318  -1.556  10.486  1.00  0.00     0.029 A 
ATOM     28  N   UNL     1       8.360   0.119   9.375  1.00  0.00    -0.354 N 
ATOM     29  N   UNL     1       7.764   2.978   8.833  1.00  0.00    -0.248 NA
ATOM     30  C   UNL     1       7.896   5.231   9.444  1.00  0.00     0.031 C 
ATOM     31  C   UNL     1       9.611  -0.357  11.142  1.00  0.00     0.029 A 
ATOM     32  C   UNL     1       9.033   0.691  10.438  1.00  0.00     0.049 A 
ATOM     33  H   UNL     1       7.849   0.617   8.696  1.00  0.00     0.167 HD
ATOM     34  C   UNL     1       8.499   3.085  10.005  1.00  0.00     0.074 A 
ATOM     35  C   UNL     1       8.564   4.498  10.327  1.00  0.00     0.031 C 
ATOM     36  C   UNL     1       9.091   2.104  10.729  1.00  0.00     0.037 A 
BRANCH  23  37
ATOM     37  C   UNL     1       8.160  -3.636   8.570  1.00  0.00     0.058 A 
ATOM     38  C   UNL     1       7.592  -4.407   9.592  1.00  0.00     0.135 A 
ATOM     39  C   UNL     1       8.943  -4.293   7.602  1.00  0.00     0.135 A 
ATOM     40  F   UNL     1       6.820  -3.830  10.525  1.00  0.00    -0.206 F 
ATOM     41  C   UNL     1       7.787  -5.782   9.650  1.00  0.00     0.059 A 
ATOM     42  C   UNL     1       9.129  -5.670   7.627  1.00  0.00     0.059 A 
ATOM     43  F   UNL     1       9.475  -3.603   6.580  1.00  0.00    -0.206 F 
ATOM     44  C   UNL     1       8.552  -6.405   8.661  1.00  0.00     0.060 A 
BRANCH  44  45
ATOM     45  S   UNL     1       8.736  -8.199   8.718  1.00  0.00     0.124 S 
ATOM     46  O   UNL     1       9.579  -8.376   9.892  1.00  0.00    -0.237 OA
ATOM     47  O   UNL     1       7.352  -8.644   8.849  1.00  0.00    -0.237 OA
ATOM     48  O   UNL     1       9.366  -8.515   7.436  1.00  0.00    -0.744 OA
ENDBRANCH  44  45
ENDBRANCH  23  37
BRANCH  24  49
ATOM     49  C   UNL     1       6.535   6.132   6.985  1.00  0.00     0.058 A 
ATOM     50  C   UNL     1       5.242   6.676   7.033  1.00  0.00     0.135 A 
ATOM     51  C   UNL     1       7.593   7.005   6.688  1.00  0.00     0.135 A 
ATOM     52  F   UNL     1       4.192   5.893   7.321  1.00  0.00    -0.206 F 
ATOM     53  C   UNL     1       5.005   8.028   6.789  1.00  0.00     0.059 A 
ATOM     54  C   UNL     1       7.384   8.364   6.458  1.00  0.00     0.059 A 
ATOM     55  F   UNL     1       8.850   6.538   6.641  1.00  0.00    -0.206 F 
ATOM     56  C   UNL     1       6.084   8.865   6.502  1.00  0.00     0.060 A 
BRANCH  56  57
ATOM     57  S   UNL     1       5.758  10.617   6.194  1.00  0.00     0.124 S 
ATOM     58  O   UNL     1       4.959  10.559   4.973  1.00  0.00    -0.237 OA
ATOM     59  O   UNL     1       5.038  11.008   7.404  1.00  0.00    -0.237 OA
ATOM     60  O   UNL     1       7.089  11.190   6.045  1.00  0.00    -0.744 OA
ENDBRANCH  56  57
ENDBRANCH  24  49
BRANCH  36  61
ATOM     61  C   UNL     1       9.900   2.515  11.923  1.00  0.00     0.058 A 
ATOM     62  C   UNL     1      11.295   2.353  11.914  1.00  0.00     0.135 A 
ATOM     63  C   UNL     1       9.293   2.959  13.106  1.00  0.00     0.135 A 
ATOM     64  F   UNL     1      11.922   1.928  10.805  1.00  0.00    -0.206 F 
ATOM     65  C   UNL     1      12.057   2.580  13.051  1.00  0.00     0.059 A 
ATOM     66  C   UNL     1      10.041   3.224  14.247  1.00  0.00     0.059 A 
ATOM     67  F   UNL     1       7.964   3.143  13.155  1.00  0.00    -0.206 F 
ATOM     68  C   UNL     1      11.419   3.008  14.216  1.00  0.00     0.060 A 
BRANCH  68  69
ATOM     69  S   UNL     1      12.421   3.276  15.691  1.00  0.00     0.124 S 
ATOM     70  O   UNL     1      12.787   1.912  16.055  1.00  0.00    -0.237 OA
ATOM     71  O   UNL     1      13.504   4.111  15.179  1.00  0.00    -0.237 OA
ATOM     72  O   UNL     1      11.502   3.946  16.607  1.00  0.00    -0.744 OA
ENDBRANCH  68  69
ENDBRANCH  36  61
ENDBRANCH  10  11
ENDBRANCH   3   5
ENDBRANCH   2   3
ENDBRANCH   1   2
BRANCH   1  73
ATOM     73  C   UNL     1       4.084   1.636  -1.412  1.00  0.00     0.274 C 
BRANCH  73  74
ATOM     74  O   UNL     1       3.547   1.948  -0.116  1.00  0.00    -0.462 OA
BRANCH  74  75
ATOM     75  C   UNL     1       2.324   2.571  -0.050  1.00  0.00     0.309 C 
ATOM     76  O   UNL     1       1.717   2.951  -1.048  1.00  0.00    -0.252 OA
BRANCH  75  77
ATOM     77  C   UNL     1       1.785   2.658   1.409  1.00  0.00     0.106 C 
ATOM     78  C   UNL     1       1.493   4.021   2.070  1.00  0.00     0.061 C 
ATOM     79  C   UNL     1       2.768   2.369   2.537  1.00  0.00     0.061 C 
ATOM     80  C   UNL     1       2.413   3.671   3.274  1.00  0.00     0.137 C 
ATOM     81  F   UNL     1       3.459   4.534   3.362  1.00  0.00    -0.239 F 
BRANCH  80  82
ATOM     82  C   UNL     1       1.817   3.527   4.770  1.00  0.00    -0.008 A 
ATOM     83  C   UNL     1       1.587   4.670   5.567  1.00  0.00     0.007 A 
ATOM     84  C   UNL     1       1.596   2.293   5.426  1.00  0.00     0.046 A 
ATOM     85  C   UNL     1       1.184   4.592   6.910  1.00  0.00     0.003 A 
ATOM     86  C   UNL     1       1.200   2.213   6.762  1.00  0.00     0.123 A 
ATOM     87  C   UNL     1       0.993   3.354   7.513  1.00  0.00     0.039 A 
ATOM     88  F   UNL     1       1.032   1.008   7.324  1.00  0.00    -0.207 F 
ENDBRANCH  80  82
ENDBRANCH  75  77
ENDBRANCH  74  75
ENDBRANCH  73  74
ENDBRANCH   1  73
TORSDOF 15
