REMARK SMILES COc1ccc(C(=O)Nc2cc(C(=O)OCCOC(=O)c3ccc(-c4c5nc(c(-c6c(F)cc(S(=O)(=O)[O-])cc6F)c6ccc([nH]6)c(-c6c(F)cc(S(=O)(=O)[O-])cc6F)c6nc(c(-c7c(F)cc(S(=O)(=O)[O-])cc7F)c7ccc4[nH]7)C=C6)C=C5)cc3)c(Cl)cc2Cl)cc1Cl
REMARK SMILES IDX 16 1 15 2 13 3 14 4 12 5 10 6 11 7 90 8 89 9 91 10 87 11
REMARK SMILES IDX 88 12 9 13 7 14 8 15 6 17 3 18 4 19 93 20 5 21 92 22 94 23
REMARK SMILES IDX 2 24 1 25 17 26 18 27 19 28 20 29 21 30 22 31 86 32 23 33
REMARK SMILES IDX 85 34 24 35 25 36 26 37 79 38 27 39 84 40 78 41 80 42 28 43
REMARK SMILES IDX 83 44 77 45 76 46 29 48 63 49 42 50 62 51 43 52 46 53 61 54
REMARK SMILES IDX 81 55 44 56 45 57 60 59 82 60 47 61 30 62 31 63 40 64 32 65
REMARK SMILES IDX 33 66 39 67 41 68 34 69 35 70 36 71 37 72 38 73 64 74 65 75
REMARK SMILES IDX 74 76 66 77 67 78 73 79 75 80 68 81 69 82 70 83 71 84 72 85
REMARK SMILES IDX 48 86 49 87 58 88 50 89 51 90 57 91 59 92 52 93 53 94 54 95
REMARK SMILES IDX 55 96 56 97
REMARK H PARENT 9 16 80 47 46 58
REMARK Flexibility Score: inf
ROOT
ATOM      1  C   UNL     1       6.802   0.332   2.317  1.00  0.00     0.275 C 
ENDROOT
BRANCH   1   2
ATOM      2  O   UNL     1       6.593  -1.086   2.139  1.00  0.00    -0.458 OA
BRANCH   2   3
ATOM      3  C   UNL     1       6.355  -1.799   3.267  1.00  0.00     0.339 C 
ATOM      4  O   UNL     1       6.256  -1.357   4.396  1.00  0.00    -0.246 OA
BRANCH   3   5
ATOM      5  C   UNL     1       6.119  -3.230   2.970  1.00  0.00     0.080 A 
ATOM      6  C   UNL     1       4.680  -5.164   3.366  1.00  0.00     0.061 A 
ATOM      7  C   UNL     1       4.961  -3.805   3.518  1.00  0.00     0.045 A 
ATOM      8  C   UNL     1       5.626  -5.985   2.750  1.00  0.00     0.066 A 
ATOM      9  C   UNL     1       6.769  -5.422   2.175  1.00  0.00     0.044 A 
ATOM     10  Cl  UNL     1       5.362  -7.683   2.581  1.00  0.00    -0.082 Cl
ATOM     11  C   UNL     1       7.013  -4.043   2.273  1.00  0.00     0.057 A 
ATOM     12  Cl  UNL     1       8.468  -3.446   1.562  1.00  0.00    -0.083 Cl
BRANCH   6  13
ATOM     13  N   UNL     1       3.458  -5.692   3.816  1.00  0.00    -0.321 N 
ATOM     14  C   UNL     1       2.186  -5.159   3.730  1.00  0.00     0.255 C 
ATOM     15  O   UNL     1       1.304  -5.607   4.461  1.00  0.00    -0.269 OA
ATOM     16  H   UNL     1       3.517  -6.570   4.258  1.00  0.00     0.170 HD
BRANCH  14  17
ATOM     17  C   UNL     1       1.822  -4.155   2.680  1.00  0.00     0.041 A 
ATOM     18  C   UNL     1       1.033  -2.267   0.718  1.00  0.00     0.137 A 
ATOM     19  C   UNL     1       0.269  -2.484   1.868  1.00  0.00     0.049 A 
ATOM     20  C   UNL     1       2.148  -3.077   0.505  1.00  0.00     0.083 A 
ATOM     21  C   UNL     1       0.657  -3.406   2.847  1.00  0.00     0.018 A 
ATOM     22  C   UNL     1       2.520  -4.026   1.472  1.00  0.00     0.038 A 
ATOM     23  Cl  UNL     1       3.087  -3.057  -0.946  1.00  0.00    -0.080 Cl
BRANCH  18  24
ATOM     24  O   UNL     1       0.507  -1.319  -0.117  1.00  0.00    -0.495 OA
ATOM     25  C   UNL     1       1.426  -0.428  -0.737  1.00  0.00     0.278 C 
ENDBRANCH  18  24
ENDBRANCH  14  17
ENDBRANCH   6  13
ENDBRANCH   3   5
ENDBRANCH   2   3
ENDBRANCH   1   2
BRANCH   1  26
ATOM     26  C   UNL     1       5.609   1.170   1.837  1.00  0.00     0.275 C 
BRANCH  26  27
ATOM     27  O   UNL     1       4.505   1.162   2.767  1.00  0.00    -0.458 OA
BRANCH  27  28
ATOM     28  C   UNL     1       3.665   0.118   2.604  1.00  0.00     0.338 C 
ATOM     29  O   UNL     1       3.784  -0.781   1.786  1.00  0.00    -0.246 OA
BRANCH  28  30
ATOM     30  C   UNL     1       2.608   0.081   3.624  1.00  0.00     0.060 A 
ATOM     31  C   UNL     1       2.711  -0.930   4.569  1.00  0.00     0.016 A 
ATOM     32  C   UNL     1       1.435   0.830   3.531  1.00  0.00     0.016 A 
ATOM     33  C   UNL     1       1.604  -1.302   5.320  1.00  0.00     0.010 A 
ATOM     34  C   UNL     1       0.358   0.535   4.389  1.00  0.00     0.010 A 
ATOM     35  C   UNL     1       0.406  -0.568   5.261  1.00  0.00    -0.014 A 
BRANCH  35  36
ATOM     36  C   UNL     1      -0.733  -0.980   6.142  1.00  0.00     0.031 A 
ATOM     37  C   UNL     1      -2.083  -1.383   5.590  1.00  0.00     0.074 A 
ATOM     38  C   UNL     1      -0.517  -1.089   7.471  1.00  0.00     0.049 A 
ATOM     39  N   UNL     1      -3.114  -1.903   6.213  1.00  0.00    -0.248 NA
ATOM     40  C   UNL     1      -2.305  -1.206   4.150  1.00  0.00     0.031 C 
ATOM     41  C   UNL     1       0.738  -0.758   8.153  1.00  0.00     0.029 A 
ATOM     42  N   UNL     1      -1.333  -1.525   8.486  1.00  0.00    -0.354 N 
ATOM     43  C   UNL     1      -4.071  -2.165   5.236  1.00  0.00     0.074 A 
ATOM     44  C   UNL     1      -3.512  -1.727   3.977  1.00  0.00     0.031 C 
ATOM     45  C   UNL     1       0.626  -1.046   9.455  1.00  0.00     0.029 A 
ATOM     46  C   UNL     1      -0.737  -1.485   9.725  1.00  0.00     0.049 A 
ATOM     47  H   UNL     1      -2.256  -1.836   8.341  1.00  0.00     0.167 HD
ATOM     48  C   UNL     1      -5.312  -2.695   5.368  1.00  0.00     0.037 A 
ATOM     49  C   UNL     1      -1.235  -1.720  10.954  1.00  0.00     0.037 A 
ATOM     50  C   UNL     1      -5.929  -3.003   6.632  1.00  0.00     0.049 A 
ATOM     51  C   UNL     1      -2.670  -2.132  11.094  1.00  0.00     0.074 A 
ATOM     52  C   UNL     1      -7.213  -3.461   6.877  1.00  0.00     0.029 A 
ATOM     53  N   UNL     1      -5.322  -2.839   7.867  1.00  0.00    -0.354 N 
ATOM     54  N   UNL     1      -3.546  -2.388  10.154  1.00  0.00    -0.248 NA
ATOM     55  C   UNL     1      -3.191  -2.265  12.460  1.00  0.00     0.031 C 
ATOM     56  C   UNL     1      -7.401  -3.512   8.263  1.00  0.00     0.029 A 
ATOM     57  C   UNL     1      -6.218  -3.139   8.880  1.00  0.00     0.049 A 
ATOM     58  H   UNL     1      -4.390  -2.551   8.005  1.00  0.00     0.167 HD
ATOM     59  C   UNL     1      -4.723  -2.720  10.813  1.00  0.00     0.074 A 
ATOM     60  C   UNL     1      -4.440  -2.647  12.233  1.00  0.00     0.031 C 
ATOM     61  C   UNL     1      -5.927  -3.052  10.289  1.00  0.00     0.037 A 
BRANCH  48  62
ATOM     62  C   UNL     1      -6.114  -2.913   4.113  1.00  0.00     0.058 A 
ATOM     63  C   UNL     1      -5.859  -3.998   3.259  1.00  0.00     0.135 A 
ATOM     64  C   UNL     1      -7.165  -2.046   3.772  1.00  0.00     0.135 A 
ATOM     65  F   UNL     1      -4.859  -4.851   3.531  1.00  0.00    -0.206 F 
ATOM     66  C   UNL     1      -6.606  -4.205   2.102  1.00  0.00     0.059 A 
ATOM     67  C   UNL     1      -7.934  -2.243   2.627  1.00  0.00     0.059 A 
ATOM     68  F   UNL     1      -7.449  -0.991   4.551  1.00  0.00    -0.206 F 
ATOM     69  C   UNL     1      -7.638  -3.318   1.791  1.00  0.00     0.060 A 
BRANCH  69  70
ATOM     70  S   UNL     1      -8.583  -3.585   0.274  1.00  0.00     0.124 S 
ATOM     71  O   UNL     1      -7.606  -3.220  -0.747  1.00  0.00    -0.237 OA
ATOM     72  O   UNL     1      -8.915  -5.003   0.355  1.00  0.00    -0.237 OA
ATOM     73  O   UNL     1      -9.714  -2.671   0.411  1.00  0.00    -0.744 OA
ENDBRANCH  69  70
ENDBRANCH  48  62
BRANCH  49  74
ATOM     74  C   UNL     1      -0.377  -1.477  12.145  1.00  0.00     0.058 A 
ATOM     75  C   UNL     1       0.060  -2.526  12.964  1.00  0.00     0.135 A 
ATOM     76  C   UNL     1       0.055  -0.177  12.459  1.00  0.00     0.135 A 
ATOM     77  F   UNL     1      -0.336  -3.783  12.714  1.00  0.00    -0.206 F 
ATOM     78  C   UNL     1       0.897  -2.296  14.052  1.00  0.00     0.059 A 
ATOM     79  C   UNL     1       0.916   0.073  13.520  1.00  0.00     0.059 A 
ATOM     80  F   UNL     1      -0.327   0.862  11.699  1.00  0.00    -0.206 F 
ATOM     81  C   UNL     1       1.325  -0.993  14.317  1.00  0.00     0.060 A 
BRANCH  81  82
ATOM     82  S   UNL     1       2.465  -0.706  15.688  1.00  0.00     0.124 S 
ATOM     83  O   UNL     1       1.567  -0.778  16.834  1.00  0.00    -0.237 OA
ATOM     84  O   UNL     1       3.408  -1.810  15.544  1.00  0.00    -0.237 OA
ATOM     85  O   UNL     1       3.013   0.616  15.395  1.00  0.00    -0.744 OA
ENDBRANCH  81  82
ENDBRANCH  49  74
BRANCH  61  86
ATOM     86  C   UNL     1      -7.030  -3.375  11.255  1.00  0.00     0.058 A 
ATOM     87  C   UNL     1      -7.685  -2.370  11.983  1.00  0.00     0.135 A 
ATOM     88  C   UNL     1      -7.464  -4.699  11.421  1.00  0.00     0.135 A 
ATOM     89  F   UNL     1      -7.300  -1.090  11.866  1.00  0.00    -0.206 F 
ATOM     90  C   UNL     1      -8.722  -2.670  12.859  1.00  0.00     0.059 A 
ATOM     91  C   UNL     1      -8.515  -5.019  12.274  1.00  0.00     0.059 A 
ATOM     92  F   UNL     1      -6.874  -5.695  10.741  1.00  0.00    -0.206 F 
ATOM     93  C   UNL     1      -9.131  -3.998  12.997  1.00  0.00     0.060 A 
BRANCH  93  94
ATOM     94  S   UNL     1     -10.502  -4.373  14.109  1.00  0.00     0.124 S 
ATOM     95  O   UNL     1      -9.854  -4.290  15.414  1.00  0.00    -0.237 OA
ATOM     96  O   UNL     1     -11.454  -3.309  13.805  1.00  0.00    -0.237 OA
ATOM     97  O   UNL     1     -10.916  -5.711  13.697  1.00  0.00    -0.744 OA
ENDBRANCH  93  94
ENDBRANCH  61  86
ENDBRANCH  35  36
ENDBRANCH  28  30
ENDBRANCH  27  28
ENDBRANCH  26  27
ENDBRANCH   1  26
TORSDOF 17
