REMARK SMILES Cc1nn(C(C)C)cc1-c1cnccc1C(=O)OCCOC(=O)c1ccc(-c2c3nc(c(-c4c(F)cc(S(=O)(=O)[O-])cc4F)c4ccc([nH]4)c(-c4c(F)cc(S(=O)(=O)[O-])cc4F)c4nc(c(-c5c(F)cc(S(=O)(=O)[O-])cc5F)c5ccc2[nH]5)C=C4)C=C3)cc1
REMARK SMILES IDX 20 1 19 2 18 3 16 4 17 5 15 6 10 7 11 8 12 9 14 10 13 11
REMARK SMILES IDX 9 12 1 13 2 14 3 15 4 16 8 17 5 18 6 19 7 20 21 21 22 22
REMARK SMILES IDX 23 23 24 24 25 25 89 26 26 27 88 28 27 29 28 30 29 31 82 32
REMARK SMILES IDX 30 33 87 34 81 35 83 36 31 37 86 38 80 39 79 40 32 42 66 43
REMARK SMILES IDX 45 44 65 45 46 46 49 47 64 48 84 49 47 50 48 51 63 53 85 54
REMARK SMILES IDX 50 55 33 56 34 57 43 58 35 59 36 60 42 61 44 62 37 63 38 64
REMARK SMILES IDX 39 65 40 66 41 67 67 68 68 69 77 70 69 71 70 72 76 73 78 74
REMARK SMILES IDX 71 75 72 76 73 77 74 78 75 79 51 80 52 81 61 82 53 83 54 84
REMARK SMILES IDX 60 85 62 86 55 87 56 88 57 89 58 90 59 91
REMARK H PARENT 83 41 49 52
REMARK Flexibility Score: inf
ROOT
ATOM      1  C   UNL     1       2.420  -2.437   5.163  1.00  0.00     0.275 C 
ENDROOT
BRANCH   1   2
ATOM      2  C   UNL     1       1.042  -3.047   4.992  1.00  0.00     0.275 C 
BRANCH   2   3
ATOM      3  O   UNL     1       0.250  -2.204   4.145  1.00  0.00    -0.458 OA
BRANCH   3   4
ATOM      4  C   UNL     1      -0.632  -1.359   4.716  1.00  0.00     0.338 C 
ATOM      5  O   UNL     1      -0.921  -1.348   5.908  1.00  0.00    -0.246 OA
BRANCH   4   6
ATOM      6  C   UNL     1      -1.184  -0.363   3.748  1.00  0.00     0.071 A 
ATOM      7  C   UNL     1      -1.181  -0.467   2.346  1.00  0.00     0.018 A 
ATOM      8  C   UNL     1      -1.797   0.569   1.641  1.00  0.00     0.120 A 
ATOM      9  N   UNL     1      -2.352   1.672   2.197  1.00  0.00    -0.264 NA
ATOM     10  C   UNL     1      -1.720   0.795   4.340  1.00  0.00     0.036 A 
ATOM     11  C   UNL     1      -2.271   1.775   3.536  1.00  0.00     0.112 A 
BRANCH   7  12
ATOM     12  C   UNL     1      -0.526  -1.508   1.575  1.00  0.00     0.025 A 
ATOM     13  C   UNL     1       1.119  -0.206  -0.012  1.00  0.00     0.069 C 
ATOM     14  C   UNL     1       0.485  -1.416   0.575  1.00  0.00     0.067 A 
ATOM     15  N   UNL     1       0.884  -2.628   0.167  1.00  0.00    -0.177 NA
ATOM     16  N   UNL     1       0.211  -3.475   0.965  1.00  0.00    -0.269 N 
ATOM     17  C   UNL     1      -0.752  -2.861   1.713  1.00  0.00     0.118 A 
BRANCH  16  18
ATOM     18  C   UNL     1       0.565  -4.889   1.001  1.00  0.00     0.101 C 
ATOM     19  C   UNL     1       0.091  -5.595  -0.265  1.00  0.00     0.033 C 
ATOM     20  C   UNL     1       2.062  -5.104   1.238  1.00  0.00     0.033 C 
ENDBRANCH  16  18
ENDBRANCH   7  12
ENDBRANCH   4   6
ENDBRANCH   3   4
ENDBRANCH   2   3
ENDBRANCH   1   2
BRANCH   1  21
ATOM     21  O   UNL     1       2.352  -1.308   6.028  1.00  0.00    -0.458 OA
BRANCH  21  22
ATOM     22  C   UNL     1       2.161  -0.118   5.416  1.00  0.00     0.338 C 
ATOM     23  O   UNL     1       1.794   0.081   4.271  1.00  0.00    -0.246 OA
BRANCH  22  24
ATOM     24  C   UNL     1       2.684   0.939   6.282  1.00  0.00     0.060 A 
ATOM     25  C   UNL     1       2.631   2.245   5.786  1.00  0.00     0.016 A 
ATOM     26  C   UNL     1       3.440   0.603   7.415  1.00  0.00     0.016 A 
ATOM     27  C   UNL     1       3.476   3.187   6.329  1.00  0.00     0.010 A 
ATOM     28  C   UNL     1       4.288   1.541   7.949  1.00  0.00     0.010 A 
ATOM     29  C   UNL     1       4.345   2.799   7.353  1.00  0.00    -0.014 A 
BRANCH  29  30
ATOM     30  C   UNL     1       5.268   3.791   7.865  1.00  0.00     0.031 A 
ATOM     31  C   UNL     1       4.598   4.832   8.676  1.00  0.00     0.074 A 
ATOM     32  C   UNL     1       6.600   3.651   7.730  1.00  0.00     0.049 A 
ATOM     33  N   UNL     1       4.546   6.104   8.466  1.00  0.00    -0.248 NA
ATOM     34  C   UNL     1       3.736   4.371   9.781  1.00  0.00     0.031 C 
ATOM     35  C   UNL     1       7.304   2.462   7.230  1.00  0.00     0.029 A 
ATOM     36  N   UNL     1       7.613   4.464   8.139  1.00  0.00    -0.354 N 
ATOM     37  C   UNL     1       3.862   6.623   9.562  1.00  0.00     0.074 A 
ATOM     38  C   UNL     1       3.206   5.518  10.203  1.00  0.00     0.031 C 
ATOM     39  C   UNL     1       8.601   2.534   7.594  1.00  0.00     0.029 A 
ATOM     40  C   UNL     1       8.840   3.821   8.227  1.00  0.00     0.049 A 
ATOM     41  H   UNL     1       7.487   5.416   8.353  1.00  0.00     0.167 HD
ATOM     42  C   UNL     1       4.166   7.856  10.045  1.00  0.00     0.037 A 
ATOM     43  C   UNL     1       9.950   4.273   8.857  1.00  0.00     0.037 A 
ATOM     44  C   UNL     1       4.892   8.629   9.073  1.00  0.00     0.049 A 
ATOM     45  C   UNL     1       9.828   5.746   9.001  1.00  0.00     0.074 A 
ATOM     46  C   UNL     1       4.594   9.285   7.901  1.00  0.00     0.029 A 
ATOM     47  N   UNL     1       6.253   8.475   9.127  1.00  0.00    -0.354 N 
ATOM     48  N   UNL     1       9.779   6.575   7.992  1.00  0.00    -0.248 NA
ATOM     49  C   UNL     1       9.413   6.308  10.283  1.00  0.00     0.031 C 
ATOM     50  C   UNL     1       5.814   9.365   7.168  1.00  0.00     0.029 A 
ATOM     51  C   UNL     1       6.827   8.768   7.918  1.00  0.00     0.049 A 
ATOM     52  H   UNL     1       6.751   8.192   9.928  1.00  0.00     0.167 HD
ATOM     53  C   UNL     1       8.957   7.600   8.422  1.00  0.00     0.074 A 
ATOM     54  C   UNL     1       8.907   7.473   9.871  1.00  0.00     0.031 C 
ATOM     55  C   UNL     1       8.133   8.255   7.557  1.00  0.00     0.037 A 
BRANCH  42  56
ATOM     56  C   UNL     1       4.264   8.179  11.523  1.00  0.00     0.058 A 
ATOM     57  C   UNL     1       4.489   9.516  11.910  1.00  0.00     0.135 A 
ATOM     58  C   UNL     1       4.472   7.211  12.533  1.00  0.00     0.135 A 
ATOM     59  F   UNL     1       4.319  10.518  11.032  1.00  0.00    -0.206 F 
ATOM     60  C   UNL     1       4.972   9.856  13.174  1.00  0.00     0.059 A 
ATOM     61  C   UNL     1       4.901   7.534  13.814  1.00  0.00     0.059 A 
ATOM     62  F   UNL     1       4.375   5.897  12.307  1.00  0.00    -0.206 F 
ATOM     63  C   UNL     1       5.196   8.852  14.111  1.00  0.00     0.060 A 
BRANCH  63  64
ATOM     64  S   UNL     1       5.941   9.262  15.698  1.00  0.00     0.124 S 
ATOM     65  O   UNL     1       7.306   9.585  15.300  1.00  0.00    -0.237 OA
ATOM     66  O   UNL     1       5.118  10.383  16.139  1.00  0.00    -0.237 OA
ATOM     67  O   UNL     1       5.780   8.033  16.470  1.00  0.00    -0.744 OA
ENDBRANCH  63  64
ENDBRANCH  42  56
BRANCH  43  68
ATOM     68  C   UNL     1      10.949   3.457   9.595  1.00  0.00     0.058 A 
ATOM     69  C   UNL     1      12.223   3.958   9.905  1.00  0.00     0.135 A 
ATOM     70  C   UNL     1      10.586   2.246  10.222  1.00  0.00     0.135 A 
ATOM     71  F   UNL     1      12.636   5.120   9.378  1.00  0.00    -0.206 F 
ATOM     72  C   UNL     1      13.079   3.309  10.802  1.00  0.00     0.059 A 
ATOM     73  C   UNL     1      11.427   1.574  11.105  1.00  0.00     0.059 A 
ATOM     74  F   UNL     1       9.364   1.718  10.057  1.00  0.00    -0.206 F 
ATOM     75  C   UNL     1      12.666   2.122  11.408  1.00  0.00     0.060 A 
BRANCH  75  76
ATOM     76  S   UNL     1      13.709   1.353  12.667  1.00  0.00     0.124 S 
ATOM     77  O   UNL     1      14.855   0.911  11.880  1.00  0.00    -0.237 OA
ATOM     78  O   UNL     1      13.954   2.462  13.583  1.00  0.00    -0.237 OA
ATOM     79  O   UNL     1      12.869   0.283  13.198  1.00  0.00    -0.744 OA
ENDBRANCH  75  76
ENDBRANCH  43  68
BRANCH  55  80
ATOM     80  C   UNL     1       8.518   8.299   6.109  1.00  0.00     0.058 A 
ATOM     81  C   UNL     1       8.491   7.200   5.237  1.00  0.00     0.135 A 
ATOM     82  C   UNL     1       8.805   9.558   5.556  1.00  0.00     0.135 A 
ATOM     83  F   UNL     1       8.152   5.980   5.678  1.00  0.00    -0.206 F 
ATOM     84  C   UNL     1       8.754   7.346   3.873  1.00  0.00     0.059 A 
ATOM     85  C   UNL     1       9.040   9.731   4.198  1.00  0.00     0.059 A 
ATOM     86  F   UNL     1       8.799  10.652   6.336  1.00  0.00    -0.206 F 
ATOM     87  C   UNL     1       9.018   8.618   3.361  1.00  0.00     0.060 A 
BRANCH  87  88
ATOM     88  S   UNL     1       9.248   8.826   1.582  1.00  0.00     0.124 S 
ATOM     89  O   UNL     1      10.575   8.257   1.375  1.00  0.00    -0.237 OA
ATOM     90  O   UNL     1       8.135   8.060   1.027  1.00  0.00    -0.237 OA
ATOM     91  O   UNL     1       9.151  10.271   1.392  1.00  0.00    -0.744 OA
ENDBRANCH  87  88
ENDBRANCH  55  80
ENDBRANCH  29  30
ENDBRANCH  22  24
ENDBRANCH  21  22
ENDBRANCH   1  21
TORSDOF 16
