REMARK SMILES O=C(OCCOC(=O)c1cc(Br)ccc1OC(=O)c1ccc(F)cc1)c1ccc(-c2c3nc(c(-c4c(F)cc(S(=O)(=O)[O-])cc4F)c4ccc([nH]4)c(-c4c(F)cc(S(=O)(=O)[O-])cc4F)c4nc(c(-c5c(F)cc(S(=O)(=O)[O-])cc5F)c5ccc2[nH]5)C=C4)C=C3)cc1
REMARK SMILES IDX 4 1 3 2 2 3 1 4 26 5 27 6 91 7 28 8 90 9 29 10 30 11 31 12
REMARK SMILES IDX 84 13 32 14 89 15 83 16 85 17 33 18 88 19 82 20 81 21 34 23
REMARK SMILES IDX 68 24 47 25 67 26 48 27 51 28 66 29 86 30 49 31 50 32 65 34
REMARK SMILES IDX 87 35 52 36 35 37 36 38 45 39 37 40 38 41 44 42 46 43 39 44
REMARK SMILES IDX 40 45 41 46 42 47 43 48 69 49 70 50 79 51 71 52 72 53 78 54
REMARK SMILES IDX 80 55 73 56 74 57 75 58 76 59 77 60 53 61 54 62 63 63 55 64
REMARK SMILES IDX 56 65 62 66 64 67 57 68 58 69 59 70 60 71 61 72 5 73 6 74
REMARK SMILES IDX 7 75 8 76 9 77 10 78 15 79 11 80 14 81 12 82 13 83 16 84
REMARK SMILES IDX 17 85 18 86 19 87 20 88 25 89 21 90 24 91 22 92 23 93
REMARK H PARENT 85 22 51 33
REMARK Flexibility Score: inf
ROOT
ATOM      1  C   UNL     1       5.312  -0.462  -1.992  1.00  0.00     0.275 C 
ENDROOT
BRANCH   1   2
ATOM      2  O   UNL     1       5.254  -1.117  -0.707  1.00  0.00    -0.458 OA
BRANCH   2   3
ATOM      3  C   UNL     1       4.257  -0.765   0.127  1.00  0.00     0.338 C 
ATOM      4  O   UNL     1       3.152  -1.290   0.100  1.00  0.00    -0.246 OA
BRANCH   3   5
ATOM      5  C   UNL     1       4.644   0.335   1.050  1.00  0.00     0.060 A 
ATOM      6  C   UNL     1       5.890   0.958   0.952  1.00  0.00     0.016 A 
ATOM      7  C   UNL     1       3.697   0.831   1.953  1.00  0.00     0.016 A 
ATOM      8  C   UNL     1       6.159   2.089   1.710  1.00  0.00     0.010 A 
ATOM      9  C   UNL     1       3.940   2.000   2.669  1.00  0.00     0.010 A 
ATOM     10  C   UNL     1       5.184   2.620   2.563  1.00  0.00    -0.014 A 
BRANCH  10  11
ATOM     11  C   UNL     1       5.582   3.729   3.448  1.00  0.00     0.031 A 
ATOM     12  C   UNL     1       5.949   3.395   4.858  1.00  0.00     0.074 A 
ATOM     13  C   UNL     1       5.796   4.951   2.929  1.00  0.00     0.049 A 
ATOM     14  N   UNL     1       6.697   4.070   5.686  1.00  0.00    -0.248 NA
ATOM     15  C   UNL     1       5.452   2.116   5.394  1.00  0.00     0.031 C 
ATOM     16  C   UNL     1       5.465   5.355   1.562  1.00  0.00     0.029 A 
ATOM     17  N   UNL     1       6.391   6.058   3.472  1.00  0.00    -0.354 N 
ATOM     18  C   UNL     1       6.837   3.254   6.798  1.00  0.00     0.074 A 
ATOM     19  C   UNL     1       6.012   2.088   6.591  1.00  0.00     0.031 C 
ATOM     20  C   UNL     1       5.888   6.615   1.363  1.00  0.00     0.029 A 
ATOM     21  C   UNL     1       6.537   7.094   2.580  1.00  0.00     0.049 A 
ATOM     22  H   UNL     1       6.686   6.107   4.410  1.00  0.00     0.167 HD
ATOM     23  C   UNL     1       7.635   3.440   7.872  1.00  0.00     0.037 A 
ATOM     24  C   UNL     1       7.167   8.276   2.721  1.00  0.00     0.037 A 
ATOM     25  C   UNL     1       8.398   4.635   8.084  1.00  0.00     0.049 A 
ATOM     26  C   UNL     1       7.949   8.519   3.984  1.00  0.00     0.074 A 
ATOM     27  C   UNL     1       9.195   4.971   9.160  1.00  0.00     0.029 A 
ATOM     28  N   UNL     1       8.434   5.705   7.199  1.00  0.00    -0.354 N 
ATOM     29  N   UNL     1       8.132   7.713   5.005  1.00  0.00    -0.248 NA
ATOM     30  C   UNL     1       8.639   9.809   4.104  1.00  0.00     0.031 C 
ATOM     31  C   UNL     1       9.680   6.266   8.945  1.00  0.00     0.029 A 
ATOM     32  C   UNL     1       9.223   6.715   7.713  1.00  0.00     0.049 A 
ATOM     33  H   UNL     1       7.966   5.739   6.334  1.00  0.00     0.167 HD
ATOM     34  C   UNL     1       8.989   8.381   5.871  1.00  0.00     0.074 A 
ATOM     35  C   UNL     1       9.284   9.660   5.254  1.00  0.00     0.031 C 
ATOM     36  C   UNL     1       9.497   7.973   7.061  1.00  0.00     0.037 A 
BRANCH  23  37
ATOM     37  C   UNL     1       7.698   2.318   8.864  1.00  0.00     0.058 A 
ATOM     38  C   UNL     1       7.047   2.412  10.100  1.00  0.00     0.135 A 
ATOM     39  C   UNL     1       8.368   1.120   8.559  1.00  0.00     0.135 A 
ATOM     40  F   UNL     1       6.372   3.524  10.427  1.00  0.00    -0.206 F 
ATOM     41  C   UNL     1       7.053   1.353  11.002  1.00  0.00     0.059 A 
ATOM     42  C   UNL     1       8.370   0.042   9.437  1.00  0.00     0.059 A 
ATOM     43  F   UNL     1       8.973   0.968   7.369  1.00  0.00    -0.206 F 
ATOM     44  C   UNL     1       7.712   0.170  10.659  1.00  0.00     0.060 A 
BRANCH  44  45
ATOM     45  S   UNL     1       7.637  -1.223  11.806  1.00  0.00     0.124 S 
ATOM     46  O   UNL     1       8.516  -0.774  12.879  1.00  0.00    -0.237 OA
ATOM     47  O   UNL     1       6.214  -1.278  12.127  1.00  0.00    -0.237 OA
ATOM     48  O   UNL     1       8.132  -2.342  11.009  1.00  0.00    -0.744 OA
ENDBRANCH  44  45
ENDBRANCH  23  37
BRANCH  24  49
ATOM     49  C   UNL     1       7.130   9.271   1.616  1.00  0.00     0.058 A 
ATOM     50  C   UNL     1       5.937   9.938   1.296  1.00  0.00     0.135 A 
ATOM     51  C   UNL     1       8.261   9.550   0.835  1.00  0.00     0.135 A 
ATOM     52  F   UNL     1       4.823   9.701   2.006  1.00  0.00    -0.206 F 
ATOM     53  C   UNL     1       5.861  10.833   0.234  1.00  0.00     0.059 A 
ATOM     54  C   UNL     1       8.216  10.459  -0.221  1.00  0.00     0.059 A 
ATOM     55  F   UNL     1       9.427   8.941   1.102  1.00  0.00    -0.206 F 
ATOM     56  C   UNL     1       7.007  11.085  -0.522  1.00  0.00     0.060 A 
BRANCH  56  57
ATOM     57  S   UNL     1       6.884  12.245  -1.901  1.00  0.00     0.124 S 
ATOM     58  O   UNL     1       6.033  11.506  -2.829  1.00  0.00    -0.237 OA
ATOM     59  O   UNL     1       6.273  13.409  -1.268  1.00  0.00    -0.237 OA
ATOM     60  O   UNL     1       8.270  12.418  -2.323  1.00  0.00    -0.744 OA
ENDBRANCH  56  57
ENDBRANCH  24  49
BRANCH  36  61
ATOM     61  C   UNL     1      10.444   8.901   7.765  1.00  0.00     0.058 A 
ATOM     62  C   UNL     1      11.808   8.582   7.852  1.00  0.00     0.135 A 
ATOM     63  C   UNL     1       9.986  10.044   8.437  1.00  0.00     0.135 A 
ATOM     64  F   UNL     1      12.290   7.493   7.233  1.00  0.00    -0.206 F 
ATOM     65  C   UNL     1      12.684   9.353   8.604  1.00  0.00     0.059 A 
ATOM     66  C   UNL     1      10.851  10.845   9.173  1.00  0.00     0.059 A 
ATOM     67  F   UNL     1       8.691  10.391   8.374  1.00  0.00    -0.206 F 
ATOM     68  C   UNL     1      12.195  10.480   9.266  1.00  0.00     0.060 A 
BRANCH  68  69
ATOM     69  S   UNL     1      13.346  11.472  10.239  1.00  0.00     0.124 S 
ATOM     70  O   UNL     1      13.557  10.623  11.406  1.00  0.00    -0.237 OA
ATOM     71  O   UNL     1      14.484  11.603   9.334  1.00  0.00    -0.237 OA
ATOM     72  O   UNL     1      12.604  12.706  10.483  1.00  0.00    -0.744 OA
ENDBRANCH  68  69
ENDBRANCH  36  61
ENDBRANCH  10  11
ENDBRANCH   3   5
ENDBRANCH   2   3
ENDBRANCH   1   2
BRANCH   1  73
ATOM     73  C   UNL     1       4.088   0.328  -2.477  1.00  0.00     0.275 C 
BRANCH  73  74
ATOM     74  O   UNL     1       3.694   1.373  -1.569  1.00  0.00    -0.458 OA
BRANCH  74  75
ATOM     75  C   UNL     1       2.411   1.780  -1.758  1.00  0.00     0.342 C 
ATOM     76  O   UNL     1       1.665   1.432  -2.660  1.00  0.00    -0.246 OA
BRANCH  75  77
ATOM     77  C   UNL     1       2.004   2.730  -0.716  1.00  0.00     0.103 A 
ATOM     78  C   UNL     1       2.349   4.078  -0.864  1.00  0.00     0.035 A 
ATOM     79  C   UNL     1       1.189   2.329   0.349  1.00  0.00     0.145 A 
ATOM     80  C   UNL     1       1.883   5.008   0.068  1.00  0.00     0.019 A 
ATOM     81  C   UNL     1       0.754   3.259   1.299  1.00  0.00     0.049 A 
ATOM     82  Br  UNL     1       2.296   6.840  -0.153  1.00  0.00    -0.051 Br
ATOM     83  C   UNL     1       1.098   4.606   1.150  1.00  0.00     0.019 A 
BRANCH  79  84
ATOM     84  O   UNL     1       0.930   0.967   0.589  1.00  0.00    -0.422 OA
BRANCH  84  85
ATOM     85  C   UNL     1      -0.281   0.488   0.130  1.00  0.00     0.343 C 
ATOM     86  O   UNL     1      -1.120   1.123  -0.488  1.00  0.00    -0.246 OA
BRANCH  85  87
ATOM     87  C   UNL     1      -0.464  -0.947   0.519  1.00  0.00     0.060 A 
ATOM     88  C   UNL     1      -1.628  -1.600   0.089  1.00  0.00     0.019 A 
ATOM     89  C   UNL     1       0.462  -1.672   1.285  1.00  0.00     0.019 A 
ATOM     90  C   UNL     1      -1.838  -2.951   0.385  1.00  0.00     0.040 A 
ATOM     91  C   UNL     1       0.268  -3.030   1.559  1.00  0.00     0.040 A 
ATOM     92  C   UNL     1      -0.880  -3.658   1.103  1.00  0.00     0.123 A 
ATOM     93  F   UNL     1      -1.069  -4.960   1.357  1.00  0.00    -0.207 F 
ENDBRANCH  85  87
ENDBRANCH  84  85
ENDBRANCH  79  84
ENDBRANCH  75  77
ENDBRANCH  74  75
ENDBRANCH  73  74
ENDBRANCH   1  73
TORSDOF 17
