REMARK SMILES CO[C@H]1CN(C(=O)c2cn(C(C)C)cc(C(=O)OCCOC(=O)c3ccc(-c4c5nc(c(-c6c(F)cc(S(=O)(=O)[O-])cc6F)c6ccc([nH]6)c(-c6c(F)cc(S(=O)(=O)[O-])cc6F)c6nc(c(-c7c(F)cc(S(=O)(=O)[O-])cc7F)c7ccc4[nH]7)C=C6)C=C5)cc3)c2=O)CC[C@H]1[NH3+]
REMARK SMILES IDX 19 1 18 2 16 3 17 4 15 5 8 6 9 7 90 8 10 9 91 10 14 11 6 12
REMARK SMILES IDX 7 13 5 14 3 15 4 16 94 17 93 18 92 19 2 20 1 21 95 22 11 26
REMARK SMILES IDX 12 27 13 28 20 29 21 30 22 31 23 32 24 33 25 34 89 35 26 36
REMARK SMILES IDX 88 37 27 38 28 39 29 40 82 41 30 42 87 43 81 44 83 45 31 46
REMARK SMILES IDX 86 47 80 48 79 49 32 51 66 52 45 53 65 54 46 55 49 56 64 57
REMARK SMILES IDX 84 58 47 59 48 60 63 62 85 63 50 64 33 65 34 66 43 67 35 68
REMARK SMILES IDX 36 69 42 70 44 71 37 72 38 73 39 74 40 75 41 76 67 77 68 78
REMARK SMILES IDX 77 79 69 80 70 81 76 82 78 83 71 84 72 85 73 86 74 87 75 88
REMARK SMILES IDX 51 89 52 90 61 91 53 92 54 93 60 94 62 95 55 96 56 97 57 98
REMARK SMILES IDX 58 99 59 100
REMARK H PARENT 95 23 95 24 95 25 83 50 49 61
REMARK Flexibility Score: inf
ROOT
ATOM      1  C   UNL     1      -2.815   2.400  -6.697  1.00  0.00     0.275 C 
ENDROOT
BRANCH   1   2
ATOM      2  O   UNL     1      -2.957   1.494  -5.588  1.00  0.00    -0.458 OA
BRANCH   2   3
ATOM      3  C   UNL     1      -2.620   1.960  -4.363  1.00  0.00     0.343 C 
ATOM      4  O   UNL     1      -2.202   3.081  -4.117  1.00  0.00    -0.246 OA
BRANCH   3   5
ATOM      5  C   UNL     1      -2.914   0.967  -3.314  1.00  0.00     0.124 A 
ATOM      6  C   UNL     1      -2.958  -1.321  -2.246  1.00  0.00     0.104 A 
ATOM      7  C   UNL     1      -3.423  -0.733  -1.131  1.00  0.00     0.103 A 
ATOM      8  C   UNL     1      -2.816  -0.505  -3.484  1.00  0.00     0.208 A 
ATOM      9  N   UNL     1      -3.700   0.627  -1.036  1.00  0.00    -0.350 N 
ATOM     10  O   UNL     1      -2.509  -1.029  -4.551  1.00  0.00    -0.288 OA
ATOM     11  C   UNL     1      -3.296   1.421  -2.107  1.00  0.00     0.105 A 
BRANCH   6  12
ATOM     12  C   UNL     1      -2.428  -2.694  -2.129  1.00  0.00     0.259 C 
ATOM     13  O   UNL     1      -3.179  -3.619  -1.827  1.00  0.00    -0.269 OA
BRANCH  12  14
ATOM     14  N   UNL     1      -1.049  -2.838  -2.278  1.00  0.00    -0.335 N 
ATOM     15  C   UNL     1       1.142  -1.786  -1.674  1.00  0.00     0.195 C 
ATOM     16  C   UNL     1      -0.107  -1.744  -2.566  1.00  0.00     0.158 C 
ATOM     17  C   UNL     1       1.806  -3.190  -1.732  1.00  0.00     0.213 C 
ATOM     18  C   UNL     1       0.757  -4.261  -1.389  1.00  0.00     0.089 C 
ATOM     19  C   UNL     1      -0.477  -4.178  -2.285  1.00  0.00     0.126 C 
BRANCH  15  20
ATOM     20  O   UNL     1       2.094  -0.781  -2.054  1.00  0.00    -0.373 OA
ATOM     21  C   UNL     1       1.750   0.530  -1.623  1.00  0.00     0.195 C 
ENDBRANCH  15  20
BRANCH  17  22
ATOM     22  N   UNL     1       2.473  -3.493  -3.010  1.00  0.00    -0.353 N 
ATOM     23  H   UNL     1       1.781  -3.508  -3.760  1.00  0.00     0.344 HD
ATOM     24  H   UNL     1       2.928  -4.404  -2.949  1.00  0.00     0.344 HD
ATOM     25  H   UNL     1       3.172  -2.776  -3.207  1.00  0.00     0.344 HD
ENDBRANCH  17  22
ENDBRANCH  12  14
ENDBRANCH   6  12
BRANCH   9  26
ATOM     26  C   UNL     1      -4.385   1.238   0.134  1.00  0.00     0.080 C 
ATOM     27  C   UNL     1      -5.697   0.518   0.454  1.00  0.00     0.031 C 
ATOM     28  C   UNL     1      -3.457   1.299   1.341  1.00  0.00     0.031 C 
ENDBRANCH   9  26
ENDBRANCH   3   5
ENDBRANCH   2   3
ENDBRANCH   1   2
BRANCH   1  29
ATOM     29  C   UNL     1      -4.185   2.796  -7.254  1.00  0.00     0.275 C 
BRANCH  29  30
ATOM     30  O   UNL     1      -4.876   3.678  -6.348  1.00  0.00    -0.458 OA
BRANCH  30  31
ATOM     31  C   UNL     1      -5.772   3.080  -5.530  1.00  0.00     0.338 C 
ATOM     32  O   UNL     1      -6.097   1.901  -5.524  1.00  0.00    -0.246 OA
BRANCH  31  33
ATOM     33  C   UNL     1      -6.163   4.017  -4.466  1.00  0.00     0.060 A 
ATOM     34  C   UNL     1      -6.950   5.142  -4.691  1.00  0.00     0.016 A 
ATOM     35  C   UNL     1      -5.762   3.691  -3.172  1.00  0.00     0.016 A 
ATOM     36  C   UNL     1      -7.310   5.947  -3.600  1.00  0.00     0.010 A 
ATOM     37  C   UNL     1      -6.108   4.491  -2.089  1.00  0.00     0.010 A 
ATOM     38  C   UNL     1      -6.890   5.629  -2.290  1.00  0.00    -0.014 A 
BRANCH  38  39
ATOM     39  C   UNL     1      -7.363   6.410  -1.119  1.00  0.00     0.031 A 
ATOM     40  C   UNL     1      -6.422   7.237  -0.286  1.00  0.00     0.074 A 
ATOM     41  C   UNL     1      -8.660   6.312  -0.766  1.00  0.00     0.049 A 
ATOM     42  N   UNL     1      -6.704   8.063   0.689  1.00  0.00    -0.248 NA
ATOM     43  C   UNL     1      -4.982   7.093  -0.551  1.00  0.00     0.031 C 
ATOM     44  C   UNL     1      -9.638   5.429  -1.404  1.00  0.00     0.029 A 
ATOM     45  N   UNL     1      -9.382   6.968   0.198  1.00  0.00    -0.354 N 
ATOM     46  C   UNL     1      -5.484   8.549   1.144  1.00  0.00     0.074 A 
ATOM     47  C   UNL     1      -4.454   7.870   0.387  1.00  0.00     0.031 C 
ATOM     48  C   UNL     1     -10.847   5.653  -0.867  1.00  0.00     0.029 A 
ATOM     49  C   UNL     1     -10.728   6.688   0.156  1.00  0.00     0.049 A 
ATOM     50  H   UNL     1      -8.977   7.579   0.855  1.00  0.00     0.167 HD
ATOM     51  C   UNL     1      -5.250   9.501   2.080  1.00  0.00     0.037 A 
ATOM     52  C   UNL     1     -11.756   7.237   0.830  1.00  0.00     0.037 A 
ATOM     53  C   UNL     1      -6.288  10.191   2.802  1.00  0.00     0.049 A 
ATOM     54  C   UNL     1     -11.487   8.355   1.798  1.00  0.00     0.074 A 
ATOM     55  C   UNL     1      -6.162  11.233   3.705  1.00  0.00     0.029 A 
ATOM     56  N   UNL     1      -7.642   9.911   2.701  1.00  0.00    -0.354 N 
ATOM     57  N   UNL     1     -10.338   8.896   2.127  1.00  0.00    -0.248 NA
ATOM     58  C   UNL     1     -12.648   8.948   2.475  1.00  0.00     0.031 C 
ATOM     59  C   UNL     1      -7.438  11.564   4.170  1.00  0.00     0.029 A 
ATOM     60  C   UNL     1      -8.362  10.753   3.531  1.00  0.00     0.049 A 
ATOM     61  H   UNL     1      -8.034   9.216   2.125  1.00  0.00     0.167 HD
ATOM     62  C   UNL     1     -10.640   9.905   3.033  1.00  0.00     0.074 A 
ATOM     63  C   UNL     1     -12.079   9.907   3.195  1.00  0.00     0.031 C 
ATOM     64  C   UNL     1      -9.797  10.752   3.671  1.00  0.00     0.037 A 
BRANCH  51  65
ATOM     65  C   UNL     1      -3.822   9.899   2.343  1.00  0.00     0.058 A 
ATOM     66  C   UNL     1      -3.088  10.629   1.395  1.00  0.00     0.135 A 
ATOM     67  C   UNL     1      -3.207   9.625   3.575  1.00  0.00     0.135 A 
ATOM     68  F   UNL     1      -3.625  10.915   0.198  1.00  0.00    -0.206 F 
ATOM     69  C   UNL     1      -1.787  11.050   1.647  1.00  0.00     0.059 A 
ATOM     70  C   UNL     1      -1.914  10.059   3.860  1.00  0.00     0.059 A 
ATOM     71  F   UNL     1      -3.865   8.937   4.521  1.00  0.00    -0.206 F 
ATOM     72  C   UNL     1      -1.208  10.761   2.883  1.00  0.00     0.060 A 
BRANCH  72  73
ATOM     73  S   UNL     1       0.477  11.330   3.196  1.00  0.00     0.124 S 
ATOM     74  O   UNL     1       1.250  10.421   2.355  1.00  0.00    -0.237 OA
ATOM     75  O   UNL     1       0.426  12.718   2.748  1.00  0.00    -0.237 OA
ATOM     76  O   UNL     1       0.638  11.142   4.634  1.00  0.00    -0.744 OA
ENDBRANCH  72  73
ENDBRANCH  51  65
BRANCH  52  77
ATOM     77  C   UNL     1     -13.143   6.807   0.517  1.00  0.00     0.058 A 
ATOM     78  C   UNL     1     -13.984   7.628  -0.249  1.00  0.00     0.135 A 
ATOM     79  C   UNL     1     -13.631   5.553   0.912  1.00  0.00     0.135 A 
ATOM     80  F   UNL     1     -13.557   8.835  -0.652  1.00  0.00    -0.206 F 
ATOM     81  C   UNL     1     -15.264   7.224  -0.609  1.00  0.00     0.059 A 
ATOM     82  C   UNL     1     -14.902   5.119   0.549  1.00  0.00     0.059 A 
ATOM     83  F   UNL     1     -12.853   4.724   1.625  1.00  0.00    -0.206 F 
ATOM     84  C   UNL     1     -15.713   5.964  -0.209  1.00  0.00     0.060 A 
BRANCH  84  85
ATOM     85  S   UNL     1     -17.352   5.424  -0.742  1.00  0.00     0.124 S 
ATOM     86  O   UNL     1     -18.217   6.245   0.097  1.00  0.00    -0.237 OA
ATOM     87  O   UNL     1     -17.337   5.757  -2.163  1.00  0.00    -0.237 OA
ATOM     88  O   UNL     1     -17.349   3.996  -0.440  1.00  0.00    -0.744 OA
ENDBRANCH  84  85
ENDBRANCH  52  77
BRANCH  64  89
ATOM     89  C   UNL     1     -10.392  11.767   4.604  1.00  0.00     0.058 A 
ATOM     90  C   UNL     1     -10.817  11.409   5.892  1.00  0.00     0.135 A 
ATOM     91  C   UNL     1     -10.415  13.126   4.254  1.00  0.00     0.135 A 
ATOM     92  F   UNL     1     -10.820  10.121   6.269  1.00  0.00    -0.206 F 
ATOM     93  C   UNL     1     -11.234  12.368   6.808  1.00  0.00     0.059 A 
ATOM     94  C   UNL     1     -10.811  14.104   5.161  1.00  0.00     0.059 A 
ATOM     95  F   UNL     1     -10.012  13.517   3.035  1.00  0.00    -0.206 F 
ATOM     96  C   UNL     1     -11.214  13.715   6.438  1.00  0.00     0.060 A 
BRANCH  96  97
ATOM     97  S   UNL     1     -11.663  14.954   7.673  1.00  0.00     0.124 S 
ATOM     98  O   UNL     1     -13.106  14.763   7.771  1.00  0.00    -0.237 OA
ATOM     99  O   UNL     1     -10.886  14.530   8.834  1.00  0.00    -0.237 OA
ATOM    100  O   UNL     1     -11.235  16.210   7.066  1.00  0.00    -0.744 OA
ENDBRANCH  96  97
ENDBRANCH  64  89
ENDBRANCH  38  39
ENDBRANCH  31  33
ENDBRANCH  30  31
ENDBRANCH  29  30
ENDBRANCH   1  29
TORSDOF 19
