REMARK SMILES O=C(OCCOC(=O)[C@H](c1ccccc1)N1C(=O)/C(=C/c2ccc(-c3nc4ccccc4s3)o2)SC1=S)c1ccc(-c2c3nc(c(-c4c(F)cc(S(=O)(=O)[O-])cc4F)c4ccc([nH]4)c(-c4c(F)cc(S(=O)(=O)[O-])cc4F)c4nc(c(-c5c(F)cc(S(=O)(=O)[O-])cc5F)c5ccc2[nH]5)C=C4)C=C3)cc1
REMARK SMILES IDX 4 1 3 2 2 3 1 4 38 5 39 6 103 7 40 8 102 9 41 10 42 11 43 12
REMARK SMILES IDX 96 13 44 14 101 15 95 16 97 17 45 18 100 19 94 20 93 21
REMARK SMILES IDX 46 23 80 24 59 25 79 26 60 27 63 28 78 29 98 30 61 31 62 32
REMARK SMILES IDX 77 34 99 35 64 36 47 37 48 38 57 39 49 40 50 41 56 42 58 43
REMARK SMILES IDX 51 44 52 45 53 46 54 47 55 48 81 49 82 50 91 51 83 52 84 53
REMARK SMILES IDX 90 54 92 55 85 56 86 57 87 58 88 59 89 60 65 61 66 62 75 63
REMARK SMILES IDX 67 64 68 65 74 66 76 67 69 68 70 69 71 70 72 71 73 72 5 73
REMARK SMILES IDX 6 74 7 75 8 76 9 77 16 78 17 79 36 80 18 81 19 82 35 83
REMARK SMILES IDX 37 84 20 85 21 86 22 87 34 88 23 89 24 90 25 91 26 92 33 93
REMARK SMILES IDX 27 94 32 95 28 96 31 97 29 98 30 99 10 100 11 101 15 102
REMARK SMILES IDX 12 103 14 104 13 105
REMARK H PARENT 97 22 63 33
REMARK Flexibility Score: inf
ROOT
ATOM      1  C   UNL     1       3.624   5.112  -0.190  1.00  0.00     0.275 C 
ENDROOT
BRANCH   1   2
ATOM      2  O   UNL     1       3.791   4.070   0.787  1.00  0.00    -0.458 OA
BRANCH   2   3
ATOM      3  C   UNL     1       2.992   3.019   1.086  1.00  0.00     0.338 C 
ATOM      4  O   UNL     1       3.321   2.297   2.027  1.00  0.00    -0.246 OA
BRANCH   3   5
ATOM      5  C   UNL     1       1.783   2.615   0.291  1.00  0.00     0.060 A 
ATOM      6  C   UNL     1       0.967   3.450  -0.483  1.00  0.00     0.016 A 
ATOM      7  C   UNL     1       1.437   1.257   0.357  1.00  0.00     0.016 A 
ATOM      8  C   UNL     1      -0.100   2.939  -1.238  1.00  0.00     0.010 A 
ATOM      9  C   UNL     1       0.358   0.746  -0.372  1.00  0.00     0.010 A 
ATOM     10  C   UNL     1      -0.414   1.582  -1.185  1.00  0.00    -0.014 A 
BRANCH  10  11
ATOM     11  C   UNL     1      -1.675   1.067  -1.769  1.00  0.00     0.031 A 
ATOM     12  C   UNL     1      -2.791   0.757  -0.811  1.00  0.00     0.074 A 
ATOM     13  C   UNL     1      -1.821   0.849  -3.089  1.00  0.00     0.049 A 
ATOM     14  N   UNL     1      -3.944   0.188  -1.030  1.00  0.00    -0.248 NA
ATOM     15  C   UNL     1      -2.548   1.113   0.598  1.00  0.00     0.031 C 
ATOM     16  C   UNL     1      -0.813   1.117  -4.115  1.00  0.00     0.029 A 
ATOM     17  N   UNL     1      -2.882   0.336  -3.793  1.00  0.00    -0.354 N 
ATOM     18  C   UNL     1      -4.544   0.079   0.220  1.00  0.00     0.074 A 
ATOM     19  C   UNL     1      -3.608   0.596   1.192  1.00  0.00     0.031 C 
ATOM     20  C   UNL     1      -1.303   0.759  -5.316  1.00  0.00     0.029 A 
ATOM     21  C   UNL     1      -2.652   0.221  -5.145  1.00  0.00     0.049 A 
ATOM     22  H   UNL     1      -3.731   0.074  -3.369  1.00  0.00     0.167 HD
ATOM     23  C   UNL     1      -5.774  -0.391   0.531  1.00  0.00     0.037 A 
ATOM     24  C   UNL     1      -3.445  -0.266  -6.123  1.00  0.00     0.037 A 
ATOM     25  C   UNL     1      -6.707  -0.873  -0.445  1.00  0.00     0.049 A 
ATOM     26  C   UNL     1      -4.825  -0.762  -5.765  1.00  0.00     0.074 A 
ATOM     27  C   UNL     1      -7.984  -1.362  -0.253  1.00  0.00     0.029 A 
ATOM     28  N   UNL     1      -6.455  -0.916  -1.810  1.00  0.00    -0.354 N 
ATOM     29  N   UNL     1      -5.393  -0.834  -4.583  1.00  0.00    -0.248 NA
ATOM     30  C   UNL     1      -5.678  -1.233  -6.867  1.00  0.00     0.031 C 
ATOM     31  C   UNL     1      -8.501  -1.718  -1.504  1.00  0.00     0.029 A 
ATOM     32  C   UNL     1      -7.557  -1.416  -2.476  1.00  0.00     0.049 A 
ATOM     33  H   UNL     1      -5.616  -0.631  -2.239  1.00  0.00     0.167 HD
ATOM     34  C   UNL     1      -6.677  -1.323  -4.803  1.00  0.00     0.074 A 
ATOM     35  C   UNL     1      -6.803  -1.533  -6.230  1.00  0.00     0.031 C 
ATOM     36  C   UNL     1      -7.664  -1.572  -3.906  1.00  0.00     0.037 A 
BRANCH  23  37
ATOM     37  C   UNL     1      -6.130  -0.414   1.990  1.00  0.00     0.058 A 
ATOM     38  C   UNL     1      -6.333   0.772   2.715  1.00  0.00     0.135 A 
ATOM     39  C   UNL     1      -6.161  -1.627   2.693  1.00  0.00     0.135 A 
ATOM     40  F   UNL     1      -6.286   1.962   2.093  1.00  0.00    -0.206 F 
ATOM     41  C   UNL     1      -6.476   0.761   4.098  1.00  0.00     0.059 A 
ATOM     42  C   UNL     1      -6.335  -1.664   4.073  1.00  0.00     0.059 A 
ATOM     43  F   UNL     1      -5.974  -2.789   2.048  1.00  0.00    -0.206 F 
ATOM     44  C   UNL     1      -6.455  -0.461   4.770  1.00  0.00     0.060 A 
BRANCH  44  45
ATOM     45  S   UNL     1      -6.546  -0.461   6.572  1.00  0.00     0.124 S 
ATOM     46  O   UNL     1      -5.177  -0.101   6.929  1.00  0.00    -0.237 OA
ATOM     47  O   UNL     1      -7.557   0.558   6.838  1.00  0.00    -0.237 OA
ATOM     48  O   UNL     1      -6.941  -1.829   6.891  1.00  0.00    -0.744 OA
ENDBRANCH  44  45
ENDBRANCH  23  37
BRANCH  24  49
ATOM     49  C   UNL     1      -2.970  -0.275  -7.535  1.00  0.00     0.058 A 
ATOM     50  C   UNL     1      -3.498   0.617  -8.480  1.00  0.00     0.135 A 
ATOM     51  C   UNL     1      -1.968  -1.158  -7.965  1.00  0.00     0.135 A 
ATOM     52  F   UNL     1      -4.466   1.475  -8.124  1.00  0.00    -0.206 F 
ATOM     53  C   UNL     1      -3.053   0.635  -9.799  1.00  0.00     0.059 A 
ATOM     54  C   UNL     1      -1.491  -1.147  -9.274  1.00  0.00     0.059 A 
ATOM     55  F   UNL     1      -1.422  -2.026  -7.099  1.00  0.00    -0.206 F 
ATOM     56  C   UNL     1      -2.042  -0.247 -10.185  1.00  0.00     0.060 A 
BRANCH  56  57
ATOM     57  S   UNL     1      -1.414  -0.155 -11.878  1.00  0.00     0.124 S 
ATOM     58  O   UNL     1      -2.517  -0.736 -12.635  1.00  0.00    -0.237 OA
ATOM     59  O   UNL     1      -1.209   1.280 -12.047  1.00  0.00    -0.237 OA
ATOM     60  O   UNL     1      -0.192  -0.951 -11.826  1.00  0.00    -0.744 OA
ENDBRANCH  56  57
ENDBRANCH  24  49
BRANCH  36  61
ATOM     61  C   UNL     1      -8.992  -2.040  -4.427  1.00  0.00     0.058 A 
ATOM     62  C   UNL     1      -9.206  -3.372  -4.806  1.00  0.00     0.135 A 
ATOM     63  C   UNL     1     -10.097  -1.173  -4.401  1.00  0.00     0.135 A 
ATOM     64  F   UNL     1      -8.179  -4.236  -4.850  1.00  0.00    -0.206 F 
ATOM     65  C   UNL     1     -10.477  -3.836  -5.128  1.00  0.00     0.059 A 
ATOM     66  C   UNL     1     -11.379  -1.620  -4.701  1.00  0.00     0.059 A 
ATOM     67  F   UNL     1      -9.941   0.109  -4.036  1.00  0.00    -0.206 F 
ATOM     68  C   UNL     1     -11.559  -2.955  -5.059  1.00  0.00     0.060 A 
BRANCH  68  69
ATOM     69  S   UNL     1     -13.219  -3.594  -5.372  1.00  0.00     0.124 S 
ATOM     70  O   UNL     1     -13.216  -3.722  -6.825  1.00  0.00    -0.237 OA
ATOM     71  O   UNL     1     -13.218  -4.848  -4.625  1.00  0.00    -0.237 OA
ATOM     72  O   UNL     1     -14.090  -2.554  -4.834  1.00  0.00    -0.744 OA
ENDBRANCH  68  69
ENDBRANCH  36  61
ENDBRANCH  10  11
ENDBRANCH   3   5
ENDBRANCH   2   3
ENDBRANCH   1   2
BRANCH   1  73
ATOM     73  C   UNL     1       4.035   4.693  -1.598  1.00  0.00     0.274 C 
BRANCH  73  74
ATOM     74  O   UNL     1       3.457   3.429  -1.953  1.00  0.00    -0.460 OA
BRANCH  74  75
ATOM     75  C   UNL     1       4.291   2.513  -2.530  1.00  0.00     0.334 C 
ATOM     76  O   UNL     1       5.484   2.693  -2.729  1.00  0.00    -0.249 OA
BRANCH  75  77
ATOM     77  C   UNL     1       3.493   1.243  -2.985  1.00  0.00     0.232 C 
BRANCH  77  78
ATOM     78  N   UNL     1       3.735   1.046  -4.441  1.00  0.00    -0.274 N 
ATOM     79  C   UNL     1       3.702   2.189  -5.226  1.00  0.00     0.267 C 
ATOM     80  C   UNL     1       3.641  -0.122  -5.180  1.00  0.00     0.149 C 
ATOM     81  O   UNL     1       3.361   3.319  -4.859  1.00  0.00    -0.268 OA
ATOM     82  C   UNL     1       4.047   1.891  -6.624  1.00  0.00     0.084 C 
ATOM     83  S   UNL     1       4.062   0.199  -6.858  1.00  0.00    -0.054 SA
ATOM     84  S   UNL     1       3.186  -1.670  -4.779  1.00  0.00    -0.052 S 
ATOM     85  C   UNL     1       4.311   2.849  -7.520  1.00  0.00     0.068 C 
BRANCH  85  86
ATOM     86  C   UNL     1       4.596   2.514  -8.864  1.00  0.00     0.129 A 
ATOM     87  C   UNL     1       3.714   2.089  -9.845  1.00  0.00     0.051 A 
ATOM     88  O   UNL     1       5.866   2.486  -9.385  1.00  0.00    -0.454 OA
ATOM     89  C   UNL     1       4.477   1.761 -10.981  1.00  0.00     0.054 A 
ATOM     90  C   UNL     1       5.801   2.006 -10.667  1.00  0.00     0.163 A 
BRANCH  90  91
ATOM     91  C   UNL     1       6.935   1.784 -11.516  1.00  0.00     0.160 A 
ATOM     92  N   UNL     1       6.796   1.672 -12.818  1.00  0.00    -0.233 NA
ATOM     93  S   UNL     1       8.530   1.596 -10.917  1.00  0.00    -0.111 S 
ATOM     94  C   UNL     1       8.010   1.382 -13.399  1.00  0.00     0.082 A 
ATOM     95  C   UNL     1       9.088   1.278 -12.519  1.00  0.00     0.055 A 
ATOM     96  C   UNL     1       8.224   1.180 -14.775  1.00  0.00     0.030 A 
ATOM     97  C   UNL     1      10.379   0.958 -12.972  1.00  0.00     0.021 A 
ATOM     98  C   UNL     1       9.503   0.865 -15.238  1.00  0.00     0.002 A 
ATOM     99  C   UNL     1      10.564   0.751 -14.345  1.00  0.00     0.002 A 
ENDBRANCH  90  91
ENDBRANCH  85  86
ENDBRANCH  77  78
BRANCH  77 100
ATOM    100  C   UNL     1       3.868   0.071  -2.077  1.00  0.00    -0.014 A 
ATOM    101  C   UNL     1       5.185  -0.175  -1.656  1.00  0.00     0.006 A 
ATOM    102  C   UNL     1       2.873  -0.825  -1.648  1.00  0.00     0.006 A 
ATOM    103  C   UNL     1       5.480  -1.245  -0.807  1.00  0.00     0.000 A 
ATOM    104  C   UNL     1       3.166  -1.899  -0.806  1.00  0.00     0.000 A 
ATOM    105  C   UNL     1       4.471  -2.104  -0.378  1.00  0.00     0.000 A 
ENDBRANCH  77 100
ENDBRANCH  75  77
ENDBRANCH  74  75
ENDBRANCH  73  74
ENDBRANCH   1  73
TORSDOF 18
