REMARK SMILES [NH3+][C@H]1CN(C(=O)OCC2c3ccccc3-c3ccccc32)C[C@@H]1C(=O)OCCOC(=O)c1ccc(-c2c3nc(c(-c4c(F)cc(S(=O)(=O)[O-])cc4F)c4ccc([nH]4)c(-c4c(F)cc(S(=O)(=O)[O-])cc4F)c4nc(c(-c5c(F)cc(S(=O)(=O)[O-])cc5F)c5ccc2[nH]5)C=C4)C=C3)cc1
REMARK SMILES IDX 27 1 26 2 24 3 25 4 23 5 2 6 3 7 4 8 22 9 1 10 5 14 6 15
REMARK SMILES IDX 7 16 8 17 9 18 10 19 21 20 11 21 15 22 16 23 20 24 12 25
REMARK SMILES IDX 14 26 17 27 19 28 13 29 18 30 28 31 29 32 30 33 31 34 32 35
REMARK SMILES IDX 33 36 97 37 34 38 96 39 35 40 36 41 37 42 90 43 38 44 95 45
REMARK SMILES IDX 89 46 91 47 39 48 94 49 88 50 87 51 40 53 74 54 53 55 73 56
REMARK SMILES IDX 54 57 57 58 72 59 92 60 55 61 56 62 71 64 93 65 58 66 41 67
REMARK SMILES IDX 42 68 51 69 43 70 44 71 50 72 52 73 45 74 46 75 47 76 48 77
REMARK SMILES IDX 49 78 75 79 76 80 85 81 77 82 78 83 84 84 86 85 79 86 80 87
REMARK SMILES IDX 81 88 82 89 83 90 59 91 60 92 69 93 61 94 62 95 68 96 70 97
REMARK SMILES IDX 63 98 64 99 65 100 66 101 67 102
REMARK H PARENT 1 11 1 12 1 13 91 52 57 63
REMARK Flexibility Score: inf
ROOT
ATOM      1  C   UNL     1       4.736  -3.094   0.409  1.00  0.00     0.274 C 
ENDROOT
BRANCH   1   2
ATOM      2  O   UNL     1       3.514  -3.011  -0.356  1.00  0.00    -0.462 OA
BRANCH   2   3
ATOM      3  C   UNL     1       2.376  -3.335   0.320  1.00  0.00     0.317 C 
ATOM      4  O   UNL     1       2.343  -3.584   1.518  1.00  0.00    -0.252 OA
BRANCH   3   5
ATOM      5  C   UNL     1       1.173  -3.393  -0.607  1.00  0.00     0.178 C 
ATOM      6  C   UNL     1       0.285  -2.134  -0.536  1.00  0.00     0.216 C 
ATOM      7  C   UNL     1      -0.826  -2.481   0.494  1.00  0.00     0.188 C 
ATOM      8  N   UNL     1      -0.583  -3.857   0.859  1.00  0.00    -0.301 N 
ATOM      9  C   UNL     1       0.254  -4.509  -0.126  1.00  0.00     0.145 C 
BRANCH   6  10
ATOM     10  N   UNL     1      -0.294  -1.820  -1.854  1.00  0.00    -0.353 N 
ATOM     11  H   UNL     1      -0.875  -0.985  -1.780  1.00  0.00     0.344 HD
ATOM     12  H   UNL     1      -0.864  -2.604  -2.170  1.00  0.00     0.344 HD
ATOM     13  H   UNL     1       0.457  -1.654  -2.525  1.00  0.00     0.344 HD
ENDBRANCH   6  10
BRANCH   8  14
ATOM     14  C   UNL     1      -0.863  -4.448   2.068  1.00  0.00     0.410 C 
ATOM     15  O   UNL     1      -0.555  -5.599   2.324  1.00  0.00    -0.224 OA
BRANCH  14  16
ATOM     16  O   UNL     1      -1.510  -3.612   2.929  1.00  0.00    -0.448 OA
BRANCH  16  17
ATOM     17  C   UNL     1      -1.845  -4.191   4.220  1.00  0.00     0.248 C 
BRANCH  17  18
ATOM     18  C   UNL     1      -3.154  -4.987   4.114  1.00  0.00     0.088 C 
ATOM     19  C   UNL     1      -3.100  -6.405   4.678  1.00  0.00    -0.029 A 
ATOM     20  C   UNL     1      -4.309  -4.385   4.913  1.00  0.00    -0.029 A 
ATOM     21  C   UNL     1      -2.238  -7.443   4.353  1.00  0.00     0.005 A 
ATOM     22  C   UNL     1      -4.142  -6.600   5.608  1.00  0.00    -0.014 A 
ATOM     23  C   UNL     1      -4.882  -5.367   5.752  1.00  0.00    -0.014 A 
ATOM     24  C   UNL     1      -4.817  -3.095   4.869  1.00  0.00     0.005 A 
ATOM     25  C   UNL     1      -2.423  -8.683   4.967  1.00  0.00     0.000 A 
ATOM     26  C   UNL     1      -4.325  -7.831   6.221  1.00  0.00     0.009 A 
ATOM     27  C   UNL     1      -5.977  -5.071   6.545  1.00  0.00     0.009 A 
ATOM     28  C   UNL     1      -5.925  -2.800   5.665  1.00  0.00     0.000 A 
ATOM     29  C   UNL     1      -3.459  -8.877   5.891  1.00  0.00     0.001 A 
ATOM     30  C   UNL     1      -6.506  -3.780   6.487  1.00  0.00     0.001 A 
ENDBRANCH  17  18
ENDBRANCH  16  17
ENDBRANCH  14  16
ENDBRANCH   8  14
ENDBRANCH   3   5
ENDBRANCH   2   3
ENDBRANCH   1   2
BRANCH   1  31
ATOM     31  C   UNL     1       5.235  -1.718   0.846  1.00  0.00     0.275 C 
BRANCH  31  32
ATOM     32  O   UNL     1       4.331  -1.125   1.795  1.00  0.00    -0.458 OA
BRANCH  32  33
ATOM     33  C   UNL     1       3.553  -0.136   1.302  1.00  0.00     0.338 C 
ATOM     34  O   UNL     1       3.569   0.329   0.175  1.00  0.00    -0.246 OA
BRANCH  33  35
ATOM     35  C   UNL     1       2.566   0.280   2.309  1.00  0.00     0.060 A 
ATOM     36  C   UNL     1       1.446  -0.520   2.494  1.00  0.00     0.016 A 
ATOM     37  C   UNL     1       2.639   1.531   2.917  1.00  0.00     0.016 A 
ATOM     38  C   UNL     1       0.344  -0.029   3.183  1.00  0.00     0.010 A 
ATOM     39  C   UNL     1       1.569   1.976   3.708  1.00  0.00     0.010 A 
ATOM     40  C   UNL     1       0.387   1.219   3.812  1.00  0.00    -0.014 A 
BRANCH  40  41
ATOM     41  C   UNL     1      -0.828   1.728   4.516  1.00  0.00     0.031 A 
ATOM     42  C   UNL     1      -1.440   3.046   4.112  1.00  0.00     0.074 A 
ATOM     43  C   UNL     1      -1.429   0.983   5.470  1.00  0.00     0.049 A 
ATOM     44  N   UNL     1      -2.388   3.731   4.699  1.00  0.00    -0.248 NA
ATOM     45  C   UNL     1      -0.916   3.678   2.890  1.00  0.00     0.031 C 
ATOM     46  C   UNL     1      -0.999  -0.350   5.901  1.00  0.00     0.029 A 
ATOM     47  N   UNL     1      -2.542   1.227   6.239  1.00  0.00    -0.354 N 
ATOM     48  C   UNL     1      -2.528   4.901   3.959  1.00  0.00     0.074 A 
ATOM     49  C   UNL     1      -1.572   4.831   2.875  1.00  0.00     0.031 C 
ATOM     50  C   UNL     1      -1.862  -0.824   6.810  1.00  0.00     0.029 A 
ATOM     51  C   UNL     1      -2.832   0.216   7.128  1.00  0.00     0.049 A 
ATOM     52  H   UNL     1      -3.081   2.047   6.162  1.00  0.00     0.167 HD
ATOM     53  C   UNL     1      -3.372   5.939   4.172  1.00  0.00     0.037 A 
ATOM     54  C   UNL     1      -3.732   0.148   8.131  1.00  0.00     0.037 A 
ATOM     55  C   UNL     1      -4.356   5.973   5.224  1.00  0.00     0.049 A 
ATOM     56  C   UNL     1      -4.618   1.337   8.382  1.00  0.00     0.074 A 
ATOM     57  C   UNL     1      -5.253   6.981   5.533  1.00  0.00     0.029 A 
ATOM     58  N   UNL     1      -4.585   4.946   6.129  1.00  0.00    -0.354 N 
ATOM     59  N   UNL     1      -4.694   2.464   7.713  1.00  0.00    -0.248 NA
ATOM     60  C   UNL     1      -5.526   1.259   9.533  1.00  0.00     0.031 C 
ATOM     61  C   UNL     1      -5.992   6.582   6.652  1.00  0.00     0.029 A 
ATOM     62  C   UNL     1      -5.595   5.304   7.007  1.00  0.00     0.049 A 
ATOM     63  H   UNL     1      -4.100   4.089   6.146  1.00  0.00     0.167 HD
ATOM     64  C   UNL     1      -5.668   3.220   8.353  1.00  0.00     0.074 A 
ATOM     65  C   UNL     1      -6.175   2.411   9.443  1.00  0.00     0.031 C 
ATOM     66  C   UNL     1      -6.098   4.475   8.074  1.00  0.00     0.037 A 
BRANCH  53  67
ATOM     67  C   UNL     1      -3.236   7.151   3.288  1.00  0.00     0.058 A 
ATOM     68  C   UNL     1      -3.645   7.153   1.946  1.00  0.00     0.135 A 
ATOM     69  C   UNL     1      -2.716   8.346   3.814  1.00  0.00     0.135 A 
ATOM     70  F   UNL     1      -4.132   6.035   1.386  1.00  0.00    -0.206 F 
ATOM     71  C   UNL     1      -3.521   8.289   1.150  1.00  0.00     0.059 A 
ATOM     72  C   UNL     1      -2.609   9.501   3.045  1.00  0.00     0.059 A 
ATOM     73  F   UNL     1      -2.308   8.401   5.091  1.00  0.00    -0.206 F 
ATOM     74  C   UNL     1      -3.001   9.459   1.709  1.00  0.00     0.060 A 
BRANCH  74  75
ATOM     75  S   UNL     1      -2.848  10.924   0.665  1.00  0.00     0.124 S 
ATOM     76  O   UNL     1      -1.734  10.549  -0.201  1.00  0.00    -0.237 OA
ATOM     77  O   UNL     1      -4.156  10.987   0.022  1.00  0.00    -0.237 OA
ATOM     78  O   UNL     1      -2.568  11.994   1.618  1.00  0.00    -0.744 OA
ENDBRANCH  74  75
ENDBRANCH  53  67
BRANCH  54  79
ATOM     79  C   UNL     1      -3.798  -1.064   8.999  1.00  0.00     0.058 A 
ATOM     80  C   UNL     1      -4.956  -1.852   9.061  1.00  0.00     0.135 A 
ATOM     81  C   UNL     1      -2.702  -1.470   9.779  1.00  0.00     0.135 A 
ATOM     82  F   UNL     1      -6.058  -1.472   8.397  1.00  0.00    -0.206 F 
ATOM     83  C   UNL     1      -5.019  -3.006   9.836  1.00  0.00     0.059 A 
ATOM     84  C   UNL     1      -2.729  -2.633  10.542  1.00  0.00     0.059 A 
ATOM     85  F   UNL     1      -1.572  -0.744   9.784  1.00  0.00    -0.206 F 
ATOM     86  C   UNL     1      -3.895  -3.395  10.566  1.00  0.00     0.060 A 
BRANCH  86  87
ATOM     87  S   UNL     1      -3.978  -4.910  11.542  1.00  0.00     0.124 S 
ATOM     88  O   UNL     1      -4.884  -4.517  12.616  1.00  0.00    -0.237 OA
ATOM     89  O   UNL     1      -4.511  -5.871  10.581  1.00  0.00    -0.237 OA
ATOM     90  O   UNL     1      -2.591  -5.132  11.940  1.00  0.00    -0.744 OA
ENDBRANCH  86  87
ENDBRANCH  54  79
BRANCH  66  91
ATOM     91  C   UNL     1      -7.199   5.031   8.934  1.00  0.00     0.058 A 
ATOM     92  C   UNL     1      -6.972   5.425  10.261  1.00  0.00     0.135 A 
ATOM     93  C   UNL     1      -8.489   5.209   8.407  1.00  0.00     0.135 A 
ATOM     94  F   UNL     1      -5.759   5.267  10.815  1.00  0.00    -0.206 F 
ATOM     95  C   UNL     1      -7.991   5.953  11.046  1.00  0.00     0.059 A 
ATOM     96  C   UNL     1      -9.516   5.762   9.165  1.00  0.00     0.059 A 
ATOM     97  F   UNL     1      -8.757   4.856   7.140  1.00  0.00    -0.206 F 
ATOM     98  C   UNL     1      -9.260   6.120  10.488  1.00  0.00     0.060 A 
BRANCH  98  99
ATOM     99  S   UNL     1     -10.566   6.836  11.507  1.00  0.00     0.124 S 
ATOM    100  O   UNL     1     -10.877   5.730  12.407  1.00  0.00    -0.237 OA
ATOM    101  O   UNL     1      -9.895   7.980  12.116  1.00  0.00    -0.237 OA
ATOM    102  O   UNL     1     -11.607   7.170  10.540  1.00  0.00    -0.744 OA
ENDBRANCH  98  99
ENDBRANCH  66  91
ENDBRANCH  40  41
ENDBRANCH  33  35
ENDBRANCH  32  33
ENDBRANCH  31  32
ENDBRANCH   1  31
TORSDOF 19
