REMARK SMILES CC(C)[C@H](C)n1c(SCC(=O)OCCOC(=O)c2ccc(-c3c4nc(c(-c5c(F)cc(S(=O)(=O)[O-])cc5F)c5ccc([nH]5)c(-c5c(F)cc(S(=O)(=O)[O-])cc5F)c5nc(c(-c6c(F)cc(S(=O)(=O)[O-])cc6F)c6ccc3[nH]6)C=C5)C=C4)cc2)nc2cc(Br)cnc21
REMARK SMILES IDX 13 1 12 2 10 3 11 4 9 5 8 6 7 7 6 8 91 9 84 10 85 11 90 12
REMARK SMILES IDX 86 13 89 14 87 15 88 16 4 17 5 18 2 19 1 20 3 21 14 22 15 23
REMARK SMILES IDX 16 24 17 25 18 26 19 27 83 28 20 29 82 30 21 31 22 32 23 33
REMARK SMILES IDX 76 34 24 35 81 36 75 37 77 38 25 39 80 40 74 41 73 42 26 44
REMARK SMILES IDX 60 45 39 46 59 47 40 48 43 49 58 50 78 51 41 52 42 53 57 55
REMARK SMILES IDX 79 56 44 57 27 58 28 59 37 60 29 61 30 62 36 63 38 64 31 65
REMARK SMILES IDX 32 66 33 67 34 68 35 69 61 70 62 71 71 72 63 73 64 74 70 75
REMARK SMILES IDX 72 76 65 77 66 78 67 79 68 80 69 81 45 82 46 83 55 84 47 85
REMARK SMILES IDX 48 86 54 87 56 88 49 89 50 90 51 91 52 92 53 93
REMARK H PARENT 77 43 43 54
REMARK Flexibility Score: inf
ROOT
ATOM      1  C   UNL     1      -3.933  -2.660  -0.800  1.00  0.00     0.274 C 
ENDROOT
BRANCH   1   2
ATOM      2  O   UNL     1      -3.338  -3.165   0.459  1.00  0.00    -0.461 OA
BRANCH   2   3
ATOM      3  C   UNL     1      -2.270  -4.007   0.352  1.00  0.00     0.316 C 
ATOM      4  O   UNL     1      -1.995  -4.556  -0.719  1.00  0.00    -0.251 OA
BRANCH   3   5
ATOM      5  C   UNL     1      -1.290  -4.148   1.541  1.00  0.00     0.200 C 
BRANCH   5   6
ATOM      6  S   UNL     1      -1.706  -3.891   3.251  1.00  0.00    -0.076 SA
BRANCH   6   7
ATOM      7  C   UNL     1      -1.377  -2.338   4.007  1.00  0.00     0.171 A 
ATOM      8  N   UNL     1      -0.721  -1.166   3.636  1.00  0.00    -0.301 N 
ATOM      9  C   UNL     1      -1.306  -0.153   4.408  1.00  0.00     0.161 A 
ATOM     10  N   UNL     1      -2.009  -2.150   5.160  1.00  0.00    -0.221 NA
ATOM     11  C   UNL     1      -2.065  -0.799   5.361  1.00  0.00     0.110 A 
ATOM     12  N   UNL     1      -1.212   1.181   4.206  1.00  0.00    -0.235 NA
ATOM     13  C   UNL     1      -2.792  -0.017   6.267  1.00  0.00     0.049 A 
ATOM     14  C   UNL     1      -1.986   1.904   5.055  1.00  0.00     0.129 A 
ATOM     15  C   UNL     1      -2.764   1.368   6.074  1.00  0.00     0.038 A 
ATOM     16  Br  UNL     1      -3.831   2.498   7.145  1.00  0.00    -0.049 Br
BRANCH   8  17
ATOM     17  C   UNL     1       0.132  -0.749   2.529  1.00  0.00     0.091 C 
ATOM     18  C   UNL     1       1.628  -0.971   2.642  1.00  0.00     0.032 C 
BRANCH  17  19
ATOM     19  C   UNL     1      -0.456  -0.909   1.142  1.00  0.00     0.006 C 
ATOM     20  C   UNL     1       0.237  -1.723   0.046  1.00  0.00     0.009 C 
ATOM     21  C   UNL     1      -1.954  -0.981   1.208  1.00  0.00     0.009 C 
ENDBRANCH  17  19
ENDBRANCH   8  17
ENDBRANCH   6   7
ENDBRANCH   5   6
ENDBRANCH   3   5
ENDBRANCH   2   3
ENDBRANCH   1   2
BRANCH   1  22
ATOM     22  C   UNL     1      -4.528  -1.214  -0.677  1.00  0.00     0.275 C 
BRANCH  22  23
ATOM     23  O   UNL     1      -3.609  -0.104  -1.008  1.00  0.00    -0.458 OA
BRANCH  23  24
ATOM     24  C   UNL     1      -3.801   1.004  -0.227  1.00  0.00     0.338 C 
ATOM     25  O   UNL     1      -4.667   1.081   0.639  1.00  0.00    -0.246 OA
BRANCH  24  26
ATOM     26  C   UNL     1      -2.877   2.176  -0.398  1.00  0.00     0.060 A 
ATOM     27  C   UNL     1      -1.587   2.127   0.131  1.00  0.00     0.016 A 
ATOM     28  C   UNL     1      -3.537   3.397  -0.334  1.00  0.00     0.016 A 
ATOM     29  C   UNL     1      -1.163   3.054   1.084  1.00  0.00     0.010 A 
ATOM     30  C   UNL     1      -3.043   4.415   0.475  1.00  0.00     0.010 A 
ATOM     31  C   UNL     1      -1.943   4.183   1.311  1.00  0.00    -0.014 A 
BRANCH  31  32
ATOM     32  C   UNL     1      -1.508   5.204   2.288  1.00  0.00     0.031 A 
ATOM     33  C   UNL     1      -0.113   5.720   2.070  1.00  0.00     0.074 A 
ATOM     34  C   UNL     1      -2.414   5.750   3.137  1.00  0.00     0.049 A 
ATOM     35  N   UNL     1       0.810   5.992   2.939  1.00  0.00    -0.248 NA
ATOM     36  C   UNL     1       0.365   5.815   0.671  1.00  0.00     0.031 C 
ATOM     37  C   UNL     1      -3.826   5.357   3.266  1.00  0.00     0.029 A 
ATOM     38  N   UNL     1      -2.361   6.864   3.928  1.00  0.00    -0.354 N 
ATOM     39  C   UNL     1       1.880   6.510   2.204  1.00  0.00     0.074 A 
ATOM     40  C   UNL     1       1.635   6.180   0.829  1.00  0.00     0.031 C 
ATOM     41  C   UNL     1      -4.530   6.370   3.809  1.00  0.00     0.029 A 
ATOM     42  C   UNL     1      -3.616   7.440   4.154  1.00  0.00     0.049 A 
ATOM     43  H   UNL     1      -1.525   7.225   4.300  1.00  0.00     0.167 HD
ATOM     44  C   UNL     1       2.734   7.433   2.726  1.00  0.00     0.037 A 
ATOM     45  C   UNL     1      -3.894   8.740   4.453  1.00  0.00     0.037 A 
ATOM     46  C   UNL     1       2.771   7.364   4.159  1.00  0.00     0.049 A 
ATOM     47  C   UNL     1      -2.634   9.350   4.953  1.00  0.00     0.074 A 
ATOM     48  C   UNL     1       3.100   6.380   5.068  1.00  0.00     0.029 A 
ATOM     49  N   UNL     1       2.101   8.330   4.868  1.00  0.00    -0.354 N 
ATOM     50  N   UNL     1      -2.048   8.998   6.067  1.00  0.00    -0.248 NA
ATOM     51  C   UNL     1      -1.774  10.001   3.976  1.00  0.00     0.031 C 
ATOM     52  C   UNL     1       2.205   6.570   6.155  1.00  0.00     0.029 A 
ATOM     53  C   UNL     1       1.433   7.701   5.884  1.00  0.00     0.049 A 
ATOM     54  H   UNL     1       2.100   9.296   4.680  1.00  0.00     0.167 HD
ATOM     55  C   UNL     1      -0.694   8.978   5.762  1.00  0.00     0.074 A 
ATOM     56  C   UNL     1      -0.582   9.669   4.479  1.00  0.00     0.031 C 
ATOM     57  C   UNL     1       0.171   8.156   6.425  1.00  0.00     0.037 A 
BRANCH  44  58
ATOM     58  C   UNL     1       3.200   8.652   1.956  1.00  0.00     0.058 A 
ATOM     59  C   UNL     1       4.173   9.500   2.523  1.00  0.00     0.135 A 
ATOM     60  C   UNL     1       2.511   9.183   0.840  1.00  0.00     0.135 A 
ATOM     61  F   UNL     1       4.887   9.104   3.589  1.00  0.00    -0.206 F 
ATOM     62  C   UNL     1       4.381  10.805   2.071  1.00  0.00     0.059 A 
ATOM     63  C   UNL     1       2.740  10.457   0.341  1.00  0.00     0.059 A 
ATOM     64  F   UNL     1       1.509   8.535   0.235  1.00  0.00    -0.206 F 
ATOM     65  C   UNL     1       3.643  11.279   0.990  1.00  0.00     0.060 A 
BRANCH  65  66
ATOM     66  S   UNL     1       3.815  12.997   0.482  1.00  0.00     0.124 S 
ATOM     67  O   UNL     1       3.243  13.697   1.621  1.00  0.00    -0.237 OA
ATOM     68  O   UNL     1       5.256  13.116   0.306  1.00  0.00    -0.237 OA
ATOM     69  O   UNL     1       3.031  13.058  -0.756  1.00  0.00    -0.744 OA
ENDBRANCH  65  66
ENDBRANCH  44  58
BRANCH  45  70
ATOM     70  C   UNL     1      -5.043   9.548   3.928  1.00  0.00     0.058 A 
ATOM     71  C   UNL     1      -5.374  10.812   4.455  1.00  0.00     0.135 A 
ATOM     72  C   UNL     1      -5.709   9.201   2.731  1.00  0.00     0.135 A 
ATOM     73  F   UNL     1      -4.768  11.258   5.566  1.00  0.00    -0.206 F 
ATOM     74  C   UNL     1      -6.290  11.675   3.828  1.00  0.00     0.059 A 
ATOM     75  C   UNL     1      -6.638  10.029   2.104  1.00  0.00     0.059 A 
ATOM     76  F   UNL     1      -5.415   8.073   2.070  1.00  0.00    -0.206 F 
ATOM     77  C   UNL     1      -6.911  11.276   2.644  1.00  0.00     0.060 A 
BRANCH  77  78
ATOM     78  S   UNL     1      -7.992  12.421   1.751  1.00  0.00     0.124 S 
ATOM     79  O   UNL     1      -9.095  12.594   2.690  1.00  0.00    -0.237 OA
ATOM     80  O   UNL     1      -7.125  13.579   1.564  1.00  0.00    -0.237 OA
ATOM     81  O   UNL     1      -8.325  11.692   0.529  1.00  0.00    -0.744 OA
ENDBRANCH  77  78
ENDBRANCH  45  70
BRANCH  57  82
ATOM     82  C   UNL     1      -0.283   7.470   7.687  1.00  0.00     0.058 A 
ATOM     83  C   UNL     1      -1.308   6.509   7.744  1.00  0.00     0.135 A 
ATOM     84  C   UNL     1       0.509   7.631   8.835  1.00  0.00     0.135 A 
ATOM     85  F   UNL     1      -2.043   6.218   6.661  1.00  0.00    -0.206 F 
ATOM     86  C   UNL     1      -1.543   5.756   8.896  1.00  0.00     0.059 A 
ATOM     87  C   UNL     1       0.318   6.864   9.980  1.00  0.00     0.059 A 
ATOM     88  F   UNL     1       1.542   8.491   8.824  1.00  0.00    -0.206 F 
ATOM     89  C   UNL     1      -0.713   5.929  10.004  1.00  0.00     0.060 A 
BRANCH  89  90
ATOM     90  S   UNL     1      -0.940   4.870  11.448  1.00  0.00     0.124 S 
ATOM     91  O   UNL     1      -2.260   5.272  11.922  1.00  0.00    -0.237 OA
ATOM     92  O   UNL     1      -0.852   3.531  10.871  1.00  0.00    -0.237 OA
ATOM     93  O   UNL     1       0.172   5.237  12.322  1.00  0.00    -0.744 OA
ENDBRANCH  89  90
ENDBRANCH  57  82
ENDBRANCH  31  32
ENDBRANCH  24  26
ENDBRANCH  23  24
ENDBRANCH  22  23
ENDBRANCH   1  22
TORSDOF 18
