REMARK SMILES Cc1nc(CSCC(=O)N2CCCC[C@@H]2C(=O)OCCOC(=O)c2ccc(-c3c4nc(c(-c5c(F)cc(S(=O)(=O)[O-])cc5F)c5ccc([nH]5)c(-c5c(F)cc(S(=O)(=O)[O-])cc5F)c5nc(c(-c6c(F)cc(S(=O)(=O)[O-])cc6F)c6ccc3[nH]6)C=C5)C=C4)cc2)cs1
REMARK SMILES IDX 19 1 18 2 16 3 17 4 15 5 10 6 11 7 12 8 14 9 13 10 8 11 9 12
REMARK SMILES IDX 7 13 6 14 5 15 4 16 1 17 2 18 3 19 91 20 90 21 20 22 21 23
REMARK SMILES IDX 22 24 23 25 24 26 25 27 89 28 26 29 88 30 27 31 28 32 29 33
REMARK SMILES IDX 82 34 30 35 87 36 81 37 83 38 31 39 86 40 80 41 79 42 32 44
REMARK SMILES IDX 66 45 45 46 65 47 46 48 49 49 64 50 84 51 47 52 48 53 63 55
REMARK SMILES IDX 85 56 50 57 33 58 34 59 43 60 35 61 36 62 42 63 44 64 37 65
REMARK SMILES IDX 38 66 39 67 40 68 41 69 67 70 68 71 77 72 69 73 70 74 76 75
REMARK SMILES IDX 78 76 71 77 72 78 73 79 74 80 75 81 51 82 52 83 61 84 53 85
REMARK SMILES IDX 54 86 60 87 62 88 55 89 56 90 57 91 58 92 59 93
REMARK H PARENT 83 43 49 54
REMARK Flexibility Score: inf
ROOT
ATOM      1  C   UNL     1       2.300  -3.451   1.348  1.00  0.00     0.274 C 
ENDROOT
BRANCH   1   2
ATOM      2  O   UNL     1       2.245  -4.540   0.404  1.00  0.00    -0.461 OA
BRANCH   2   3
ATOM      3  C   UNL     1       2.741  -4.276  -0.832  1.00  0.00     0.328 C 
ATOM      4  O   UNL     1       3.251  -3.206  -1.159  1.00  0.00    -0.250 OA
BRANCH   3   5
ATOM      5  C   UNL     1       2.585  -5.432  -1.829  1.00  0.00     0.195 C 
ATOM      6  N   UNL     1       1.831  -5.082  -3.039  1.00  0.00    -0.328 N 
ATOM      7  C   UNL     1       1.730  -6.083  -4.088  1.00  0.00     0.120 C 
ATOM      8  C   UNL     1       1.397  -7.471  -3.532  1.00  0.00     0.022 C 
ATOM      9  C   UNL     1       2.205  -6.790  -1.254  1.00  0.00     0.037 C 
ATOM     10  C   UNL     1       2.301  -7.848  -2.357  1.00  0.00     0.005 C 
BRANCH   6  11
ATOM     11  C   UNL     1       0.959  -4.001  -3.035  1.00  0.00     0.233 C 
ATOM     12  O   UNL     1      -0.056  -3.998  -2.349  1.00  0.00    -0.274 OA
BRANCH  11  13
ATOM     13  C   UNL     1       1.479  -2.845  -3.896  1.00  0.00     0.170 C 
BRANCH  13  14
ATOM     14  S   UNL     1       0.771  -1.220  -3.477  1.00  0.00    -0.146 SA
BRANCH  14  15
ATOM     15  C   UNL     1       1.290  -1.104  -1.734  1.00  0.00     0.127 C 
BRANCH  15  16
ATOM     16  C   UNL     1       0.468  -0.124  -0.964  1.00  0.00     0.061 A 
ATOM     17  C   UNL     1      -2.891   0.534   0.282  1.00  0.00     0.079 C 
ATOM     18  C   UNL     1      -1.444   0.531  -0.049  1.00  0.00     0.090 A 
ATOM     19  N   UNL     1      -0.869  -0.421  -0.744  1.00  0.00    -0.246 NA
ATOM     20  S   UNL     1      -0.408   1.802   0.453  1.00  0.00    -0.127 S 
ATOM     21  C   UNL     1       0.901   1.038  -0.352  1.00  0.00     0.091 A 
ENDBRANCH  15  16
ENDBRANCH  14  15
ENDBRANCH  13  14
ENDBRANCH  11  13
ENDBRANCH   6  11
ENDBRANCH   3   5
ENDBRANCH   2   3
ENDBRANCH   1   2
BRANCH   1  22
ATOM     22  C   UNL     1       3.582  -3.448   2.192  1.00  0.00     0.275 C 
BRANCH  22  23
ATOM     23  O   UNL     1       4.760  -3.147   1.420  1.00  0.00    -0.458 OA
BRANCH  23  24
ATOM     24  C   UNL     1       5.338  -4.220   0.835  1.00  0.00     0.338 C 
ATOM     25  O   UNL     1       4.974  -5.390   0.933  1.00  0.00    -0.246 OA
BRANCH  24  26
ATOM     26  C   UNL     1       6.388  -3.812  -0.110  1.00  0.00     0.060 A 
ATOM     27  C   UNL     1       6.329  -4.349  -1.401  1.00  0.00     0.016 A 
ATOM     28  C   UNL     1       7.470  -3.019   0.274  1.00  0.00     0.016 A 
ATOM     29  C   UNL     1       7.355  -4.131  -2.307  1.00  0.00     0.010 A 
ATOM     30  C   UNL     1       8.518  -2.817  -0.632  1.00  0.00     0.010 A 
ATOM     31  C   UNL     1       8.476  -3.399  -1.912  1.00  0.00    -0.014 A 
BRANCH  31  32
ATOM     32  C   UNL     1       9.667  -3.409  -2.788  1.00  0.00     0.031 A 
ATOM     33  C   UNL     1      10.782  -4.365  -2.474  1.00  0.00     0.074 A 
ATOM     34  C   UNL     1       9.709  -2.644  -3.892  1.00  0.00     0.049 A 
ATOM     35  N   UNL     1      11.938  -4.513  -3.062  1.00  0.00    -0.248 NA
ATOM     36  C   UNL     1      10.554  -5.286  -1.348  1.00  0.00     0.031 C 
ATOM     37  C   UNL     1       8.634  -1.764  -4.350  1.00  0.00     0.029 A 
ATOM     38  N   UNL     1      10.692  -2.497  -4.834  1.00  0.00    -0.354 N 
ATOM     39  C   UNL     1      12.588  -5.526  -2.366  1.00  0.00     0.074 A 
ATOM     40  C   UNL     1      11.700  -5.949  -1.305  1.00  0.00     0.031 C 
ATOM     41  C   UNL     1       9.017  -1.170  -5.493  1.00  0.00     0.029 A 
ATOM     42  C   UNL     1      10.378  -1.590  -5.816  1.00  0.00     0.049 A 
ATOM     43  H   UNL     1      11.542  -2.993  -4.809  1.00  0.00     0.167 HD
ATOM     44  C   UNL     1      13.815  -6.052  -2.593  1.00  0.00     0.037 A 
ATOM     45  C   UNL     1      11.122  -1.134  -6.842  1.00  0.00     0.037 A 
ATOM     46  C   UNL     1      14.687  -5.619  -3.652  1.00  0.00     0.049 A 
ATOM     47  C   UNL     1      12.524  -1.653  -7.012  1.00  0.00     0.074 A 
ATOM     48  C   UNL     1      15.961  -6.060  -3.958  1.00  0.00     0.029 A 
ATOM     49  N   UNL     1      14.369  -4.636  -4.580  1.00  0.00    -0.354 N 
ATOM     50  N   UNL     1      13.153  -2.571  -6.317  1.00  0.00    -0.248 NA
ATOM     51  C   UNL     1      13.323  -1.063  -8.094  1.00  0.00     0.031 C 
ATOM     52  C   UNL     1      16.429  -5.315  -5.049  1.00  0.00     0.029 A 
ATOM     53  C   UNL     1      15.429  -4.441  -5.448  1.00  0.00     0.049 A 
ATOM     54  H   UNL     1      13.514  -4.149  -4.615  1.00  0.00     0.167 HD
ATOM     55  C   UNL     1      14.415  -2.685  -6.889  1.00  0.00     0.074 A 
ATOM     56  C   UNL     1      14.457  -1.744  -7.992  1.00  0.00     0.031 C 
ATOM     57  C   UNL     1      15.445  -3.496  -6.538  1.00  0.00     0.037 A 
BRANCH  44  58
ATOM     58  C   UNL     1      14.291  -7.106  -1.632  1.00  0.00     0.058 A 
ATOM     59  C   UNL     1      13.750  -8.402  -1.622  1.00  0.00     0.135 A 
ATOM     60  C   UNL     1      15.270  -6.797  -0.674  1.00  0.00     0.135 A 
ATOM     61  F   UNL     1      12.795  -8.742  -2.502  1.00  0.00    -0.206 F 
ATOM     62  C   UNL     1      14.127  -9.339  -0.664  1.00  0.00     0.059 A 
ATOM     63  C   UNL     1      15.680  -7.726   0.277  1.00  0.00     0.059 A 
ATOM     64  F   UNL     1      15.818  -5.572  -0.637  1.00  0.00    -0.206 F 
ATOM     65  C   UNL     1      15.082  -8.986   0.290  1.00  0.00     0.060 A 
BRANCH  65  66
ATOM     66  S   UNL     1      15.520 -10.186   1.567  1.00  0.00     0.124 S 
ATOM     67  O   UNL     1      14.368 -10.091   2.459  1.00  0.00    -0.237 OA
ATOM     68  O   UNL     1      15.631 -11.428   0.808  1.00  0.00    -0.237 OA
ATOM     69  O   UNL     1      16.774  -9.668   2.103  1.00  0.00    -0.744 OA
ENDBRANCH  65  66
ENDBRANCH  44  58
BRANCH  45  70
ATOM     70  C   UNL     1      10.556  -0.123  -7.772  1.00  0.00     0.058 A 
ATOM     71  C   UNL     1      10.219  -0.465  -9.089  1.00  0.00     0.135 A 
ATOM     72  C   UNL     1      10.305   1.193  -7.353  1.00  0.00     0.135 A 
ATOM     73  F   UNL     1      10.451  -1.708  -9.539  1.00  0.00    -0.206 F 
ATOM     74  C   UNL     1       9.649   0.459  -9.958  1.00  0.00     0.059 A 
ATOM     75  C   UNL     1       9.716   2.130  -8.196  1.00  0.00     0.059 A 
ATOM     76  F   UNL     1      10.604   1.568  -6.099  1.00  0.00    -0.206 F 
ATOM     77  C   UNL     1       9.393   1.753  -9.499  1.00  0.00     0.060 A 
BRANCH  77  78
ATOM     78  S   UNL     1       8.580   2.921 -10.611  1.00  0.00     0.124 S 
ATOM     79  O   UNL     1       9.659   3.246 -11.536  1.00  0.00    -0.237 OA
ATOM     80  O   UNL     1       7.490   2.117 -11.156  1.00  0.00    -0.237 OA
ATOM     81  O   UNL     1       8.166   4.000  -9.718  1.00  0.00    -0.744 OA
ENDBRANCH  77  78
ENDBRANCH  45  70
BRANCH  57  82
ATOM     82  C   UNL     1      16.692  -3.420  -7.372  1.00  0.00     0.058 A 
ATOM     83  C   UNL     1      17.590  -2.348  -7.257  1.00  0.00     0.135 A 
ATOM     84  C   UNL     1      17.014  -4.457  -8.262  1.00  0.00     0.135 A 
ATOM     85  F   UNL     1      17.322  -1.329  -6.426  1.00  0.00    -0.206 F 
ATOM     86  C   UNL     1      18.759  -2.299  -8.009  1.00  0.00     0.059 A 
ATOM     87  C   UNL     1      18.188  -4.439  -9.007  1.00  0.00     0.059 A 
ATOM     88  F   UNL     1      16.192  -5.509  -8.400  1.00  0.00    -0.206 F 
ATOM     89  C   UNL     1      19.049  -3.349  -8.882  1.00  0.00     0.060 A 
BRANCH  89  90
ATOM     90  S   UNL     1      20.586  -3.293  -9.828  1.00  0.00     0.124 S 
ATOM     91  O   UNL     1      20.255  -2.325 -10.868  1.00  0.00    -0.237 OA
ATOM     92  O   UNL     1      21.553  -2.846  -8.830  1.00  0.00    -0.237 OA
ATOM     93  O   UNL     1      20.755  -4.670 -10.281  1.00  0.00    -0.744 OA
ENDBRANCH  89  90
ENDBRANCH  57  82
ENDBRANCH  31  32
ENDBRANCH  24  26
ENDBRANCH  23  24
ENDBRANCH  22  23
ENDBRANCH   1  22
TORSDOF 19
