REMARK SMILES C[NH+](C)CCc1nc(Nc2ccc(O)c(C(=O)OCCOC(=O)c3ccc(-c4c5nc(c(-c6c(F)cc(S(=O)(=O)[O-])cc6F)c6ccc([nH]6)c(-c6c(F)cc(S(=O)(=O)[O-])cc6F)c6nc(c(-c7c(F)cc(S(=O)(=O)[O-])cc7F)c7ccc4[nH]7)C=C6)C=C5)cc3)c2)c2ccccc2n1
REMARK SMILES IDX 19 1 18 2 16 3 17 4 15 5 10 6 11 7 90 8 12 9 13 10 9 11 8 13
REMARK SMILES IDX 6 14 7 15 97 16 96 17 91 18 95 19 92 20 94 21 93 22 5 23
REMARK SMILES IDX 4 24 2 25 1 26 3 27 14 29 20 31 21 32 22 33 23 34 24 35
REMARK SMILES IDX 25 36 89 37 26 38 88 39 27 40 28 41 29 42 82 43 30 44 87 45
REMARK SMILES IDX 81 46 83 47 31 48 86 49 80 50 79 51 32 53 66 54 45 55 65 56
REMARK SMILES IDX 46 57 49 58 64 59 84 60 47 61 48 62 63 64 85 65 50 66 33 67
REMARK SMILES IDX 34 68 43 69 35 70 36 71 42 72 44 73 37 74 38 75 39 76 40 77
REMARK SMILES IDX 41 78 67 79 68 80 77 81 69 82 70 83 76 84 78 85 71 86 72 87
REMARK SMILES IDX 73 88 74 89 75 90 51 91 52 92 61 93 53 94 54 95 60 96 62 97
REMARK SMILES IDX 55 98 56 99 57 100 58 101 59 102
REMARK H PARENT 9 12 2 28 14 30 83 52 49 63
REMARK Flexibility Score: inf
ROOT
ATOM      1  C   UNL     1       7.384   1.549  -3.861  1.00  0.00     0.275 C 
ENDROOT
BRANCH   1   2
ATOM      2  O   UNL     1       7.208   1.287  -2.455  1.00  0.00    -0.458 OA
BRANCH   2   3
ATOM      3  C   UNL     1       5.937   1.037  -2.054  1.00  0.00     0.342 C 
ATOM      4  O   UNL     1       4.953   0.956  -2.775  1.00  0.00    -0.246 OA
BRANCH   3   5
ATOM      5  C   UNL     1       5.886   0.715  -0.613  1.00  0.00     0.103 A 
ATOM      6  C   UNL     1       5.013  -0.785   1.108  1.00  0.00     0.041 A 
ATOM      7  C   UNL     1       5.567   0.046   2.082  1.00  0.00     0.030 A 
ATOM      8  C   UNL     1       5.142  -0.411  -0.231  1.00  0.00     0.045 A 
ATOM      9  C   UNL     1       6.301   1.184   1.719  1.00  0.00     0.049 A 
ATOM     10  C   UNL     1       6.468   1.512   0.370  1.00  0.00     0.130 A 
BRANCH   6  11
ATOM     11  N   UNL     1       4.221  -1.904   1.439  1.00  0.00    -0.340 N 
ATOM     12  H   UNL     1       4.592  -2.797   1.252  1.00  0.00     0.168 HD
BRANCH  11  13
ATOM     13  C   UNL     1       2.931  -1.838   2.020  1.00  0.00     0.142 A 
ATOM     14  C   UNL     1       1.173  -0.527   2.694  1.00  0.00     0.137 A 
ATOM     15  N   UNL     1       2.453  -0.618   2.319  1.00  0.00    -0.215 NA
ATOM     16  N   UNL     1       0.370  -1.575   2.922  1.00  0.00    -0.233 NA
ATOM     17  C   UNL     1       0.866  -2.793   2.681  1.00  0.00     0.076 A 
ATOM     18  C   UNL     1       2.169  -3.007   2.209  1.00  0.00     0.043 A 
ATOM     19  C   UNL     1       0.033  -3.890   2.866  1.00  0.00     0.029 A 
ATOM     20  C   UNL     1       2.596  -4.334   1.931  1.00  0.00     0.014 A 
ATOM     21  C   UNL     1       0.449  -5.192   2.578  1.00  0.00     0.002 A 
ATOM     22  C   UNL     1       1.734  -5.415   2.107  1.00  0.00     0.001 A 
BRANCH  14  23
ATOM     23  C   UNL     1       0.578   0.847   2.776  1.00  0.00     0.138 C 
BRANCH  23  24
ATOM     24  C   UNL     1       0.897   1.740   1.558  1.00  0.00     0.269 C 
BRANCH  24  25
ATOM     25  N   UNL     1       0.293   1.457   0.243  1.00  0.00    -0.339 N 
ATOM     26  C   UNL     1       0.862   0.282  -0.416  1.00  0.00     0.332 C 
ATOM     27  C   UNL     1      -1.162   1.369   0.279  1.00  0.00     0.332 C 
ATOM     28  H   UNL     1       0.535   2.272  -0.321  1.00  0.00     0.347 HD
ENDBRANCH  24  25
ENDBRANCH  23  24
ENDBRANCH  14  23
ENDBRANCH  11  13
ENDBRANCH   6  11
BRANCH  10  29
ATOM     29  O   UNL     1       7.153   2.645   0.031  1.00  0.00    -0.507 OA
ATOM     30  H   UNL     1       7.541   3.175   0.699  1.00  0.00     0.293 HD
ENDBRANCH  10  29
ENDBRANCH   3   5
ENDBRANCH   2   3
ENDBRANCH   1   2
BRANCH   1  31
ATOM     31  C   UNL     1       8.053   0.364  -4.552  1.00  0.00     0.275 C 
BRANCH  31  32
ATOM     32  O   UNL     1       7.168  -0.768  -4.524  1.00  0.00    -0.458 OA
BRANCH  32  33
ATOM     33  C   UNL     1       7.638  -1.868  -3.893  1.00  0.00     0.338 C 
ATOM     34  O   UNL     1       8.750  -2.041  -3.426  1.00  0.00    -0.246 OA
BRANCH  33  35
ATOM     35  C   UNL     1       6.573  -2.882  -3.816  1.00  0.00     0.060 A 
ATOM     36  C   UNL     1       5.378  -2.572  -3.174  1.00  0.00     0.016 A 
ATOM     37  C   UNL     1       6.809  -4.181  -4.260  1.00  0.00     0.016 A 
ATOM     38  C   UNL     1       4.471  -3.582  -2.854  1.00  0.00     0.010 A 
ATOM     39  C   UNL     1       5.840  -5.168  -4.048  1.00  0.00     0.010 A 
ATOM     40  C   UNL     1       4.681  -4.896  -3.296  1.00  0.00    -0.014 A 
BRANCH  40  41
ATOM     41  C   UNL     1       3.726  -5.990  -2.944  1.00  0.00     0.031 A 
ATOM     42  C   UNL     1       4.224  -7.238  -2.253  1.00  0.00     0.074 A 
ATOM     43  C   UNL     1       2.412  -5.880  -3.231  1.00  0.00     0.049 A 
ATOM     44  N   UNL     1       3.607  -8.373  -2.045  1.00  0.00    -0.248 NA
ATOM     45  C   UNL     1       5.604  -7.208  -1.740  1.00  0.00     0.031 C 
ATOM     46  C   UNL     1       1.770  -4.722  -3.857  1.00  0.00     0.029 A 
ATOM     47  N   UNL     1       1.373  -6.758  -3.029  1.00  0.00    -0.354 N 
ATOM     48  C   UNL     1       4.541  -9.214  -1.449  1.00  0.00     0.074 A 
ATOM     49  C   UNL     1       5.767  -8.455  -1.321  1.00  0.00     0.031 C 
ATOM     50  C   UNL     1       0.450  -4.939  -3.942  1.00  0.00     0.029 A 
ATOM     51  C   UNL     1       0.159  -6.288  -3.472  1.00  0.00     0.049 A 
ATOM     52  H   UNL     1       1.488  -7.640  -2.606  1.00  0.00     0.167 HD
ATOM     53  C   UNL     1       4.394 -10.501  -1.048  1.00  0.00     0.037 A 
ATOM     54  C   UNL     1      -1.047  -6.885  -3.542  1.00  0.00     0.037 A 
ATOM     55  C   UNL     1       3.156 -11.235  -1.119  1.00  0.00     0.049 A 
ATOM     56  C   UNL     1      -1.186  -8.316  -3.108  1.00  0.00     0.074 A 
ATOM     57  C   UNL     1       2.902 -12.537  -0.725  1.00  0.00     0.029 A 
ATOM     58  N   UNL     1       1.960 -10.724  -1.601  1.00  0.00    -0.354 N 
ATOM     59  N   UNL     1      -0.275  -9.117  -2.611  1.00  0.00    -0.248 NA
ATOM     60  C   UNL     1      -2.511  -8.932  -3.267  1.00  0.00     0.031 C 
ATOM     61  C   UNL     1       1.558 -12.822  -0.990  1.00  0.00     0.029 A 
ATOM     62  C   UNL     1       0.966 -11.685  -1.515  1.00  0.00     0.049 A 
ATOM     63  H   UNL     1       1.835  -9.813  -1.953  1.00  0.00     0.167 HD
ATOM     64  C   UNL     1      -0.917 -10.331  -2.394  1.00  0.00     0.074 A 
ATOM     65  C   UNL     1      -2.298 -10.152  -2.794  1.00  0.00     0.031 C 
ATOM     66  C   UNL     1      -0.406 -11.491  -1.913  1.00  0.00     0.037 A 
BRANCH  53  67
ATOM     67  C   UNL     1       5.612 -11.212  -0.524  1.00  0.00     0.058 A 
ATOM     68  C   UNL     1       6.156 -10.928   0.738  1.00  0.00     0.135 A 
ATOM     69  C   UNL     1       6.232 -12.212  -1.293  1.00  0.00     0.135 A 
ATOM     70  F   UNL     1       5.612  -9.971   1.507  1.00  0.00    -0.206 F 
ATOM     71  C   UNL     1       7.290 -11.585   1.206  1.00  0.00     0.059 A 
ATOM     72  C   UNL     1       7.352 -12.899  -0.834  1.00  0.00     0.059 A 
ATOM     73  F   UNL     1       5.752 -12.526  -2.506  1.00  0.00    -0.206 F 
ATOM     74  C   UNL     1       7.885 -12.566   0.410  1.00  0.00     0.060 A 
BRANCH  74  75
ATOM     75  S   UNL     1       9.363 -13.402   1.022  1.00  0.00     0.124 S 
ATOM     76  O   UNL     1      10.383 -12.379   0.811  1.00  0.00    -0.237 OA
ATOM     77  O   UNL     1       9.018 -13.674   2.414  1.00  0.00    -0.237 OA
ATOM     78  O   UNL     1       9.467 -14.579   0.165  1.00  0.00    -0.744 OA
ENDBRANCH  74  75
ENDBRANCH  53  67
BRANCH  54  79
ATOM     79  C   UNL     1      -2.211  -6.136  -4.086  1.00  0.00     0.058 A 
ATOM     80  C   UNL     1      -3.257  -5.724  -3.248  1.00  0.00     0.135 A 
ATOM     81  C   UNL     1      -2.286  -5.790  -5.445  1.00  0.00     0.135 A 
ATOM     82  F   UNL     1      -3.238  -6.044  -1.945  1.00  0.00    -0.206 F 
ATOM     83  C   UNL     1      -4.337  -4.996  -3.736  1.00  0.00     0.059 A 
ATOM     84  C   UNL     1      -3.341  -5.040  -5.951  1.00  0.00     0.059 A 
ATOM     85  F   UNL     1      -1.304  -6.153  -6.285  1.00  0.00    -0.206 F 
ATOM     86  C   UNL     1      -4.367  -4.653  -5.090  1.00  0.00     0.060 A 
BRANCH  86  87
ATOM     87  S   UNL     1      -5.735  -3.647  -5.704  1.00  0.00     0.124 S 
ATOM     88  O   UNL     1      -6.804  -4.634  -5.799  1.00  0.00    -0.237 OA
ATOM     89  O   UNL     1      -5.881  -2.647  -4.650  1.00  0.00    -0.237 OA
ATOM     90  O   UNL     1      -5.229  -3.136  -6.974  1.00  0.00    -0.744 OA
ENDBRANCH  86  87
ENDBRANCH  54  79
BRANCH  66  91
ATOM     91  C   UNL     1      -1.352 -12.647  -1.764  1.00  0.00     0.058 A 
ATOM     92  C   UNL     1      -1.788 -13.388  -2.872  1.00  0.00     0.135 A 
ATOM     93  C   UNL     1      -1.799 -13.039  -0.492  1.00  0.00     0.135 A 
ATOM     94  F   UNL     1      -1.396 -13.047  -4.110  1.00  0.00    -0.206 F 
ATOM     95  C   UNL     1      -2.654 -14.467  -2.727  1.00  0.00     0.059 A 
ATOM     96  C   UNL     1      -2.647 -14.127  -0.321  1.00  0.00     0.059 A 
ATOM     97  F   UNL     1      -1.403 -12.365   0.600  1.00  0.00    -0.206 F 
ATOM     98  C   UNL     1      -3.079 -14.828  -1.447  1.00  0.00     0.060 A 
BRANCH  98  99
ATOM     99  S   UNL     1      -4.181 -16.247  -1.266  1.00  0.00     0.124 S 
ATOM    100  O   UNL     1      -5.459 -15.681  -1.684  1.00  0.00    -0.237 OA
ATOM    101  O   UNL     1      -3.590 -17.223  -2.177  1.00  0.00    -0.237 OA
ATOM    102  O   UNL     1      -4.074 -16.579   0.152  1.00  0.00    -0.744 OA
ENDBRANCH  98  99
ENDBRANCH  66  91
ENDBRANCH  40  41
ENDBRANCH  33  35
ENDBRANCH  32  33
ENDBRANCH  31  32
ENDBRANCH   1  31
TORSDOF 20
