REMARK SMILES CCCCCC(=O)N[C@H](C)C(=O)OCCOC(=O)c1ccc(-c2c3nc(c(-c4c(F)cc(S(=O)(=O)[O-])cc4F)c4ccc([nH]4)c(-c4c(F)cc(S(=O)(=O)[O-])cc4F)c4nc(c(-c5c(F)cc(S(=O)(=O)[O-])cc5F)c5ccc2[nH]5)C=C4)C=C3)cc1
REMARK SMILES IDX 14 1 13 2 11 3 12 4 9 5 10 6 8 7 6 8 7 9 5 11 4 12 3 13 2 14
REMARK SMILES IDX 1 15 15 16 16 17 17 18 18 19 19 20 20 21 84 22 21 23 83 24
REMARK SMILES IDX 22 25 23 26 24 27 77 28 25 29 82 30 76 31 78 32 26 33 81 34
REMARK SMILES IDX 75 35 74 36 27 38 61 39 40 40 60 41 41 42 44 43 59 44 79 45
REMARK SMILES IDX 42 46 43 47 58 49 80 50 45 51 28 52 29 53 38 54 30 55 31 56
REMARK SMILES IDX 37 57 39 58 32 59 33 60 34 61 35 62 36 63 62 64 63 65 72 66
REMARK SMILES IDX 64 67 65 68 71 69 73 70 66 71 67 72 68 73 69 74 70 75 46 76
REMARK SMILES IDX 47 77 56 78 48 79 49 80 55 81 57 82 50 83 51 84 52 85 53 86
REMARK SMILES IDX 54 87
REMARK H PARENT 8 10 78 37 44 48
REMARK Flexibility Score: inf
ROOT
ATOM      1  C   UNL     1      -1.828   4.859   0.614  1.00  0.00     0.274 C 
ENDROOT
BRANCH   1   2
ATOM      2  O   UNL     1      -1.330   3.991  -0.426  1.00  0.00    -0.461 OA
BRANCH   2   3
ATOM      3  C   UNL     1       0.018   3.823  -0.477  1.00  0.00     0.328 C 
ATOM      4  O   UNL     1       0.796   4.276   0.356  1.00  0.00    -0.250 OA
BRANCH   3   5
ATOM      5  C   UNL     1       0.490   3.134  -1.777  1.00  0.00     0.189 C 
ATOM      6  C   UNL     1      -0.514   2.355  -2.627  1.00  0.00     0.043 C 
BRANCH   5   7
ATOM      7  N   UNL     1       1.323   3.993  -2.629  1.00  0.00    -0.343 N 
ATOM      8  C   UNL     1       0.992   5.130  -3.306  1.00  0.00     0.220 C 
ATOM      9  O   UNL     1       1.688   5.462  -4.267  1.00  0.00    -0.275 OA
ATOM     10  H   UNL     1       2.260   3.705  -2.726  1.00  0.00     0.164 HD
BRANCH   8  11
ATOM     11  C   UNL     1      -0.140   6.017  -2.819  1.00  0.00     0.100 C 
BRANCH  11  12
ATOM     12  C   UNL     1      -1.160   6.409  -3.884  1.00  0.00     0.010 C 
BRANCH  12  13
ATOM     13  C   UNL     1      -2.013   5.264  -4.441  1.00  0.00     0.000 C 
BRANCH  13  14
ATOM     14  C   UNL     1      -2.994   4.607  -3.466  1.00  0.00    -0.003 C 
ATOM     15  C   UNL     1      -4.093   5.519  -2.953  1.00  0.00     0.004 C 
ENDBRANCH  13  14
ENDBRANCH  12  13
ENDBRANCH  11  12
ENDBRANCH   8  11
ENDBRANCH   5   7
ENDBRANCH   3   5
ENDBRANCH   2   3
ENDBRANCH   1   2
BRANCH   1  16
ATOM     16  C   UNL     1      -3.235   4.436   1.036  1.00  0.00     0.275 C 
BRANCH  16  17
ATOM     17  O   UNL     1      -3.218   3.062   1.452  1.00  0.00    -0.458 OA
BRANCH  17  18
ATOM     18  C   UNL     1      -3.476   2.183   0.454  1.00  0.00     0.338 C 
ATOM     19  O   UNL     1      -3.895   2.425  -0.664  1.00  0.00    -0.246 OA
BRANCH  18  20
ATOM     20  C   UNL     1      -2.948   0.874   0.850  1.00  0.00     0.060 A 
ATOM     21  C   UNL     1      -1.820   0.404   0.175  1.00  0.00     0.016 A 
ATOM     22  C   UNL     1      -3.561   0.106   1.836  1.00  0.00     0.016 A 
ATOM     23  C   UNL     1      -1.308  -0.853   0.454  1.00  0.00     0.010 A 
ATOM     24  C   UNL     1      -3.034  -1.151   2.136  1.00  0.00     0.010 A 
ATOM     25  C   UNL     1      -1.913  -1.637   1.439  1.00  0.00    -0.014 A 
BRANCH  25  26
ATOM     26  C   UNL     1      -1.369  -2.981   1.719  1.00  0.00     0.031 A 
ATOM     27  C   UNL     1      -2.123  -4.194   1.266  1.00  0.00     0.074 A 
ATOM     28  C   UNL     1      -0.189  -3.088   2.357  1.00  0.00     0.049 A 
ATOM     29  N   UNL     1      -1.866  -5.454   1.494  1.00  0.00    -0.248 NA
ATOM     30  C   UNL     1      -3.329  -3.959   0.455  1.00  0.00     0.031 C 
ATOM     31  C   UNL     1       0.636  -1.960   2.798  1.00  0.00     0.029 A 
ATOM     32  N   UNL     1       0.518  -4.193   2.749  1.00  0.00    -0.354 N 
ATOM     33  C   UNL     1      -2.892  -6.164   0.882  1.00  0.00     0.074 A 
ATOM     34  C   UNL     1      -3.779  -5.193   0.277  1.00  0.00     0.031 C 
ATOM     35  C   UNL     1       1.738  -2.433   3.402  1.00  0.00     0.029 A 
ATOM     36  C   UNL     1       1.670  -3.890   3.434  1.00  0.00     0.049 A 
ATOM     37  H   UNL     1       0.229  -5.114   2.558  1.00  0.00     0.167 HD
ATOM     38  C   UNL     1      -3.071  -7.505   0.838  1.00  0.00     0.037 A 
ATOM     39  C   UNL     1       2.552  -4.700   4.048  1.00  0.00     0.037 A 
ATOM     40  C   UNL     1      -2.164  -8.451   1.434  1.00  0.00     0.049 A 
ATOM     41  C   UNL     1       2.317  -6.184   4.002  1.00  0.00     0.074 A 
ATOM     42  C   UNL     1      -2.242  -9.833   1.444  1.00  0.00     0.029 A 
ATOM     43  N   UNL     1      -1.009  -8.111   2.126  1.00  0.00    -0.354 N 
ATOM     44  N   UNL     1       1.334  -6.843   3.435  1.00  0.00    -0.248 NA
ATOM     45  C   UNL     1       3.304  -7.033   4.679  1.00  0.00     0.031 C 
ATOM     46  C   UNL     1      -1.151 -10.325   2.171  1.00  0.00     0.029 A 
ATOM     47  C   UNL     1      -0.372  -9.253   2.579  1.00  0.00     0.049 A 
ATOM     48  H   UNL     1      -0.690  -7.191   2.272  1.00  0.00     0.167 HD
ATOM     49  C   UNL     1       1.588  -8.187   3.680  1.00  0.00     0.074 A 
ATOM     50  C   UNL     1       2.829  -8.245   4.427  1.00  0.00     0.031 C 
ATOM     51  C   UNL     1       0.860  -9.276   3.325  1.00  0.00     0.037 A 
BRANCH  38  52
ATOM     52  C   UNL     1      -4.307  -8.020   0.157  1.00  0.00     0.058 A 
ATOM     53  C   UNL     1      -4.445  -8.007  -1.240  1.00  0.00     0.135 A 
ATOM     54  C   UNL     1      -5.362  -8.555   0.913  1.00  0.00     0.135 A 
ATOM     55  F   UNL     1      -3.477  -7.485  -2.010  1.00  0.00    -0.206 F 
ATOM     56  C   UNL     1      -5.593  -8.488  -1.862  1.00  0.00     0.059 A 
ATOM     57  C   UNL     1      -6.510  -9.062   0.312  1.00  0.00     0.059 A 
ATOM     58  F   UNL     1      -5.285  -8.585   2.253  1.00  0.00    -0.206 F 
ATOM     59  C   UNL     1      -6.622  -9.012  -1.076  1.00  0.00     0.060 A 
BRANCH  59  60
ATOM     60  S   UNL     1      -8.105  -9.638  -1.895  1.00  0.00     0.124 S 
ATOM     61  O   UNL     1      -8.771  -8.396  -2.278  1.00  0.00    -0.237 OA
ATOM     62  O   UNL     1      -7.550 -10.423  -2.993  1.00  0.00    -0.237 OA
ATOM     63  O   UNL     1      -8.770 -10.410  -0.850  1.00  0.00    -0.744 OA
ENDBRANCH  59  60
ENDBRANCH  38  52
BRANCH  39  64
ATOM     64  C   UNL     1       3.711  -4.120   4.774  1.00  0.00     0.058 A 
ATOM     65  C   UNL     1       5.017  -4.257   4.284  1.00  0.00     0.135 A 
ATOM     66  C   UNL     1       3.530  -3.393   5.962  1.00  0.00     0.135 A 
ATOM     67  F   UNL     1       5.240  -4.947   3.155  1.00  0.00    -0.206 F 
ATOM     68  C   UNL     1       6.106  -3.704   4.949  1.00  0.00     0.059 A 
ATOM     69  C   UNL     1       4.600  -2.810   6.632  1.00  0.00     0.059 A 
ATOM     70  F   UNL     1       2.298  -3.220   6.464  1.00  0.00    -0.206 F 
ATOM     71  C   UNL     1       5.887  -2.979   6.123  1.00  0.00     0.060 A 
BRANCH  71  72
ATOM     72  S   UNL     1       7.298  -2.216   6.952  1.00  0.00     0.124 S 
ATOM     73  O   UNL     1       7.906  -3.365   7.612  1.00  0.00    -0.237 OA
ATOM     74  O   UNL     1       8.046  -1.653   5.832  1.00  0.00    -0.237 OA
ATOM     75  O   UNL     1       6.675  -1.235   7.835  1.00  0.00    -0.744 OA
ENDBRANCH  71  72
ENDBRANCH  39  64
BRANCH  51  76
ATOM     76  C   UNL     1       1.406 -10.613   3.732  1.00  0.00     0.058 A 
ATOM     77  C   UNL     1       1.336 -11.059   5.061  1.00  0.00     0.135 A 
ATOM     78  C   UNL     1       1.984 -11.466   2.779  1.00  0.00     0.135 A 
ATOM     79  F   UNL     1       0.798 -10.276   6.009  1.00  0.00    -0.206 F 
ATOM     80  C   UNL     1       1.849 -12.295   5.437  1.00  0.00     0.059 A 
ATOM     81  C   UNL     1       2.482 -12.715   3.129  1.00  0.00     0.059 A 
ATOM     82  F   UNL     1       2.064 -11.087   1.493  1.00  0.00    -0.206 F 
ATOM     83  C   UNL     1       2.424 -13.114   4.464  1.00  0.00     0.060 A 
BRANCH  83  84
ATOM     84  S   UNL     1       3.079 -14.722   4.959  1.00  0.00     0.124 S 
ATOM     85  O   UNL     1       4.349 -14.345   5.569  1.00  0.00    -0.237 OA
ATOM     86  O   UNL     1       2.054 -15.211   5.877  1.00  0.00    -0.237 OA
ATOM     87  O   UNL     1       3.178 -15.449   3.697  1.00  0.00    -0.744 OA
ENDBRANCH  83  84
ENDBRANCH  51  76
ENDBRANCH  25  26
ENDBRANCH  18  20
ENDBRANCH  17  18
ENDBRANCH  16  17
ENDBRANCH   1  16
TORSDOF 19
