REMARK SMILES CCOC(=O)NC(=O)C[N@H+]1CC[C@@H](C(=O)OCCOC(=O)c2ccc(-c3c4nc(c(-c5c(F)cc(S(=O)(=O)[O-])cc5F)c5ccc([nH]5)c(-c5c(F)cc(S(=O)(=O)[O-])cc5F)c5nc(c(-c6c(F)cc(S(=O)(=O)[O-])cc6F)c6ccc3[nH]6)C=C5)C=C4)cc2)[C@@H]1C
REMARK SMILES IDX 17 1 16 2 14 3 15 4 13 5 10 6 11 7 88 8 12 10 89 11 9 12
REMARK SMILES IDX 7 13 4 14 5 15 6 16 8 18 3 19 2 20 1 21 18 22 19 23 20 24
REMARK SMILES IDX 21 25 22 26 23 27 87 28 24 29 86 30 25 31 26 32 27 33 80 34
REMARK SMILES IDX 28 35 85 36 79 37 81 38 29 39 84 40 78 41 77 42 30 44 64 45
REMARK SMILES IDX 43 46 63 47 44 48 47 49 62 50 82 51 45 52 46 53 61 55 83 56
REMARK SMILES IDX 48 57 31 58 32 59 41 60 33 61 34 62 40 63 42 64 35 65 36 66
REMARK SMILES IDX 37 67 38 68 39 69 65 70 66 71 75 72 67 73 68 74 74 75 76 76
REMARK SMILES IDX 69 77 70 78 71 79 72 80 73 81 49 82 50 83 59 84 51 85 52 86
REMARK SMILES IDX 58 87 60 88 53 89 54 90 55 91 56 92 57 93
REMARK H PARENT 10 9 6 17 81 43 47 54
REMARK Flexibility Score: inf
ROOT
ATOM      1  C   UNL     1       4.358  -1.701  -0.350  1.00  0.00     0.274 C 
ENDROOT
BRANCH   1   2
ATOM      2  O   UNL     1       3.049  -1.990   0.206  1.00  0.00    -0.462 OA
BRANCH   2   3
ATOM      3  C   UNL     1       2.870  -1.617   1.501  1.00  0.00     0.315 C 
ATOM      4  O   UNL     1       3.688  -0.964   2.142  1.00  0.00    -0.252 OA
BRANCH   3   5
ATOM      5  C   UNL     1       1.617  -2.168   2.164  1.00  0.00     0.162 C 
ATOM      6  N   UNL     1       0.167  -3.970   1.468  1.00  0.00    -0.324 N 
ATOM      7  C   UNL     1       0.840  -4.400   2.687  1.00  0.00     0.264 C 
ATOM      8  C   UNL     1       0.411  -2.537   1.298  1.00  0.00     0.195 C 
ATOM      9  H   UNL     1      -0.832  -4.132   1.595  1.00  0.00     0.348 HD
ATOM     10  C   UNL     1       2.003  -3.450   2.890  1.00  0.00     0.083 C 
ATOM     11  C   UNL     1      -0.877  -1.839   1.760  1.00  0.00     0.076 C 
BRANCH   6  12
ATOM     12  C   UNL     1       0.355  -4.795   0.268  1.00  0.00     0.364 C 
BRANCH  12  13
ATOM     13  C   UNL     1       1.789  -4.919  -0.226  1.00  0.00     0.284 C 
ATOM     14  C   UNL     1       1.775  -3.302  -2.229  1.00  0.00     0.414 C 
ATOM     15  O   UNL     1       2.535  -2.890  -3.100  1.00  0.00    -0.224 OA
ATOM     16  N   UNL     1       2.193  -4.334  -1.408  1.00  0.00    -0.256 N 
ATOM     17  H   UNL     1       3.001  -4.769  -1.764  1.00  0.00     0.176 HD
ATOM     18  O   UNL     1       2.636  -5.565   0.404  1.00  0.00    -0.268 OA
BRANCH  14  19
ATOM     19  O   UNL     1       0.561  -2.777  -1.945  1.00  0.00    -0.450 OA
BRANCH  19  20
ATOM     20  C   UNL     1       0.220  -1.539  -2.608  1.00  0.00     0.231 C 
ATOM     21  C   UNL     1      -0.059  -0.471  -1.565  1.00  0.00     0.049 C 
ENDBRANCH  19  20
ENDBRANCH  14  19
ENDBRANCH  12  13
ENDBRANCH   6  12
ENDBRANCH   3   5
ENDBRANCH   2   3
ENDBRANCH   1   2
BRANCH   1  22
ATOM     22  C   UNL     1       4.355  -0.474  -1.262  1.00  0.00     0.275 C 
BRANCH  22  23
ATOM     23  O   UNL     1       3.767   0.625  -0.559  1.00  0.00    -0.458 OA
BRANCH  23  24
ATOM     24  C   UNL     1       2.953   1.422  -1.289  1.00  0.00     0.338 C 
ATOM     25  O   UNL     1       2.820   1.429  -2.499  1.00  0.00    -0.246 OA
BRANCH  24  26
ATOM     26  C   UNL     1       2.152   2.259  -0.372  1.00  0.00     0.060 A 
ATOM     27  C   UNL     1       1.671   1.726   0.827  1.00  0.00     0.016 A 
ATOM     28  C   UNL     1       1.790   3.549  -0.755  1.00  0.00     0.016 A 
ATOM     29  C   UNL     1       0.804   2.459   1.627  1.00  0.00     0.010 A 
ATOM     30  C   UNL     1       0.993   4.321   0.096  1.00  0.00     0.010 A 
ATOM     31  C   UNL     1       0.489   3.782   1.292  1.00  0.00    -0.014 A 
BRANCH  31  32
ATOM     32  C   UNL     1      -0.313   4.615   2.226  1.00  0.00     0.031 A 
ATOM     33  C   UNL     1      -1.615   5.227   1.790  1.00  0.00     0.074 A 
ATOM     34  C   UNL     1       0.162   4.844   3.467  1.00  0.00     0.049 A 
ATOM     35  N   UNL     1      -2.368   6.095   2.417  1.00  0.00    -0.248 NA
ATOM     36  C   UNL     1      -2.133   4.826   0.473  1.00  0.00     0.031 C 
ATOM     37  C   UNL     1       1.411   4.301   4.010  1.00  0.00     0.029 A 
ATOM     38  N   UNL     1      -0.343   5.596   4.497  1.00  0.00    -0.354 N 
ATOM     39  C   UNL     1      -3.425   6.375   1.559  1.00  0.00     0.074 A 
ATOM     40  C   UNL     1      -3.209   5.593   0.359  1.00  0.00     0.031 C 
ATOM     41  C   UNL     1       1.560   4.714   5.276  1.00  0.00     0.029 A 
ATOM     42  C   UNL     1       0.467   5.619   5.608  1.00  0.00     0.049 A 
ATOM     43  H   UNL     1      -1.202   6.075   4.446  1.00  0.00     0.167 HD
ATOM     44  C   UNL     1      -4.476   7.207   1.758  1.00  0.00     0.037 A 
ATOM     45  C   UNL     1       0.372   6.322   6.751  1.00  0.00     0.037 A 
ATOM     46  C   UNL     1      -4.688   7.965   2.968  1.00  0.00     0.049 A 
ATOM     47  C   UNL     1      -0.786   7.259   6.933  1.00  0.00     0.074 A 
ATOM     48  C   UNL     1      -5.737   8.814   3.280  1.00  0.00     0.029 A 
ATOM     49  N   UNL     1      -3.838   7.969   4.066  1.00  0.00    -0.354 N 
ATOM     50  N   UNL     1      -1.774   7.517   6.110  1.00  0.00    -0.248 NA
ATOM     51  C   UNL     1      -0.838   8.004   8.195  1.00  0.00     0.031 C 
ATOM     52  C   UNL     1      -5.496   9.369   4.542  1.00  0.00     0.029 A 
ATOM     53  C   UNL     1      -4.327   8.821   5.045  1.00  0.00     0.049 A 
ATOM     54  H   UNL     1      -3.009   7.443   4.139  1.00  0.00     0.167 HD
ATOM     55  C   UNL     1      -2.575   8.446   6.761  1.00  0.00     0.074 A 
ATOM     56  C   UNL     1      -1.970   8.679   8.058  1.00  0.00     0.031 C 
ATOM     57  C   UNL     1      -3.706   9.056   6.325  1.00  0.00     0.037 A 
BRANCH  44  58
ATOM     58  C   UNL     1      -5.470   7.370   0.637  1.00  0.00     0.058 A 
ATOM     59  C   UNL     1      -6.357   6.345   0.271  1.00  0.00     0.135 A 
ATOM     60  C   UNL     1      -5.571   8.593  -0.048  1.00  0.00     0.135 A 
ATOM     61  F   UNL     1      -6.296   5.150   0.879  1.00  0.00    -0.206 F 
ATOM     62  C   UNL     1      -7.292   6.519  -0.746  1.00  0.00     0.059 A 
ATOM     63  C   UNL     1      -6.517   8.799  -1.048  1.00  0.00     0.059 A 
ATOM     64  F   UNL     1      -4.748   9.609   0.257  1.00  0.00    -0.206 F 
ATOM     65  C   UNL     1      -7.366   7.751  -1.398  1.00  0.00     0.060 A 
BRANCH  65  66
ATOM     66  S   UNL     1      -8.595   7.963  -2.704  1.00  0.00     0.124 S 
ATOM     67  O   UNL     1      -8.035   7.135  -3.768  1.00  0.00    -0.237 OA
ATOM     68  O   UNL     1      -9.809   7.452  -2.076  1.00  0.00    -0.237 OA
ATOM     69  O   UNL     1      -8.580   9.401  -2.957  1.00  0.00    -0.744 OA
ENDBRANCH  65  66
ENDBRANCH  44  58
BRANCH  45  70
ATOM     70  C   UNL     1       1.422   6.181   7.795  1.00  0.00     0.058 A 
ATOM     71  C   UNL     1       1.139   5.571   9.025  1.00  0.00     0.135 A 
ATOM     72  C   UNL     1       2.734   6.631   7.575  1.00  0.00     0.135 A 
ATOM     73  F   UNL     1      -0.102   5.131   9.286  1.00  0.00    -0.206 F 
ATOM     74  C   UNL     1       2.113   5.425  10.006  1.00  0.00     0.059 A 
ATOM     75  C   UNL     1       3.734   6.465   8.526  1.00  0.00     0.059 A 
ATOM     76  F   UNL     1       3.061   7.207   6.407  1.00  0.00    -0.206 F 
ATOM     77  C   UNL     1       3.410   5.871   9.745  1.00  0.00     0.060 A 
BRANCH  77  78
ATOM     78  S   UNL     1       4.679   5.628  11.005  1.00  0.00     0.124 S 
ATOM     79  O   UNL     1       4.302   6.629  11.996  1.00  0.00    -0.237 OA
ATOM     80  O   UNL     1       4.468   4.236  11.389  1.00  0.00    -0.237 OA
ATOM     81  O   UNL     1       5.922   5.890  10.284  1.00  0.00    -0.744 OA
ENDBRANCH  77  78
ENDBRANCH  45  70
BRANCH  57  82
ATOM     82  C   UNL     1      -4.369  10.012   7.280  1.00  0.00     0.058 A 
ATOM     83  C   UNL     1      -3.785  11.245   7.617  1.00  0.00     0.135 A 
ATOM     84  C   UNL     1      -5.593   9.682   7.883  1.00  0.00     0.135 A 
ATOM     85  F   UNL     1      -2.611  11.607   7.074  1.00  0.00    -0.206 F 
ATOM     86  C   UNL     1      -4.363  12.090   8.558  1.00  0.00     0.059 A 
ATOM     87  C   UNL     1      -6.207  10.528   8.801  1.00  0.00     0.059 A 
ATOM     88  F   UNL     1      -6.202   8.523   7.588  1.00  0.00    -0.206 F 
ATOM     89  C   UNL     1      -5.571  11.719   9.151  1.00  0.00     0.060 A 
BRANCH  89  90
ATOM     90  S   UNL     1      -6.300  12.811  10.389  1.00  0.00     0.124 S 
ATOM     91  O   UNL     1      -5.430  12.575  11.537  1.00  0.00    -0.237 OA
ATOM     92  O   UNL     1      -6.178  14.123   9.761  1.00  0.00    -0.237 OA
ATOM     93  O   UNL     1      -7.665  12.311  10.522  1.00  0.00    -0.744 OA
ENDBRANCH  89  90
ENDBRANCH  57  82
ENDBRANCH  31  32
ENDBRANCH  24  26
ENDBRANCH  23  24
ENDBRANCH  22  23
ENDBRANCH   1  22
TORSDOF 18
