REMARK SMILES CCCCCCNC(=O)Oc1cccc(-c2ccc([C@@H](C)C(=O)OCCOC(=O)c3ccc(-c4c5nc(c(-c6c(F)cc(S(=O)(=O)[O-])cc6F)c6ccc([nH]6)c(-c6c(F)cc(S(=O)(=O)[O-])cc6F)c6nc(c(-c7c(F)cc(S(=O)(=O)[O-])cc7F)c7ccc4[nH]7)C=C6)C=C5)cc3)cc2C)c1
REMARK SMILES IDX 20 1 21 2 19 3 16 4 17 5 97 6 18 7 96 8 98 9 15 10 11 11
REMARK SMILES IDX 12 12 99 13 13 14 14 15 10 16 8 17 7 18 9 20 6 21 5 22 4 23
REMARK SMILES IDX 3 24 2 25 1 26 22 27 23 28 24 29 25 30 26 31 27 32 28 33
REMARK SMILES IDX 29 34 30 35 31 36 95 37 32 38 94 39 33 40 34 41 35 42 88 43
REMARK SMILES IDX 36 44 93 45 87 46 89 47 37 48 92 49 86 50 85 51 38 53 72 54
REMARK SMILES IDX 51 55 71 56 52 57 55 58 70 59 90 60 53 61 54 62 69 64 91 65
REMARK SMILES IDX 56 66 39 67 40 68 49 69 41 70 42 71 48 72 50 73 43 74 44 75
REMARK SMILES IDX 45 76 46 77 47 78 73 79 74 80 83 81 75 82 76 83 82 84 84 85
REMARK SMILES IDX 77 86 78 87 79 88 80 89 81 90 57 91 58 92 67 93 59 94 60 95
REMARK SMILES IDX 66 96 68 97 61 98 62 99 63 100 64 101 65 102
REMARK H PARENT 7 19 89 52 55 63
REMARK Flexibility Score: inf
ROOT
ATOM      1  C   UNL     1      -5.502 -13.710   2.057  1.00  0.00     0.126 C 
ATOM      2  C   UNL     1      -6.843 -14.415   1.862  1.00  0.00     0.025 C 
ENDROOT
BRANCH   1   3
ATOM      3  C   UNL     1      -5.369 -12.472   1.182  1.00  0.00    -0.034 A 
ATOM      4  C   UNL     1      -5.211 -10.094  -0.388  1.00  0.00    -0.015 A 
ATOM      5  C   UNL     1      -5.382 -11.363  -0.976  1.00  0.00     0.009 A 
ATOM      6  C   UNL     1      -5.102 -10.028   1.018  1.00  0.00    -0.043 A 
ATOM      7  C   UNL     1      -5.468 -12.529  -0.209  1.00  0.00     0.005 A 
ATOM      8  C   UNL     1      -5.170 -11.215   1.776  1.00  0.00     0.008 A 
ATOM      9  C   UNL     1      -4.881  -8.743   1.774  1.00  0.00     0.045 C 
BRANCH   4  10
ATOM     10  C   UNL     1      -5.233  -8.900  -1.258  1.00  0.00    -0.014 A 
ATOM     11  C   UNL     1      -4.287  -6.824  -2.076  1.00  0.00     0.133 A 
ATOM     12  C   UNL     1      -5.417  -6.580  -2.855  1.00  0.00     0.047 A 
ATOM     13  C   UNL     1      -4.180  -7.973  -1.289  1.00  0.00     0.056 A 
ATOM     14  C   UNL     1      -6.454  -7.505  -2.859  1.00  0.00     0.004 A 
ATOM     15  C   UNL     1      -6.364  -8.649  -2.062  1.00  0.00     0.009 A 
BRANCH  11  16
ATOM     16  O   UNL     1      -3.352  -5.776  -1.997  1.00  0.00    -0.410 OA
BRANCH  16  17
ATOM     17  C   UNL     1      -2.002  -6.046  -2.158  1.00  0.00     0.412 C 
ATOM     18  N   UNL     1      -1.212  -4.948  -1.946  1.00  0.00    -0.321 N 
ATOM     19  H   UNL     1      -0.241  -5.080  -2.039  1.00  0.00     0.167 HD
ATOM     20  O   UNL     1      -1.518  -7.123  -2.481  1.00  0.00    -0.224 OA
BRANCH  18  21
ATOM     21  C   UNL     1      -1.655  -3.611  -1.599  1.00  0.00     0.119 C 
BRANCH  21  22
ATOM     22  C   UNL     1      -1.050  -3.116  -0.286  1.00  0.00     0.021 C 
BRANCH  22  23
ATOM     23  C   UNL     1       0.477  -2.974  -0.289  1.00  0.00     0.002 C 
BRANCH  23  24
ATOM     24  C   UNL     1       1.056  -2.041  -1.358  1.00  0.00    -0.000 C 
BRANCH  24  25
ATOM     25  C   UNL     1       0.561  -0.593  -1.308  1.00  0.00    -0.003 C 
ATOM     26  C   UNL     1       0.936   0.128  -0.023  1.00  0.00     0.004 C 
ENDBRANCH  24  25
ENDBRANCH  23  24
ENDBRANCH  22  23
ENDBRANCH  21  22
ENDBRANCH  18  21
ENDBRANCH  16  17
ENDBRANCH  11  16
ENDBRANCH   4  10
ENDBRANCH   1   3
BRANCH   1  27
ATOM     27  C   UNL     1      -4.369 -14.725   1.976  1.00  0.00     0.313 C 
ATOM     28  O   UNL     1      -4.087 -15.460   2.917  1.00  0.00    -0.252 OA
BRANCH  27  29
ATOM     29  O   UNL     1      -3.758 -14.775   0.763  1.00  0.00    -0.462 OA
BRANCH  29  30
ATOM     30  C   UNL     1      -2.651 -15.688   0.635  1.00  0.00     0.274 C 
BRANCH  30  31
ATOM     31  C   UNL     1      -1.311 -14.957   0.733  1.00  0.00     0.275 C 
BRANCH  31  32
ATOM     32  O   UNL     1      -1.091 -14.443   2.060  1.00  0.00    -0.458 OA
BRANCH  32  33
ATOM     33  C   UNL     1      -1.395 -13.134   2.219  1.00  0.00     0.338 C 
ATOM     34  O   UNL     1      -1.774 -12.355   1.362  1.00  0.00    -0.246 OA
BRANCH  33  35
ATOM     35  C   UNL     1      -1.318 -12.772   3.641  1.00  0.00     0.060 A 
ATOM     36  C   UNL     1      -2.510 -12.478   4.304  1.00  0.00     0.016 A 
ATOM     37  C   UNL     1      -0.090 -12.605   4.281  1.00  0.00     0.016 A 
ATOM     38  C   UNL     1      -2.485 -11.980   5.602  1.00  0.00     0.010 A 
ATOM     39  C   UNL     1      -0.066 -12.119   5.594  1.00  0.00     0.010 A 
ATOM     40  C   UNL     1      -1.262 -11.778   6.252  1.00  0.00    -0.014 A 
BRANCH  40  41
ATOM     41  C   UNL     1      -1.251 -11.145   7.594  1.00  0.00     0.031 A 
ATOM     42  C   UNL     1      -0.797  -9.719   7.744  1.00  0.00     0.074 A 
ATOM     43  C   UNL     1      -1.687 -11.835   8.665  1.00  0.00     0.049 A 
ATOM     44  N   UNL     1      -0.693  -8.995   8.828  1.00  0.00    -0.248 NA
ATOM     45  C   UNL     1      -0.405  -9.014   6.512  1.00  0.00     0.031 C 
ATOM     46  C   UNL     1      -2.169 -13.217   8.639  1.00  0.00     0.029 A 
ATOM     47  N   UNL     1      -1.795 -11.468   9.982  1.00  0.00    -0.354 N 
ATOM     48  C   UNL     1      -0.197  -7.763   8.418  1.00  0.00     0.074 A 
ATOM     49  C   UNL     1      -0.013  -7.838   6.984  1.00  0.00     0.031 C 
ATOM     50  C   UNL     1      -2.519 -13.582   9.884  1.00  0.00     0.029 A 
ATOM     51  C   UNL     1      -2.255 -12.474  10.798  1.00  0.00     0.049 A 
ATOM     52  H   UNL     1      -1.564 -10.569  10.312  1.00  0.00     0.167 HD
ATOM     53  C   UNL     1       0.075  -6.670   9.169  1.00  0.00     0.037 A 
ATOM     54  C   UNL     1      -2.424 -12.505  12.135  1.00  0.00     0.037 A 
ATOM     55  C   UNL     1      -0.149  -6.587  10.589  1.00  0.00     0.049 A 
ATOM     56  C   UNL     1      -2.111 -11.276  12.945  1.00  0.00     0.074 A 
ATOM     57  C   UNL     1       0.043  -5.502  11.428  1.00  0.00     0.029 A 
ATOM     58  N   UNL     1      -0.615  -7.626  11.380  1.00  0.00    -0.354 N 
ATOM     59  N   UNL     1      -1.674 -10.109  12.536  1.00  0.00    -0.248 NA
ATOM     60  C   UNL     1      -2.315 -11.367  14.398  1.00  0.00     0.031 C 
ATOM     61  C   UNL     1      -0.271  -5.897  12.733  1.00  0.00     0.029 A 
ATOM     62  C   UNL     1      -0.694  -7.216  12.701  1.00  0.00     0.049 A 
ATOM     63  H   UNL     1      -0.853  -8.523  11.052  1.00  0.00     0.167 HD
ATOM     64  C   UNL     1      -1.562  -9.324  13.678  1.00  0.00     0.074 A 
ATOM     65  C   UNL     1      -1.997 -10.141  14.791  1.00  0.00     0.031 C 
ATOM     66  C   UNL     1      -1.133  -8.043  13.796  1.00  0.00     0.037 A 
BRANCH  53  67
ATOM     67  C   UNL     1       0.666  -5.474   8.478  1.00  0.00     0.058 A 
ATOM     68  C   UNL     1      -0.109  -4.623   7.677  1.00  0.00     0.135 A 
ATOM     69  C   UNL     1       2.018  -5.144   8.671  1.00  0.00     0.135 A 
ATOM     70  F   UNL     1      -1.402  -4.902   7.447  1.00  0.00    -0.206 F 
ATOM     71  C   UNL     1       0.438  -3.492   7.079  1.00  0.00     0.059 A 
ATOM     72  C   UNL     1       2.581  -4.007   8.099  1.00  0.00     0.059 A 
ATOM     73  F   UNL     1       2.803  -5.928   9.427  1.00  0.00    -0.206 F 
ATOM     74  C   UNL     1       1.785  -3.192   7.296  1.00  0.00     0.060 A 
BRANCH  74  75
ATOM     75  S   UNL     1       2.475  -1.708   6.533  1.00  0.00     0.124 S 
ATOM     76  O   UNL     1       2.594  -2.126   5.139  1.00  0.00    -0.237 OA
ATOM     77  O   UNL     1       1.449  -0.707   6.807  1.00  0.00    -0.237 OA
ATOM     78  O   UNL     1       3.737  -1.517   7.240  1.00  0.00    -0.744 OA
ENDBRANCH  74  75
ENDBRANCH  53  67
BRANCH  54  79
ATOM     79  C   UNL     1      -2.884 -13.754  12.797  1.00  0.00     0.058 A 
ATOM     80  C   UNL     1      -4.159 -13.847  13.372  1.00  0.00     0.135 A 
ATOM     81  C   UNL     1      -2.045 -14.877  12.879  1.00  0.00     0.135 A 
ATOM     82  F   UNL     1      -4.994 -12.796  13.327  1.00  0.00    -0.206 F 
ATOM     83  C   UNL     1      -4.581 -15.001  14.025  1.00  0.00     0.059 A 
ATOM     84  C   UNL     1      -2.453 -16.049  13.505  1.00  0.00     0.059 A 
ATOM     85  F   UNL     1      -0.820 -14.842  12.334  1.00  0.00    -0.206 F 
ATOM     86  C   UNL     1      -3.718 -16.097  14.089  1.00  0.00     0.060 A 
BRANCH  86  87
ATOM     87  S   UNL     1      -4.279 -17.603  14.912  1.00  0.00     0.124 S 
ATOM     88  O   UNL     1      -4.107 -17.250  16.316  1.00  0.00    -0.237 OA
ATOM     89  O   UNL     1      -5.658 -17.718  14.447  1.00  0.00    -0.237 OA
ATOM     90  O   UNL     1      -3.367 -18.622  14.399  1.00  0.00    -0.744 OA
ENDBRANCH  86  87
ENDBRANCH  54  79
BRANCH  66  91
ATOM     91  C   UNL     1      -1.131  -7.444  15.173  1.00  0.00     0.058 A 
ATOM     92  C   UNL     1      -0.160  -7.796  16.124  1.00  0.00     0.135 A 
ATOM     93  C   UNL     1      -2.086  -6.480  15.533  1.00  0.00     0.135 A 
ATOM     94  F   UNL     1       0.771  -8.717  15.830  1.00  0.00    -0.206 F 
ATOM     95  C   UNL     1      -0.151  -7.230  17.395  1.00  0.00     0.059 A 
ATOM     96  C   UNL     1      -2.082  -5.885  16.791  1.00  0.00     0.059 A 
ATOM     97  F   UNL     1      -3.029  -6.101  14.656  1.00  0.00    -0.206 F 
ATOM     98  C   UNL     1      -1.118  -6.277  17.720  1.00  0.00     0.060 A 
BRANCH  98  99
ATOM     99  S   UNL     1      -1.085  -5.530  19.363  1.00  0.00     0.124 S 
ATOM    100  O   UNL     1      -1.682  -6.584  20.176  1.00  0.00    -0.237 OA
ATOM    101  O   UNL     1       0.340  -5.296  19.576  1.00  0.00    -0.237 OA
ATOM    102  O   UNL     1      -1.893  -4.325  19.203  1.00  0.00    -0.744 OA
ENDBRANCH  98  99
ENDBRANCH  66  91
ENDBRANCH  40  41
ENDBRANCH  33  35
ENDBRANCH  32  33
ENDBRANCH  31  32
ENDBRANCH  30  31
ENDBRANCH  29  30
ENDBRANCH  27  29
ENDBRANCH   1  27
TORSDOF 23
