REMARK SMILES O=C(OCCOC(=O)c1ccc(N2C(=O)[C@@H]3N=NC(c4ccccc4)=C3[C@H]2c2cccc(Br)c2)cc1)c1ccc(-c2c3nc(c(-c4c(F)cc(S(=O)(=O)[O-])cc4F)c4ccc([nH]4)c(-c4c(F)cc(S(=O)(=O)[O-])cc4F)c4nc(c(-c5c(F)cc(S(=O)(=O)[O-])cc5F)c5ccc2[nH]5)C=C4)C=C3)cc1
REMARK SMILES IDX 4 1 3 2 2 3 1 4 37 5 38 6 102 7 39 8 101 9 40 10 41 11 42 12
REMARK SMILES IDX 95 13 43 14 100 15 94 16 96 17 44 18 99 19 93 20 92 21 45 23
REMARK SMILES IDX 79 24 58 25 78 26 59 27 62 28 77 29 97 30 60 31 61 32 76 34
REMARK SMILES IDX 98 35 63 36 46 37 47 38 56 39 48 40 49 41 55 42 57 43 50 44
REMARK SMILES IDX 51 45 52 46 53 47 54 48 80 49 81 50 90 51 82 52 83 53 89 54
REMARK SMILES IDX 91 55 84 56 85 57 86 58 87 59 88 60 64 61 65 62 74 63 66 64
REMARK SMILES IDX 67 65 73 66 75 67 68 68 69 69 70 70 71 71 72 72 5 73 6 74
REMARK SMILES IDX 7 75 8 76 9 77 10 78 36 79 11 80 35 81 12 82 13 83 14 84
REMARK SMILES IDX 27 85 16 86 15 87 26 88 17 89 19 90 18 91 28 92 29 93 34 94
REMARK SMILES IDX 30 95 32 96 31 97 33 98 20 99 21 100 25 101 22 102 24 103
REMARK SMILES IDX 23 104
REMARK H PARENT 96 22 62 33
REMARK Flexibility Score: inf
ROOT
ATOM      1  C   UNL     1       4.773  -0.885  -0.677  1.00  0.00     0.275 C 
ENDROOT
BRANCH   1   2
ATOM      2  O   UNL     1       3.633  -1.506  -0.050  1.00  0.00    -0.458 OA
BRANCH   2   3
ATOM      3  C   UNL     1       2.503  -0.774   0.077  1.00  0.00     0.338 C 
ATOM      4  O   UNL     1       1.657  -0.648  -0.793  1.00  0.00    -0.246 OA
BRANCH   3   5
ATOM      5  C   UNL     1       2.351  -0.255   1.455  1.00  0.00     0.060 A 
ATOM      6  C   UNL     1       3.460  -0.040   2.282  1.00  0.00     0.016 A 
ATOM      7  C   UNL     1       1.062   0.046   1.911  1.00  0.00     0.016 A 
ATOM      8  C   UNL     1       3.283   0.436   3.570  1.00  0.00     0.010 A 
ATOM      9  C   UNL     1       0.885   0.527   3.204  1.00  0.00     0.010 A 
ATOM     10  C   UNL     1       1.995   0.696   4.038  1.00  0.00    -0.014 A 
BRANCH  10  11
ATOM     11  C   UNL     1       1.874   1.195   5.406  1.00  0.00     0.031 A 
ATOM     12  C   UNL     1       2.440   2.548   5.680  1.00  0.00     0.074 A 
ATOM     13  C   UNL     1       1.169   0.545   6.351  1.00  0.00     0.049 A 
ATOM     14  N   UNL     1       3.304   2.899   6.580  1.00  0.00    -0.248 NA
ATOM     15  C   UNL     1       2.021   3.643   4.795  1.00  0.00     0.031 C 
ATOM     16  C   UNL     1       0.322  -0.635   6.170  1.00  0.00     0.029 A 
ATOM     17  N   UNL     1       0.957   0.889   7.654  1.00  0.00    -0.354 N 
ATOM     18  C   UNL     1       3.376   4.292   6.515  1.00  0.00     0.074 A 
ATOM     19  C   UNL     1       2.675   4.677   5.323  1.00  0.00     0.031 C 
ATOM     20  C   UNL     1      -0.487  -0.762   7.242  1.00  0.00     0.029 A 
ATOM     21  C   UNL     1      -0.133   0.250   8.224  1.00  0.00     0.049 A 
ATOM     22  H   UNL     1       1.523   1.530   8.143  1.00  0.00     0.167 HD
ATOM     23  C   UNL     1       3.813   5.052   7.557  1.00  0.00     0.037 A 
ATOM     24  C   UNL     1      -0.764   0.586   9.375  1.00  0.00     0.037 A 
ATOM     25  C   UNL     1       4.631   4.294   8.468  1.00  0.00     0.049 A 
ATOM     26  C   UNL     1       0.172   1.399  10.191  1.00  0.00     0.074 A 
ATOM     27  C   UNL     1       5.778   3.532   8.348  1.00  0.00     0.029 A 
ATOM     28  N   UNL     1       4.130   4.004   9.712  1.00  0.00    -0.354 N 
ATOM     29  N   UNL     1       1.259   0.940  10.746  1.00  0.00    -0.248 NA
ATOM     30  C   UNL     1       0.086   2.849  10.102  1.00  0.00     0.031 C 
ATOM     31  C   UNL     1       5.629   2.481   9.300  1.00  0.00     0.029 A 
ATOM     32  C   UNL     1       4.414   2.686   9.954  1.00  0.00     0.049 A 
ATOM     33  H   UNL     1       3.657   4.623  10.314  1.00  0.00     0.167 HD
ATOM     34  C   UNL     1       2.157   1.995  10.696  1.00  0.00     0.074 A 
ATOM     35  C   UNL     1       1.343   3.171  10.413  1.00  0.00     0.031 C 
ATOM     36  C   UNL     1       3.503   1.777  10.612  1.00  0.00     0.037 A 
BRANCH  23  37
ATOM     37  C   UNL     1       3.185   6.378   7.950  1.00  0.00     0.058 A 
ATOM     38  C   UNL     1       3.769   7.137   8.988  1.00  0.00     0.135 A 
ATOM     39  C   UNL     1       1.872   6.760   7.589  1.00  0.00     0.135 A 
ATOM     40  F   UNL     1       5.020   6.878   9.403  1.00  0.00    -0.206 F 
ATOM     41  C   UNL     1       3.058   8.103   9.701  1.00  0.00     0.059 A 
ATOM     42  C   UNL     1       1.166   7.760   8.249  1.00  0.00     0.059 A 
ATOM     43  F   UNL     1       1.167   6.114   6.654  1.00  0.00    -0.206 F 
ATOM     44  C   UNL     1       1.742   8.379   9.345  1.00  0.00     0.060 A 
BRANCH  44  45
ATOM     45  S   UNL     1       0.751   9.474  10.376  1.00  0.00     0.124 S 
ATOM     46  O   UNL     1       0.478   8.613  11.521  1.00  0.00    -0.237 OA
ATOM     47  O   UNL     1       1.666  10.585  10.615  1.00  0.00    -0.237 OA
ATOM     48  O   UNL     1      -0.395   9.786   9.527  1.00  0.00    -0.744 OA
ENDBRANCH  44  45
ENDBRANCH  23  37
BRANCH  24  49
ATOM     49  C   UNL     1      -2.214   0.474   9.676  1.00  0.00     0.058 A 
ATOM     50  C   UNL     1      -2.697   0.598  10.990  1.00  0.00     0.135 A 
ATOM     51  C   UNL     1      -3.186   0.488   8.654  1.00  0.00     0.135 A 
ATOM     52  F   UNL     1      -1.843   0.628  12.024  1.00  0.00    -0.206 F 
ATOM     53  C   UNL     1      -4.059   0.757  11.270  1.00  0.00     0.059 A 
ATOM     54  C   UNL     1      -4.548   0.622   8.910  1.00  0.00     0.059 A 
ATOM     55  F   UNL     1      -2.837   0.460   7.359  1.00  0.00    -0.206 F 
ATOM     56  C   UNL     1      -4.976   0.780  10.220  1.00  0.00     0.060 A 
BRANCH  56  57
ATOM     57  S   UNL     1      -6.715   1.132  10.562  1.00  0.00     0.124 S 
ATOM     58  O   UNL     1      -7.138  -0.080  11.255  1.00  0.00    -0.237 OA
ATOM     59  O   UNL     1      -6.633   2.338  11.378  1.00  0.00    -0.237 OA
ATOM     60  O   UNL     1      -7.291   1.321   9.232  1.00  0.00    -0.744 OA
ENDBRANCH  56  57
ENDBRANCH  24  49
BRANCH  36  61
ATOM     61  C   UNL     1       4.035   0.413  10.954  1.00  0.00     0.058 A 
ATOM     62  C   UNL     1       3.712  -0.760  10.252  1.00  0.00     0.135 A 
ATOM     63  C   UNL     1       5.026   0.316  11.945  1.00  0.00     0.135 A 
ATOM     64  F   UNL     1       2.864  -0.733   9.214  1.00  0.00    -0.206 F 
ATOM     65  C   UNL     1       4.306  -1.985  10.559  1.00  0.00     0.059 A 
ATOM     66  C   UNL     1       5.656  -0.888  12.244  1.00  0.00     0.059 A 
ATOM     67  F   UNL     1       5.430   1.415  12.604  1.00  0.00    -0.206 F 
ATOM     68  C   UNL     1       5.279  -2.040  11.557  1.00  0.00     0.060 A 
BRANCH  68  69
ATOM     69  S   UNL     1       6.106  -3.609  11.891  1.00  0.00     0.124 S 
ATOM     70  O   UNL     1       5.082  -4.347  12.622  1.00  0.00    -0.237 OA
ATOM     71  O   UNL     1       6.408  -4.104  10.550  1.00  0.00    -0.237 OA
ATOM     72  O   UNL     1       7.274  -3.219  12.676  1.00  0.00    -0.744 OA
ENDBRANCH  68  69
ENDBRANCH  36  61
ENDBRANCH  10  11
ENDBRANCH   3   5
ENDBRANCH   2   3
ENDBRANCH   1   2
BRANCH   1  73
ATOM     73  C   UNL     1       4.485   0.217  -1.695  1.00  0.00     0.275 C 
BRANCH  73  74
ATOM     74  O   UNL     1       3.921   1.380  -1.056  1.00  0.00    -0.458 OA
BRANCH  74  75
ATOM     75  C   UNL     1       3.088   2.093  -1.855  1.00  0.00     0.338 C 
ATOM     76  O   UNL     1       2.825   1.879  -3.027  1.00  0.00    -0.246 OA
BRANCH  75  77
ATOM     77  C   UNL     1       2.581   3.279  -1.145  1.00  0.00     0.060 A 
ATOM     78  C   UNL     1       1.414   3.204  -0.386  1.00  0.00     0.018 A 
ATOM     79  C   UNL     1       3.211   4.511  -1.357  1.00  0.00     0.018 A 
ATOM     80  C   UNL     1       0.883   4.373   0.172  1.00  0.00     0.027 A 
ATOM     81  C   UNL     1       2.665   5.681  -0.813  1.00  0.00     0.027 A 
ATOM     82  C   UNL     1       1.496   5.618  -0.053  1.00  0.00     0.045 A 
BRANCH  82  83
ATOM     83  N   UNL     1       0.975   6.785   0.564  1.00  0.00    -0.299 N 
ATOM     84  C   UNL     1       0.811   6.763   1.979  1.00  0.00     0.259 C 
ATOM     85  C   UNL     1      -0.091   7.580  -0.073  1.00  0.00     0.152 C 
ATOM     86  C   UNL     1      -0.422   7.552   2.325  1.00  0.00     0.248 C 
ATOM     87  O   UNL     1       1.540   6.173   2.766  1.00  0.00    -0.271 OA
ATOM     88  C   UNL     1      -1.092   7.425   1.009  1.00  0.00     0.021 C 
ATOM     89  N   UNL     1      -1.370   6.880   3.220  1.00  0.00    -0.170 NA
ATOM     90  C   UNL     1      -2.301   6.921   1.249  1.00  0.00     0.097 C 
ATOM     91  N   UNL     1      -2.451   6.661   2.597  1.00  0.00    -0.154 NA
BRANCH  85  92
ATOM     92  C   UNL     1       0.287   9.067  -0.215  1.00  0.00    -0.020 A 
ATOM     93  C   UNL     1      -0.705  10.065  -0.088  1.00  0.00     0.006 A 
ATOM     94  C   UNL     1       1.617   9.491  -0.371  1.00  0.00     0.022 A 
ATOM     95  C   UNL     1      -0.369  11.419   0.005  1.00  0.00     0.002 A 
ATOM     96  C   UNL     1       1.945  10.851  -0.301  1.00  0.00     0.018 A 
ATOM     97  C   UNL     1       0.961  11.812  -0.087  1.00  0.00     0.016 A 
ATOM     98  Br  UNL     1       3.751  11.393  -0.454  1.00  0.00    -0.051 Br
ENDBRANCH  85  92
BRANCH  90  99
ATOM     99  C   UNL     1      -3.316   6.412   0.327  1.00  0.00     0.002 A 
ATOM    100  C   UNL     1      -4.250   7.275  -0.260  1.00  0.00     0.010 A 
ATOM    101  C   UNL     1      -3.495   5.027   0.201  1.00  0.00     0.010 A 
ATOM    102  C   UNL     1      -5.373   6.756  -0.913  1.00  0.00     0.001 A 
ATOM    103  C   UNL     1      -4.614   4.511  -0.457  1.00  0.00     0.001 A 
ATOM    104  C   UNL     1      -5.561   5.376  -0.998  1.00  0.00     0.000 A 
ENDBRANCH  90  99
ENDBRANCH  82  83
ENDBRANCH  75  77
ENDBRANCH  74  75
ENDBRANCH  73  74
ENDBRANCH   1  73
TORSDOF 17
