REMARK SMILES O=C(OCCOC(=O)c1ccc(-c2c3nc(c(-c4c(F)cc(S(=O)(=O)[O-])cc4F)c4ccc([nH]4)c(-c4c(F)cc(S(=O)(=O)[O-])cc4F)c4nc(c(-c5c(F)cc(S(=O)(=O)[O-])cc5F)c5ccc2[nH]5)C=C4)C=C3)cc1)C1=N[C@@H]2NC=NN2[C@@H]([C@H]2C=NN=C2c2ccc(F)cc2)C1
REMARK SMILES IDX 5 1 4 2 3 3 2 4 1 5 75 6 76 7 95 8 77 9 82 10 78 11 81 12
REMARK SMILES IDX 79 13 80 15 83 16 84 17 87 18 85 19 86 20 88 21 89 22 94 23
REMARK SMILES IDX 90 24 93 25 91 26 92 27 6 28 7 29 8 30 9 31 10 32 74 33
REMARK SMILES IDX 11 34 73 35 12 36 13 37 14 38 67 39 15 40 72 41 66 42 68 43
REMARK SMILES IDX 16 44 71 45 65 46 64 47 17 49 51 50 30 51 50 52 31 53 34 54
REMARK SMILES IDX 49 55 69 56 32 57 33 58 48 60 70 61 35 62 18 63 19 64 28 65
REMARK SMILES IDX 20 66 21 67 27 68 29 69 22 70 23 71 24 72 25 73 26 74 52 75
REMARK SMILES IDX 53 76 62 77 54 78 55 79 61 80 63 81 56 82 57 83 58 84 59 85
REMARK SMILES IDX 60 86 36 87 37 88 46 89 38 90 39 91 45 92 47 93 40 94 41 95
REMARK SMILES IDX 42 96 43 97 44 98
REMARK H PARENT 78 14 68 48 34 59
REMARK Flexibility Score: inf
ROOT
ATOM      1  C   UNL     1       8.407  -1.191  -5.917  1.00  0.00     0.275 C 
ENDROOT
BRANCH   1   2
ATOM      2  C   UNL     1       9.704  -0.501  -5.502  1.00  0.00     0.275 C 
BRANCH   2   3
ATOM      3  O   UNL     1      10.179  -0.903  -4.209  1.00  0.00    -0.458 OA
BRANCH   3   4
ATOM      4  C   UNL     1       9.950  -0.336  -3.023  1.00  0.00     0.352 C 
ATOM      5  O   UNL     1      10.697  -0.584  -2.079  1.00  0.00    -0.245 OA
BRANCH   4   6
ATOM      6  C   UNL     1       8.720   0.554  -2.702  1.00  0.00     0.126 C 
ATOM      7  N   UNL     1       8.086   0.270  -1.611  1.00  0.00    -0.236 NA
ATOM      8  C   UNL     1       8.441   1.789  -3.513  1.00  0.00     0.092 C 
ATOM      9  C   UNL     1       7.242   1.288  -1.007  1.00  0.00     0.319 C 
ATOM     10  C   UNL     1       7.043   2.290  -3.145  1.00  0.00     0.127 C 
ATOM     11  N   UNL     1       5.899   0.917  -0.692  1.00  0.00    -0.335 N 
ATOM     12  N   UNL     1       7.056   2.589  -1.704  1.00  0.00    -0.249 NA
ATOM     13  C   UNL     1       5.211   2.084  -0.686  1.00  0.00     0.217 C 
ATOM     14  H   UNL     1       5.551   0.013  -0.519  1.00  0.00     0.165 HD
ATOM     15  N   UNL     1       5.810   3.095  -1.256  1.00  0.00    -0.164 NA
BRANCH  10  16
ATOM     16  C   UNL     1       6.516   3.487  -3.940  1.00  0.00     0.109 C 
ATOM     17  C   UNL     1       7.522   4.574  -4.048  1.00  0.00     0.120 C 
ATOM     18  C   UNL     1       6.380   3.188  -5.399  1.00  0.00     0.081 C 
ATOM     19  N   UNL     1       7.936   4.760  -5.259  1.00  0.00    -0.162 NA
ATOM     20  N   UNL     1       7.217   3.873  -6.121  1.00  0.00    -0.155 NA
BRANCH  18  21
ATOM     21  C   UNL     1       5.427   2.193  -5.942  1.00  0.00    -0.001 A 
ATOM     22  C   UNL     1       4.369   1.678  -5.178  1.00  0.00     0.013 A 
ATOM     23  C   UNL     1       5.610   1.752  -7.260  1.00  0.00     0.013 A 
ATOM     24  C   UNL     1       3.520   0.710  -5.724  1.00  0.00     0.040 A 
ATOM     25  C   UNL     1       4.759   0.787  -7.801  1.00  0.00     0.040 A 
ATOM     26  C   UNL     1       3.725   0.272  -7.027  1.00  0.00     0.123 A 
ATOM     27  F   UNL     1       2.915  -0.657  -7.549  1.00  0.00    -0.207 F 
ENDBRANCH  18  21
ENDBRANCH  10  16
ENDBRANCH   4   6
ENDBRANCH   3   4
ENDBRANCH   2   3
ENDBRANCH   1   2
BRANCH   1  28
ATOM     28  O   UNL     1       7.532  -1.396  -4.800  1.00  0.00    -0.458 OA
BRANCH  28  29
ATOM     29  C   UNL     1       7.643  -2.624  -4.215  1.00  0.00     0.338 C 
ATOM     30  O   UNL     1       8.350  -3.546  -4.588  1.00  0.00    -0.246 OA
BRANCH  29  31
ATOM     31  C   UNL     1       6.887  -2.624  -2.947  1.00  0.00     0.060 A 
ATOM     32  C   UNL     1       7.497  -3.146  -1.800  1.00  0.00     0.016 A 
ATOM     33  C   UNL     1       5.608  -2.074  -2.873  1.00  0.00     0.016 A 
ATOM     34  C   UNL     1       6.844  -3.079  -0.562  1.00  0.00     0.010 A 
ATOM     35  C   UNL     1       4.965  -2.001  -1.634  1.00  0.00     0.010 A 
ATOM     36  C   UNL     1       5.580  -2.486  -0.458  1.00  0.00    -0.014 A 
BRANCH  36  37
ATOM     37  C   UNL     1       4.870  -2.341   0.852  1.00  0.00     0.031 A 
ATOM     38  C   UNL     1       3.535  -3.012   1.041  1.00  0.00     0.074 A 
ATOM     39  C   UNL     1       5.334  -1.523   1.824  1.00  0.00     0.049 A 
ATOM     40  N   UNL     1       2.678  -2.880   2.020  1.00  0.00    -0.248 NA
ATOM     41  C   UNL     1       3.109  -3.950  -0.010  1.00  0.00     0.031 C 
ATOM     42  C   UNL     1       6.614  -0.810   1.817  1.00  0.00     0.029 A 
ATOM     43  N   UNL     1       4.730  -1.081   2.981  1.00  0.00    -0.354 N 
ATOM     44  C   UNL     1       1.625  -3.732   1.716  1.00  0.00     0.074 A 
ATOM     45  C   UNL     1       1.909  -4.311   0.421  1.00  0.00     0.031 C 
ATOM     46  C   UNL     1       6.644   0.064   2.838  1.00  0.00     0.029 A 
ATOM     47  C   UNL     1       5.414  -0.063   3.612  1.00  0.00     0.049 A 
ATOM     48  H   UNL     1       3.888  -1.457   3.326  1.00  0.00     0.167 HD
ATOM     49  C   UNL     1       0.546  -4.049   2.468  1.00  0.00     0.037 A 
ATOM     50  C   UNL     1       5.090   0.690   4.684  1.00  0.00     0.037 A 
ATOM     51  C   UNL     1       0.274  -3.520   3.777  1.00  0.00     0.049 A 
ATOM     52  C   UNL     1       3.830   0.391   5.456  1.00  0.00     0.074 A 
ATOM     53  C   UNL     1      -0.733  -3.884   4.655  1.00  0.00     0.029 A 
ATOM     54  N   UNL     1       0.997  -2.513   4.392  1.00  0.00    -0.354 N 
ATOM     55  N   UNL     1       2.916  -0.517   5.218  1.00  0.00    -0.248 NA
ATOM     56  C   UNL     1       3.576   1.193   6.665  1.00  0.00     0.031 C 
ATOM     57  C   UNL     1      -0.649  -3.060   5.782  1.00  0.00     0.029 A 
ATOM     58  C   UNL     1       0.432  -2.211   5.620  1.00  0.00     0.049 A 
ATOM     59  H   UNL     1       1.793  -2.076   4.013  1.00  0.00     0.167 HD
ATOM     60  C   UNL     1       2.016  -0.434   6.277  1.00  0.00     0.074 A 
ATOM     61  C   UNL     1       2.484   0.618   7.150  1.00  0.00     0.031 C 
ATOM     62  C   UNL     1       0.908  -1.180   6.506  1.00  0.00     0.037 A 
BRANCH  49  63
ATOM     63  C   UNL     1      -0.411  -5.061   1.912  1.00  0.00     0.058 A 
ATOM     64  C   UNL     1      -0.077  -6.423   1.861  1.00  0.00     0.135 A 
ATOM     65  C   UNL     1      -1.692  -4.677   1.490  1.00  0.00     0.135 A 
ATOM     66  F   UNL     1       1.143  -6.835   2.240  1.00  0.00    -0.206 F 
ATOM     67  C   UNL     1      -0.977  -7.371   1.393  1.00  0.00     0.059 A 
ATOM     68  C   UNL     1      -2.618  -5.612   1.040  1.00  0.00     0.059 A 
ATOM     69  F   UNL     1      -2.055  -3.385   1.518  1.00  0.00    -0.206 F 
ATOM     70  C   UNL     1      -2.247  -6.956   0.988  1.00  0.00     0.060 A 
BRANCH  70  71
ATOM     71  S   UNL     1      -3.412  -8.205   0.408  1.00  0.00     0.124 S 
ATOM     72  O   UNL     1      -2.855  -8.534  -0.901  1.00  0.00    -0.237 OA
ATOM     73  O   UNL     1      -3.290  -9.242   1.428  1.00  0.00    -0.237 OA
ATOM     74  O   UNL     1      -4.687  -7.496   0.387  1.00  0.00    -0.744 OA
ENDBRANCH  70  71
ENDBRANCH  49  63
BRANCH  50  75
ATOM     75  C   UNL     1       5.971   1.805   5.130  1.00  0.00     0.058 A 
ATOM     76  C   UNL     1       6.723   1.705   6.309  1.00  0.00     0.135 A 
ATOM     77  C   UNL     1       6.004   3.024   4.434  1.00  0.00     0.135 A 
ATOM     78  F   UNL     1       6.711   0.563   7.014  1.00  0.00    -0.206 F 
ATOM     79  C   UNL     1       7.439   2.786   6.812  1.00  0.00     0.059 A 
ATOM     80  C   UNL     1       6.730   4.115   4.907  1.00  0.00     0.059 A 
ATOM     81  F   UNL     1       5.309   3.166   3.295  1.00  0.00    -0.206 F 
ATOM     82  C   UNL     1       7.426   3.992   6.109  1.00  0.00     0.060 A 
BRANCH  82  83
ATOM     83  S   UNL     1       8.334   5.398   6.791  1.00  0.00     0.124 S 
ATOM     84  O   UNL     1       7.482   5.781   7.911  1.00  0.00    -0.237 OA
ATOM     85  O   UNL     1       9.616   4.793   7.142  1.00  0.00    -0.237 OA
ATOM     86  O   UNL     1       8.377   6.341   5.678  1.00  0.00    -0.744 OA
ENDBRANCH  82  83
ENDBRANCH  50  75
BRANCH  62  87
ATOM     87  C   UNL     1       0.132  -0.929   7.770  1.00  0.00     0.058 A 
ATOM     88  C   UNL     1      -0.675   0.207   7.925  1.00  0.00     0.135 A 
ATOM     89  C   UNL     1       0.131  -1.881   8.804  1.00  0.00     0.135 A 
ATOM     90  F   UNL     1      -0.702   1.151   6.971  1.00  0.00    -0.206 F 
ATOM     91  C   UNL     1      -1.456   0.394   9.062  1.00  0.00     0.059 A 
ATOM     92  C   UNL     1      -0.661  -1.727   9.938  1.00  0.00     0.059 A 
ATOM     93  F   UNL     1       0.881  -2.990   8.703  1.00  0.00    -0.206 F 
ATOM     94  C   UNL     1      -1.449  -0.584  10.059  1.00  0.00     0.060 A 
BRANCH  94  95
ATOM     95  S   UNL     1      -2.523  -0.364  11.495  1.00  0.00     0.124 S 
ATOM     96  O   UNL     1      -1.812   0.669  12.240  1.00  0.00    -0.237 OA
ATOM     97  O   UNL     1      -3.782   0.049  10.883  1.00  0.00    -0.237 OA
ATOM     98  O   UNL     1      -2.539  -1.687  12.113  1.00  0.00    -0.744 OA
ENDBRANCH  94  95
ENDBRANCH  62  87
ENDBRANCH  36  37
ENDBRANCH  29  31
ENDBRANCH  28  29
ENDBRANCH   1  28
TORSDOF 16
