REMARK SMILES COc1cc([C@H]2[NH2+]CCC3=c4ccccc4=N[C@H]32)ccc1OCC(=O)OCCOC(=O)c1ccc(-c2c3nc(c(-c4c(F)cc(S(=O)(=O)[O-])cc4F)c4ccc([nH]4)c(-c4c(F)cc(S(=O)(=O)[O-])cc4F)c4nc(c(-c5c(F)cc(S(=O)(=O)[O-])cc5F)c5ccc2[nH]5)C=C4)C=C3)cc1
REMARK SMILES IDX 27 1 26 2 24 3 25 4 23 5 22 6 21 7 3 8 4 9 5 10 20 11 19 12
REMARK SMILES IDX 2 13 1 14 6 15 7 16 18 17 8 18 10 21 17 22 9 23 11 24 16 25
REMARK SMILES IDX 12 26 15 27 13 28 14 29 28 30 29 31 30 32 31 33 32 34 33 35
REMARK SMILES IDX 97 36 34 37 96 38 35 39 36 40 37 41 90 42 38 43 95 44 89 45
REMARK SMILES IDX 91 46 39 47 94 48 88 49 87 50 40 52 74 53 53 54 73 55 54 56
REMARK SMILES IDX 57 57 72 58 92 59 55 60 56 61 71 63 93 64 58 65 41 66 42 67
REMARK SMILES IDX 51 68 43 69 44 70 50 71 52 72 45 73 46 74 47 75 48 76 49 77
REMARK SMILES IDX 75 78 76 79 85 80 77 81 78 82 84 83 86 84 79 85 80 86 81 87
REMARK SMILES IDX 82 88 83 89 59 90 60 91 69 92 61 93 62 94 68 95 70 96 63 97
REMARK SMILES IDX 64 98 65 99 66 100 67 101
REMARK H PARENT 7 19 7 20 91 51 57 62
REMARK Flexibility Score: inf
ROOT
ATOM      1  C   UNL     1       1.939  10.780  -5.973  1.00  0.00     0.274 C 
ENDROOT
BRANCH   1   2
ATOM      2  O   UNL     1       2.279   9.665  -6.819  1.00  0.00    -0.460 OA
BRANCH   2   3
ATOM      3  C   UNL     1       3.400   9.810  -7.572  1.00  0.00     0.344 C 
ATOM      4  O   UNL     1       4.076  10.832  -7.623  1.00  0.00    -0.248 OA
BRANCH   3   5
ATOM      5  C   UNL     1       3.681   8.569  -8.424  1.00  0.00     0.352 C 
BRANCH   5   6
ATOM      6  O   UNL     1       3.811   7.290  -7.839  1.00  0.00    -0.478 OA
BRANCH   6   7
ATOM      7  C   UNL     1       2.777   6.787  -7.105  1.00  0.00     0.162 A 
ATOM      8  C   UNL     1       3.061   6.211  -5.861  1.00  0.00     0.161 A 
ATOM      9  C   UNL     1       2.090   5.427  -5.214  1.00  0.00     0.060 A 
ATOM     10  C   UNL     1       0.811   5.229  -5.766  1.00  0.00     0.016 A 
ATOM     11  C   UNL     1       1.492   6.681  -7.623  1.00  0.00     0.051 A 
ATOM     12  C   UNL     1       0.515   5.952  -6.930  1.00  0.00     0.014 A 
BRANCH   8  13
ATOM     13  O   UNL     1       4.268   6.288  -5.210  1.00  0.00    -0.493 OA
ATOM     14  C   UNL     1       5.000   7.491  -5.423  1.00  0.00     0.278 C 
ENDBRANCH   8  13
BRANCH  10  15
ATOM     15  C   UNL     1      -0.139   4.215  -5.092  1.00  0.00     0.243 C 
ATOM     16  N   UNL     1      -0.837   4.821  -3.925  1.00  0.00    -0.338 N 
ATOM     17  C   UNL     1      -1.147   3.379  -5.978  1.00  0.00     0.196 C 
ATOM     18  C   UNL     1      -2.015   5.614  -4.296  1.00  0.00     0.265 C 
ATOM     19  H   UNL     1      -0.180   5.428  -3.435  1.00  0.00     0.346 HD
ATOM     20  H   UNL     1      -1.164   4.053  -3.340  1.00  0.00     0.346 HD
ATOM     21  C   UNL     1      -2.364   4.202  -6.298  1.00  0.00    -0.025 C 
ATOM     22  N   UNL     1      -0.579   2.982  -7.298  1.00  0.00    -0.270 NA
ATOM     23  C   UNL     1      -3.047   4.841  -5.139  1.00  0.00     0.095 C 
ATOM     24  C   UNL     1      -2.480   4.386  -7.608  1.00  0.00     0.001 A 
ATOM     25  C   UNL     1      -1.341   3.612  -8.140  1.00  0.00     0.066 A 
ATOM     26  C   UNL     1      -3.238   5.276  -8.426  1.00  0.00     0.010 A 
ATOM     27  C   UNL     1      -1.094   3.725  -9.592  1.00  0.00     0.028 A 
ATOM     28  C   UNL     1      -2.883   5.410  -9.715  1.00  0.00     0.001 A 
ATOM     29  C   UNL     1      -1.813   4.614 -10.298  1.00  0.00     0.002 A 
ENDBRANCH  10  15
ENDBRANCH   6   7
ENDBRANCH   5   6
ENDBRANCH   3   5
ENDBRANCH   2   3
ENDBRANCH   1   2
BRANCH   1  30
ATOM     30  C   UNL     1       1.167  10.258  -4.764  1.00  0.00     0.275 C 
BRANCH  30  31
ATOM     31  O   UNL     1       2.088   9.575  -3.898  1.00  0.00    -0.458 OA
BRANCH  31  32
ATOM     32  C   UNL     1       1.520   8.858  -2.899  1.00  0.00     0.338 C 
ATOM     33  O   UNL     1       0.316   8.803  -2.657  1.00  0.00    -0.246 OA
BRANCH  32  34
ATOM     34  C   UNL     1       2.554   8.092  -2.155  1.00  0.00     0.060 A 
ATOM     35  C   UNL     1       3.907   8.201  -2.471  1.00  0.00     0.016 A 
ATOM     36  C   UNL     1       2.170   7.201  -1.151  1.00  0.00     0.016 A 
ATOM     37  C   UNL     1       4.846   7.344  -1.890  1.00  0.00     0.010 A 
ATOM     38  C   UNL     1       3.135   6.433  -0.481  1.00  0.00     0.010 A 
ATOM     39  C   UNL     1       4.492   6.476  -0.853  1.00  0.00    -0.014 A 
BRANCH  39  40
ATOM     40  C   UNL     1       5.505   5.639  -0.132  1.00  0.00     0.031 A 
ATOM     41  C   UNL     1       5.222   4.178   0.128  1.00  0.00     0.074 A 
ATOM     42  C   UNL     1       6.646   6.175   0.357  1.00  0.00     0.049 A 
ATOM     43  N   UNL     1       5.699   3.393   1.059  1.00  0.00    -0.248 NA
ATOM     44  C   UNL     1       4.254   3.524  -0.768  1.00  0.00     0.031 C 
ATOM     45  C   UNL     1       7.130   7.538   0.124  1.00  0.00     0.029 A 
ATOM     46  N   UNL     1       7.604   5.634   1.188  1.00  0.00    -0.354 N 
ATOM     47  C   UNL     1       5.018   2.186   0.926  1.00  0.00     0.074 A 
ATOM     48  C   UNL     1       4.120   2.332  -0.200  1.00  0.00     0.031 C 
ATOM     49  C   UNL     1       8.290   7.719   0.768  1.00  0.00     0.029 A 
ATOM     50  C   UNL     1       8.561   6.543   1.581  1.00  0.00     0.049 A 
ATOM     51  H   UNL     1       7.604   4.692   1.472  1.00  0.00     0.167 HD
ATOM     52  C   UNL     1       5.123   1.074   1.695  1.00  0.00     0.037 A 
ATOM     53  C   UNL     1       9.494   6.493   2.552  1.00  0.00     0.037 A 
ATOM     54  C   UNL     1       6.086   0.926   2.759  1.00  0.00     0.049 A 
ATOM     55  C   UNL     1       9.566   5.278   3.430  1.00  0.00     0.074 A 
ATOM     56  C   UNL     1       6.289  -0.160   3.594  1.00  0.00     0.029 A 
ATOM     57  N   UNL     1       7.024   1.884   3.116  1.00  0.00    -0.354 N 
ATOM     58  N   UNL     1       8.839   4.187   3.382  1.00  0.00    -0.248 NA
ATOM     59  C   UNL     1      10.558   5.296   4.513  1.00  0.00     0.031 C 
ATOM     60  C   UNL     1       7.326   0.157   4.479  1.00  0.00     0.029 A 
ATOM     61  C   UNL     1       7.801   1.419   4.163  1.00  0.00     0.049 A 
ATOM     62  H   UNL     1       7.122   2.765   2.688  1.00  0.00     0.167 HD
ATOM     63  C   UNL     1       9.304   3.378   4.411  1.00  0.00     0.074 A 
ATOM     64  C   UNL     1      10.374   4.104   5.064  1.00  0.00     0.031 C 
ATOM     65  C   UNL     1       8.883   2.145   4.780  1.00  0.00     0.037 A 
BRANCH  52  66
ATOM     66  C   UNL     1       4.146  -0.050   1.467  1.00  0.00     0.058 A 
ATOM     67  C   UNL     1       4.215  -0.901   0.355  1.00  0.00     0.135 A 
ATOM     68  C   UNL     1       3.152  -0.315   2.428  1.00  0.00     0.135 A 
ATOM     69  F   UNL     1       5.135  -0.692  -0.600  1.00  0.00    -0.206 F 
ATOM     70  C   UNL     1       3.322  -1.959   0.191  1.00  0.00     0.059 A 
ATOM     71  C   UNL     1       2.268  -1.382   2.298  1.00  0.00     0.059 A 
ATOM     72  F   UNL     1       3.041   0.463   3.516  1.00  0.00    -0.206 F 
ATOM     73  C   UNL     1       2.352  -2.192   1.168  1.00  0.00     0.060 A 
BRANCH  73  74
ATOM     74  S   UNL     1       1.210  -3.575   0.952  1.00  0.00     0.124 S 
ATOM     75  O   UNL     1       0.330  -3.066  -0.096  1.00  0.00    -0.237 OA
ATOM     76  O   UNL     1       2.102  -4.660   0.556  1.00  0.00    -0.237 OA
ATOM     77  O   UNL     1       0.597  -3.721   2.268  1.00  0.00    -0.744 OA
ENDBRANCH  73  74
ENDBRANCH  52  66
BRANCH  53  78
ATOM     78  C   UNL     1      10.374   7.670   2.798  1.00  0.00     0.058 A 
ATOM     79  C   UNL     1      11.746   7.616   2.514  1.00  0.00     0.135 A 
ATOM     80  C   UNL     1       9.857   8.881   3.287  1.00  0.00     0.135 A 
ATOM     81  F   UNL     1      12.292   6.478   2.060  1.00  0.00    -0.206 F 
ATOM     82  C   UNL     1      12.574   8.718   2.706  1.00  0.00     0.059 A 
ATOM     83  C   UNL     1      10.657  10.006   3.456  1.00  0.00     0.059 A 
ATOM     84  F   UNL     1       8.548   8.992   3.565  1.00  0.00    -0.206 F 
ATOM     85  C   UNL     1      12.018   9.912   3.171  1.00  0.00     0.060 A 
BRANCH  85  86
ATOM     86  S   UNL     1      13.086  11.357   3.352  1.00  0.00     0.124 S 
ATOM     87  O   UNL     1      13.827  11.023   4.563  1.00  0.00    -0.237 OA
ATOM     88  O   UNL     1      13.850  11.333   2.109  1.00  0.00    -0.237 OA
ATOM     89  O   UNL     1      12.139  12.461   3.474  1.00  0.00    -0.744 OA
ENDBRANCH  85  86
ENDBRANCH  53  78
BRANCH  65  90
ATOM     90  C   UNL     1       9.625   1.466   5.894  1.00  0.00     0.058 A 
ATOM     91  C   UNL     1       9.429   1.818   7.237  1.00  0.00     0.135 A 
ATOM     92  C   UNL     1      10.492   0.399   5.609  1.00  0.00     0.135 A 
ATOM     93  F   UNL     1       8.621   2.840   7.557  1.00  0.00    -0.206 F 
ATOM     94  C   UNL     1      10.071   1.134   8.264  1.00  0.00     0.059 A 
ATOM     95  C   UNL     1      11.127  -0.312   6.621  1.00  0.00     0.059 A 
ATOM     96  F   UNL     1      10.710   0.025   4.338  1.00  0.00    -0.206 F 
ATOM     97  C   UNL     1      10.913   0.066   7.946  1.00  0.00     0.060 A 
BRANCH  97  98
ATOM     98  S   UNL     1      11.689  -0.856   9.290  1.00  0.00     0.124 S 
ATOM     99  O   UNL     1      12.727   0.074   9.724  1.00  0.00    -0.237 OA
ATOM    100  O   UNL     1      10.580  -1.047  10.219  1.00  0.00    -0.237 OA
ATOM    101  O   UNL     1      12.167  -2.071   8.637  1.00  0.00    -0.744 OA
ENDBRANCH  97  98
ENDBRANCH  65  90
ENDBRANCH  39  40
ENDBRANCH  32  34
ENDBRANCH  31  32
ENDBRANCH  30  31
ENDBRANCH   1  30
TORSDOF 18
