REMARK SMILES CN(CCO)C(=O)N[C@H]1C=C[C@@H](C(=O)OCCOC(=O)c2ccc(-c3c4nc(c(-c5c(F)cc(S(=O)(=O)[O-])cc5F)c5ccc([nH]5)c(-c5c(F)cc(S(=O)(=O)[O-])cc5F)c5nc(c(-c6c(F)cc(S(=O)(=O)[O-])cc6F)c6ccc3[nH]6)C=C5)C=C4)cc2)C1
REMARK SMILES IDX 16 1 15 2 13 3 14 4 12 5 9 6 10 7 87 8 11 9 8 10 6 11 7 12
REMARK SMILES IDX 2 14 1 15 3 16 4 17 5 18 17 20 18 21 19 22 20 23 21 24 22 25
REMARK SMILES IDX 86 26 23 27 85 28 24 29 25 30 26 31 79 32 27 33 84 34 78 35
REMARK SMILES IDX 80 36 28 37 83 38 77 39 76 40 29 42 63 43 42 44 62 45 43 46
REMARK SMILES IDX 46 47 61 48 81 49 44 50 45 51 60 53 82 54 47 55 30 56 31 57
REMARK SMILES IDX 40 58 32 59 33 60 39 61 41 62 34 63 35 64 36 65 37 66 38 67
REMARK SMILES IDX 64 68 65 69 74 70 66 71 67 72 73 73 75 74 68 75 69 76 70 77
REMARK SMILES IDX 71 78 72 79 48 80 49 81 58 82 50 83 51 84 57 85 59 86 52 87
REMARK SMILES IDX 53 88 54 89 55 90 56 91
REMARK H PARENT 8 13 5 19 80 41 46 52
REMARK Flexibility Score: inf
ROOT
ATOM      1  C   UNL     1       3.181   2.526   5.118  1.00  0.00     0.274 C 
ENDROOT
BRANCH   1   2
ATOM      2  O   UNL     1       2.312   1.382   5.085  1.00  0.00    -0.462 OA
BRANCH   2   3
ATOM      3  C   UNL     1       1.537   1.157   6.177  1.00  0.00     0.312 C 
ATOM      4  O   UNL     1       1.667   1.728   7.254  1.00  0.00    -0.252 OA
BRANCH   3   5
ATOM      5  C   UNL     1       0.457   0.109   5.925  1.00  0.00     0.124 C 
ATOM      6  C   UNL     1      -0.061  -1.564   4.164  1.00  0.00     0.107 C 
ATOM      7  C   UNL     1       0.501  -2.177   5.419  1.00  0.00    -0.006 C 
ATOM      8  C   UNL     1       0.063  -0.073   4.460  1.00  0.00     0.048 C 
ATOM      9  C   UNL     1       0.818  -1.273   6.354  1.00  0.00    -0.014 C 
BRANCH   6  10
ATOM     10  N   UNL     1       0.745  -2.052   3.060  1.00  0.00    -0.332 N 
ATOM     11  C   UNL     1       0.958  -1.789   1.765  1.00  0.00     0.317 C 
ATOM     12  O   UNL     1       1.806  -2.525   1.242  1.00  0.00    -0.249 OA
ATOM     13  H   UNL     1       1.305  -2.807   3.352  1.00  0.00     0.165 HD
BRANCH  11  14
ATOM     14  N   UNL     1       0.329  -0.818   1.044  1.00  0.00    -0.326 N 
ATOM     15  C   UNL     1       0.931  -0.474  -0.240  1.00  0.00     0.148 C 
BRANCH  14  16
ATOM     16  C   UNL     1      -0.891  -0.059   1.350  1.00  0.00     0.149 C 
BRANCH  16  17
ATOM     17  C   UNL     1      -2.203  -0.823   1.159  1.00  0.00     0.177 C 
BRANCH  17  18
ATOM     18  O   UNL     1      -2.207  -2.082   1.818  1.00  0.00    -0.395 OA
ATOM     19  H   UNL     1      -1.505  -2.642   1.449  1.00  0.00     0.210 HD
ENDBRANCH  17  18
ENDBRANCH  16  17
ENDBRANCH  14  16
ENDBRANCH  11  14
ENDBRANCH   6  10
ENDBRANCH   3   5
ENDBRANCH   2   3
ENDBRANCH   1   2
BRANCH   1  20
ATOM     20  C   UNL     1       2.725   3.540   4.067  1.00  0.00     0.275 C 
BRANCH  20  21
ATOM     21  O   UNL     1       1.427   4.074   4.398  1.00  0.00    -0.458 OA
BRANCH  21  22
ATOM     22  C   UNL     1       0.394   3.613   3.659  1.00  0.00     0.338 C 
ATOM     23  O   UNL     1       0.433   2.813   2.734  1.00  0.00    -0.246 OA
BRANCH  22  24
ATOM     24  C   UNL     1      -0.871   4.151   4.179  1.00  0.00     0.060 A 
ATOM     25  C   UNL     1      -1.750   3.278   4.822  1.00  0.00     0.016 A 
ATOM     26  C   UNL     1      -1.235   5.478   3.947  1.00  0.00     0.016 A 
ATOM     27  C   UNL     1      -3.011   3.717   5.215  1.00  0.00     0.010 A 
ATOM     28  C   UNL     1      -2.494   5.926   4.366  1.00  0.00     0.010 A 
ATOM     29  C   UNL     1      -3.395   5.044   4.989  1.00  0.00    -0.014 A 
BRANCH  29  30
ATOM     30  C   UNL     1      -4.743   5.499   5.406  1.00  0.00     0.031 A 
ATOM     31  C   UNL     1      -5.807   5.761   4.378  1.00  0.00     0.074 A 
ATOM     32  C   UNL     1      -5.012   5.660   6.716  1.00  0.00     0.049 A 
ATOM     33  N   UNL     1      -7.020   6.218   4.546  1.00  0.00    -0.248 NA
ATOM     34  C   UNL     1      -5.459   5.472   2.978  1.00  0.00     0.031 C 
ATOM     35  C   UNL     1      -4.069   5.407   7.807  1.00  0.00     0.029 A 
ATOM     36  N   UNL     1      -6.153   6.077   7.351  1.00  0.00    -0.354 N 
ATOM     37  C   UNL     1      -7.580   6.288   3.276  1.00  0.00     0.074 A 
ATOM     38  C   UNL     1      -6.565   5.840   2.344  1.00  0.00     0.031 C 
ATOM     39  C   UNL     1      -4.671   5.674   8.976  1.00  0.00     0.029 A 
ATOM     40  C   UNL     1      -6.024   6.156   8.716  1.00  0.00     0.049 A 
ATOM     41  H   UNL     1      -6.986   6.298   6.873  1.00  0.00     0.167 HD
ATOM     42  C   UNL     1      -8.825   6.685   2.921  1.00  0.00     0.037 A 
ATOM     43  C   UNL     1      -6.889   6.593   9.651  1.00  0.00     0.037 A 
ATOM     44  C   UNL     1      -9.834   7.121   3.854  1.00  0.00     0.049 A 
ATOM     45  C   UNL     1      -8.250   7.072   9.229  1.00  0.00     0.074 A 
ATOM     46  C   UNL     1     -11.131   7.528   3.592  1.00  0.00     0.029 A 
ATOM     47  N   UNL     1      -9.659   7.208   5.227  1.00  0.00    -0.354 N 
ATOM     48  N   UNL     1      -8.764   7.130   8.023  1.00  0.00    -0.248 NA
ATOM     49  C   UNL     1      -9.146   7.549  10.290  1.00  0.00     0.031 C 
ATOM     50  C   UNL     1     -11.728   7.894   4.803  1.00  0.00     0.029 A 
ATOM     51  C   UNL     1     -10.816   7.680   5.824  1.00  0.00     0.049 A 
ATOM     52  H   UNL     1      -8.833   6.970   5.707  1.00  0.00     0.167 HD
ATOM     53  C   UNL     1     -10.050   7.634   8.183  1.00  0.00     0.074 A 
ATOM     54  C   UNL     1     -10.239   7.854   9.603  1.00  0.00     0.031 C 
ATOM     55  C   UNL     1     -10.988   7.893   7.239  1.00  0.00     0.037 A 
BRANCH  42  56
ATOM     56  C   UNL     1      -9.161   6.692   1.457  1.00  0.00     0.058 A 
ATOM     57  C   UNL     1      -9.403   5.503   0.750  1.00  0.00     0.135 A 
ATOM     58  C   UNL     1      -9.271   7.905   0.758  1.00  0.00     0.135 A 
ATOM     59  F   UNL     1      -9.294   4.316   1.367  1.00  0.00    -0.206 F 
ATOM     60  C   UNL     1      -9.719   5.516  -0.605  1.00  0.00     0.059 A 
ATOM     61  C   UNL     1      -9.606   7.942  -0.592  1.00  0.00     0.059 A 
ATOM     62  F   UNL     1      -9.048   9.069   1.387  1.00  0.00    -0.206 F 
ATOM     63  C   UNL     1      -9.813   6.741  -1.269  1.00  0.00     0.060 A 
BRANCH  63  64
ATOM     64  S   UNL     1     -10.214   6.743  -3.029  1.00  0.00     0.124 S 
ATOM     65  O   UNL     1      -8.945   6.323  -3.615  1.00  0.00    -0.237 OA
ATOM     66  O   UNL     1     -11.300   5.771  -3.107  1.00  0.00    -0.237 OA
ATOM     67  O   UNL     1     -10.597   8.127  -3.288  1.00  0.00    -0.744 OA
ENDBRANCH  63  64
ENDBRANCH  42  56
BRANCH  43  68
ATOM     68  C   UNL     1      -6.482   6.613  11.079  1.00  0.00     0.058 A 
ATOM     69  C   UNL     1      -7.022   5.703  11.998  1.00  0.00     0.135 A 
ATOM     70  C   UNL     1      -5.527   7.530  11.547  1.00  0.00     0.135 A 
ATOM     71  F   UNL     1      -7.944   4.814  11.598  1.00  0.00    -0.206 F 
ATOM     72  C   UNL     1      -6.638   5.705  13.335  1.00  0.00     0.059 A 
ATOM     73  C   UNL     1      -5.111   7.537  12.873  1.00  0.00     0.059 A 
ATOM     74  F   UNL     1      -4.972   8.413  10.702  1.00  0.00    -0.206 F 
ATOM     75  C   UNL     1      -5.679   6.626  13.763  1.00  0.00     0.060 A 
BRANCH  75  76
ATOM     76  S   UNL     1      -5.141   6.585  15.486  1.00  0.00     0.124 S 
ATOM     77  O   UNL     1      -6.258   7.241  16.156  1.00  0.00    -0.237 OA
ATOM     78  O   UNL     1      -4.999   5.154  15.733  1.00  0.00    -0.237 OA
ATOM     79  O   UNL     1      -3.889   7.335  15.462  1.00  0.00    -0.744 OA
ENDBRANCH  75  76
ENDBRANCH  43  68
BRANCH  55  80
ATOM     80  C   UNL     1     -12.311   8.422   7.714  1.00  0.00     0.058 A 
ATOM     81  C   UNL     1     -12.463   9.753   8.130  1.00  0.00     0.135 A 
ATOM     82  C   UNL     1     -13.448   7.598   7.716  1.00  0.00     0.135 A 
ATOM     83  F   UNL     1     -11.405  10.578   8.154  1.00  0.00    -0.206 F 
ATOM     84  C   UNL     1     -13.694  10.245   8.552  1.00  0.00     0.059 A 
ATOM     85  C   UNL     1     -14.693   8.075   8.114  1.00  0.00     0.059 A 
ATOM     86  F   UNL     1     -13.357   6.319   7.320  1.00  0.00    -0.206 F 
ATOM     87  C   UNL     1     -14.803   9.398   8.542  1.00  0.00     0.060 A 
BRANCH  87  88
ATOM     88  S   UNL     1     -16.403  10.053   9.063  1.00  0.00     0.124 S 
ATOM     89  O   UNL     1     -16.260  10.056  10.515  1.00  0.00    -0.237 OA
ATOM     90  O   UNL     1     -16.429  11.366   8.426  1.00  0.00    -0.237 OA
ATOM     91  O   UNL     1     -17.356   9.086   8.527  1.00  0.00    -0.744 OA
ENDBRANCH  87  88
ENDBRANCH  55  80
ENDBRANCH  29  30
ENDBRANCH  22  24
ENDBRANCH  21  22
ENDBRANCH  20  21
ENDBRANCH   1  20
TORSDOF 19
