REMARK SMILES Cc1nc(-c2ccccn2)cc(N2CCC[C@H](C(=O)OCCOC(=O)c3ccc(-c4c5nc(c(-c6c(F)cc(S(=O)(=O)[O-])cc6F)c6ccc([nH]6)c(-c6c(F)cc(S(=O)(=O)[O-])cc6F)c6nc(c(-c7c(F)cc(S(=O)(=O)[O-])cc7F)c7ccc4[nH]7)C=C6)C=C5)cc3)C2)n1
REMARK SMILES IDX 22 1 21 2 20 3 18 4 19 5 17 6 13 7 14 8 92 9 15 10 16 11
REMARK SMILES IDX 12 12 1 13 2 14 3 15 93 16 4 17 11 18 5 19 6 20 10 21 7 22
REMARK SMILES IDX 9 23 8 24 23 25 24 26 25 27 26 28 27 29 91 30 28 31 90 32
REMARK SMILES IDX 29 33 30 34 31 35 84 36 32 37 89 38 83 39 85 40 33 41 88 42
REMARK SMILES IDX 82 43 81 44 34 46 68 47 47 48 67 49 48 50 51 51 66 52 86 53
REMARK SMILES IDX 49 54 50 55 65 57 87 58 52 59 35 60 36 61 45 62 37 63 38 64
REMARK SMILES IDX 44 65 46 66 39 67 40 68 41 69 42 70 43 71 69 72 70 73 79 74
REMARK SMILES IDX 71 75 72 76 78 77 80 78 73 79 74 80 75 81 76 82 77 83 53 84
REMARK SMILES IDX 54 85 63 86 55 87 56 88 62 89 64 90 57 91 58 92 59 93 60 94
REMARK SMILES IDX 61 95
REMARK H PARENT 85 45 51 56
REMARK Flexibility Score: inf
ROOT
ATOM      1  C   UNL     1       6.324   1.231   2.289  1.00  0.00     0.275 C 
ENDROOT
BRANCH   1   2
ATOM      2  C   UNL     1       4.857   0.895   2.015  1.00  0.00     0.274 C 
BRANCH   2   3
ATOM      3  O   UNL     1       4.248   1.877   1.155  1.00  0.00    -0.462 OA
BRANCH   3   4
ATOM      4  C   UNL     1       3.381   2.749   1.732  1.00  0.00     0.310 C 
ATOM      5  O   UNL     1       3.077   2.736   2.919  1.00  0.00    -0.252 OA
BRANCH   4   6
ATOM      6  C   UNL     1       2.781   3.747   0.752  1.00  0.00     0.118 C 
ATOM      7  N   UNL     1       1.526   2.250  -0.673  1.00  0.00    -0.356 N 
ATOM      8  C   UNL     1       2.217   2.579  -1.905  1.00  0.00     0.118 C 
ATOM      9  C   UNL     1       1.387   3.277   0.344  1.00  0.00     0.133 C 
ATOM     10  C   UNL     1       3.632   3.044  -1.578  1.00  0.00     0.022 C 
ATOM     11  C   UNL     1       3.655   4.097  -0.465  1.00  0.00     0.019 C 
BRANCH   7  12
ATOM     12  C   UNL     1       0.899   1.045  -0.487  1.00  0.00     0.132 A 
ATOM     13  C   UNL     1      -2.480  -0.163   0.211  1.00  0.00     0.090 C 
ATOM     14  C   UNL     1      -0.996  -0.147   0.023  1.00  0.00     0.128 A 
ATOM     15  N   UNL     1      -0.353  -1.325   0.063  1.00  0.00    -0.231 NA
ATOM     16  N   UNL     1      -0.413   1.040  -0.210  1.00  0.00    -0.216 NA
ATOM     17  C   UNL     1       0.972  -1.288  -0.192  1.00  0.00     0.094 A 
ATOM     18  C   UNL     1       1.634  -0.118  -0.504  1.00  0.00     0.077 A 
BRANCH  17  19
ATOM     19  C   UNL     1       1.711  -2.547  -0.061  1.00  0.00     0.089 A 
ATOM     20  C   UNL     1       2.517  -2.796   1.052  1.00  0.00     0.030 A 
ATOM     21  N   UNL     1       1.616  -3.419  -1.098  1.00  0.00    -0.255 NA
ATOM     22  C   UNL     1       3.246  -3.981   1.106  1.00  0.00     0.004 A 
ATOM     23  C   UNL     1       2.323  -4.565  -1.009  1.00  0.00     0.112 A 
ATOM     24  C   UNL     1       3.147  -4.886   0.057  1.00  0.00     0.020 A 
ENDBRANCH  17  19
ENDBRANCH   7  12
ENDBRANCH   4   6
ENDBRANCH   3   4
ENDBRANCH   2   3
ENDBRANCH   1   2
BRANCH   1  25
ATOM     25  O   UNL     1       6.441   2.437   3.062  1.00  0.00    -0.458 OA
BRANCH  25  26
ATOM     26  C   UNL     1       6.645   3.562   2.337  1.00  0.00     0.338 C 
ATOM     27  O   UNL     1       6.813   3.646   1.133  1.00  0.00    -0.246 OA
BRANCH  26  28
ATOM     28  C   UNL     1       6.492   4.733   3.211  1.00  0.00     0.060 A 
ATOM     29  C   UNL     1       5.394   5.570   2.999  1.00  0.00     0.016 A 
ATOM     30  C   UNL     1       7.449   5.043   4.177  1.00  0.00     0.016 A 
ATOM     31  C   UNL     1       5.245   6.729   3.753  1.00  0.00     0.010 A 
ATOM     32  C   UNL     1       7.300   6.210   4.933  1.00  0.00     0.010 A 
ATOM     33  C   UNL     1       6.204   7.064   4.717  1.00  0.00    -0.014 A 
BRANCH  33  34
ATOM     34  C   UNL     1       6.085   8.344   5.453  1.00  0.00     0.031 A 
ATOM     35  C   UNL     1       6.977   9.496   5.089  1.00  0.00     0.074 A 
ATOM     36  C   UNL     1       5.165   8.474   6.427  1.00  0.00     0.049 A 
ATOM     37  N   UNL     1       7.083  10.670   5.654  1.00  0.00    -0.248 NA
ATOM     38  C   UNL     1       7.871   9.299   3.936  1.00  0.00     0.031 C 
ATOM     39  C   UNL     1       4.220   7.435   6.839  1.00  0.00     0.029 A 
ATOM     40  N   UNL     1       4.878   9.533   7.250  1.00  0.00    -0.354 N 
ATOM     41  C   UNL     1       8.068  11.345   4.943  1.00  0.00     0.074 A 
ATOM     42  C   UNL     1       8.537  10.445   3.911  1.00  0.00     0.031 C 
ATOM     43  C   UNL     1       3.462   7.907   7.843  1.00  0.00     0.029 A 
ATOM     44  C   UNL     1       3.894   9.263   8.170  1.00  0.00     0.049 A 
ATOM     45  H   UNL     1       5.334  10.403   7.187  1.00  0.00     0.167 HD
ATOM     46  C   UNL     1       8.534  12.601   5.136  1.00  0.00     0.037 A 
ATOM     47  C   UNL     1       3.415  10.015   9.180  1.00  0.00     0.037 A 
ATOM     48  C   UNL     1       8.047  13.495   6.154  1.00  0.00     0.049 A 
ATOM     49  C   UNL     1       3.975  11.395   9.395  1.00  0.00     0.074 A 
ATOM     50  C   UNL     1       8.442  14.795   6.419  1.00  0.00     0.029 A 
ATOM     51  N   UNL     1       7.057  13.183   7.074  1.00  0.00    -0.354 N 
ATOM     52  N   UNL     1       4.906  12.021   8.715  1.00  0.00    -0.248 NA
ATOM     53  C   UNL     1       3.423  12.171  10.514  1.00  0.00     0.031 C 
ATOM     54  C   UNL     1       7.715  15.257   7.522  1.00  0.00     0.029 A 
ATOM     55  C   UNL     1       6.839  14.259   7.918  1.00  0.00     0.049 A 
ATOM     56  H   UNL     1       6.579  12.323   7.120  1.00  0.00     0.167 HD
ATOM     57  C   UNL     1       5.039  13.270   9.313  1.00  0.00     0.074 A 
ATOM     58  C   UNL     1       4.084  13.315  10.401  1.00  0.00     0.031 C 
ATOM     59  C   UNL     1       5.878  14.286   8.992  1.00  0.00     0.037 A 
BRANCH  46  60
ATOM     60  C   UNL     1       9.647  13.076   4.245  1.00  0.00     0.058 A 
ATOM     61  C   UNL     1       9.421  13.435   2.908  1.00  0.00     0.135 A 
ATOM     62  C   UNL     1      10.950  13.210   4.750  1.00  0.00     0.135 A 
ATOM     63  F   UNL     1       8.197  13.308   2.371  1.00  0.00    -0.206 F 
ATOM     64  C   UNL     1      10.453  13.895   2.096  1.00  0.00     0.059 A 
ATOM     65  C   UNL     1      11.993  13.687   3.962  1.00  0.00     0.059 A 
ATOM     66  F   UNL     1      11.220  12.875   6.022  1.00  0.00    -0.206 F 
ATOM     67  C   UNL     1      11.737  14.016   2.632  1.00  0.00     0.060 A 
BRANCH  67  68
ATOM     68  S   UNL     1      13.066  14.622   1.570  1.00  0.00     0.124 S 
ATOM     69  O   UNL     1      13.322  13.455   0.731  1.00  0.00    -0.237 OA
ATOM     70  O   UNL     1      12.440  15.757   0.901  1.00  0.00    -0.237 OA
ATOM     71  O   UNL     1      14.127  14.961   2.513  1.00  0.00    -0.744 OA
ENDBRANCH  67  68
ENDBRANCH  46  60
BRANCH  47  72
ATOM     72  C   UNL     1       2.368   9.467  10.082  1.00  0.00     0.058 A 
ATOM     73  C   UNL     1       1.056   9.959  10.055  1.00  0.00     0.135 A 
ATOM     74  C   UNL     1       2.662   8.435  10.987  1.00  0.00     0.135 A 
ATOM     75  F   UNL     1       0.729  10.952   9.213  1.00  0.00    -0.206 F 
ATOM     76  C   UNL     1       0.073   9.459  10.903  1.00  0.00     0.059 A 
ATOM     77  C   UNL     1       1.691   7.902  11.828  1.00  0.00     0.059 A 
ATOM     78  F   UNL     1       3.901   7.922  11.044  1.00  0.00    -0.206 F 
ATOM     79  C   UNL     1       0.401   8.429  11.787  1.00  0.00     0.060 A 
BRANCH  79  80
ATOM     80  S   UNL     1      -0.889   7.753  12.855  1.00  0.00     0.124 S 
ATOM     81  O   UNL     1      -0.990   8.784  13.881  1.00  0.00    -0.237 OA
ATOM     82  O   UNL     1      -2.023   7.647  11.943  1.00  0.00    -0.237 OA
ATOM     83  O   UNL     1      -0.326   6.479  13.293  1.00  0.00    -0.744 OA
ENDBRANCH  79  80
ENDBRANCH  47  72
BRANCH  59  84
ATOM     84  C   UNL     1       5.780  15.543   9.809  1.00  0.00     0.058 A 
ATOM     85  C   UNL     1       6.303  15.616  11.108  1.00  0.00     0.135 A 
ATOM     86  C   UNL     1       5.202  16.701   9.265  1.00  0.00     0.135 A 
ATOM     87  F   UNL     1       6.860  14.534  11.675  1.00  0.00    -0.206 F 
ATOM     88  C   UNL     1       6.240  16.791  11.850  1.00  0.00     0.059 A 
ATOM     89  C   UNL     1       5.148  17.893   9.980  1.00  0.00     0.059 A 
ATOM     90  F   UNL     1       4.696  16.684   8.022  1.00  0.00    -0.206 F 
ATOM     91  C   UNL     1       5.660  17.925  11.277  1.00  0.00     0.060 A 
BRANCH  91  92
ATOM     92  S   UNL     1       5.614  19.456  12.233  1.00  0.00     0.124 S 
ATOM     93  O   UNL     1       4.516  19.192  13.156  1.00  0.00    -0.237 OA
ATOM     94  O   UNL     1       6.947  19.495  12.829  1.00  0.00    -0.237 OA
ATOM     95  O   UNL     1       5.356  20.478  11.224  1.00  0.00    -0.744 OA
ENDBRANCH  91  92
ENDBRANCH  59  84
ENDBRANCH  33  34
ENDBRANCH  26  28
ENDBRANCH  25  26
ENDBRANCH   1  25
TORSDOF 16
