REMARK SMILES CCC(=O)Nc1cc(NC(=O)/C=C/C(=O)OCCOC(=O)c2ccc(-c3c4nc(c(-c5c(F)cc(S(=O)(=O)[O-])cc5F)c5ccc([nH]5)c(-c5c(F)cc(S(=O)(=O)[O-])cc5F)c5nc(c(-c6c(F)cc(S(=O)(=O)[O-])cc6F)c6ccc3[nH]6)C=C5)C=C4)cc2)ccc1C
REMARK SMILES IDX 17 1 16 2 14 3 15 4 13 5 12 6 10 7 9 8 11 10 8 11 6 12 7 13
REMARK SMILES IDX 90 14 89 15 91 16 88 17 5 18 3 19 4 20 2 22 1 23 18 24 19 25
REMARK SMILES IDX 20 26 21 27 22 28 23 29 87 30 24 31 86 32 25 33 26 34 27 35
REMARK SMILES IDX 80 36 28 37 85 38 79 39 81 40 29 41 84 42 78 43 77 44 30 46
REMARK SMILES IDX 64 47 43 48 63 49 44 50 47 51 62 52 82 53 45 54 46 55 61 57
REMARK SMILES IDX 83 58 48 59 31 60 32 61 41 62 33 63 34 64 40 65 42 66 35 67
REMARK SMILES IDX 36 68 37 69 38 70 39 71 65 72 66 73 75 74 67 75 68 76 74 77
REMARK SMILES IDX 76 78 69 79 70 80 71 81 72 82 73 83 49 84 50 85 59 86 51 87
REMARK SMILES IDX 52 88 58 89 60 90 53 91 54 92 55 93 56 94 57 95
REMARK H PARENT 9 9 5 21 81 45 47 56
REMARK Flexibility Score: inf
ROOT
ATOM      1  C   UNL     1       5.416   7.302  -2.641  1.00  0.00     0.275 C 
ENDROOT
BRANCH   1   2
ATOM      2  O   UNL     1       6.020   6.335  -1.763  1.00  0.00    -0.459 OA
BRANCH   2   3
ATOM      3  C   UNL     1       6.007   6.757  -0.475  1.00  0.00     0.331 C 
ATOM      4  O   UNL     1       5.822   7.921  -0.128  1.00  0.00    -0.247 OA
BRANCH   3   5
ATOM      5  C   UNL     1       6.125   5.695   0.540  1.00  0.00     0.099 C 
ATOM      6  C   UNL     1       6.589   4.442   0.410  1.00  0.00     0.079 C 
BRANCH   6   7
ATOM      7  C   UNL     1       6.885   3.759   1.690  1.00  0.00     0.248 C 
ATOM      8  N   UNL     1       6.649   2.438   1.895  1.00  0.00    -0.322 N 
ATOM      9  H   UNL     1       7.212   2.070   2.614  1.00  0.00     0.170 HD
ATOM     10  O   UNL     1       7.536   4.367   2.546  1.00  0.00    -0.270 OA
BRANCH   8  11
ATOM     11  C   UNL     1       5.803   1.464   1.339  1.00  0.00     0.043 A 
ATOM     12  C   UNL     1       3.749   0.593   0.363  1.00  0.00     0.046 A 
ATOM     13  C   UNL     1       4.510   1.677   0.858  1.00  0.00     0.052 A 
ATOM     14  C   UNL     1       4.316  -0.686   0.262  1.00  0.00    -0.027 A 
ATOM     15  C   UNL     1       5.566  -0.907   0.841  1.00  0.00     0.008 A 
ATOM     16  C   UNL     1       3.658  -1.805  -0.500  1.00  0.00     0.046 C 
ATOM     17  C   UNL     1       6.287   0.152   1.392  1.00  0.00     0.026 A 
BRANCH  12  18
ATOM     18  N   UNL     1       2.493   0.828  -0.225  1.00  0.00    -0.326 N 
ATOM     19  C   UNL     1       1.332   0.137   0.053  1.00  0.00     0.224 C 
ATOM     20  O   UNL     1       0.586  -0.259  -0.845  1.00  0.00    -0.275 OA
ATOM     21  H   UNL     1       2.437   1.549  -0.893  1.00  0.00     0.169 HD
BRANCH  19  22
ATOM     22  C   UNL     1       0.903  -0.006   1.497  1.00  0.00     0.097 C 
ATOM     23  C   UNL     1       0.515  -1.441   1.810  1.00  0.00     0.014 C 
ENDBRANCH  19  22
ENDBRANCH  12  18
ENDBRANCH   8  11
ENDBRANCH   6   7
ENDBRANCH   3   5
ENDBRANCH   2   3
ENDBRANCH   1   2
BRANCH   1  24
ATOM     24  C   UNL     1       5.142   6.797  -4.069  1.00  0.00     0.275 C 
BRANCH  24  25
ATOM     25  O   UNL     1       4.952   5.383  -4.310  1.00  0.00    -0.458 OA
BRANCH  25  26
ATOM     26  C   UNL     1       4.574   4.497  -3.353  1.00  0.00     0.338 C 
ATOM     27  O   UNL     1       5.221   3.481  -3.138  1.00  0.00    -0.246 OA
BRANCH  26  28
ATOM     28  C   UNL     1       3.460   4.947  -2.484  1.00  0.00     0.060 A 
ATOM     29  C   UNL     1       3.509   4.595  -1.133  1.00  0.00     0.016 A 
ATOM     30  C   UNL     1       2.498   5.842  -2.935  1.00  0.00     0.016 A 
ATOM     31  C   UNL     1       2.698   5.237  -0.198  1.00  0.00     0.010 A 
ATOM     32  C   UNL     1       1.720   6.515  -2.010  1.00  0.00     0.010 A 
ATOM     33  C   UNL     1       1.824   6.231  -0.639  1.00  0.00    -0.014 A 
BRANCH  33  34
ATOM     34  C   UNL     1       0.952   6.977   0.271  1.00  0.00     0.031 A 
ATOM     35  C   UNL     1       1.491   7.676   1.467  1.00  0.00     0.074 A 
ATOM     36  C   UNL     1      -0.375   6.973   0.007  1.00  0.00     0.049 A 
ATOM     37  N   UNL     1       0.873   7.810   2.594  1.00  0.00    -0.248 NA
ATOM     38  C   UNL     1       2.823   8.273   1.488  1.00  0.00     0.031 C 
ATOM     39  C   UNL     1      -1.439   7.695   0.678  1.00  0.00     0.029 A 
ATOM     40  N   UNL     1      -1.064   6.090  -0.833  1.00  0.00    -0.354 N 
ATOM     41  C   UNL     1       1.530   8.802   3.304  1.00  0.00     0.074 A 
ATOM     42  C   UNL     1       2.809   8.934   2.652  1.00  0.00     0.031 C 
ATOM     43  C   UNL     1      -2.586   7.006   0.513  1.00  0.00     0.029 A 
ATOM     44  C   UNL     1      -2.247   5.760  -0.165  1.00  0.00     0.049 A 
ATOM     45  H   UNL     1      -0.774   5.767  -1.716  1.00  0.00     0.167 HD
ATOM     46  C   UNL     1       0.829   9.556   4.207  1.00  0.00     0.037 A 
ATOM     47  C   UNL     1      -2.521   4.500   0.294  1.00  0.00     0.037 A 
ATOM     48  C   UNL     1      -0.531   9.041   4.337  1.00  0.00     0.049 A 
ATOM     49  C   UNL     1      -2.735   4.483   1.794  1.00  0.00     0.074 A 
ATOM     50  C   UNL     1      -1.717   9.434   3.737  1.00  0.00     0.029 A 
ATOM     51  N   UNL     1      -0.757   7.779   4.873  1.00  0.00    -0.354 N 
ATOM     52  N   UNL     1      -2.248   5.379   2.608  1.00  0.00    -0.248 NA
ATOM     53  C   UNL     1      -3.512   3.463   2.491  1.00  0.00     0.031 C 
ATOM     54  C   UNL     1      -2.630   8.363   3.827  1.00  0.00     0.029 A 
ATOM     55  C   UNL     1      -2.007   7.326   4.497  1.00  0.00     0.049 A 
ATOM     56  H   UNL     1      -0.121   7.281   5.436  1.00  0.00     0.167 HD
ATOM     57  C   UNL     1      -2.714   5.145   3.878  1.00  0.00     0.074 A 
ATOM     58  C   UNL     1      -3.470   3.912   3.759  1.00  0.00     0.031 C 
ATOM     59  C   UNL     1      -2.494   6.021   4.904  1.00  0.00     0.037 A 
BRANCH  46  60
ATOM     60  C   UNL     1       1.222  10.968   4.637  1.00  0.00     0.058 A 
ATOM     61  C   UNL     1       0.227  11.944   4.894  1.00  0.00     0.135 A 
ATOM     62  C   UNL     1       2.540  11.451   4.749  1.00  0.00     0.135 A 
ATOM     63  F   UNL     1      -1.073  11.630   4.963  1.00  0.00    -0.206 F 
ATOM     64  C   UNL     1       0.503  13.296   5.095  1.00  0.00     0.059 A 
ATOM     65  C   UNL     1       2.846  12.812   4.931  1.00  0.00     0.059 A 
ATOM     66  F   UNL     1       3.586  10.614   4.733  1.00  0.00    -0.206 F 
ATOM     67  C   UNL     1       1.816  13.732   5.079  1.00  0.00     0.060 A 
BRANCH  67  68
ATOM     68  S   UNL     1       2.131  15.495   5.294  1.00  0.00     0.124 S 
ATOM     69  O   UNL     1       1.435  16.072   4.148  1.00  0.00    -0.237 OA
ATOM     70  O   UNL     1       1.528  15.758   6.597  1.00  0.00    -0.237 OA
ATOM     71  O   UNL     1       3.587  15.590   5.249  1.00  0.00    -0.744 OA
ENDBRANCH  67  68
ENDBRANCH  46  60
BRANCH  47  72
ATOM     72  C   UNL     1      -1.805   3.419  -0.449  1.00  0.00     0.058 A 
ATOM     73  C   UNL     1      -2.252   3.004  -1.722  1.00  0.00     0.135 A 
ATOM     74  C   UNL     1      -0.460   3.208  -0.144  1.00  0.00     0.135 A 
ATOM     75  F   UNL     1      -3.538   3.178  -2.064  1.00  0.00    -0.206 F 
ATOM     76  C   UNL     1      -1.375   2.508  -2.695  1.00  0.00     0.059 A 
ATOM     77  C   UNL     1       0.430   2.839  -1.141  1.00  0.00     0.059 A 
ATOM     78  F   UNL     1       0.044   3.568   1.045  1.00  0.00    -0.206 F 
ATOM     79  C   UNL     1      -0.016   2.491  -2.412  1.00  0.00     0.060 A 
BRANCH  79  80
ATOM     80  S   UNL     1       1.201   2.018  -3.665  1.00  0.00     0.124 S 
ATOM     81  O   UNL     1       0.517   0.982  -4.427  1.00  0.00    -0.237 OA
ATOM     82  O   UNL     1       1.403   3.284  -4.365  1.00  0.00    -0.237 OA
ATOM     83  O   UNL     1       2.332   1.565  -2.854  1.00  0.00    -0.744 OA
ENDBRANCH  79  80
ENDBRANCH  47  72
BRANCH  59  84
ATOM     84  C   UNL     1      -2.886   5.843   6.349  1.00  0.00     0.058 A 
ATOM     85  C   UNL     1      -2.947   4.605   7.004  1.00  0.00     0.135 A 
ATOM     86  C   UNL     1      -3.108   6.981   7.169  1.00  0.00     0.135 A 
ATOM     87  F   UNL     1      -2.640   3.466   6.365  1.00  0.00    -0.206 F 
ATOM     88  C   UNL     1      -3.291   4.495   8.354  1.00  0.00     0.059 A 
ATOM     89  C   UNL     1      -3.398   6.897   8.524  1.00  0.00     0.059 A 
ATOM     90  F   UNL     1      -3.049   8.229   6.681  1.00  0.00    -0.206 F 
ATOM     91  C   UNL     1      -3.526   5.646   9.102  1.00  0.00     0.060 A 
BRANCH  91  92
ATOM     92  S   UNL     1      -3.969   5.521  10.841  1.00  0.00     0.124 S 
ATOM     93  O   UNL     1      -5.419   5.375  10.759  1.00  0.00    -0.237 OA
ATOM     94  O   UNL     1      -3.239   4.334  11.275  1.00  0.00    -0.237 OA
ATOM     95  O   UNL     1      -3.492   6.781  11.402  1.00  0.00    -0.744 OA
ENDBRANCH  91  92
ENDBRANCH  59  84
ENDBRANCH  33  34
ENDBRANCH  26  28
ENDBRANCH  25  26
ENDBRANCH  24  25
ENDBRANCH   1  24
TORSDOF 18
