REMARK SMILES C[C@H]1CCCC[C@H]1[N@H+]1[C@@H](C(=O)OCCOC(=O)c2ccc(-c3c4nc(c(-c5c(F)cc(S(=O)(=O)[O-])cc5F)c5ccc([nH]5)c(-c5c(F)cc(S(=O)(=O)[O-])cc5F)c5nc(c(-c6c(F)cc(S(=O)(=O)[O-])cc6F)c6ccc3[nH]6)C=C5)C=C4)cc2)CC[C@H]2CCCC[C@H]21
REMARK SMILES IDX 14 1 13 2 12 3 10 4 11 5 9 6 8 7 91 8 84 10 86 11 90 12
REMARK SMILES IDX 85 13 87 14 89 15 88 16 7 17 1 18 2 19 3 20 4 21 6 22 5 23
REMARK SMILES IDX 15 24 16 25 17 26 18 27 19 28 83 29 20 30 82 31 21 32 22 33
REMARK SMILES IDX 23 34 76 35 24 36 81 37 75 38 77 39 25 40 80 41 74 42 73 43
REMARK SMILES IDX 26 45 60 46 39 47 59 48 40 49 43 50 58 51 78 52 41 53 42 54
REMARK SMILES IDX 57 56 79 57 44 58 27 59 28 60 37 61 29 62 30 63 36 64 38 65
REMARK SMILES IDX 31 66 32 67 33 68 34 69 35 70 61 71 62 72 71 73 63 74 64 75
REMARK SMILES IDX 70 76 72 77 65 78 66 79 67 80 68 81 69 82 45 83 46 84 55 85
REMARK SMILES IDX 47 86 48 87 54 88 56 89 49 90 50 91 51 92 52 93 53 94
REMARK H PARENT 8 9 77 44 43 55
REMARK Flexibility Score: inf
ROOT
ATOM      1  C   UNL     1      -4.301  -0.008  -0.827  1.00  0.00     0.275 C 
ENDROOT
BRANCH   1   2
ATOM      2  C   UNL     1      -3.613  -0.384  -2.166  1.00  0.00     0.274 C 
BRANCH   2   3
ATOM      3  O   UNL     1      -2.186  -0.710  -2.119  1.00  0.00    -0.458 OA
BRANCH   3   4
ATOM      4  C   UNL     1      -1.300   0.310  -2.307  1.00  0.00     0.365 C 
ATOM      5  O   UNL     1      -1.678   1.476  -2.429  1.00  0.00    -0.245 OA
BRANCH   4   6
ATOM      6  C   UNL     1       0.186  -0.073  -2.580  1.00  0.00     0.295 C 
ATOM      7  N   UNL     1       0.833  -1.356  -2.137  1.00  0.00    -0.318 N 
ATOM      8  C   UNL     1       2.224  -1.296  -2.980  1.00  0.00     0.188 C 
ATOM      9  H   UNL     1       0.368  -2.241  -2.336  1.00  0.00     0.349 HD
ATOM     10  C   UNL     1       1.189   1.069  -2.299  1.00  0.00     0.078 C 
ATOM     11  C   UNL     1       3.238  -0.808  -2.003  1.00  0.00     0.048 C 
ATOM     12  C   UNL     1       3.019  -2.292  -3.917  1.00  0.00     0.065 C 
ATOM     13  C   UNL     1       2.650   0.664  -1.799  1.00  0.00     0.016 C 
ATOM     14  C   UNL     1       3.416  -2.199  -1.231  1.00  0.00     0.010 C 
ATOM     15  C   UNL     1       4.253  -3.071  -3.385  1.00  0.00     0.006 C 
ATOM     16  C   UNL     1       4.348  -3.201  -1.885  1.00  0.00     0.001 C 
BRANCH   7  17
ATOM     17  C   UNL     1       0.844  -1.467  -0.529  1.00  0.00     0.187 C 
ATOM     18  C   UNL     1       2.930  -0.366   1.154  1.00  0.00     0.014 C 
ATOM     19  C   UNL     1       1.457  -0.592   0.726  1.00  0.00     0.044 C 
ATOM     20  C   UNL     1       0.708   0.694   0.996  1.00  0.00     0.009 C 
ATOM     21  C   UNL     1      -0.777   0.486   0.982  1.00  0.00     0.001 C 
ATOM     22  C   UNL     1      -0.553  -1.912  -0.011  1.00  0.00     0.065 C 
ATOM     23  C   UNL     1      -1.334  -0.907   0.814  1.00  0.00     0.006 C 
ENDBRANCH   7  17
ENDBRANCH   4   6
ENDBRANCH   3   4
ENDBRANCH   2   3
ENDBRANCH   1   2
BRANCH   1  24
ATOM     24  O   UNL     1      -3.779   1.232  -0.308  1.00  0.00    -0.458 OA
BRANCH  24  25
ATOM     25  C   UNL     1      -4.005   1.542   0.992  1.00  0.00     0.338 C 
ATOM     26  O   UNL     1      -4.757   0.917   1.756  1.00  0.00    -0.246 OA
BRANCH  25  27
ATOM     27  C   UNL     1      -3.075   2.629   1.439  1.00  0.00     0.060 A 
ATOM     28  C   UNL     1      -2.256   3.264   0.503  1.00  0.00     0.016 A 
ATOM     29  C   UNL     1      -2.813   2.845   2.803  1.00  0.00     0.016 A 
ATOM     30  C   UNL     1      -1.100   3.933   0.920  1.00  0.00     0.010 A 
ATOM     31  C   UNL     1      -1.722   3.648   3.211  1.00  0.00     0.010 A 
ATOM     32  C   UNL     1      -0.825   4.192   2.275  1.00  0.00    -0.014 A 
BRANCH  32  33
ATOM     33  C   UNL     1       0.344   5.061   2.675  1.00  0.00     0.031 A 
ATOM     34  C   UNL     1       1.321   4.675   3.773  1.00  0.00     0.074 A 
ATOM     35  C   UNL     1       0.552   6.242   2.049  1.00  0.00     0.049 A 
ATOM     36  N   UNL     1       2.203   5.420   4.400  1.00  0.00    -0.248 NA
ATOM     37  C   UNL     1       1.318   3.274   4.213  1.00  0.00     0.031 C 
ATOM     38  C   UNL     1      -0.222   6.758   0.917  1.00  0.00     0.029 A 
ATOM     39  N   UNL     1       1.482   7.233   2.275  1.00  0.00    -0.354 N 
ATOM     40  C   UNL     1       2.815   4.599   5.347  1.00  0.00     0.074 A 
ATOM     41  C   UNL     1       2.221   3.286   5.188  1.00  0.00     0.031 C 
ATOM     42  C   UNL     1       0.297   7.921   0.509  1.00  0.00     0.029 A 
ATOM     43  C   UNL     1       1.328   8.326   1.452  1.00  0.00     0.049 A 
ATOM     44  H   UNL     1       2.188   7.166   2.958  1.00  0.00     0.167 HD
ATOM     45  C   UNL     1       3.760   4.914   6.275  1.00  0.00     0.037 A 
ATOM     46  C   UNL     1       1.863   9.561   1.482  1.00  0.00     0.037 A 
ATOM     47  C   UNL     1       4.372   6.218   6.414  1.00  0.00     0.049 A 
ATOM     48  C   UNL     1       2.810   9.931   2.578  1.00  0.00     0.074 A 
ATOM     49  C   UNL     1       5.318   6.635   7.338  1.00  0.00     0.029 A 
ATOM     50  N   UNL     1       4.107   7.314   5.606  1.00  0.00    -0.354 N 
ATOM     51  N   UNL     1       3.275   9.186   3.549  1.00  0.00    -0.248 NA
ATOM     52  C   UNL     1       3.280  11.322   2.601  1.00  0.00     0.031 C 
ATOM     53  C   UNL     1       5.588   7.992   7.119  1.00  0.00     0.029 A 
ATOM     54  C   UNL     1       4.856   8.408   6.021  1.00  0.00     0.049 A 
ATOM     55  H   UNL     1       3.480   7.317   4.847  1.00  0.00     0.167 HD
ATOM     56  C   UNL     1       4.112  10.010   4.288  1.00  0.00     0.074 A 
ATOM     57  C   UNL     1       4.091  11.311   3.649  1.00  0.00     0.031 C 
ATOM     58  C   UNL     1       4.837   9.707   5.393  1.00  0.00     0.037 A 
BRANCH  45  59
ATOM     59  C   UNL     1       4.142   3.853   7.282  1.00  0.00     0.058 A 
ATOM     60  C   UNL     1       4.912   2.728   6.949  1.00  0.00     0.135 A 
ATOM     61  C   UNL     1       3.748   3.990   8.627  1.00  0.00     0.135 A 
ATOM     62  F   UNL     1       5.322   2.541   5.684  1.00  0.00    -0.206 F 
ATOM     63  C   UNL     1       5.235   1.756   7.896  1.00  0.00     0.059 A 
ATOM     64  C   UNL     1       4.082   3.046   9.595  1.00  0.00     0.059 A 
ATOM     65  F   UNL     1       3.026   5.053   9.014  1.00  0.00    -0.206 F 
ATOM     66  C   UNL     1       4.803   1.917   9.214  1.00  0.00     0.060 A 
BRANCH  66  67
ATOM     67  S   UNL     1       5.175   0.624  10.421  1.00  0.00     0.124 S 
ATOM     68  O   UNL     1       4.230  -0.417  10.028  1.00  0.00    -0.237 OA
ATOM     69  O   UNL     1       6.580   0.336  10.153  1.00  0.00    -0.237 OA
ATOM     70  O   UNL     1       4.903   1.265  11.703  1.00  0.00    -0.744 OA
ENDBRANCH  66  67
ENDBRANCH  45  59
BRANCH  46  71
ATOM     71  C   UNL     1       1.438  10.555   0.461  1.00  0.00     0.058 A 
ATOM     72  C   UNL     1       2.309  10.946  -0.564  1.00  0.00     0.135 A 
ATOM     73  C   UNL     1       0.125  11.055   0.435  1.00  0.00     0.135 A 
ATOM     74  F   UNL     1       3.577  10.508  -0.570  1.00  0.00    -0.206 F 
ATOM     75  C   UNL     1       1.887  11.776  -1.596  1.00  0.00     0.059 A 
ATOM     76  C   UNL     1      -0.330  11.859  -0.603  1.00  0.00     0.059 A 
ATOM     77  F   UNL     1      -0.750  10.700   1.390  1.00  0.00    -0.206 F 
ATOM     78  C   UNL     1       0.559  12.212  -1.617  1.00  0.00     0.060 A 
BRANCH  78  79
ATOM     79  S   UNL     1      -0.011  13.181  -3.029  1.00  0.00     0.124 S 
ATOM     80  O   UNL     1       0.609  14.474  -2.767  1.00  0.00    -0.237 OA
ATOM     81  O   UNL     1       0.530  12.428  -4.156  1.00  0.00    -0.237 OA
ATOM     82  O   UNL     1      -1.465  13.139  -2.899  1.00  0.00    -0.744 OA
ENDBRANCH  78  79
ENDBRANCH  46  71
BRANCH  58  83
ATOM     83  C   UNL     1       5.719  10.791   5.947  1.00  0.00     0.058 A 
ATOM     84  C   UNL     1       5.196  11.902   6.628  1.00  0.00     0.135 A 
ATOM     85  C   UNL     1       7.111  10.722   5.781  1.00  0.00     0.135 A 
ATOM     86  F   UNL     1       3.870  12.026   6.802  1.00  0.00    -0.206 F 
ATOM     87  C   UNL     1       6.019  12.923   7.094  1.00  0.00     0.059 A 
ATOM     88  C   UNL     1       7.956  11.718   6.261  1.00  0.00     0.059 A 
ATOM     89  F   UNL     1       7.665   9.680   5.141  1.00  0.00    -0.206 F 
ATOM     90  C   UNL     1       7.399  12.824   6.901  1.00  0.00     0.060 A 
BRANCH  90  91
ATOM     91  S   UNL     1       8.459  14.154   7.508  1.00  0.00     0.124 S 
ATOM     92  O   UNL     1       8.211  15.201   6.523  1.00  0.00    -0.237 OA
ATOM     93  O   UNL     1       7.922  14.399   8.843  1.00  0.00    -0.237 OA
ATOM     94  O   UNL     1       9.795  13.564   7.476  1.00  0.00    -0.744 OA
ENDBRANCH  90  91
ENDBRANCH  58  83
ENDBRANCH  32  33
ENDBRANCH  25  27
ENDBRANCH  24  25
ENDBRANCH   1  24
TORSDOF 15
