REMARK SMILES Cc1ccc(C(C)C)c(OCC(=O)Nc2nc(CC(=O)OCCOC(=O)c3ccc(-c4c5nc(c(-c6c(F)cc(S(=O)(=O)[O-])cc6F)c6ccc([nH]6)c(-c6c(F)cc(S(=O)(=O)[O-])cc6F)c6nc(c(-c7c(F)cc(S(=O)(=O)[O-])cc7F)c7ccc4[nH]7)C=C6)C=C5)cc3)cs2)c1
REMARK SMILES IDX 21 1 19 2 20 3 18 4 17 5 15 6 16 7 94 8 93 9 14 10 12 11
REMARK SMILES IDX 13 12 11 14 10 15 9 16 1 17 2 18 3 19 95 20 4 21 5 22 6 23
REMARK SMILES IDX 7 24 8 25 22 26 23 27 24 28 25 29 26 30 27 31 28 32 92 33
REMARK SMILES IDX 29 34 91 35 30 36 31 37 32 38 85 39 33 40 90 41 84 42 86 43
REMARK SMILES IDX 34 44 89 45 83 46 82 47 35 49 69 50 48 51 68 52 49 53 52 54
REMARK SMILES IDX 67 55 87 56 50 57 51 58 66 60 88 61 53 62 36 63 37 64 46 65
REMARK SMILES IDX 38 66 39 67 45 68 47 69 40 70 41 71 42 72 43 73 44 74 70 75
REMARK SMILES IDX 71 76 80 77 72 78 73 79 79 80 81 81 74 82 75 83 76 84 77 85
REMARK SMILES IDX 78 86 54 87 55 88 64 89 56 90 57 91 63 92 65 93 58 94 59 95
REMARK SMILES IDX 60 96 61 97 62 98
REMARK H PARENT 14 13 86 48 52 59
REMARK Flexibility Score: inf
ROOT
ATOM      1  O   UNL     1      -6.207  -0.548   4.775  1.00  0.00    -0.462 OA
ENDROOT
BRANCH   1   2
ATOM      2  C   UNL     1      -6.568   0.234   3.619  1.00  0.00     0.312 C 
ATOM      3  O   UNL     1      -7.830   0.137   3.543  1.00  0.00    -0.252 OA
BRANCH   2   4
ATOM      4  C   UNL     1      -5.160   1.310   2.361  1.00  0.00     0.179 C 
BRANCH   4   5
ATOM      5  C   UNL     1      -4.056   2.627   2.637  1.00  0.00     0.065 A 
ATOM      6  C   UNL     1      -2.027   3.523   2.575  1.00  0.00     0.189 A 
ATOM      7  N   UNL     1      -2.709   2.451   2.257  1.00  0.00    -0.224 NA
ATOM      8  S   UNL     1      -2.897   4.798   3.291  1.00  0.00    -0.105 S 
ATOM      9  C   UNL     1      -4.349   3.951   2.957  1.00  0.00     0.093 A 
BRANCH   6  10
ATOM     10  N   UNL     1      -0.683   3.734   2.530  1.00  0.00    -0.299 N 
ATOM     11  C   UNL     1       0.090   3.821   1.414  1.00  0.00     0.264 C 
ATOM     12  O   UNL     1       1.292   4.082   1.567  1.00  0.00    -0.271 OA
ATOM     13  H   UNL     1      -0.223   3.835   3.395  1.00  0.00     0.172 HD
BRANCH  11  14
ATOM     14  C   UNL     1      -0.516   3.817   0.001  1.00  0.00     0.329 C 
BRANCH  14  15
ATOM     15  O   UNL     1      -0.851   2.654  -0.702  1.00  0.00    -0.483 OA
BRANCH  15  16
ATOM     16  C   UNL     1      -0.052   1.558  -0.583  1.00  0.00     0.123 A 
ATOM     17  C   UNL     1       3.519   0.344  -0.091  1.00  0.00     0.044 C 
ATOM     18  C   UNL     1       2.044   0.365  -0.340  1.00  0.00    -0.047 A 
ATOM     19  C   UNL     1       1.364  -0.852  -0.417  1.00  0.00     0.004 A 
ATOM     20  C   UNL     1       1.336   1.571  -0.479  1.00  0.00     0.050 A 
ATOM     21  C   UNL     1      -0.010  -0.864  -0.588  1.00  0.00     0.008 A 
ATOM     22  C   UNL     1      -0.733   0.338  -0.601  1.00  0.00    -0.003 A 
BRANCH  22  23
ATOM     23  C   UNL     1      -2.235   0.330  -0.459  1.00  0.00     0.017 C 
ATOM     24  C   UNL     1      -2.971   0.053  -1.764  1.00  0.00     0.012 C 
ATOM     25  C   UNL     1      -2.585  -0.602   0.684  1.00  0.00     0.012 C 
ENDBRANCH  22  23
ENDBRANCH  15  16
ENDBRANCH  14  15
ENDBRANCH  11  14
ENDBRANCH   6  10
ENDBRANCH   4   5
ENDBRANCH   2   4
ENDBRANCH   1   2
BRANCH   1  26
ATOM     26  C   UNL     1      -7.157  -0.561   5.855  1.00  0.00     0.274 C 
BRANCH  26  27
ATOM     27  C   UNL     1      -6.916   0.698   6.692  1.00  0.00     0.275 C 
BRANCH  27  28
ATOM     28  O   UNL     1      -7.361   1.926   6.059  1.00  0.00    -0.458 OA
BRANCH  28  29
ATOM     29  C   UNL     1      -6.462   2.720   5.420  1.00  0.00     0.338 C 
ATOM     30  O   UNL     1      -6.076   3.811   5.801  1.00  0.00    -0.246 OA
BRANCH  29  31
ATOM     31  C   UNL     1      -5.992   2.110   4.162  1.00  0.00     0.060 A 
ATOM     32  C   UNL     1      -7.082   2.042   2.720  1.00  0.00     0.016 A 
ATOM     33  C   UNL     1      -4.669   0.896   4.353  1.00  0.00     0.016 A 
ATOM     34  C   UNL     1      -6.981   0.608   1.582  1.00  0.00     0.010 A 
ATOM     35  C   UNL     1      -4.599  -0.522   3.246  1.00  0.00     0.010 A 
ATOM     36  C   UNL     1      -5.805  -0.709   1.919  1.00  0.00    -0.014 A 
BRANCH  36  37
ATOM     37  C   UNL     1      -6.046  -2.138   1.623  1.00  0.00     0.031 A 
ATOM     38  C   UNL     1      -5.022  -2.914   0.899  1.00  0.00     0.074 A 
ATOM     39  C   UNL     1      -7.096  -2.783   2.168  1.00  0.00     0.049 A 
ATOM     40  N   UNL     1      -4.252  -3.839   1.380  1.00  0.00    -0.248 NA
ATOM     41  C   UNL     1      -4.782  -2.569  -0.503  1.00  0.00     0.031 C 
ATOM     42  C   UNL     1      -7.341  -4.218   2.177  1.00  0.00     0.029 A 
ATOM     43  N   UNL     1      -8.307  -2.249   2.593  1.00  0.00    -0.354 N 
ATOM     44  C   UNL     1      -3.441  -4.270   0.332  1.00  0.00     0.074 A 
ATOM     45  C   UNL     1      -3.714  -3.325  -0.759  1.00  0.00     0.031 C 
ATOM     46  C   UNL     1      -8.672  -4.413   2.196  1.00  0.00     0.029 A 
ATOM     47  C   UNL     1      -9.302  -3.100   2.117  1.00  0.00     0.049 A 
ATOM     48  H   UNL     1      -8.436  -1.431   3.125  1.00  0.00     0.167 HD
ATOM     49  C   UNL     1      -3.455  -5.573  -0.066  1.00  0.00     0.037 A 
ATOM     50  C   UNL     1     -10.171  -2.699   1.145  1.00  0.00     0.037 A 
ATOM     51  C   UNL     1      -4.788  -6.106  -0.231  1.00  0.00     0.049 A 
ATOM     52  C   UNL     1      -9.908  -3.482  -0.128  1.00  0.00     0.074 A 
ATOM     53  C   UNL     1      -5.603  -6.922   0.526  1.00  0.00     0.029 A 
ATOM     54  N   UNL     1      -5.579  -5.603  -1.257  1.00  0.00    -0.354 N 
ATOM     55  N   UNL     1      -8.745  -3.984  -0.470  1.00  0.00    -0.248 NA
ATOM     56  C   UNL     1     -10.974  -3.852  -1.049  1.00  0.00     0.031 C 
ATOM     57  C   UNL     1      -6.921  -6.823  -0.005  1.00  0.00     0.029 A 
ATOM     58  C   UNL     1      -6.894  -5.976  -1.104  1.00  0.00     0.049 A 
ATOM     59  H   UNL     1      -5.241  -5.050  -1.998  1.00  0.00     0.167 HD
ATOM     60  C   UNL     1      -8.912  -4.801  -1.567  1.00  0.00     0.074 A 
ATOM     61  C   UNL     1     -10.319  -4.663  -1.897  1.00  0.00     0.031 C 
ATOM     62  C   UNL     1      -7.912  -5.589  -2.080  1.00  0.00     0.037 A 
BRANCH  49  63
ATOM     63  C   UNL     1      -2.131  -6.284  -0.119  1.00  0.00     0.058 A 
ATOM     64  C   UNL     1      -2.037  -7.686  -0.154  1.00  0.00     0.135 A 
ATOM     65  C   UNL     1      -0.896  -5.589  -0.117  1.00  0.00     0.135 A 
ATOM     66  F   UNL     1      -3.139  -8.449  -0.171  1.00  0.00    -0.206 F 
ATOM     67  C   UNL     1      -0.807  -8.354  -0.147  1.00  0.00     0.059 A 
ATOM     68  C   UNL     1       0.342  -6.235  -0.106  1.00  0.00     0.059 A 
ATOM     69  F   UNL     1      -0.858  -4.246  -0.129  1.00  0.00    -0.206 F 
ATOM     70  C   UNL     1       0.378  -7.622  -0.106  1.00  0.00     0.060 A 
BRANCH  70  71
ATOM     71  S   UNL     1       1.954  -8.502  -0.029  1.00  0.00     0.124 S 
ATOM     72  O   UNL     1       1.839  -9.217   1.238  1.00  0.00    -0.237 OA
ATOM     73  O   UNL     1       1.908  -9.327  -1.231  1.00  0.00    -0.237 OA
ATOM     74  O   UNL     1       2.946  -7.430  -0.047  1.00  0.00    -0.744 OA
ENDBRANCH  70  71
ENDBRANCH  49  63
BRANCH  50  75
ATOM     75  C   UNL     1     -10.653  -1.287   1.263  1.00  0.00     0.058 A 
ATOM     76  C   UNL     1     -11.282  -0.910   2.472  1.00  0.00     0.135 A 
ATOM     77  C   UNL     1     -10.275  -0.246   0.407  1.00  0.00     0.135 A 
ATOM     78  F   UNL     1     -11.726  -1.857   3.316  1.00  0.00    -0.206 F 
ATOM     79  C   UNL     1     -11.383   0.417   2.885  1.00  0.00     0.059 A 
ATOM     80  C   UNL     1     -10.393   1.102   0.789  1.00  0.00     0.059 A 
ATOM     81  F   UNL     1      -9.664  -0.516  -0.756  1.00  0.00    -0.206 F 
ATOM     82  C   UNL     1     -10.897   1.419   2.053  1.00  0.00     0.060 A 
BRANCH  82  83
ATOM     83  S   UNL     1     -10.804   3.108   2.710  1.00  0.00     0.124 S 
ATOM     84  O   UNL     1     -12.211   3.479   2.798  1.00  0.00    -0.237 OA
ATOM     85  O   UNL     1     -10.119   2.914   3.983  1.00  0.00    -0.237 OA
ATOM     86  O   UNL     1     -10.023   3.816   1.699  1.00  0.00    -0.744 OA
ENDBRANCH  82  83
ENDBRANCH  50  75
BRANCH  62  87
ATOM     87  C   UNL     1      -7.877  -6.222  -3.472  1.00  0.00     0.058 A 
ATOM     88  C   UNL     1      -8.777  -5.924  -4.512  1.00  0.00     0.135 A 
ATOM     89  C   UNL     1      -6.824  -7.099  -3.853  1.00  0.00     0.135 A 
ATOM     90  F   UNL     1      -9.712  -4.975  -4.389  1.00  0.00    -0.206 F 
ATOM     91  C   UNL     1      -8.723  -6.541  -5.765  1.00  0.00     0.059 A 
ATOM     92  C   UNL     1      -6.711  -7.675  -5.118  1.00  0.00     0.059 A 
ATOM     93  F   UNL     1      -5.820  -7.410  -3.021  1.00  0.00    -0.206 F 
ATOM     94  C   UNL     1      -7.692  -7.423  -6.058  1.00  0.00     0.060 A 
BRANCH  94  95
ATOM     95  S   UNL     1      -7.612  -8.172  -7.691  1.00  0.00     0.124 S 
ATOM     96  O   UNL     1      -8.616  -9.224  -7.577  1.00  0.00    -0.237 OA
ATOM     97  O   UNL     1      -7.962  -7.055  -8.564  1.00  0.00    -0.237 OA
ATOM     98  O   UNL     1      -6.228  -8.625  -7.790  1.00  0.00    -0.744 OA
ENDBRANCH  94  95
ENDBRANCH  62  87
ENDBRANCH  36  37
ENDBRANCH  29  31
ENDBRANCH  28  29
ENDBRANCH  27  28
ENDBRANCH  26  27
ENDBRANCH   1  26
TORSDOF 20
