REMARK SMILES Cc1ccc(S(=O)(=O)n2cc(C(=O)C(=O)NCC(=O)NCC(=O)OCCOC(=O)c3ccc(-c4c5nc(c(-c6c(F)cc(S(=O)(=O)[O-])cc6F)c6ccc([nH]6)c(-c6c(F)cc(S(=O)(=O)[O-])cc6F)c6nc(c(-c7c(F)cc(S(=O)(=O)[O-])cc7F)c7ccc4[nH]7)C=C6)C=C5)cc3)c3ccccc32)cc1
REMARK SMILES IDX 22 1 23 2 21 3 20 4 18 5 19 6 17 8 16 9 14 10 15 11 12 13
REMARK SMILES IDX 13 14 11 15 9 16 10 17 101 18 96 19 100 20 97 21 99 22 98 23
REMARK SMILES IDX 6 24 7 25 8 26 5 27 1 28 2 29 3 30 103 31 4 32 102 33 24 34
REMARK SMILES IDX 25 35 26 36 27 37 28 38 29 39 30 40 31 41 95 42 32 43 94 44
REMARK SMILES IDX 33 45 34 46 35 47 88 48 36 49 93 50 87 51 89 52 37 53 92 54
REMARK SMILES IDX 86 55 85 56 38 58 72 59 51 60 71 61 52 62 55 63 70 64 90 65
REMARK SMILES IDX 53 66 54 67 69 69 91 70 56 71 39 72 40 73 49 74 41 75 42 76
REMARK SMILES IDX 48 77 50 78 43 79 44 80 45 81 46 82 47 83 73 84 74 85 83 86
REMARK SMILES IDX 75 87 76 88 82 89 84 90 77 91 78 92 79 93 80 94 81 95 57 96
REMARK SMILES IDX 58 97 67 98 59 99 60 100 66 101 68 102 61 103 62 104 63 105
REMARK SMILES IDX 64 106 65 107
REMARK H PARENT 20 7 16 12 89 57 55 68
REMARK Flexibility Score: inf
ROOT
ATOM      1  C   UNL     1     -10.184   2.283   1.464  1.00  0.00     0.325 C 
ATOM      2  O   UNL     1     -10.421   1.596   0.423  1.00  0.00    -0.250 OA
ENDROOT
BRANCH   1   3
ATOM      3  C   UNL     1      -9.326   4.260   1.722  1.00  0.00     0.238 C 
BRANCH   3   4
ATOM      4  N   UNL     1      -9.895   5.718   2.247  1.00  0.00    -0.344 N 
ATOM      5  C   UNL     1      -9.361   6.896   2.637  1.00  0.00     0.239 C 
ATOM      6  O   UNL     1     -10.161   7.819   2.844  1.00  0.00    -0.273 OA
ATOM      7  H   UNL     1     -10.879   5.733   2.286  1.00  0.00     0.164 HD
BRANCH   5   8
ATOM      8  C   UNL     1      -7.873   7.186   2.682  1.00  0.00     0.216 C 
BRANCH   8   9
ATOM      9  N   UNL     1      -6.996   6.105   3.064  1.00  0.00    -0.340 N 
ATOM     10  C   UNL     1      -5.949   5.541   2.366  1.00  0.00     0.292 C 
ATOM     11  O   UNL     1      -5.099   4.946   3.017  1.00  0.00    -0.265 OA
ATOM     12  H   UNL     1      -7.170   5.715   3.951  1.00  0.00     0.164 HD
BRANCH  10  13
ATOM     13  C   UNL     1      -5.779   5.716   0.833  1.00  0.00     0.252 C 
ATOM     14  O   UNL     1      -6.101   6.815   0.387  1.00  0.00    -0.283 OA
BRANCH  13  15
ATOM     15  C   UNL     1      -5.099   4.735  -0.057  1.00  0.00     0.054 A 
ATOM     16  N   UNL     1      -4.048   2.943  -0.872  1.00  0.00    -0.240 N 
ATOM     17  C   UNL     1      -5.081   3.351  -0.064  1.00  0.00     0.117 A 
ATOM     18  C   UNL     1      -3.759   3.920  -1.774  1.00  0.00     0.065 A 
ATOM     19  C   UNL     1      -4.404   5.063  -1.284  1.00  0.00     0.012 A 
ATOM     20  C   UNL     1      -3.005   3.901  -2.952  1.00  0.00     0.028 A 
ATOM     21  C   UNL     1      -4.289   6.246  -2.032  1.00  0.00     0.011 A 
ATOM     22  C   UNL     1      -2.949   5.079  -3.688  1.00  0.00     0.002 A 
ATOM     23  C   UNL     1      -3.586   6.232  -3.240  1.00  0.00     0.001 A 
BRANCH  16  24
ATOM     24  S   UNL     1      -3.357   1.400  -0.850  1.00  0.00     0.268 S 
ATOM     25  O   UNL     1      -3.598   0.870  -2.176  1.00  0.00    -0.201 OA
ATOM     26  O   UNL     1      -3.833   0.803   0.379  1.00  0.00    -0.201 OA
BRANCH  24  27
ATOM     27  C   UNL     1      -1.605   1.582  -0.650  1.00  0.00     0.088 A 
ATOM     28  C   UNL     1       2.627   1.545   0.123  1.00  0.00     0.044 C 
ATOM     29  C   UNL     1       1.161   1.625  -0.197  1.00  0.00    -0.051 A 
ATOM     30  C   UNL     1       0.564   0.551  -0.857  1.00  0.00     0.005 A 
ATOM     31  C   UNL     1       0.362   2.706   0.190  1.00  0.00     0.005 A 
ATOM     32  C   UNL     1      -0.808   0.522  -1.083  1.00  0.00     0.022 A 
ATOM     33  C   UNL     1      -1.023   2.688  -0.031  1.00  0.00     0.022 A 
ENDBRANCH  24  27
ENDBRANCH  16  24
ENDBRANCH  13  15
ENDBRANCH  10  13
ENDBRANCH   8   9
ENDBRANCH   5   8
ENDBRANCH   3   4
ENDBRANCH   1   3
BRANCH   1  34
ATOM     34  O   UNL     1     -10.659   1.469   2.556  1.00  0.00    -0.461 OA
BRANCH  34  35
ATOM     35  C   UNL     1     -11.816   0.663   2.295  1.00  0.00     0.274 C 
BRANCH  35  36
ATOM     36  C   UNL     1     -13.056   1.552   2.445  1.00  0.00     0.275 C 
BRANCH  36  37
ATOM     37  O   UNL     1     -13.271   2.506   1.370  1.00  0.00    -0.458 OA
BRANCH  37  38
ATOM     38  C   UNL     1     -12.873   3.801   1.489  1.00  0.00     0.338 C 
ATOM     39  O   UNL     1     -13.598   4.778   1.448  1.00  0.00    -0.246 OA
BRANCH  38  40
ATOM     40  C   UNL     1     -11.410   3.926   1.559  1.00  0.00     0.060 A 
ATOM     41  C   UNL     1     -10.454   3.792   0.037  1.00  0.00     0.016 A 
ATOM     42  C   UNL     1     -10.645   3.543   3.147  1.00  0.00     0.016 A 
ATOM     43  C   UNL     1      -8.787   3.038   0.085  1.00  0.00     0.010 A 
ATOM     44  C   UNL     1      -9.006   2.793   3.187  1.00  0.00     0.010 A 
ATOM     45  C   UNL     1      -8.126   2.447   1.649  1.00  0.00    -0.014 A 
BRANCH  45  46
ATOM     46  C   UNL     1      -7.398   1.150   1.804  1.00  0.00     0.031 A 
ATOM     47  C   UNL     1      -6.355   1.065   2.847  1.00  0.00     0.074 A 
ATOM     48  C   UNL     1      -7.729   0.028   1.137  1.00  0.00     0.049 A 
ATOM     49  N   UNL     1      -6.100   0.145   3.715  1.00  0.00    -0.248 NA
ATOM     50  C   UNL     1      -5.453   2.191   2.922  1.00  0.00     0.031 C 
ATOM     51  C   UNL     1      -7.363  -1.339   1.488  1.00  0.00     0.029 A 
ATOM     52  N   UNL     1      -8.381  -0.108  -0.076  1.00  0.00    -0.354 N 
ATOM     53  C   UNL     1      -4.931   0.540   4.347  1.00  0.00     0.074 A 
ATOM     54  C   UNL     1      -4.650   1.888   3.921  1.00  0.00     0.031 C 
ATOM     55  C   UNL     1      -7.624  -2.149   0.452  1.00  0.00     0.029 A 
ATOM     56  C   UNL     1      -8.009  -1.318  -0.669  1.00  0.00     0.049 A 
ATOM     57  H   UNL     1      -9.009   0.545  -0.461  1.00  0.00     0.167 HD
ATOM     58  C   UNL     1      -3.845  -0.246   4.536  1.00  0.00     0.037 A 
ATOM     59  C   UNL     1      -7.364  -1.323  -1.873  1.00  0.00     0.037 A 
ATOM     60  C   UNL     1      -3.808  -1.378   3.620  1.00  0.00     0.049 A 
ATOM     61  C   UNL     1      -5.893  -1.724  -1.763  1.00  0.00     0.074 A 
ATOM     62  C   UNL     1      -4.495  -2.577   3.591  1.00  0.00     0.029 A 
ATOM     63  N   UNL     1      -3.269  -1.232   2.336  1.00  0.00    -0.354 N 
ATOM     64  N   UNL     1      -5.261  -1.958  -0.637  1.00  0.00    -0.248 NA
ATOM     65  C   UNL     1      -5.010  -1.866  -2.914  1.00  0.00     0.031 C 
ATOM     66  C   UNL     1      -4.357  -3.153   2.294  1.00  0.00     0.029 A 
ATOM     67  C   UNL     1      -3.540  -2.342   1.526  1.00  0.00     0.049 A 
ATOM     68  H   UNL     1      -2.760  -0.444   2.038  1.00  0.00     0.167 HD
ATOM     69  C   UNL     1      -3.931  -2.228  -0.869  1.00  0.00     0.074 A 
ATOM     70  C   UNL     1      -3.834  -2.146  -2.322  1.00  0.00     0.031 C 
ATOM     71  C   UNL     1      -3.018  -2.445   0.145  1.00  0.00     0.037 A 
BRANCH  58  72
ATOM     72  C   UNL     1      -3.002   0.069   5.765  1.00  0.00     0.058 A 
ATOM     73  C   UNL     1      -2.121  -0.896   6.270  1.00  0.00     0.135 A 
ATOM     74  C   UNL     1      -3.145   1.231   6.588  1.00  0.00     0.135 A 
ATOM     75  F   UNL     1      -1.880  -2.023   5.585  1.00  0.00    -0.206 F 
ATOM     76  C   UNL     1      -1.517  -0.774   7.530  1.00  0.00     0.059 A 
ATOM     77  C   UNL     1      -2.519   1.391   7.822  1.00  0.00     0.059 A 
ATOM     78  F   UNL     1      -3.958   2.251   6.277  1.00  0.00    -0.206 F 
ATOM     79  C   UNL     1      -1.752   0.355   8.313  1.00  0.00     0.060 A 
BRANCH  79  80
ATOM     80  S   UNL     1      -1.153   0.412  10.013  1.00  0.00     0.124 S 
ATOM     81  O   UNL     1      -1.936  -0.650  10.637  1.00  0.00    -0.237 OA
ATOM     82  O   UNL     1       0.272   0.145   9.852  1.00  0.00    -0.237 OA
ATOM     83  O   UNL     1      -1.486   1.765  10.452  1.00  0.00    -0.744 OA
ENDBRANCH  79  80
ENDBRANCH  58  72
BRANCH  59  84
ATOM     84  C   UNL     1      -8.042  -0.411  -2.849  1.00  0.00     0.058 A 
ATOM     85  C   UNL     1      -9.365  -0.763  -3.207  1.00  0.00     0.135 A 
ATOM     86  C   UNL     1      -7.687   0.937  -2.998  1.00  0.00     0.135 A 
ATOM     87  F   UNL     1      -9.759  -2.045  -3.127  1.00  0.00    -0.206 F 
ATOM     88  C   UNL     1     -10.339   0.193  -3.488  1.00  0.00     0.059 A 
ATOM     89  C   UNL     1      -8.643   1.911  -3.332  1.00  0.00     0.059 A 
ATOM     90  F   UNL     1      -6.460   1.356  -2.658  1.00  0.00    -0.206 F 
ATOM     91  C   UNL     1      -9.979   1.536  -3.494  1.00  0.00     0.060 A 
BRANCH  91  92
ATOM     92  S   UNL     1     -11.305   2.771  -3.556  1.00  0.00     0.124 S 
ATOM     93  O   UNL     1     -11.896   2.528  -4.866  1.00  0.00    -0.237 OA
ATOM     94  O   UNL     1     -12.134   2.397  -2.414  1.00  0.00    -0.237 OA
ATOM     95  O   UNL     1     -10.591   4.037  -3.409  1.00  0.00    -0.744 OA
ENDBRANCH  91  92
ENDBRANCH  59  84
BRANCH  71  96
ATOM     96  C   UNL     1      -1.523  -2.745  -0.074  1.00  0.00     0.058 A 
ATOM     97  C   UNL     1      -0.973  -3.276  -1.258  1.00  0.00     0.135 A 
ATOM     98  C   UNL     1      -0.559  -2.485   0.935  1.00  0.00     0.135 A 
ATOM     99  F   UNL     1      -1.750  -3.809  -2.211  1.00  0.00    -0.206 F 
ATOM    100  C   UNL     1       0.406  -3.303  -1.516  1.00  0.00     0.059 A 
ATOM    101  C   UNL     1       0.823  -2.570   0.728  1.00  0.00     0.059 A 
ATOM    102  F   UNL     1      -0.913  -2.096   2.165  1.00  0.00    -0.206 F 
ATOM    103  C   UNL     1       1.299  -2.912  -0.525  1.00  0.00     0.060 A 
BRANCH 103 104
ATOM    104  S   UNL     1       3.046  -2.703  -0.941  1.00  0.00     0.124 S 
ATOM    105  O   UNL     1       3.456  -4.066  -1.257  1.00  0.00    -0.237 OA
ATOM    106  O   UNL     1       2.974  -1.786  -2.075  1.00  0.00    -0.237 OA
ATOM    107  O   UNL     1       3.621  -2.131   0.272  1.00  0.00    -0.744 OA
ENDBRANCH 103 104
ENDBRANCH  71  96
ENDBRANCH  45  46
ENDBRANCH  38  40
ENDBRANCH  37  38
ENDBRANCH  36  37
ENDBRANCH  35  36
ENDBRANCH  34  35
ENDBRANCH   1  34
TORSDOF 21
