REMARK SMILES COc1ccc(/C=C/c2nc(C(=O)OCCOC(=O)c3ccc(-c4c5nc(c(-c6c(F)cc(S(=O)(=O)[O-])cc6F)c6ccc([nH]6)c(-c6c(F)cc(S(=O)(=O)[O-])cc6F)c6nc(c(-c7c(F)cc(S(=O)(=O)[O-])cc7F)c7ccc4[nH]7)C=C6)C=C5)cc3)ccc2C#N)cc1F
REMARK SMILES IDX 15 1 14 2 12 3 13 4 11 5 9 6 10 7 88 8 87 9 86 10 8 11 7 12
REMARK SMILES IDX 6 13 3 14 4 15 92 16 5 17 91 18 93 19 2 20 1 21 89 22 90 23
REMARK SMILES IDX 16 24 17 25 18 26 19 27 20 28 21 29 85 30 22 31 84 32 23 33
REMARK SMILES IDX 24 34 25 35 78 36 26 37 83 38 77 39 79 40 27 41 82 42 76 43
REMARK SMILES IDX 75 44 28 46 62 47 41 48 61 49 42 50 45 51 60 52 80 53 43 54
REMARK SMILES IDX 44 55 59 57 81 58 46 59 29 60 30 61 39 62 31 63 32 64 38 65
REMARK SMILES IDX 40 66 33 67 34 68 35 69 36 70 37 71 63 72 64 73 73 74 65 75
REMARK SMILES IDX 66 76 72 77 74 78 67 79 68 80 69 81 70 82 71 83 47 84 48 85
REMARK SMILES IDX 57 86 49 87 50 88 56 89 58 90 51 91 52 92 53 93 54 94 55 95
REMARK H PARENT 79 45 45 56
REMARK Flexibility Score: inf
ROOT
ATOM      1  C   UNL     1      -0.370   4.917  12.821  1.00  0.00     0.275 C 
ENDROOT
BRANCH   1   2
ATOM      2  O   UNL     1       0.494   5.356  11.753  1.00  0.00    -0.457 OA
BRANCH   2   3
ATOM      3  C   UNL     1       0.660   4.472  10.730  1.00  0.00     0.357 C 
ATOM      4  O   UNL     1       0.253   3.321  10.719  1.00  0.00    -0.244 OA
BRANCH   3   5
ATOM      5  C   UNL     1       1.327   5.133   9.560  1.00  0.00     0.149 A 
ATOM      6  C   UNL     1       1.527   5.182   7.227  1.00  0.00     0.082 A 
ATOM      7  N   UNL     1       1.018   4.608   8.342  1.00  0.00    -0.240 NA
ATOM      8  C   UNL     1       2.410   6.256   7.293  1.00  0.00     0.078 A 
ATOM      9  C   UNL     1       2.744   6.765   8.556  1.00  0.00     0.024 A 
ATOM     10  C   UNL     1       2.186   6.209   9.709  1.00  0.00     0.037 A 
BRANCH   6  11
ATOM     11  C   UNL     1       1.006   4.601   5.979  1.00  0.00     0.030 C 
ATOM     12  C   UNL     1       1.796   3.990   5.082  1.00  0.00     0.010 C 
BRANCH  12  13
ATOM     13  C   UNL     1       1.390   3.361   3.810  1.00  0.00    -0.022 A 
ATOM     14  C   UNL     1       0.801   2.087   1.354  1.00  0.00     0.154 A 
ATOM     15  C   UNL     1      -0.210   2.711   2.084  1.00  0.00     0.050 A 
ATOM     16  C   UNL     1       2.107   2.137   1.832  1.00  0.00     0.165 A 
ATOM     17  C   UNL     1       0.079   3.335   3.309  1.00  0.00     0.012 A 
ATOM     18  C   UNL     1       2.399   2.759   3.044  1.00  0.00     0.051 A 
ATOM     19  F   UNL     1       3.122   1.611   1.131  1.00  0.00    -0.203 F 
BRANCH  14  20
ATOM     20  O   UNL     1       0.447   1.516   0.162  1.00  0.00    -0.494 OA
ATOM     21  C   UNL     1       0.883   0.162   0.050  1.00  0.00     0.278 C 
ENDBRANCH  14  20
ENDBRANCH  12  13
ENDBRANCH   6  11
BRANCH   8  22
ATOM     22  C   UNL     1       2.981   6.853   6.123  1.00  0.00     0.101 C 
ATOM     23  N   UNL     1       3.494   7.345   5.208  1.00  0.00    -0.192 NA
ENDBRANCH   8  22
ENDBRANCH   3   5
ENDBRANCH   2   3
ENDBRANCH   1   2
BRANCH   1  24
ATOM     24  C   UNL     1      -1.787   5.486  12.674  1.00  0.00     0.275 C 
BRANCH  24  25
ATOM     25  O   UNL     1      -2.499   4.894  11.573  1.00  0.00    -0.458 OA
BRANCH  25  26
ATOM     26  C   UNL     1      -2.355   5.533  10.389  1.00  0.00     0.338 C 
ATOM     27  O   UNL     1      -1.710   6.545  10.171  1.00  0.00    -0.246 OA
BRANCH  26  28
ATOM     28  C   UNL     1      -3.022   4.765   9.329  1.00  0.00     0.060 A 
ATOM     29  C   UNL     1      -2.225   4.089   8.408  1.00  0.00     0.016 A 
ATOM     30  C   UNL     1      -4.406   4.791   9.177  1.00  0.00     0.016 A 
ATOM     31  C   UNL     1      -2.787   3.490   7.290  1.00  0.00     0.010 A 
ATOM     32  C   UNL     1      -4.980   4.135   8.083  1.00  0.00     0.010 A 
ATOM     33  C   UNL     1      -4.173   3.498   7.120  1.00  0.00    -0.014 A 
BRANCH  33  34
ATOM     34  C   UNL     1      -4.782   2.860   5.927  1.00  0.00     0.031 A 
ATOM     35  C   UNL     1      -5.529   3.707   4.936  1.00  0.00     0.074 A 
ATOM     36  C   UNL     1      -4.660   1.532   5.738  1.00  0.00     0.049 A 
ATOM     37  N   UNL     1      -6.287   3.333   3.939  1.00  0.00    -0.248 NA
ATOM     38  C   UNL     1      -5.412   5.167   5.088  1.00  0.00     0.031 C 
ATOM     39  C   UNL     1      -3.888   0.621   6.587  1.00  0.00     0.029 A 
ATOM     40  N   UNL     1      -5.189   0.711   4.773  1.00  0.00    -0.354 N 
ATOM     41  C   UNL     1      -6.755   4.506   3.360  1.00  0.00     0.074 A 
ATOM     42  C   UNL     1      -6.219   5.606   4.131  1.00  0.00     0.031 C 
ATOM     43  C   UNL     1      -3.984  -0.625   6.101  1.00  0.00     0.029 A 
ATOM     44  C   UNL     1      -4.889  -0.619   4.957  1.00  0.00     0.049 A 
ATOM     45  H   UNL     1      -5.732   1.043   4.022  1.00  0.00     0.167 HD
ATOM     46  C   UNL     1      -7.552   4.645   2.275  1.00  0.00     0.037 A 
ATOM     47  C   UNL     1      -5.329  -1.713   4.305  1.00  0.00     0.037 A 
ATOM     48  C   UNL     1      -8.061   3.536   1.511  1.00  0.00     0.049 A 
ATOM     49  C   UNL     1      -6.310  -1.537   3.177  1.00  0.00     0.074 A 
ATOM     50  C   UNL     1      -8.894   3.566   0.406  1.00  0.00     0.029 A 
ATOM     51  N   UNL     1      -7.776   2.202   1.762  1.00  0.00    -0.354 N 
ATOM     52  N   UNL     1      -6.788  -0.426   2.668  1.00  0.00    -0.248 NA
ATOM     53  C   UNL     1      -6.827  -2.759   2.544  1.00  0.00     0.031 C 
ATOM     54  C   UNL     1      -9.154   2.249   0.021  1.00  0.00     0.029 A 
ATOM     55  C   UNL     1      -8.431   1.399   0.844  1.00  0.00     0.049 A 
ATOM     56  H   UNL     1      -7.195   1.874   2.486  1.00  0.00     0.167 HD
ATOM     57  C   UNL     1      -7.627  -0.814   1.630  1.00  0.00     0.074 A 
ATOM     58  C   UNL     1      -7.593  -2.261   1.583  1.00  0.00     0.031 C 
ATOM     59  C   UNL     1      -8.357  -0.040   0.791  1.00  0.00     0.037 A 
BRANCH  46  60
ATOM     60  C   UNL     1      -7.935   6.034   1.842  1.00  0.00     0.058 A 
ATOM     61  C   UNL     1      -9.265   6.473   1.948  1.00  0.00     0.135 A 
ATOM     62  C   UNL     1      -7.007   6.897   1.237  1.00  0.00     0.135 A 
ATOM     63  F   UNL     1     -10.192   5.693   2.526  1.00  0.00    -0.206 F 
ATOM     64  C   UNL     1      -9.668   7.705   1.442  1.00  0.00     0.059 A 
ATOM     65  C   UNL     1      -7.382   8.146   0.750  1.00  0.00     0.059 A 
ATOM     66  F   UNL     1      -5.718   6.537   1.133  1.00  0.00    -0.206 F 
ATOM     67  C   UNL     1      -8.719   8.532   0.840  1.00  0.00     0.060 A 
BRANCH  67  68
ATOM     68  S   UNL     1      -9.260  10.128   0.191  1.00  0.00     0.124 S 
ATOM     69  O   UNL     1     -10.133   9.727  -0.907  1.00  0.00    -0.237 OA
ATOM     70  O   UNL     1      -9.924  10.717   1.350  1.00  0.00    -0.237 OA
ATOM     71  O   UNL     1      -8.012  10.775  -0.202  1.00  0.00    -0.744 OA
ENDBRANCH  67  68
ENDBRANCH  46  60
BRANCH  47  72
ATOM     72  C   UNL     1      -4.857  -3.066   4.708  1.00  0.00     0.058 A 
ATOM     73  C   UNL     1      -5.180  -3.620   5.957  1.00  0.00     0.135 A 
ATOM     74  C   UNL     1      -4.062  -3.834   3.843  1.00  0.00     0.135 A 
ATOM     75  F   UNL     1      -5.932  -2.929   6.828  1.00  0.00    -0.206 F 
ATOM     76  C   UNL     1      -4.718  -4.874   6.342  1.00  0.00     0.059 A 
ATOM     77  C   UNL     1      -3.615  -5.105   4.192  1.00  0.00     0.059 A 
ATOM     78  F   UNL     1      -3.735  -3.355   2.633  1.00  0.00    -0.206 F 
ATOM     79  C   UNL     1      -3.938  -5.611   5.450  1.00  0.00     0.060 A 
BRANCH  79  80
ATOM     80  S   UNL     1      -3.371  -7.248   5.959  1.00  0.00     0.124 S 
ATOM     81  O   UNL     1      -2.437  -6.916   7.030  1.00  0.00    -0.237 OA
ATOM     82  O   UNL     1      -4.616  -7.885   6.375  1.00  0.00    -0.237 OA
ATOM     83  O   UNL     1      -2.767  -7.789   4.745  1.00  0.00    -0.744 OA
ENDBRANCH  79  80
ENDBRANCH  47  72
BRANCH  59  84
ATOM     84  C   UNL     1      -9.145  -0.719  -0.295  1.00  0.00     0.058 A 
ATOM     85  C   UNL     1      -8.775  -0.554  -1.640  1.00  0.00     0.135 A 
ATOM     86  C   UNL     1     -10.331  -1.415  -0.021  1.00  0.00     0.135 A 
ATOM     87  F   UNL     1      -7.650   0.108  -1.956  1.00  0.00    -0.206 F 
ATOM     88  C   UNL     1      -9.576  -1.017  -2.676  1.00  0.00     0.059 A 
ATOM     89  C   UNL     1     -11.133  -1.915  -1.042  1.00  0.00     0.059 A 
ATOM     90  F   UNL     1     -10.721  -1.612   1.249  1.00  0.00    -0.206 F 
ATOM     91  C   UNL     1     -10.759  -1.688  -2.367  1.00  0.00     0.060 A 
BRANCH  91  92
ATOM     92  S   UNL     1     -11.808  -2.245  -3.727  1.00  0.00     0.124 S 
ATOM     93  O   UNL     1     -12.257  -0.979  -4.297  1.00  0.00    -0.237 OA
ATOM     94  O   UNL     1     -10.871  -3.011  -4.542  1.00  0.00    -0.237 OA
ATOM     95  O   UNL     1     -12.840  -3.033  -3.060  1.00  0.00    -0.744 OA
ENDBRANCH  91  92
ENDBRANCH  59  84
ENDBRANCH  33  34
ENDBRANCH  26  28
ENDBRANCH  25  26
ENDBRANCH  24  25
ENDBRANCH   1  24
TORSDOF 18
