REMARK SMILES O=C(OCCOC(=O)c1ccc(-c2c3nc(c(-c4c(F)cc(S(=O)(=O)[O-])cc4F)c4ccc([nH]4)c(-c4c(F)cc(S(=O)(=O)[O-])cc4F)c4nc(c(-c5c(F)cc(S(=O)(=O)[O-])cc5F)c5ccc2[nH]5)C=C4)C=C3)cc1)C1=Cc2c(ccc(Cl)c2Sc2ccccc2)O[C@H]1C(F)(F)F
REMARK SMILES IDX 5 1 4 2 3 3 2 4 1 5 75 6 76 7 92 8 77 9 91 10 78 11 83 12
REMARK SMILES IDX 79 13 81 14 80 15 82 16 93 17 94 18 95 19 96 20 84 21 85 22
REMARK SMILES IDX 86 23 90 24 87 25 89 26 88 27 6 28 7 29 8 30 9 31 10 32
REMARK SMILES IDX 74 33 11 34 73 35 12 36 13 37 14 38 67 39 15 40 72 41 66 42
REMARK SMILES IDX 68 43 16 44 71 45 65 46 64 47 17 49 51 50 30 51 50 52 31 53
REMARK SMILES IDX 34 54 49 55 69 56 32 57 33 58 48 60 70 61 35 62 18 63 19 64
REMARK SMILES IDX 28 65 20 66 21 67 27 68 29 69 22 70 23 71 24 72 25 73 26 74
REMARK SMILES IDX 52 75 53 76 62 77 54 78 55 79 61 80 63 81 56 82 57 83 58 84
REMARK SMILES IDX 59 85 60 86 36 87 37 88 46 89 38 90 39 91 45 92 47 93 40 94
REMARK SMILES IDX 41 95 42 96 43 97 44 98
REMARK H PARENT 68 48 34 59
REMARK Flexibility Score: inf
ROOT
ATOM      1  C   UNL     1       3.152   0.089  -1.675  1.00  0.00     0.275 C 
ENDROOT
BRANCH   1   2
ATOM      2  C   UNL     1       2.589  -0.419  -0.290  1.00  0.00     0.275 C 
BRANCH   2   3
ATOM      3  O   UNL     1       2.306   0.559   0.715  1.00  0.00    -0.459 OA
BRANCH   3   4
ATOM      4  C   UNL     1       3.256   1.219   1.378  1.00  0.00     0.338 C 
ATOM      5  O   UNL     1       3.026   1.727   2.468  1.00  0.00    -0.246 OA
BRANCH   4   6
ATOM      6  C   UNL     1       4.546   1.410   0.701  1.00  0.00     0.087 C 
ATOM      7  C   UNL     1       5.062   0.780  -0.371  1.00  0.00     0.028 C 
ATOM      8  C   UNL     1       5.605   1.974   1.562  1.00  0.00     0.316 C 
ATOM      9  C   UNL     1       5.524  -0.579  -0.060  1.00  0.00     0.033 A 
ATOM     10  O   UNL     1       6.755   1.011   1.502  1.00  0.00    -0.475 OA
ATOM     11  C   UNL     1       6.511  -0.291   0.970  1.00  0.00     0.129 A 
ATOM     12  C   UNL     1       5.239  -1.936  -0.647  1.00  0.00     0.042 A 
ATOM     13  C   UNL     1       7.334  -1.305   1.381  1.00  0.00     0.049 A 
ATOM     14  C   UNL     1       6.159  -2.900  -0.155  1.00  0.00     0.055 A 
ATOM     15  C   UNL     1       7.164  -2.575   0.811  1.00  0.00     0.025 A 
ATOM     16  Cl  UNL     1       6.216  -4.553  -0.694  1.00  0.00    -0.083 Cl
BRANCH   8  17
ATOM     17  C   UNL     1       5.805   3.431   1.057  1.00  0.00     0.430 C 
ATOM     18  F   UNL     1       4.613   4.010   0.733  1.00  0.00    -0.167 F 
ATOM     19  F   UNL     1       6.381   4.230   1.979  1.00  0.00    -0.167 F 
ATOM     20  F   UNL     1       6.562   3.476  -0.066  1.00  0.00    -0.167 F 
ENDBRANCH   8  17
BRANCH  12  21
ATOM     21  S   UNL     1       3.955  -2.829  -2.025  1.00  0.00    -0.088 SA
BRANCH  21  22
ATOM     22  C   UNL     1       2.238  -2.268  -2.754  1.00  0.00     0.012 A 
ATOM     23  C   UNL     1       1.001  -2.294  -2.055  1.00  0.00     0.015 A 
ATOM     24  C   UNL     1       2.191  -1.607  -4.025  1.00  0.00     0.015 A 
ATOM     25  C   UNL     1      -0.085  -1.431  -2.428  1.00  0.00     0.001 A 
ATOM     26  C   UNL     1       1.111  -0.733  -4.377  1.00  0.00     0.001 A 
ATOM     27  C   UNL     1      -0.002  -0.606  -3.550  1.00  0.00     0.000 A 
ENDBRANCH  21  22
ENDBRANCH  12  21
ENDBRANCH   4   6
ENDBRANCH   3   4
ENDBRANCH   2   3
ENDBRANCH   1   2
BRANCH   1  28
ATOM     28  O   UNL     1       3.144   1.452  -1.843  1.00  0.00    -0.458 OA
BRANCH  28  29
ATOM     29  C   UNL     1       1.867   1.771  -1.800  1.00  0.00     0.338 C 
ATOM     30  O   UNL     1       0.866   1.117  -1.528  1.00  0.00    -0.246 OA
BRANCH  29  31
ATOM     31  C   UNL     1       1.861   3.134  -2.063  1.00  0.00     0.060 A 
ATOM     32  C   UNL     1       0.778   3.698  -1.425  1.00  0.00     0.016 A 
ATOM     33  C   UNL     1       2.761   3.712  -2.978  1.00  0.00     0.016 A 
ATOM     34  C   UNL     1       0.434   4.894  -1.886  1.00  0.00     0.010 A 
ATOM     35  C   UNL     1       2.517   4.998  -3.296  1.00  0.00     0.010 A 
ATOM     36  C   UNL     1       1.342   5.522  -2.759  1.00  0.00    -0.014 A 
BRANCH  36  37
ATOM     37  C   UNL     1       0.976   6.859  -3.054  1.00  0.00     0.031 A 
ATOM     38  C   UNL     1       0.310   7.059  -4.344  1.00  0.00     0.074 A 
ATOM     39  C   UNL     1       1.097   7.643  -1.980  1.00  0.00     0.049 A 
ATOM     40  N   UNL     1      -0.221   8.149  -4.777  1.00  0.00    -0.248 NA
ATOM     41  C   UNL     1       0.221   5.908  -5.272  1.00  0.00     0.031 C 
ATOM     42  C   UNL     1       1.699   7.243  -0.686  1.00  0.00     0.029 A 
ATOM     43  N   UNL     1       0.618   8.876  -1.758  1.00  0.00    -0.354 N 
ATOM     44  C   UNL     1      -0.666   7.845  -6.045  1.00  0.00     0.074 A 
ATOM     45  C   UNL     1      -0.351   6.467  -6.326  1.00  0.00     0.031 C 
ATOM     46  C   UNL     1       1.468   8.202   0.214  1.00  0.00     0.029 A 
ATOM     47  C   UNL     1       0.842   9.308  -0.481  1.00  0.00     0.049 A 
ATOM     48  H   UNL     1       0.154   9.412  -2.441  1.00  0.00     0.167 HD
ATOM     49  C   UNL     1      -1.272   8.714  -6.869  1.00  0.00     0.037 A 
ATOM     50  C   UNL     1       0.604  10.525   0.010  1.00  0.00     0.037 A 
ATOM     51  C   UNL     1      -1.522  10.064  -6.445  1.00  0.00     0.049 A 
ATOM     52  C   UNL     1      -0.019  11.473  -0.965  1.00  0.00     0.074 A 
ATOM     53  C   UNL     1      -2.084  11.101  -7.151  1.00  0.00     0.029 A 
ATOM     54  N   UNL     1      -1.207  10.553  -5.174  1.00  0.00    -0.354 N 
ATOM     55  N   UNL     1      -0.405  11.235  -2.202  1.00  0.00    -0.248 NA
ATOM     56  C   UNL     1      -0.223  12.841  -0.510  1.00  0.00     0.031 C 
ATOM     57  C   UNL     1      -2.054  12.231  -6.326  1.00  0.00     0.029 A 
ATOM     58  C   UNL     1      -1.541  11.886  -5.079  1.00  0.00     0.049 A 
ATOM     59  H   UNL     1      -0.805  10.021  -4.450  1.00  0.00     0.167 HD
ATOM     60  C   UNL     1      -0.905  12.426  -2.685  1.00  0.00     0.074 A 
ATOM     61  C   UNL     1      -0.802  13.371  -1.579  1.00  0.00     0.031 C 
ATOM     62  C   UNL     1      -1.392  12.733  -3.915  1.00  0.00     0.037 A 
BRANCH  49  63
ATOM     63  C   UNL     1      -1.582   8.251  -8.252  1.00  0.00     0.058 A 
ATOM     64  C   UNL     1      -2.571   7.292  -8.520  1.00  0.00     0.135 A 
ATOM     65  C   UNL     1      -0.855   8.769  -9.334  1.00  0.00     0.135 A 
ATOM     66  F   UNL     1      -3.245   6.711  -7.515  1.00  0.00    -0.206 F 
ATOM     67  C   UNL     1      -2.846   6.881  -9.819  1.00  0.00     0.059 A 
ATOM     68  C   UNL     1      -1.131   8.394 -10.642  1.00  0.00     0.059 A 
ATOM     69  F   UNL     1       0.142   9.642  -9.122  1.00  0.00    -0.206 F 
ATOM     70  C   UNL     1      -2.133   7.454 -10.875  1.00  0.00     0.060 A 
BRANCH  70  71
ATOM     71  S   UNL     1      -2.563   6.978 -12.560  1.00  0.00     0.124 S 
ATOM     72  O   UNL     1      -2.099   5.595 -12.603  1.00  0.00    -0.237 OA
ATOM     73  O   UNL     1      -4.011   7.161 -12.569  1.00  0.00    -0.237 OA
ATOM     74  O   UNL     1      -1.809   7.918 -13.382  1.00  0.00    -0.744 OA
ENDBRANCH  70  71
ENDBRANCH  49  63
BRANCH  50  75
ATOM     75  C   UNL     1       1.040  10.866   1.378  1.00  0.00     0.058 A 
ATOM     76  C   UNL     1       0.116  11.224   2.364  1.00  0.00     0.135 A 
ATOM     77  C   UNL     1       2.397  10.784   1.746  1.00  0.00     0.135 A 
ATOM     78  F   UNL     1      -1.192  11.281   2.070  1.00  0.00    -0.206 F 
ATOM     79  C   UNL     1       0.524  11.535   3.655  1.00  0.00     0.059 A 
ATOM     80  C   UNL     1       2.824  11.052   3.038  1.00  0.00     0.059 A 
ATOM     81  F   UNL     1       3.321  10.404   0.849  1.00  0.00    -0.206 F 
ATOM     82  C   UNL     1       1.881  11.454   3.979  1.00  0.00     0.060 A 
BRANCH  82  83
ATOM     83  S   UNL     1       2.400  11.894   5.648  1.00  0.00     0.124 S 
ATOM     84  O   UNL     1       2.191  13.338   5.643  1.00  0.00    -0.237 OA
ATOM     85  O   UNL     1       1.479  11.117   6.471  1.00  0.00    -0.237 OA
ATOM     86  O   UNL     1       3.793  11.460   5.695  1.00  0.00    -0.744 OA
ENDBRANCH  82  83
ENDBRANCH  50  75
BRANCH  62  87
ATOM     87  C   UNL     1      -1.871  14.136  -4.067  1.00  0.00     0.058 A 
ATOM     88  C   UNL     1      -0.975  15.211  -4.132  1.00  0.00     0.135 A 
ATOM     89  C   UNL     1      -3.245  14.389  -4.189  1.00  0.00     0.135 A 
ATOM     90  F   UNL     1       0.346  15.003  -4.003  1.00  0.00    -0.206 F 
ATOM     91  C   UNL     1      -1.433  16.508  -4.279  1.00  0.00     0.059 A 
ATOM     92  C   UNL     1      -3.720  15.674  -4.384  1.00  0.00     0.059 A 
ATOM     93  F   UNL     1      -4.129  13.379  -4.145  1.00  0.00    -0.206 F 
ATOM     94  C   UNL     1      -2.806  16.727  -4.410  1.00  0.00     0.060 A 
BRANCH  94  95
ATOM     95  S   UNL     1      -3.382  18.416  -4.639  1.00  0.00     0.124 S 
ATOM     96  O   UNL     1      -3.163  18.979  -3.311  1.00  0.00    -0.237 OA
ATOM     97  O   UNL     1      -2.496  18.903  -5.691  1.00  0.00    -0.237 OA
ATOM     98  O   UNL     1      -4.778  18.248  -5.029  1.00  0.00    -0.744 OA
ENDBRANCH  94  95
ENDBRANCH  62  87
ENDBRANCH  36  37
ENDBRANCH  29  31
ENDBRANCH  28  29
ENDBRANCH   1  28
TORSDOF 17
