REMARK SMILES CCn1nc(C(=O)OCCOC(=O)c2ccc(-c3c4nc(c(-c5c(F)cc(S(=O)(=O)[O-])cc5F)c5ccc([nH]5)c(-c5c(F)cc(S(=O)(=O)[O-])cc5F)c5nc(c(-c6c(F)cc(S(=O)(=O)[O-])cc6F)c6ccc3[nH]6)C=C5)C=C4)cc2)c2c1CC[C@H]([NH2+]Cc1nn(CC)c3ccccc13)C2
REMARK SMILES IDX 9 1 8 2 6 3 7 4 5 5 3 6 4 7 81 8 80 9 82 10 98 11 83 12
REMARK SMILES IDX 84 13 2 14 1 15 85 16 86 19 87 20 88 21 97 22 89 23 92 24
REMARK SMILES IDX 96 25 93 26 95 27 94 28 90 29 91 30 10 31 11 32 12 33 13 34
REMARK SMILES IDX 14 35 15 36 79 37 16 38 78 39 17 40 18 41 19 42 72 43 20 44
REMARK SMILES IDX 77 45 71 46 73 47 21 48 76 49 70 50 69 51 22 53 56 54 35 55
REMARK SMILES IDX 55 56 36 57 39 58 54 59 74 60 37 61 38 62 53 64 75 65 40 66
REMARK SMILES IDX 23 67 24 68 33 69 25 70 26 71 32 72 34 73 27 74 28 75 29 76
REMARK SMILES IDX 30 77 31 78 57 79 58 80 67 81 59 82 60 83 66 84 68 85 61 86
REMARK SMILES IDX 62 87 63 88 64 89 65 90 41 91 42 92 51 93 43 94 44 95 50 96
REMARK SMILES IDX 52 97 45 98 46 99 47 100 48 101 49 102
REMARK H PARENT 85 17 85 18 73 52 39 63
REMARK Flexibility Score: inf
ROOT
ATOM      1  C   UNL     1       3.557  -4.239   5.831  1.00  0.00     0.275 C 
ENDROOT
BRANCH   1   2
ATOM      2  O   UNL     1       3.161  -3.894   4.495  1.00  0.00    -0.457 OA
BRANCH   2   3
ATOM      3  C   UNL     1       2.459  -2.773   4.149  1.00  0.00     0.359 C 
ATOM      4  O   UNL     1       2.287  -1.799   4.877  1.00  0.00    -0.244 OA
BRANCH   3   5
ATOM      5  C   UNL     1       1.847  -2.967   2.827  1.00  0.00     0.174 A 
ATOM      6  N   UNL     1       0.846  -2.717   0.949  1.00  0.00    -0.269 N 
ATOM      7  N   UNL     1       1.430  -2.020   1.965  1.00  0.00    -0.165 NA
ATOM      8  C   UNL     1       0.762  -4.059   1.218  1.00  0.00     0.043 A 
ATOM      9  C   UNL     1       1.483  -4.246   2.358  1.00  0.00     0.014 A 
ATOM     10  C   UNL     1       0.004  -5.159   0.581  1.00  0.00     0.062 C 
ATOM     11  C   UNL     1       1.625  -5.521   3.072  1.00  0.00     0.105 C 
ATOM     12  C   UNL     1      -0.498  -6.120   1.713  1.00  0.00     0.072 C 
ATOM     13  C   UNL     1       0.580  -6.587   2.757  1.00  0.00     0.187 C 
BRANCH   6  14
ATOM     14  C   UNL     1       0.320  -2.019  -0.212  1.00  0.00     0.141 C 
ATOM     15  C   UNL     1       0.704  -0.547  -0.328  1.00  0.00     0.029 C 
ENDBRANCH   6  14
BRANCH  13  16
ATOM     16  N   UNL     1      -0.073  -7.091   4.012  1.00  0.00    -0.338 N 
ATOM     17  H   UNL     1      -0.567  -7.954   3.785  1.00  0.00     0.346 HD
ATOM     18  H   UNL     1      -0.686  -6.341   4.332  1.00  0.00     0.346 HD
BRANCH  16  19
ATOM     19  C   UNL     1       0.859  -7.377   5.147  1.00  0.00     0.320 C 
BRANCH  19  20
ATOM     20  C   UNL     1       0.790  -6.338   6.279  1.00  0.00     0.124 A 
ATOM     21  N   UNL     1       0.036  -5.223   6.184  1.00  0.00    -0.171 NA
ATOM     22  C   UNL     1       1.551  -6.333   7.497  1.00  0.00     0.029 A 
ATOM     23  N   UNL     1       0.372  -4.491   7.281  1.00  0.00    -0.265 N 
ATOM     24  C   UNL     1       1.143  -5.188   8.182  1.00  0.00     0.069 A 
ATOM     25  C   UNL     1       2.576  -7.120   8.066  1.00  0.00     0.012 A 
ATOM     26  C   UNL     1       1.590  -4.883   9.477  1.00  0.00     0.028 A 
ATOM     27  C   UNL     1       3.115  -6.755   9.310  1.00  0.00     0.001 A 
ATOM     28  C   UNL     1       2.602  -5.674  10.020  1.00  0.00     0.002 A 
BRANCH  23  29
ATOM     29  C   UNL     1      -0.035  -3.094   7.370  1.00  0.00     0.141 C 
ATOM     30  C   UNL     1       1.022  -2.087   7.834  1.00  0.00     0.029 C 
ENDBRANCH  23  29
ENDBRANCH  19  20
ENDBRANCH  16  19
ENDBRANCH  13  16
ENDBRANCH   3   5
ENDBRANCH   2   3
ENDBRANCH   1   2
BRANCH   1  31
ATOM     31  C   UNL     1       5.065  -4.271   6.002  1.00  0.00     0.275 C 
BRANCH  31  32
ATOM     32  O   UNL     1       5.524  -2.950   5.807  1.00  0.00    -0.458 OA
BRANCH  32  33
ATOM     33  C   UNL     1       5.444  -2.586   4.496  1.00  0.00     0.338 C 
ATOM     34  O   UNL     1       5.537  -3.318   3.541  1.00  0.00    -0.246 OA
BRANCH  33  35
ATOM     35  C   UNL     1       5.127  -1.124   4.436  1.00  0.00     0.060 A 
ATOM     36  C   UNL     1       5.555  -0.623   3.216  1.00  0.00     0.016 A 
ATOM     37  C   UNL     1       5.353  -0.442   5.637  1.00  0.00     0.016 A 
ATOM     38  C   UNL     1       6.742   0.050   3.275  1.00  0.00     0.010 A 
ATOM     39  C   UNL     1       6.554   0.204   5.719  1.00  0.00     0.010 A 
ATOM     40  C   UNL     1       7.284   0.315   4.541  1.00  0.00    -0.014 A 
BRANCH  40  41
ATOM     41  C   UNL     1       8.652   0.742   4.565  1.00  0.00     0.031 A 
ATOM     42  C   UNL     1       8.795   2.149   4.186  1.00  0.00     0.074 A 
ATOM     43  C   UNL     1       9.671  -0.052   4.923  1.00  0.00     0.049 A 
ATOM     44  N   UNL     1       9.278   2.629   3.092  1.00  0.00    -0.248 NA
ATOM     45  C   UNL     1       8.138   3.126   5.065  1.00  0.00     0.031 C 
ATOM     46  C   UNL     1       9.636  -1.345   5.610  1.00  0.00     0.029 A 
ATOM     47  N   UNL     1      10.995   0.220   4.821  1.00  0.00    -0.354 N 
ATOM     48  C   UNL     1       9.179   4.000   3.243  1.00  0.00     0.074 A 
ATOM     49  C   UNL     1       8.308   4.244   4.366  1.00  0.00     0.031 C 
ATOM     50  C   UNL     1      10.883  -1.630   6.055  1.00  0.00     0.029 A 
ATOM     51  C   UNL     1      11.802  -0.608   5.576  1.00  0.00     0.049 A 
ATOM     52  H   UNL     1      11.350   0.945   4.258  1.00  0.00     0.167 HD
ATOM     53  C   UNL     1      10.033   4.846   2.618  1.00  0.00     0.037 A 
ATOM     54  C   UNL     1      13.101  -0.370   5.870  1.00  0.00     0.037 A 
ATOM     55  C   UNL     1      10.705   4.236   1.504  1.00  0.00     0.049 A 
ATOM     56  C   UNL     1      13.623   0.594   4.860  1.00  0.00     0.074 A 
ATOM     57  C   UNL     1      10.281   3.643   0.330  1.00  0.00     0.029 A 
ATOM     58  N   UNL     1      12.009   3.838   1.676  1.00  0.00    -0.354 N 
ATOM     59  N   UNL     1      13.761   0.328   3.587  1.00  0.00    -0.248 NA
ATOM     60  C   UNL     1      13.620   2.013   5.191  1.00  0.00     0.031 C 
ATOM     61  C   UNL     1      11.202   2.584   0.083  1.00  0.00     0.029 A 
ATOM     62  C   UNL     1      12.140   2.589   1.117  1.00  0.00     0.049 A 
ATOM     63  H   UNL     1      12.721   4.354   2.119  1.00  0.00     0.167 HD
ATOM     64  C   UNL     1      13.474   1.518   2.930  1.00  0.00     0.074 A 
ATOM     65  C   UNL     1      13.511   2.540   3.969  1.00  0.00     0.031 C 
ATOM     66  C   UNL     1      12.968   1.529   1.660  1.00  0.00     0.037 A 
BRANCH  53  67
ATOM     67  C   UNL     1      10.490   6.102   3.288  1.00  0.00     0.058 A 
ATOM     68  C   UNL     1      11.000   7.162   2.529  1.00  0.00     0.135 A 
ATOM     69  C   UNL     1      10.647   6.199   4.692  1.00  0.00     0.135 A 
ATOM     70  F   UNL     1      10.935   7.131   1.189  1.00  0.00    -0.206 F 
ATOM     71  C   UNL     1      11.646   8.243   3.125  1.00  0.00     0.059 A 
ATOM     72  C   UNL     1      11.223   7.295   5.310  1.00  0.00     0.059 A 
ATOM     73  F   UNL     1      10.331   5.187   5.514  1.00  0.00    -0.206 F 
ATOM     74  C   UNL     1      11.760   8.293   4.515  1.00  0.00     0.060 A 
BRANCH  74  75
ATOM     75  S   UNL     1      12.691   9.623   5.287  1.00  0.00     0.124 S 
ATOM     76  O   UNL     1      14.062   9.192   5.035  1.00  0.00    -0.237 OA
ATOM     77  O   UNL     1      12.239  10.792   4.538  1.00  0.00    -0.237 OA
ATOM     78  O   UNL     1      12.254   9.571   6.679  1.00  0.00    -0.744 OA
ENDBRANCH  74  75
ENDBRANCH  53  67
BRANCH  54  79
ATOM     79  C   UNL     1      13.759  -0.630   7.175  1.00  0.00     0.058 A 
ATOM     80  C   UNL     1      15.156  -0.616   7.305  1.00  0.00     0.135 A 
ATOM     81  C   UNL     1      13.021  -0.665   8.378  1.00  0.00     0.135 A 
ATOM     82  F   UNL     1      15.933  -0.537   6.214  1.00  0.00    -0.206 F 
ATOM     83  C   UNL     1      15.786  -0.622   8.554  1.00  0.00     0.059 A 
ATOM     84  C   UNL     1      13.625  -0.692   9.631  1.00  0.00     0.059 A 
ATOM     85  F   UNL     1      11.682  -0.587   8.378  1.00  0.00    -0.206 F 
ATOM     86  C   UNL     1      15.009  -0.652   9.713  1.00  0.00     0.060 A 
BRANCH  86  87
ATOM     87  S   UNL     1      15.810  -0.536  11.328  1.00  0.00     0.124 S 
ATOM     88  O   UNL     1      16.512  -1.812  11.408  1.00  0.00    -0.237 OA
ATOM     89  O   UNL     1      16.649   0.647  11.170  1.00  0.00    -0.237 OA
ATOM     90  O   UNL     1      14.690  -0.382  12.253  1.00  0.00    -0.744 OA
ENDBRANCH  86  87
ENDBRANCH  54  79
BRANCH  66  91
ATOM     91  C   UNL     1      13.024   0.246   0.870  1.00  0.00     0.058 A 
ATOM     92  C   UNL     1      12.272  -0.897   1.195  1.00  0.00     0.135 A 
ATOM     93  C   UNL     1      13.730   0.223  -0.342  1.00  0.00     0.135 A 
ATOM     94  F   UNL     1      11.486  -0.914   2.281  1.00  0.00    -0.206 F 
ATOM     95  C   UNL     1      12.252  -2.025   0.373  1.00  0.00     0.059 A 
ATOM     96  C   UNL     1      13.703  -0.882  -1.192  1.00  0.00     0.059 A 
ATOM     97  F   UNL     1      14.414   1.308  -0.743  1.00  0.00    -0.206 F 
ATOM     98  C   UNL     1      12.968  -2.008  -0.823  1.00  0.00     0.060 A 
BRANCH  98  99
ATOM     99  S   UNL     1      12.854  -3.428  -1.935  1.00  0.00     0.124 S 
ATOM    100  O   UNL     1      13.708  -4.408  -1.272  1.00  0.00    -0.237 OA
ATOM    101  O   UNL     1      11.425  -3.727  -1.931  1.00  0.00    -0.237 OA
ATOM    102  O   UNL     1      13.367  -2.910  -3.202  1.00  0.00    -0.744 OA
ENDBRANCH  98  99
ENDBRANCH  66  91
ENDBRANCH  40  41
ENDBRANCH  33  35
ENDBRANCH  32  33
ENDBRANCH  31  32
ENDBRANCH   1  31
TORSDOF 19
