REMARK SMILES CC(=O)N(C)n1cnn(CC(=O)OCCOC(=O)c2ccc(-c3c4nc(c(-c5c(F)cc(S(=O)(=O)[O-])cc5F)c5ccc([nH]5)c(-c5c(F)cc(S(=O)(=O)[O-])cc5F)c5nc(c(-c6c(F)cc(S(=O)(=O)[O-])cc6F)c6ccc3[nH]6)C=C5)C=C4)cc2)c1=S
REMARK SMILES IDX 14 1 13 2 11 3 12 4 10 5 9 6 6 7 7 8 85 9 8 10 86 11 4 12
REMARK SMILES IDX 5 13 2 14 1 15 3 16 15 17 16 18 17 19 18 20 19 21 20 22
REMARK SMILES IDX 84 23 21 24 83 25 22 26 23 27 24 28 77 29 25 30 82 31 76 32
REMARK SMILES IDX 78 33 26 34 81 35 75 36 74 37 27 39 61 40 40 41 60 42 41 43
REMARK SMILES IDX 44 44 59 45 79 46 42 47 43 48 58 50 80 51 45 52 28 53 29 54
REMARK SMILES IDX 38 55 30 56 31 57 37 58 39 59 32 60 33 61 34 62 35 63 36 64
REMARK SMILES IDX 62 65 63 66 72 67 64 68 65 69 71 70 73 71 66 72 67 73 68 74
REMARK SMILES IDX 69 75 70 76 46 77 47 78 56 79 48 80 49 81 55 82 57 83 50 84
REMARK SMILES IDX 51 85 52 86 53 87 54 88
REMARK H PARENT 78 38 44 49
REMARK Flexibility Score: inf
ROOT
ATOM      1  C   UNL     1       1.755   8.164  -2.353  1.00  0.00     0.274 C 
ENDROOT
BRANCH   1   2
ATOM      2  O   UNL     1       1.664   7.421  -1.121  1.00  0.00    -0.461 OA
BRANCH   2   3
ATOM      3  C   UNL     1       1.510   8.154   0.014  1.00  0.00     0.328 C 
ATOM      4  O   UNL     1       1.653   9.374   0.070  1.00  0.00    -0.250 OA
BRANCH   3   5
ATOM      5  C   UNL     1       1.202   7.331   1.258  1.00  0.00     0.270 C 
BRANCH   5   6
ATOM      6  N   UNL     1       0.820   5.937   1.095  1.00  0.00    -0.226 N 
ATOM      7  N   UNL     1       0.736   3.739   0.942  1.00  0.00    -0.211 N 
ATOM      8  C   UNL     1      -0.489   4.261   1.161  1.00  0.00     0.247 A 
ATOM      9  C   UNL     1       1.621   4.800   0.875  1.00  0.00     0.217 A 
ATOM     10  N   UNL     1      -0.499   5.547   1.308  1.00  0.00    -0.158 NA
ATOM     11  S   UNL     1       3.274   4.758   0.664  1.00  0.00    -0.037 S 
BRANCH   7  12
ATOM     12  N   UNL     1       1.019   2.377   0.947  1.00  0.00    -0.250 N 
ATOM     13  C   UNL     1       1.523   1.898   2.224  1.00  0.00     0.176 C 
BRANCH  12  14
ATOM     14  C   UNL     1       0.710   1.645  -0.184  1.00  0.00     0.238 C 
ATOM     15  C   UNL     1       0.979   0.164  -0.113  1.00  0.00     0.116 C 
ATOM     16  O   UNL     1       0.239   2.143  -1.206  1.00  0.00    -0.273 OA
ENDBRANCH  12  14
ENDBRANCH   7  12
ENDBRANCH   5   6
ENDBRANCH   3   5
ENDBRANCH   2   3
ENDBRANCH   1   2
BRANCH   1  17
ATOM     17  C   UNL     1       0.407   8.243  -3.066  1.00  0.00     0.275 C 
BRANCH  17  18
ATOM     18  O   UNL     1      -0.580   8.857  -2.236  1.00  0.00    -0.458 OA
BRANCH  18  19
ATOM     19  C   UNL     1      -1.242   7.963  -1.465  1.00  0.00     0.338 C 
ATOM     20  O   UNL     1      -0.974   6.783  -1.332  1.00  0.00    -0.246 OA
BRANCH  19  21
ATOM     21  C   UNL     1      -2.462   8.555  -0.912  1.00  0.00     0.060 A 
ATOM     22  C   UNL     1      -3.114   7.824   0.088  1.00  0.00     0.016 A 
ATOM     23  C   UNL     1      -3.099   9.574  -1.627  1.00  0.00     0.016 A 
ATOM     24  C   UNL     1      -4.478   7.960   0.220  1.00  0.00     0.010 A 
ATOM     25  C   UNL     1      -4.463   9.699  -1.505  1.00  0.00     0.010 A 
ATOM     26  C   UNL     1      -5.140   8.822  -0.653  1.00  0.00    -0.014 A 
BRANCH  26  27
ATOM     27  C   UNL     1      -6.583   8.717  -0.741  1.00  0.00     0.031 A 
ATOM     28  C   UNL     1      -7.343   9.472   0.281  1.00  0.00     0.074 A 
ATOM     29  C   UNL     1      -7.146   8.105  -1.801  1.00  0.00     0.049 A 
ATOM     30  N   UNL     1      -8.235   9.038   1.109  1.00  0.00    -0.248 NA
ATOM     31  C   UNL     1      -6.985  10.887   0.467  1.00  0.00     0.031 C 
ATOM     32  C   UNL     1      -6.477   7.620  -3.015  1.00  0.00     0.029 A 
ATOM     33  N   UNL     1      -8.461   7.929  -2.087  1.00  0.00    -0.354 N 
ATOM     34  C   UNL     1      -8.682  10.161   1.800  1.00  0.00     0.074 A 
ATOM     35  C   UNL     1      -7.776  11.232   1.480  1.00  0.00     0.031 C 
ATOM     36  C   UNL     1      -7.401   7.454  -3.987  1.00  0.00     0.029 A 
ATOM     37  C   UNL     1      -8.718   7.723  -3.434  1.00  0.00     0.049 A 
ATOM     38  H   UNL     1      -9.167   7.947  -1.402  1.00  0.00     0.167 HD
ATOM     39  C   UNL     1      -9.886  10.199   2.432  1.00  0.00     0.037 A 
ATOM     40  C   UNL     1      -9.911   7.908  -4.054  1.00  0.00     0.037 A 
ATOM     41  C   UNL     1     -10.427   8.885   2.644  1.00  0.00     0.049 A 
ATOM     42  C   UNL     1     -10.964   7.908  -2.998  1.00  0.00     0.074 A 
ATOM     43  C   UNL     1      -9.992   7.767   3.330  1.00  0.00     0.029 A 
ATOM     44  N   UNL     1     -11.425   8.444   1.808  1.00  0.00    -0.354 N 
ATOM     45  N   UNL     1     -11.283   6.866  -2.276  1.00  0.00    -0.248 NA
ATOM     46  C   UNL     1     -11.351   9.192  -2.428  1.00  0.00     0.031 C 
ATOM     47  C   UNL     1     -10.402   6.660   2.535  1.00  0.00     0.029 A 
ATOM     48  C   UNL     1     -11.093   7.165   1.432  1.00  0.00     0.049 A 
ATOM     49  H   UNL     1     -12.225   8.948   1.531  1.00  0.00     0.167 HD
ATOM     50  C   UNL     1     -11.534   7.367  -1.004  1.00  0.00     0.074 A 
ATOM     51  C   UNL     1     -11.649   8.812  -1.183  1.00  0.00     0.031 C 
ATOM     52  C   UNL     1     -11.346   6.609   0.119  1.00  0.00     0.037 A 
BRANCH  39  53
ATOM     53  C   UNL     1     -10.697  11.456   2.589  1.00  0.00     0.058 A 
ATOM     54  C   UNL     1     -11.758  11.500   3.512  1.00  0.00     0.135 A 
ATOM     55  C   UNL     1     -10.623  12.539   1.684  1.00  0.00     0.135 A 
ATOM     56  F   UNL     1     -11.932  10.508   4.400  1.00  0.00    -0.206 F 
ATOM     57  C   UNL     1     -12.706  12.524   3.504  1.00  0.00     0.059 A 
ATOM     58  C   UNL     1     -11.518  13.599   1.698  1.00  0.00     0.059 A 
ATOM     59  F   UNL     1      -9.736  12.565   0.679  1.00  0.00    -0.206 F 
ATOM     60  C   UNL     1     -12.584  13.560   2.582  1.00  0.00     0.060 A 
BRANCH  60  61
ATOM     61  S   UNL     1     -13.871  14.816   2.480  1.00  0.00     0.124 S 
ATOM     62  O   UNL     1     -14.955  14.066   1.855  1.00  0.00    -0.237 OA
ATOM     63  O   UNL     1     -14.064  15.173   3.881  1.00  0.00    -0.237 OA
ATOM     64  O   UNL     1     -13.262  15.854   1.653  1.00  0.00    -0.744 OA
ENDBRANCH  60  61
ENDBRANCH  39  53
BRANCH  40  65
ATOM     65  C   UNL     1     -10.114   8.466  -5.421  1.00  0.00     0.058 A 
ATOM     66  C   UNL     1     -11.357   8.387  -6.071  1.00  0.00     0.135 A 
ATOM     67  C   UNL     1      -9.151   9.298  -6.037  1.00  0.00     0.135 A 
ATOM     68  F   UNL     1     -12.349   7.657  -5.538  1.00  0.00    -0.206 F 
ATOM     69  C   UNL     1     -11.633   9.097  -7.247  1.00  0.00     0.059 A 
ATOM     70  C   UNL     1      -9.393   9.993  -7.218  1.00  0.00     0.059 A 
ATOM     71  F   UNL     1      -7.963   9.537  -5.462  1.00  0.00    -0.206 F 
ATOM     72  C   UNL     1     -10.644   9.906  -7.809  1.00  0.00     0.060 A 
BRANCH  72  73
ATOM     73  S   UNL     1     -11.031  10.932  -9.246  1.00  0.00     0.124 S 
ATOM     74  O   UNL     1     -11.216   9.931 -10.291  1.00  0.00    -0.237 OA
ATOM     75  O   UNL     1     -12.234  11.631  -8.810  1.00  0.00    -0.237 OA
ATOM     76  O   UNL     1      -9.845  11.773  -9.393  1.00  0.00    -0.744 OA
ENDBRANCH  72  73
ENDBRANCH  40  65
BRANCH  52  77
ATOM     77  C   UNL     1     -11.096   5.129  -0.039  1.00  0.00     0.058 A 
ATOM     78  C   UNL     1      -9.973   4.594  -0.696  1.00  0.00     0.135 A 
ATOM     79  C   UNL     1     -11.911   4.226   0.661  1.00  0.00     0.135 A 
ATOM     80  F   UNL     1      -9.078   5.394  -1.289  1.00  0.00    -0.206 F 
ATOM     81  C   UNL     1      -9.694   3.228  -0.691  1.00  0.00     0.059 A 
ATOM     82  C   UNL     1     -11.633   2.860   0.708  1.00  0.00     0.059 A 
ATOM     83  F   UNL     1     -12.960   4.676   1.369  1.00  0.00    -0.206 F 
ATOM     84  C   UNL     1     -10.526   2.366   0.020  1.00  0.00     0.060 A 
BRANCH  84  85
ATOM     85  S   UNL     1     -10.096   0.615   0.116  1.00  0.00     0.124 S 
ATOM     86  O   UNL     1     -10.446   0.139  -1.218  1.00  0.00    -0.237 OA
ATOM     87  O   UNL     1      -8.668   0.652   0.421  1.00  0.00    -0.237 OA
ATOM     88  O   UNL     1     -10.940   0.115   1.199  1.00  0.00    -0.744 OA
ENDBRANCH  84  85
ENDBRANCH  52  77
ENDBRANCH  26  27
ENDBRANCH  19  21
ENDBRANCH  18  19
ENDBRANCH  17  18
ENDBRANCH   1  17
TORSDOF 17
