REMARK SMILES Cc1ccc(C(=O)CCCC(=O)OCCOC(=O)c2ccc(-c3c4nc(c(-c5c(F)cc(S(=O)(=O)[O-])cc5F)c5ccc([nH]5)c(-c5c(F)cc(S(=O)(=O)[O-])cc5F)c5nc(c(-c6c(F)cc(S(=O)(=O)[O-])cc6F)c6ccc3[nH]6)C=C5)C=C4)cc2)s1
REMARK SMILES IDX 14 1 13 2 11 3 12 4 10 5 9 6 8 7 6 8 7 9 5 10 1 11 2 12 3 13
REMARK SMILES IDX 85 14 4 15 15 16 16 17 17 18 18 19 19 20 20 21 84 22 21 23
REMARK SMILES IDX 83 24 22 25 23 26 24 27 77 28 25 29 82 30 76 31 78 32 26 33
REMARK SMILES IDX 81 34 75 35 74 36 27 38 61 39 40 40 60 41 41 42 44 43 59 44
REMARK SMILES IDX 79 45 42 46 43 47 58 49 80 50 45 51 28 52 29 53 38 54 30 55
REMARK SMILES IDX 31 56 37 57 39 58 32 59 33 60 34 61 35 62 36 63 62 64 63 65
REMARK SMILES IDX 72 66 64 67 65 68 71 69 73 70 66 71 67 72 68 73 69 74 70 75
REMARK SMILES IDX 46 76 47 77 56 78 48 79 49 80 55 81 57 82 50 83 51 84 52 85
REMARK SMILES IDX 53 86 54 87
REMARK H PARENT 78 37 44 48
REMARK Flexibility Score: inf
ROOT
ATOM      1  C   UNL     1      -3.098  -3.314   2.117  1.00  0.00     0.274 C 
ENDROOT
BRANCH   1   2
ATOM      2  O   UNL     1      -3.342  -2.359   1.064  1.00  0.00    -0.462 OA
BRANCH   2   3
ATOM      3  C   UNL     1      -2.595  -2.478  -0.063  1.00  0.00     0.305 C 
ATOM      4  O   UNL     1      -1.734  -3.332  -0.236  1.00  0.00    -0.252 OA
BRANCH   3   5
ATOM      5  C   UNL     1      -2.915  -1.429  -1.112  1.00  0.00     0.123 C 
BRANCH   5   6
ATOM      6  C   UNL     1      -3.978  -0.385  -0.774  1.00  0.00     0.020 C 
BRANCH   6   7
ATOM      7  C   UNL     1      -3.650   0.580   0.368  1.00  0.00     0.082 C 
BRANCH   7   8
ATOM      8  C   UNL     1      -2.449   1.473   0.081  1.00  0.00     0.172 C 
ATOM      9  O   UNL     1      -2.639   2.592  -0.401  1.00  0.00    -0.293 OA
BRANCH   8  10
ATOM     10  C   UNL     1      -1.125   0.920   0.351  1.00  0.00     0.070 A 
ATOM     11  C   UNL     1       2.691   0.267  -0.314  1.00  0.00     0.056 C 
ATOM     12  C   UNL     1       1.268   0.335   0.122  1.00  0.00     0.002 A 
ATOM     13  C   UNL     1       0.617  -0.482   1.020  1.00  0.00     0.016 A 
ATOM     14  S   UNL     1       0.229   1.544  -0.495  1.00  0.00    -0.138 S 
ATOM     15  C   UNL     1      -0.748  -0.112   1.190  1.00  0.00     0.024 A 
ENDBRANCH   8  10
ENDBRANCH   7   8
ENDBRANCH   6   7
ENDBRANCH   5   6
ENDBRANCH   3   5
ENDBRANCH   2   3
ENDBRANCH   1   2
BRANCH   1  16
ATOM     16  C   UNL     1      -4.252  -4.310   2.246  1.00  0.00     0.275 C 
BRANCH  16  17
ATOM     17  O   UNL     1      -4.304  -5.192   1.114  1.00  0.00    -0.458 OA
BRANCH  17  18
ATOM     18  C   UNL     1      -5.042  -4.734   0.076  1.00  0.00     0.338 C 
ATOM     19  O   UNL     1      -5.713  -3.717   0.036  1.00  0.00    -0.246 OA
BRANCH  18  20
ATOM     20  C   UNL     1      -4.777  -5.567  -1.101  1.00  0.00     0.060 A 
ATOM     21  C   UNL     1      -4.072  -4.986  -2.155  1.00  0.00     0.016 A 
ATOM     22  C   UNL     1      -5.272  -6.866  -1.204  1.00  0.00     0.016 A 
ATOM     23  C   UNL     1      -3.875  -5.683  -3.337  1.00  0.00     0.010 A 
ATOM     24  C   UNL     1      -5.065  -7.574  -2.390  1.00  0.00     0.010 A 
ATOM     25  C   UNL     1      -4.381  -6.978  -3.465  1.00  0.00    -0.014 A 
BRANCH  25  26
ATOM     26  C   UNL     1      -4.260  -7.671  -4.765  1.00  0.00     0.031 A 
ATOM     27  C   UNL     1      -5.482  -7.838  -5.617  1.00  0.00     0.074 A 
ATOM     28  C   UNL     1      -3.057  -8.103  -5.183  1.00  0.00     0.049 A 
ATOM     29  N   UNL     1      -5.635  -8.527  -6.716  1.00  0.00    -0.248 NA
ATOM     30  C   UNL     1      -6.698  -7.140  -5.168  1.00  0.00     0.031 C 
ATOM     31  C   UNL     1      -1.795  -7.917  -4.463  1.00  0.00     0.029 A 
ATOM     32  N   UNL     1      -2.699  -8.788  -6.314  1.00  0.00    -0.354 N 
ATOM     33  C   UNL     1      -6.969  -8.377  -7.071  1.00  0.00     0.074 A 
ATOM     34  C   UNL     1      -7.585  -7.535  -6.069  1.00  0.00     0.031 C 
ATOM     35  C   UNL     1      -0.801  -8.479  -5.170  1.00  0.00     0.029 A 
ATOM     36  C   UNL     1      -1.365  -9.114  -6.357  1.00  0.00     0.049 A 
ATOM     37  H   UNL     1      -3.336  -9.025  -7.027  1.00  0.00     0.167 HD
ATOM     38  C   UNL     1      -7.616  -8.902  -8.138  1.00  0.00     0.037 A 
ATOM     39  C   UNL     1      -0.686  -9.875  -7.236  1.00  0.00     0.037 A 
ATOM     40  C   UNL     1      -6.974  -9.719  -9.135  1.00  0.00     0.049 A 
ATOM     41  C   UNL     1      -1.437 -10.493  -8.384  1.00  0.00     0.074 A 
ATOM     42  C   UNL     1      -7.529 -10.312 -10.254  1.00  0.00     0.029 A 
ATOM     43  N   UNL     1      -5.625 -10.050  -9.133  1.00  0.00    -0.354 N 
ATOM     44  N   UNL     1      -2.710 -10.387  -8.686  1.00  0.00    -0.248 NA
ATOM     45  C   UNL     1      -0.666 -11.342  -9.301  1.00  0.00     0.031 C 
ATOM     46  C   UNL     1      -6.523 -11.030 -10.910  1.00  0.00     0.029 A 
ATOM     47  C   UNL     1      -5.332 -10.850 -10.223  1.00  0.00     0.049 A 
ATOM     48  H   UNL     1      -4.973  -9.758  -8.455  1.00  0.00     0.167 HD
ATOM     49  C   UNL     1      -2.892 -11.146  -9.836  1.00  0.00     0.074 A 
ATOM     50  C   UNL     1      -1.594 -11.692 -10.182  1.00  0.00     0.031 C 
ATOM     51  C   UNL     1      -4.027 -11.375 -10.541  1.00  0.00     0.037 A 
BRANCH  38  52
ATOM     52  C   UNL     1      -9.092  -8.647  -8.250  1.00  0.00     0.058 A 
ATOM     53  C   UNL     1      -9.605  -7.392  -8.611  1.00  0.00     0.135 A 
ATOM     54  C   UNL     1     -10.009  -9.681  -7.995  1.00  0.00     0.135 A 
ATOM     55  F   UNL     1      -8.774  -6.363  -8.842  1.00  0.00    -0.206 F 
ATOM     56  C   UNL     1     -10.976  -7.163  -8.692  1.00  0.00     0.059 A 
ATOM     57  C   UNL     1     -11.382  -9.481  -8.093  1.00  0.00     0.059 A 
ATOM     58  F   UNL     1      -9.572 -10.899  -7.638  1.00  0.00    -0.206 F 
ATOM     59  C   UNL     1     -11.857  -8.213  -8.427  1.00  0.00     0.060 A 
BRANCH  59  60
ATOM     60  S   UNL     1     -13.633  -7.902  -8.528  1.00  0.00     0.124 S 
ATOM     61  O   UNL     1     -13.865  -7.144  -7.303  1.00  0.00    -0.237 OA
ATOM     62  O   UNL     1     -13.749  -7.147  -9.771  1.00  0.00    -0.237 OA
ATOM     63  O   UNL     1     -14.211  -9.242  -8.556  1.00  0.00    -0.744 OA
ENDBRANCH  59  60
ENDBRANCH  38  52
BRANCH  39  64
ATOM     64  C   UNL     1       0.765 -10.125  -7.036  1.00  0.00     0.058 A 
ATOM     65  C   UNL     1       1.723  -9.570  -7.896  1.00  0.00     0.135 A 
ATOM     66  C   UNL     1       1.226 -10.906  -5.963  1.00  0.00     0.135 A 
ATOM     67  F   UNL     1       1.333  -8.824  -8.941  1.00  0.00    -0.206 F 
ATOM     68  C   UNL     1       3.085  -9.785  -7.707  1.00  0.00     0.059 A 
ATOM     69  C   UNL     1       2.582 -11.114  -5.738  1.00  0.00     0.059 A 
ATOM     70  F   UNL     1       0.350 -11.450  -5.103  1.00  0.00    -0.206 F 
ATOM     71  C   UNL     1       3.505 -10.557  -6.621  1.00  0.00     0.060 A 
BRANCH  71  72
ATOM     72  S   UNL     1       5.276 -10.784  -6.348  1.00  0.00     0.124 S 
ATOM     73  O   UNL     1       5.608 -11.760  -7.379  1.00  0.00    -0.237 OA
ATOM     74  O   UNL     1       5.796  -9.436  -6.553  1.00  0.00    -0.237 OA
ATOM     75  O   UNL     1       5.342 -11.270  -4.973  1.00  0.00    -0.744 OA
ENDBRANCH  71  72
ENDBRANCH  39  64
BRANCH  51  76
ATOM     76  C   UNL     1      -3.906 -12.230 -11.769  1.00  0.00     0.058 A 
ATOM     77  C   UNL     1      -3.760 -13.623 -11.681  1.00  0.00     0.135 A 
ATOM     78  C   UNL     1      -3.986 -11.653 -13.046  1.00  0.00     0.135 A 
ATOM     79  F   UNL     1      -3.672 -14.219 -10.482  1.00  0.00    -0.206 F 
ATOM     80  C   UNL     1      -3.678 -14.415 -12.821  1.00  0.00     0.059 A 
ATOM     81  C   UNL     1      -3.929 -12.428 -14.199  1.00  0.00     0.059 A 
ATOM     82  F   UNL     1      -4.135 -10.326 -13.180  1.00  0.00    -0.206 F 
ATOM     83  C   UNL     1      -3.763 -13.807 -14.076  1.00  0.00     0.060 A 
BRANCH  83  84
ATOM     84  S   UNL     1      -3.689 -14.848 -15.549  1.00  0.00     0.124 S 
ATOM     85  O   UNL     1      -2.263 -15.148 -15.624  1.00  0.00    -0.237 OA
ATOM     86  O   UNL     1      -4.554 -15.967 -15.188  1.00  0.00    -0.237 OA
ATOM     87  O   UNL     1      -4.206 -13.980 -16.603  1.00  0.00    -0.744 OA
ENDBRANCH  83  84
ENDBRANCH  51  76
ENDBRANCH  25  26
ENDBRANCH  18  20
ENDBRANCH  17  18
ENDBRANCH  16  17
ENDBRANCH   1  16
TORSDOF 18
