REMARK SMILES CCCCCCNC(=O)Oc1cccc(-c2ccc([C@@H](C)C(=O)OCCOC(=O)c3ccc(-c4c5nc(c(-c6c(F)cc(S(=O)(=O)[O-])cc6F)c6ccc([nH]6)c(-c6c(F)cc(S(=O)(=O)[O-])cc6F)c6nc(c(-c7c(F)cc(S(=O)(=O)[O-])cc7F)c7ccc4[nH]7)C=C6)C=C5)cc3)cc2)c1
REMARK SMILES IDX 20 1 21 2 19 3 16 4 17 5 97 6 18 7 96 8 15 9 11 10 12 11
REMARK SMILES IDX 98 12 13 13 14 14 10 15 8 16 7 17 9 19 6 20 5 21 4 22 3 23
REMARK SMILES IDX 2 24 1 25 22 26 23 27 24 28 25 29 26 30 27 31 28 32 29 33
REMARK SMILES IDX 30 34 31 35 95 36 32 37 94 38 33 39 34 40 35 41 88 42 36 43
REMARK SMILES IDX 93 44 87 45 89 46 37 47 92 48 86 49 85 50 38 52 72 53 51 54
REMARK SMILES IDX 71 55 52 56 55 57 70 58 90 59 53 60 54 61 69 63 91 64 56 65
REMARK SMILES IDX 39 66 40 67 49 68 41 69 42 70 48 71 50 72 43 73 44 74 45 75
REMARK SMILES IDX 46 76 47 77 73 78 74 79 83 80 75 81 76 82 82 83 84 84 77 85
REMARK SMILES IDX 78 86 79 87 80 88 81 89 57 90 58 91 67 92 59 93 60 94 66 95
REMARK SMILES IDX 68 96 61 97 62 98 63 99 64 100 65 101
REMARK H PARENT 7 18 89 51 55 62
REMARK Flexibility Score: inf
ROOT
ATOM      1  C   UNL     1      -5.226   5.522 -12.771  1.00  0.00     0.126 C 
ATOM      2  C   UNL     1      -6.469   6.187 -13.361  1.00  0.00     0.025 C 
ENDROOT
BRANCH   1   3
ATOM      3  C   UNL     1      -5.211   5.560 -11.251  1.00  0.00    -0.034 A 
ATOM      4  C   UNL     1      -5.205   5.576  -8.406  1.00  0.00    -0.018 A 
ATOM      5  C   UNL     1      -5.297   6.768  -9.141  1.00  0.00     0.009 A 
ATOM      6  C   UNL     1      -5.100   4.375  -9.121  1.00  0.00     0.009 A 
ATOM      7  C   UNL     1      -5.304   6.762 -10.539  1.00  0.00     0.005 A 
ATOM      8  C   UNL     1      -5.106   4.366 -10.521  1.00  0.00     0.005 A 
BRANCH   4   9
ATOM      9  C   UNL     1      -5.249   5.591  -6.935  1.00  0.00    -0.015 A 
ATOM     10  C   UNL     1      -4.337   5.001  -4.766  1.00  0.00     0.133 A 
ATOM     11  C   UNL     1      -5.399   5.626  -4.116  1.00  0.00     0.047 A 
ATOM     12  C   UNL     1      -4.260   4.962  -6.160  1.00  0.00     0.056 A 
ATOM     13  C   UNL     1      -6.386   6.250  -4.870  1.00  0.00     0.004 A 
ATOM     14  C   UNL     1      -6.309   6.232  -6.265  1.00  0.00     0.009 A 
BRANCH  10  15
ATOM     15  O   UNL     1      -3.416   4.318  -3.956  1.00  0.00    -0.410 OA
BRANCH  15  16
ATOM     16  C   UNL     1      -2.087   4.706  -4.037  1.00  0.00     0.412 C 
ATOM     17  N   UNL     1      -1.276   4.025  -3.169  1.00  0.00    -0.321 N 
ATOM     18  H   UNL     1      -0.313   4.223  -3.221  1.00  0.00     0.167 HD
ATOM     19  O   UNL     1      -1.632   5.580  -4.764  1.00  0.00    -0.224 OA
BRANCH  17  20
ATOM     20  C   UNL     1      -1.682   3.044  -2.183  1.00  0.00     0.119 C 
BRANCH  20  21
ATOM     21  C   UNL     1      -1.041   1.677  -2.417  1.00  0.00     0.021 C 
BRANCH  21  22
ATOM     22  C   UNL     1       0.488   1.648  -2.299  1.00  0.00     0.002 C 
BRANCH  22  23
ATOM     23  C   UNL     1       1.062   2.110  -0.955  1.00  0.00    -0.000 C 
BRANCH  23  24
ATOM     24  C   UNL     1       0.578   1.337   0.274  1.00  0.00    -0.003 C 
ATOM     25  C   UNL     1       0.956  -0.136   0.249  1.00  0.00     0.004 C 
ENDBRANCH  23  24
ENDBRANCH  22  23
ENDBRANCH  21  22
ENDBRANCH  20  21
ENDBRANCH  17  20
ENDBRANCH  15  16
ENDBRANCH  10  15
ENDBRANCH   4   9
ENDBRANCH   1   3
BRANCH   1  26
ATOM     26  C   UNL     1      -3.979   6.057 -13.466  1.00  0.00     0.313 C 
ATOM     27  O   UNL     1      -3.648   5.684 -14.587  1.00  0.00    -0.252 OA
BRANCH  26  28
ATOM     28  O   UNL     1      -3.319   7.006 -12.753  1.00  0.00    -0.462 OA
BRANCH  28  29
ATOM     29  C   UNL     1      -2.095   7.511 -13.319  1.00  0.00     0.274 C 
BRANCH  29  30
ATOM     30  C   UNL     1      -0.876   6.877 -12.648  1.00  0.00     0.275 C 
BRANCH  30  31
ATOM     31  O   UNL     1      -0.770   5.483 -12.983  1.00  0.00    -0.458 OA
BRANCH  31  32
ATOM     32  C   UNL     1      -1.240   4.629 -12.043  1.00  0.00     0.338 C 
ATOM     33  O   UNL     1      -1.684   4.903 -10.944  1.00  0.00    -0.246 OA
BRANCH  32  34
ATOM     34  C   UNL     1      -1.233   3.265 -12.588  1.00  0.00     0.060 A 
ATOM     35  C   UNL     1      -2.452   2.689 -12.948  1.00  0.00     0.016 A 
ATOM     36  C   UNL     1      -0.048   2.535 -12.668  1.00  0.00     0.016 A 
ATOM     37  C   UNL     1      -2.498   1.367 -13.380  1.00  0.00     0.010 A 
ATOM     38  C   UNL     1      -0.092   1.212 -13.117  1.00  0.00     0.010 A 
ATOM     39  C   UNL     1      -1.318   0.617 -13.464  1.00  0.00    -0.014 A 
BRANCH  39  40
ATOM     40  C   UNL     1      -1.373  -0.802 -13.884  1.00  0.00     0.031 A 
ATOM     41  C   UNL     1      -1.173  -1.891 -12.871  1.00  0.00     0.074 A 
ATOM     42  C   UNL     1      -1.611  -1.107 -15.173  1.00  0.00     0.049 A 
ATOM     43  N   UNL     1      -1.095  -3.184 -13.051  1.00  0.00    -0.248 NA
ATOM     44  C   UNL     1      -1.042  -1.468 -11.468  1.00  0.00     0.031 C 
ATOM     45  C   UNL     1      -1.865  -0.134 -16.236  1.00  0.00     0.029 A 
ATOM     46  N   UNL     1      -1.675  -2.321 -15.807  1.00  0.00    -0.354 N 
ATOM     47  C   UNL     1      -0.882  -3.729 -11.791  1.00  0.00     0.074 A 
ATOM     48  C   UNL     1      -0.831  -2.625 -10.856  1.00  0.00     0.031 C 
ATOM     49  C   UNL     1      -2.061  -0.791 -17.391  1.00  0.00     0.029 A 
ATOM     50  C   UNL     1      -1.899  -2.223 -17.158  1.00  0.00     0.049 A 
ATOM     51  H   UNL     1      -1.570  -3.181 -15.338  1.00  0.00     0.167 HD
ATOM     52  C   UNL     1      -0.741  -5.033 -11.449  1.00  0.00     0.037 A 
ATOM     53  C   UNL     1      -1.939  -3.179 -18.107  1.00  0.00     0.037 A 
ATOM     54  C   UNL     1      -0.805  -6.125 -12.386  1.00  0.00     0.049 A 
ATOM     55  C   UNL     1      -1.719  -4.612 -17.714  1.00  0.00     0.074 A 
ATOM     56  C   UNL     1      -0.697  -7.482 -12.137  1.00  0.00     0.029 A 
ATOM     57  N   UNL     1      -0.988  -5.983 -13.754  1.00  0.00    -0.354 N 
ATOM     58  N   UNL     1      -1.509  -5.115 -16.520  1.00  0.00    -0.248 NA
ATOM     59  C   UNL     1      -1.726  -5.606 -18.795  1.00  0.00     0.031 C 
ATOM     60  C   UNL     1      -0.777  -8.159 -13.361  1.00  0.00     0.029 A 
ATOM     61  C   UNL     1      -0.972  -7.226 -14.367  1.00  0.00     0.049 A 
ATOM     62  H   UNL     1      -1.112  -5.125 -14.221  1.00  0.00     0.167 HD
ATOM     63  C   UNL     1      -1.367  -6.486 -16.705  1.00  0.00     0.074 A 
ATOM     64  C   UNL     1      -1.530  -6.734 -18.124  1.00  0.00     0.031 C 
ATOM     65  C   UNL     1      -1.123  -7.451 -15.784  1.00  0.00     0.037 A 
BRANCH  52  66
ATOM     66  C   UNL     1      -0.465  -5.336 -10.004  1.00  0.00     0.058 A 
ATOM     67  C   UNL     1      -1.461  -5.229  -9.021  1.00  0.00     0.135 A 
ATOM     68  C   UNL     1       0.819  -5.732  -9.595  1.00  0.00     0.135 A 
ATOM     69  F   UNL     1      -2.701  -4.839  -9.355  1.00  0.00    -0.206 F 
ATOM     70  C   UNL     1      -1.185  -5.466  -7.677  1.00  0.00     0.059 A 
ATOM     71  C   UNL     1       1.112  -5.996  -8.261  1.00  0.00     0.059 A 
ATOM     72  F   UNL     1       1.808  -5.850 -10.495  1.00  0.00    -0.206 F 
ATOM     73  C   UNL     1       0.108  -5.839  -7.306  1.00  0.00     0.060 A 
BRANCH  73  74
ATOM     74  S   UNL     1       0.465  -6.110  -5.557  1.00  0.00     0.124 S 
ATOM     75  O   UNL     1       0.555  -4.739  -5.063  1.00  0.00    -0.237 OA
ATOM     76  O   UNL     1      -0.699  -6.868  -5.109  1.00  0.00    -0.237 OA
ATOM     77  O   UNL     1       1.721  -6.854  -5.578  1.00  0.00    -0.744 OA
ENDBRANCH  73  74
ENDBRANCH  52  66
BRANCH  53  78
ATOM     78  C   UNL     1      -2.180  -2.797 -19.522  1.00  0.00     0.058 A 
ATOM     79  C   UNL     1      -3.406  -3.071 -20.143  1.00  0.00     0.135 A 
ATOM     80  C   UNL     1      -1.206  -2.111 -20.265  1.00  0.00     0.135 A 
ATOM     81  F   UNL     1      -4.362  -3.734 -19.475  1.00  0.00    -0.206 F 
ATOM     82  C   UNL     1      -3.663  -2.674 -21.451  1.00  0.00     0.059 A 
ATOM     83  C   UNL     1      -1.446  -1.686 -21.567  1.00  0.00     0.059 A 
ATOM     84  F   UNL     1      -0.019  -1.819 -19.710  1.00  0.00    -0.206 F 
ATOM     85  C   UNL     1      -2.678  -1.975 -22.153  1.00  0.00     0.060 A 
BRANCH  85  86
ATOM     86  S   UNL     1      -3.050  -1.392 -23.822  1.00  0.00     0.124 S 
ATOM     87  O   UNL     1      -2.939  -2.624 -24.595  1.00  0.00    -0.237 OA
ATOM     88  O   UNL     1      -4.398  -0.854 -23.669  1.00  0.00    -0.237 OA
ATOM     89  O   UNL     1      -2.011  -0.396 -24.067  1.00  0.00    -0.744 OA
ENDBRANCH  85  86
ENDBRANCH  53  78
BRANCH  65  90
ATOM     90  C   UNL     1      -1.025  -8.864 -16.284  1.00  0.00     0.058 A 
ATOM     91  C   UNL     1       0.118  -9.323 -16.956  1.00  0.00     0.135 A 
ATOM     92  C   UNL     1      -2.065  -9.777 -16.052  1.00  0.00     0.135 A 
ATOM     93  F   UNL     1       1.135  -8.485 -17.210  1.00  0.00    -0.206 F 
ATOM     94  C   UNL     1       0.219 -10.638 -17.399  1.00  0.00     0.059 A 
ATOM     95  C   UNL     1      -1.976 -11.102 -16.468  1.00  0.00     0.059 A 
ATOM     96  F   UNL     1      -3.175  -9.389 -15.406  1.00  0.00    -0.206 F 
ATOM     97  C   UNL     1      -0.835 -11.520 -17.151  1.00  0.00     0.060 A 
BRANCH  97  98
ATOM     98  S   UNL     1      -0.682 -13.233 -17.701  1.00  0.00     0.124 S 
ATOM     99  O   UNL     1      -0.954 -13.108 -19.129  1.00  0.00    -0.237 OA
ATOM    100  O   UNL     1       0.696 -13.558 -17.345  1.00  0.00    -0.237 OA
ATOM    101  O   UNL     1      -1.703 -13.930 -16.925  1.00  0.00    -0.744 OA
ENDBRANCH  97  98
ENDBRANCH  65  90
ENDBRANCH  39  40
ENDBRANCH  32  34
ENDBRANCH  31  32
ENDBRANCH  30  31
ENDBRANCH  29  30
ENDBRANCH  28  29
ENDBRANCH  26  28
ENDBRANCH   1  26
TORSDOF 23
