REMARK SMILES Cc1ccc(C(=O)OCCOC(=O)c2ccc(-c3c4nc(c(-c5c(F)cc(S(=O)(=O)[O-])cc5F)c5ccc([nH]5)c(-c5c(F)cc(S(=O)(=O)[O-])cc5F)c5nc(c(-c6c(F)cc(S(=O)(=O)[O-])cc6F)c6ccc3[nH]6)C=C5)C=C4)cc2)c(NC(=O)CN2C(=O)/C(=C/c3ccccc3C)SC2=S)c1
REMARK SMILES IDX 9 1 8 2 6 3 7 4 5 5 1 6 2 7 3 8 100 9 4 10 80 11 81 12 82 13
REMARK SMILES IDX 83 15 84 16 85 17 86 18 98 19 87 20 88 21 97 22 99 23 89 24
REMARK SMILES IDX 90 25 91 26 95 27 92 28 94 29 96 30 93 31 10 32 11 33 12 34
REMARK SMILES IDX 13 35 14 36 15 37 79 38 16 39 78 40 17 41 18 42 19 43 72 44
REMARK SMILES IDX 20 45 77 46 71 47 73 48 21 49 76 50 70 51 69 52 22 54 56 55
REMARK SMILES IDX 35 56 55 57 36 58 39 59 54 60 74 61 37 62 38 63 53 65 75 66
REMARK SMILES IDX 40 67 23 68 24 69 33 70 25 71 26 72 32 73 34 74 27 75 28 76
REMARK SMILES IDX 29 77 30 78 31 79 57 80 58 81 67 82 59 83 60 84 66 85 68 86
REMARK SMILES IDX 61 87 62 88 63 89 64 90 65 91 41 92 42 93 51 94 43 95 44 96
REMARK SMILES IDX 50 97 52 98 45 99 46 100 47 101 48 102 49 103
REMARK H PARENT 81 14 73 53 39 64
REMARK Flexibility Score: inf
ROOT
ATOM      1  C   UNL     1      -6.349   0.755   0.347  1.00  0.00     0.275 C 
ENDROOT
BRANCH   1   2
ATOM      2  O   UNL     1      -5.215   0.444   1.196  1.00  0.00    -0.458 OA
BRANCH   2   3
ATOM      3  C   UNL     1      -4.006  -0.506   0.944  1.00  0.00     0.340 C 
ATOM      4  O   UNL     1      -4.650  -1.593   1.038  1.00  0.00    -0.246 OA
BRANCH   3   5
ATOM      5  C   UNL     1      -1.982   0.022   0.498  1.00  0.00     0.083 A 
ATOM      6  C   UNL     1       2.653   0.713  -0.196  1.00  0.00     0.044 C 
ATOM      7  C   UNL     1       1.174   0.554   0.027  1.00  0.00    -0.049 A 
ATOM      8  C   UNL     1       0.700  -0.660   0.415  1.00  0.00     0.004 A 
ATOM      9  C   UNL     1       0.204   1.532  -0.194  1.00  0.00     0.030 A 
ATOM     10  C   UNL     1      -0.689  -0.865   0.647  1.00  0.00     0.018 A 
ATOM     11  C   UNL     1      -1.277   1.366  -0.064  1.00  0.00     0.056 A 
BRANCH  11  12
ATOM     12  N   UNL     1      -1.808   2.700  -0.444  1.00  0.00    -0.324 N 
ATOM     13  C   UNL     1      -2.835   3.421  -0.992  1.00  0.00     0.244 C 
ATOM     14  H   UNL     1      -1.117   3.354  -0.190  1.00  0.00     0.170 HD
ATOM     15  O   UNL     1      -2.865   4.606  -0.600  1.00  0.00    -0.273 OA
BRANCH  13  16
ATOM     16  C   UNL     1      -3.973   3.033  -2.023  1.00  0.00     0.227 C 
BRANCH  16  17
ATOM     17  N   UNL     1      -3.762   1.929  -2.972  1.00  0.00    -0.283 N 
ATOM     18  C   UNL     1      -2.583   2.137  -3.679  1.00  0.00     0.266 C 
ATOM     19  C   UNL     1      -4.732   1.356  -3.808  1.00  0.00     0.148 C 
ATOM     20  O   UNL     1      -1.762   3.026  -3.528  1.00  0.00    -0.268 OA
ATOM     21  C   UNL     1      -2.702   1.356  -4.908  1.00  0.00     0.081 C 
ATOM     22  S   UNL     1      -4.293   1.749  -5.455  1.00  0.00    -0.054 SA
ATOM     23  S   UNL     1      -5.611  -0.059  -3.788  1.00  0.00    -0.052 S 
ATOM     24  C   UNL     1      -1.984   0.226  -4.983  1.00  0.00     0.029 C 
BRANCH  24  25
ATOM     25  C   UNL     1      -2.141  -0.960  -5.844  1.00  0.00    -0.021 A 
ATOM     26  C   UNL     1      -1.757  -2.209  -5.304  1.00  0.00     0.008 A 
ATOM     27  C   UNL     1      -2.509  -0.900  -7.200  1.00  0.00    -0.044 A 
ATOM     28  C   UNL     1      -1.683  -3.352  -6.106  1.00  0.00     0.001 A 
ATOM     29  C   UNL     1      -2.442  -2.063  -7.983  1.00  0.00     0.004 A 
ATOM     30  C   UNL     1      -3.032   0.320  -7.896  1.00  0.00     0.045 C 
ATOM     31  C   UNL     1      -2.005  -3.272  -7.453  1.00  0.00     0.000 A 
ENDBRANCH  24  25
ENDBRANCH  16  17
ENDBRANCH  13  16
ENDBRANCH  11  12
ENDBRANCH   3   5
ENDBRANCH   2   3
ENDBRANCH   1   2
BRANCH   1  32
ATOM     32  C   UNL     1      -6.744  -0.189  -0.756  1.00  0.00     0.275 C 
BRANCH  32  33
ATOM     33  O   UNL     1      -5.962  -1.370  -1.028  1.00  0.00    -0.458 OA
BRANCH  33  34
ATOM     34  C   UNL     1      -4.679  -1.673  -1.398  1.00  0.00     0.338 C 
ATOM     35  O   UNL     1      -4.462  -2.772  -1.881  1.00  0.00    -0.246 OA
BRANCH  34  36
ATOM     36  C   UNL     1      -3.416  -0.913  -0.947  1.00  0.00     0.060 A 
ATOM     37  C   UNL     1      -2.729  -2.019   0.287  1.00  0.00     0.016 A 
ATOM     38  C   UNL     1      -3.663   0.796  -0.473  1.00  0.00     0.016 A 
ATOM     39  C   UNL     1      -2.550  -1.502   2.033  1.00  0.00     0.010 A 
ATOM     40  C   UNL     1      -3.361   1.381   1.261  1.00  0.00     0.010 A 
ATOM     41  C   UNL     1      -2.917   0.171   2.531  1.00  0.00    -0.014 A 
BRANCH  41  42
ATOM     42  C   UNL     1      -3.891   0.391   3.705  1.00  0.00     0.031 A 
ATOM     43  C   UNL     1      -3.479   1.636   4.424  1.00  0.00     0.074 A 
ATOM     44  C   UNL     1      -5.023  -0.399   3.826  1.00  0.00     0.049 A 
ATOM     45  N   UNL     1      -2.831   1.650   5.561  1.00  0.00    -0.248 NA
ATOM     46  C   UNL     1      -3.385   2.978   3.769  1.00  0.00     0.031 C 
ATOM     47  C   UNL     1      -6.321  -0.314   4.516  1.00  0.00     0.029 A 
ATOM     48  N   UNL     1      -5.184  -1.659   3.252  1.00  0.00    -0.354 N 
ATOM     49  C   UNL     1      -2.844   3.001   5.894  1.00  0.00     0.074 A 
ATOM     50  C   UNL     1      -2.624   3.633   4.641  1.00  0.00     0.031 C 
ATOM     51  C   UNL     1      -6.926  -1.534   4.568  1.00  0.00     0.029 A 
ATOM     52  C   UNL     1      -6.128  -2.493   3.819  1.00  0.00     0.049 A 
ATOM     53  H   UNL     1      -4.648  -1.942   2.476  1.00  0.00     0.167 HD
ATOM     54  C   UNL     1      -3.811   3.470   6.758  1.00  0.00     0.037 A 
ATOM     55  C   UNL     1      -5.647  -3.719   4.175  1.00  0.00     0.037 A 
ATOM     56  C   UNL     1      -4.673   2.354   7.174  1.00  0.00     0.049 A 
ATOM     57  C   UNL     1      -5.061  -3.468   5.560  1.00  0.00     0.074 A 
ATOM     58  C   UNL     1      -6.001   2.029   6.962  1.00  0.00     0.029 A 
ATOM     59  N   UNL     1      -4.068   1.189   7.622  1.00  0.00    -0.354 N 
ATOM     60  N   UNL     1      -4.706  -2.280   5.990  1.00  0.00    -0.248 NA
ATOM     61  C   UNL     1      -5.065  -4.460   6.629  1.00  0.00     0.031 C 
ATOM     62  C   UNL     1      -6.171   0.652   7.315  1.00  0.00     0.029 A 
ATOM     63  C   UNL     1      -4.929   0.115   7.616  1.00  0.00     0.049 A 
ATOM     64  H   UNL     1      -3.128   1.137   7.912  1.00  0.00     0.167 HD
ATOM     65  C   UNL     1      -4.602  -2.289   7.344  1.00  0.00     0.074 A 
ATOM     66  C   UNL     1      -4.787  -3.688   7.696  1.00  0.00     0.031 C 
ATOM     67  C   UNL     1      -4.444  -1.168   8.110  1.00  0.00     0.037 A 
BRANCH  54  68
ATOM     68  C   UNL     1      -4.209   4.946   6.932  1.00  0.00     0.058 A 
ATOM     69  C   UNL     1      -5.252   5.271   7.827  1.00  0.00     0.135 A 
ATOM     70  C   UNL     1      -3.613   6.082   6.322  1.00  0.00     0.135 A 
ATOM     71  F   UNL     1      -5.891   4.320   8.522  1.00  0.00    -0.206 F 
ATOM     72  C   UNL     1      -5.668   6.580   8.086  1.00  0.00     0.059 A 
ATOM     73  C   UNL     1      -4.029   7.401   6.546  1.00  0.00     0.059 A 
ATOM     74  F   UNL     1      -2.561   6.002   5.504  1.00  0.00    -0.206 F 
ATOM     75  C   UNL     1      -5.045   7.643   7.450  1.00  0.00     0.060 A 
BRANCH  75  76
ATOM     76  S   UNL     1      -5.517   9.325   7.888  1.00  0.00     0.124 S 
ATOM     77  O   UNL     1      -6.928   9.351   7.516  1.00  0.00    -0.237 OA
ATOM     78  O   UNL     1      -5.234   9.354   9.319  1.00  0.00    -0.237 OA
ATOM     79  O   UNL     1      -4.642  10.154   7.063  1.00  0.00    -0.744 OA
ENDBRANCH  75  76
ENDBRANCH  54  68
BRANCH  55  80
ATOM     80  C   UNL     1      -5.039  -4.455   2.977  1.00  0.00     0.058 A 
ATOM     81  C   UNL     1      -5.890  -4.777   1.881  1.00  0.00     0.135 A 
ATOM     82  C   UNL     1      -3.673  -4.620   2.714  1.00  0.00     0.135 A 
ATOM     83  F   UNL     1      -7.223  -4.714   2.048  1.00  0.00    -0.206 F 
ATOM     84  C   UNL     1      -5.426  -5.136   0.595  1.00  0.00     0.059 A 
ATOM     85  C   UNL     1      -3.182  -5.002   1.438  1.00  0.00     0.059 A 
ATOM     86  F   UNL     1      -2.770  -4.341   3.666  1.00  0.00    -0.206 F 
ATOM     87  C   UNL     1      -4.060  -5.243   0.371  1.00  0.00     0.060 A 
BRANCH  87  88
ATOM     88  S   UNL     1      -3.402  -5.666  -1.298  1.00  0.00     0.124 S 
ATOM     89  O   UNL     1      -3.074  -7.078  -1.126  1.00  0.00    -0.237 OA
ATOM     90  O   UNL     1      -4.513  -5.431  -2.215  1.00  0.00    -0.237 OA
ATOM     91  O   UNL     1      -2.236  -4.794  -1.447  1.00  0.00    -0.744 OA
ENDBRANCH  87  88
ENDBRANCH  55  80
BRANCH  67  92
ATOM     92  C   UNL     1      -3.830  -1.202   9.483  1.00  0.00     0.058 A 
ATOM     93  C   UNL     1      -3.009  -2.250   9.921  1.00  0.00     0.135 A 
ATOM     94  C   UNL     1      -3.915  -0.083  10.350  1.00  0.00     0.135 A 
ATOM     95  F   UNL     1      -2.685  -3.281   9.128  1.00  0.00    -0.206 F 
ATOM     96  C   UNL     1      -2.456  -2.265  11.191  1.00  0.00     0.059 A 
ATOM     97  C   UNL     1      -3.260  -0.023  11.565  1.00  0.00     0.059 A 
ATOM     98  F   UNL     1      -4.630   1.012  10.051  1.00  0.00    -0.206 F 
ATOM     99  C   UNL     1      -2.594  -1.149  12.006  1.00  0.00     0.060 A 
BRANCH  99 100
ATOM    100  S   UNL     1      -1.914  -1.198  13.659  1.00  0.00     0.124 S 
ATOM    101  O   UNL     1      -2.880  -2.061  14.333  1.00  0.00    -0.237 OA
ATOM    102  O   UNL     1      -0.594  -1.777  13.434  1.00  0.00    -0.237 OA
ATOM    103  O   UNL     1      -1.921   0.201  14.073  1.00  0.00    -0.744 OA
ENDBRANCH  99 100
ENDBRANCH  67  92
ENDBRANCH  41  42
ENDBRANCH  34  36
ENDBRANCH  33  34
ENDBRANCH  32  33
ENDBRANCH   1  32
TORSDOF 18
