REMARK SMILES CC(C)c1nc(C(=O)OCCOC(=O)c2ccc(-c3c4nc(c(-c5c(F)cc(S(=O)(=O)[O-])cc5F)c5ccc([nH]5)c(-c5c(F)cc(S(=O)(=O)[O-])cc5F)c5nc(c(-c6c(F)cc(S(=O)(=O)[O-])cc6F)c6ccc3[nH]6)C=C5)C=C4)cc2)nn1-c1ccccc1F
REMARK SMILES IDX 11 1 10 2 9 3 7 4 8 5 6 6 4 7 5 8 82 9 81 10 2 11 1 12 3 13
REMARK SMILES IDX 83 14 84 15 88 16 85 17 87 18 89 19 86 20 12 21 13 22 14 23
REMARK SMILES IDX 15 24 16 25 80 26 17 27 79 28 18 29 19 30 20 31 73 32 21 33
REMARK SMILES IDX 78 34 72 35 74 36 22 37 77 38 71 39 70 40 23 42 57 43 36 44
REMARK SMILES IDX 56 45 37 46 40 47 55 48 75 49 38 50 39 51 54 53 76 54 41 55
REMARK SMILES IDX 24 56 25 57 34 58 26 59 27 60 33 61 35 62 28 63 29 64 30 65
REMARK SMILES IDX 31 66 32 67 58 68 59 69 68 70 60 71 61 72 67 73 69 74 62 75
REMARK SMILES IDX 63 76 64 77 65 78 66 79 42 80 43 81 52 82 44 83 45 84 51 85
REMARK SMILES IDX 53 86 46 87 47 88 48 89 49 90 50 91
REMARK H PARENT 74 41 40 52
REMARK Flexibility Score: inf
ROOT
ATOM      1  C   UNL     1      -7.518  -0.622   0.507  1.00  0.00     0.275 C 
ENDROOT
BRANCH   1   2
ATOM      2  C   UNL     1      -7.163  -0.084   1.884  1.00  0.00     0.275 C 
BRANCH   2   3
ATOM      3  O   UNL     1      -5.851   0.493   1.897  1.00  0.00    -0.456 OA
BRANCH   3   4
ATOM      4  C   UNL     1      -4.794  -0.347   2.149  1.00  0.00     0.378 C 
ATOM      5  O   UNL     1      -4.920  -1.512   2.528  1.00  0.00    -0.242 OA
BRANCH   4   6
ATOM      6  C   UNL     1      -3.500   0.308   1.889  1.00  0.00     0.260 A 
ATOM      7  C   UNL     1      -1.424   0.606   1.442  1.00  0.00     0.136 A 
ATOM      8  N   UNL     1      -2.308  -0.353   1.677  1.00  0.00    -0.205 NA
ATOM      9  N   UNL     1      -2.091   1.825   1.480  1.00  0.00    -0.214 N 
ATOM     10  N   UNL     1      -3.362   1.641   1.897  1.00  0.00    -0.138 NA
BRANCH   7  11
ATOM     11  C   UNL     1       0.062   0.341   1.396  1.00  0.00     0.051 C 
ATOM     12  C   UNL     1       0.537  -0.104   0.016  1.00  0.00     0.016 C 
ATOM     13  C   UNL     1       0.955   1.431   1.981  1.00  0.00     0.016 C 
ENDBRANCH   7  11
BRANCH   9  14
ATOM     14  C   UNL     1      -1.640   3.150   1.349  1.00  0.00     0.102 A 
ATOM     15  C   UNL     1      -2.036   4.083   2.321  1.00  0.00     0.031 A 
ATOM     16  C   UNL     1      -0.863   3.559   0.275  1.00  0.00     0.148 A 
ATOM     17  C   UNL     1      -1.583   5.398   2.249  1.00  0.00     0.002 A 
ATOM     18  C   UNL     1      -0.429   4.880   0.188  1.00  0.00     0.041 A 
ATOM     19  F   UNL     1      -0.552   2.718  -0.717  1.00  0.00    -0.205 F 
ATOM     20  C   UNL     1      -0.775   5.796   1.185  1.00  0.00     0.003 A 
ENDBRANCH   9  14
ENDBRANCH   4   6
ENDBRANCH   3   4
ENDBRANCH   2   3
ENDBRANCH   1   2
BRANCH   1  21
ATOM     21  O   UNL     1      -6.868  -1.866   0.263  1.00  0.00    -0.458 OA
BRANCH  21  22
ATOM     22  C   UNL     1      -5.710  -1.791  -0.432  1.00  0.00     0.338 C 
ATOM     23  O   UNL     1      -5.027  -0.797  -0.610  1.00  0.00    -0.246 OA
BRANCH  22  24
ATOM     24  C   UNL     1      -5.508  -3.063  -1.136  1.00  0.00     0.060 A 
ATOM     25  C   UNL     1      -4.346  -3.204  -1.898  1.00  0.00     0.016 A 
ATOM     26  C   UNL     1      -6.571  -3.974  -1.237  1.00  0.00     0.016 A 
ATOM     27  C   UNL     1      -4.319  -4.172  -2.881  1.00  0.00     0.010 A 
ATOM     28  C   UNL     1      -6.546  -4.932  -2.223  1.00  0.00     0.010 A 
ATOM     29  C   UNL     1      -5.452  -4.972  -3.079  1.00  0.00    -0.014 A 
BRANCH  29  30
ATOM     30  C   UNL     1      -5.426  -5.944  -4.151  1.00  0.00     0.031 A 
ATOM     31  C   UNL     1      -4.482  -7.058  -3.897  1.00  0.00     0.074 A 
ATOM     32  C   UNL     1      -6.265  -5.896  -5.203  1.00  0.00     0.049 A 
ATOM     33  N   UNL     1      -3.374  -7.308  -4.509  1.00  0.00    -0.248 NA
ATOM     34  C   UNL     1      -4.706  -7.883  -2.699  1.00  0.00     0.031 C 
ATOM     35  C   UNL     1      -7.425  -5.025  -5.414  1.00  0.00     0.029 A 
ATOM     36  N   UNL     1      -6.297  -6.706  -6.292  1.00  0.00    -0.354 N 
ATOM     37  C   UNL     1      -2.869  -8.460  -3.915  1.00  0.00     0.074 A 
ATOM     38  C   UNL     1      -3.616  -8.651  -2.701  1.00  0.00     0.031 C 
ATOM     39  C   UNL     1      -8.168  -5.512  -6.436  1.00  0.00     0.029 A 
ATOM     40  C   UNL     1      -7.466  -6.633  -7.037  1.00  0.00     0.049 A 
ATOM     41  H   UNL     1      -5.549  -7.299  -6.534  1.00  0.00     0.167 HD
ATOM     42  C   UNL     1      -2.040  -9.297  -4.596  1.00  0.00     0.037 A 
ATOM     43  C   UNL     1      -7.837  -7.488  -8.026  1.00  0.00     0.037 A 
ATOM     44  C   UNL     1      -1.471  -8.643  -5.746  1.00  0.00     0.049 A 
ATOM     45  C   UNL     1      -6.595  -8.164  -8.496  1.00  0.00     0.074 A 
ATOM     46  C   UNL     1      -0.670  -7.531  -5.926  1.00  0.00     0.029 A 
ATOM     47  N   UNL     1      -2.035  -8.903  -6.973  1.00  0.00    -0.354 N 
ATOM     48  N   UNL     1      -5.615  -7.544  -9.101  1.00  0.00    -0.248 NA
ATOM     49  C   UNL     1      -6.235  -9.426  -7.864  1.00  0.00     0.031 C 
ATOM     50  C   UNL     1      -1.173  -6.902  -7.101  1.00  0.00     0.029 A 
ATOM     51  C   UNL     1      -2.200  -7.700  -7.610  1.00  0.00     0.049 A 
ATOM     52  H   UNL     1      -2.275  -9.789  -7.328  1.00  0.00     0.167 HD
ATOM     53  C   UNL     1      -4.458  -8.106  -8.577  1.00  0.00     0.074 A 
ATOM     54  C   UNL     1      -4.905  -9.306  -7.871  1.00  0.00     0.031 C 
ATOM     55  C   UNL     1      -3.287  -7.407  -8.520  1.00  0.00     0.037 A 
BRANCH  42  56
ATOM     56  C   UNL     1      -2.044 -10.796  -4.438  1.00  0.00     0.058 A 
ATOM     57  C   UNL     1      -1.048 -11.558  -5.080  1.00  0.00     0.135 A 
ATOM     58  C   UNL     1      -3.139 -11.530  -3.928  1.00  0.00     0.135 A 
ATOM     59  F   UNL     1       0.035 -10.964  -5.607  1.00  0.00    -0.206 F 
ATOM     60  C   UNL     1      -1.170 -12.934  -5.273  1.00  0.00     0.059 A 
ATOM     61  C   UNL     1      -3.254 -12.907  -4.061  1.00  0.00     0.059 A 
ATOM     62  F   UNL     1      -4.202 -10.941  -3.368  1.00  0.00    -0.206 F 
ATOM     63  C   UNL     1      -2.288 -13.595  -4.773  1.00  0.00     0.060 A 
BRANCH  63  64
ATOM     64  S   UNL     1      -2.507 -15.348  -5.118  1.00  0.00     0.124 S 
ATOM     65  O   UNL     1      -2.755 -15.332  -6.555  1.00  0.00    -0.237 OA
ATOM     66  O   UNL     1      -1.224 -15.901  -4.695  1.00  0.00    -0.237 OA
ATOM     67  O   UNL     1      -3.647 -15.715  -4.283  1.00  0.00    -0.744 OA
ENDBRANCH  63  64
ENDBRANCH  42  56
BRANCH  43  68
ATOM     68  C   UNL     1      -9.196  -8.043  -8.282  1.00  0.00     0.058 A 
ATOM     69  C   UNL     1      -9.490  -8.745  -9.465  1.00  0.00     0.135 A 
ATOM     70  C   UNL     1     -10.152  -8.146  -7.250  1.00  0.00     0.135 A 
ATOM     71  F   UNL     1      -8.627  -8.726 -10.492  1.00  0.00    -0.206 F 
ATOM     72  C   UNL     1     -10.639  -9.537  -9.601  1.00  0.00     0.059 A 
ATOM     73  C   UNL     1     -11.306  -8.921  -7.365  1.00  0.00     0.059 A 
ATOM     74  F   UNL     1      -9.948  -7.566  -6.058  1.00  0.00    -0.206 F 
ATOM     75  C   UNL     1     -11.533  -9.634  -8.535  1.00  0.00     0.060 A 
BRANCH  75  76
ATOM     76  S   UNL     1     -12.928 -10.783  -8.639  1.00  0.00     0.124 S 
ATOM     77  O   UNL     1     -13.778 -10.136  -9.633  1.00  0.00    -0.237 OA
ATOM     78  O   UNL     1     -12.281 -12.020  -9.062  1.00  0.00    -0.237 OA
ATOM     79  O   UNL     1     -13.460 -10.795  -7.279  1.00  0.00    -0.744 OA
ENDBRANCH  75  76
ENDBRANCH  43  68
BRANCH  55  80
ATOM     80  C   UNL     1      -3.175  -6.113  -9.285  1.00  0.00     0.058 A 
ATOM     81  C   UNL     1      -3.888  -4.940  -8.978  1.00  0.00     0.135 A 
ATOM     82  C   UNL     1      -2.146  -6.008 -10.232  1.00  0.00     0.135 A 
ATOM     83  F   UNL     1      -4.827  -4.934  -8.021  1.00  0.00    -0.206 F 
ATOM     84  C   UNL     1      -3.594  -3.720  -9.595  1.00  0.00     0.059 A 
ATOM     85  C   UNL     1      -1.817  -4.799 -10.837  1.00  0.00     0.059 A 
ATOM     86  F   UNL     1      -1.393  -7.081 -10.527  1.00  0.00    -0.206 F 
ATOM     87  C   UNL     1      -2.548  -3.658 -10.516  1.00  0.00     0.060 A 
BRANCH  87  88
ATOM     88  S   UNL     1      -2.086  -2.062 -11.227  1.00  0.00     0.124 S 
ATOM     89  O   UNL     1      -3.197  -1.796 -12.134  1.00  0.00    -0.237 OA
ATOM     90  O   UNL     1      -2.006  -1.200 -10.052  1.00  0.00    -0.237 OA
ATOM     91  O   UNL     1      -0.805  -2.335 -11.876  1.00  0.00    -0.744 OA
ENDBRANCH  87  88
ENDBRANCH  55  80
ENDBRANCH  29  30
ENDBRANCH  22  24
ENDBRANCH  21  22
ENDBRANCH   1  21
TORSDOF 16
