REMARK SMILES O=C1[NH+]=C(Nc2ccc(C(=O)OCCOC(=O)c3ccc(-c4c5nc(c(-c6c(F)cc(S(=O)(=O)[O-])cc6F)c6ccc([nH]6)c(-c6c(F)cc(S(=O)(=O)[O-])cc6F)c6nc(c(-c7c(F)cc(S(=O)(=O)[O-])cc7F)c7ccc4[nH]7)C=C6)C=C5)cc3)c(O)c2)S/C1=C\c1ccc[nH]1
REMARK SMILES IDX 14 1 13 2 12 3 10 4 11 5 9 6 6 7 7 8 86 9 8 10 84 11 5 12
REMARK SMILES IDX 1 13 2 14 3 15 88 16 4 17 87 19 89 20 90 22 91 23 94 24
REMARK SMILES IDX 92 25 93 26 85 28 15 30 16 31 17 32 18 33 19 34 83 35 20 36
REMARK SMILES IDX 82 37 21 38 22 39 23 40 76 41 24 42 81 43 75 44 77 45 25 46
REMARK SMILES IDX 80 47 74 48 73 49 26 51 60 52 39 53 59 54 40 55 43 56 58 57
REMARK SMILES IDX 78 58 41 59 42 60 57 62 79 63 44 64 27 65 28 66 37 67 29 68
REMARK SMILES IDX 30 69 36 70 38 71 31 72 32 73 33 74 34 75 35 76 61 77 62 78
REMARK SMILES IDX 71 79 63 80 64 81 70 82 72 83 65 84 66 85 67 86 68 87 69 88
REMARK SMILES IDX 45 89 46 90 55 91 47 92 48 93 54 94 56 95 49 96 50 97 51 98
REMARK SMILES IDX 52 99 53 100
REMARK H PARENT 3 18 5 21 94 27 85 29 77 50 43 61
REMARK Flexibility Score: inf
ROOT
ATOM      1  C   UNL     1      -2.807   9.667  -0.794  1.00  0.00     0.275 C 
ENDROOT
BRANCH   1   2
ATOM      2  C   UNL     1      -1.280   9.780  -0.763  1.00  0.00     0.275 C 
BRANCH   2   3
ATOM      3  O   UNL     1      -0.630   8.496  -0.901  1.00  0.00    -0.458 OA
BRANCH   3   4
ATOM      4  C   UNL     1      -0.118   7.963   0.242  1.00  0.00     0.342 C 
ATOM      5  O   UNL     1      -0.141   8.482   1.346  1.00  0.00    -0.246 OA
BRANCH   4   6
ATOM      6  C   UNL     1       0.402   6.590   0.003  1.00  0.00     0.102 A 
ATOM      7  C   UNL     1       1.208   3.905  -0.319  1.00  0.00     0.129 A 
ATOM      8  C   UNL     1       0.706   4.351   0.904  1.00  0.00     0.053 A 
ATOM      9  C   UNL     1       1.368   4.829  -1.358  1.00  0.00     0.098 A 
ATOM     10  C   UNL     1       0.359   5.690   1.078  1.00  0.00     0.024 A 
ATOM     11  C   UNL     1       0.928   6.150  -1.214  1.00  0.00     0.134 A 
BRANCH   7  12
ATOM     12  N   UNL     1       1.608   2.576  -0.483  1.00  0.00    -0.234 N 
ATOM     13  O   UNL     1      -2.167  -0.125  -0.113  1.00  0.00    -0.240 OA
ATOM     14  C   UNL     1      -0.983   0.171  -0.106  1.00  0.00     0.346 C 
ATOM     15  N   UNL     1      -0.486   1.450  -0.222  1.00  0.00    -0.199 N 
ATOM     16  C   UNL     1       0.112  -0.842  -0.031  1.00  0.00     0.111 C 
ATOM     17  C   UNL     1       0.801   1.492  -0.292  1.00  0.00     0.322 C 
ATOM     18  H   UNL     1      -1.056   2.253  -0.249  1.00  0.00     0.316 HD
ATOM     19  S   UNL     1       1.631  -0.044  -0.168  1.00  0.00     0.006 SA
ATOM     20  C   UNL     1      -0.138  -2.155   0.069  1.00  0.00     0.050 C 
ATOM     21  H   UNL     1       2.539   2.409  -0.756  1.00  0.00     0.313 HD
BRANCH  20  22
ATOM     22  C   UNL     1       0.887  -3.126   0.157  1.00  0.00     0.039 A 
ATOM     23  C   UNL     1       1.901  -3.365   1.063  1.00  0.00     0.027 A 
ATOM     24  N   UNL     1       0.961  -4.096  -0.813  1.00  0.00    -0.362 N 
ATOM     25  C   UNL     1       2.633  -4.485   0.601  1.00  0.00     0.020 A 
ATOM     26  C   UNL     1       2.041  -4.907  -0.568  1.00  0.00     0.083 A 
ATOM     27  H   UNL     1       0.337  -4.194  -1.567  1.00  0.00     0.166 HD
ENDBRANCH  20  22
ENDBRANCH   7  12
BRANCH  11  28
ATOM     28  O   UNL     1       1.061   6.953  -2.314  1.00  0.00    -0.507 OA
ATOM     29  H   UNL     1       0.783   7.847  -2.277  1.00  0.00     0.293 HD
ENDBRANCH  11  28
ENDBRANCH   4   6
ENDBRANCH   3   4
ENDBRANCH   2   3
ENDBRANCH   1   2
BRANCH   1  30
ATOM     30  O   UNL     1      -3.313   9.036   0.398  1.00  0.00    -0.458 OA
BRANCH  30  31
ATOM     31  C   UNL     1      -3.659   7.738   0.241  1.00  0.00     0.338 C 
ATOM     32  O   UNL     1      -3.603   7.086  -0.789  1.00  0.00    -0.246 OA
BRANCH  31  33
ATOM     33  C   UNL     1      -3.984   7.121   1.536  1.00  0.00     0.060 A 
ATOM     34  C   UNL     1      -2.946   6.466   2.184  1.00  0.00     0.016 A 
ATOM     35  C   UNL     1      -5.291   6.968   1.988  1.00  0.00     0.016 A 
ATOM     36  C   UNL     1      -3.204   5.552   3.197  1.00  0.00     0.010 A 
ATOM     37  C   UNL     1      -5.543   6.117   3.078  1.00  0.00     0.010 A 
ATOM     38  C   UNL     1      -4.511   5.348   3.655  1.00  0.00    -0.014 A 
BRANCH  38  39
ATOM     39  C   UNL     1      -4.784   4.261   4.647  1.00  0.00     0.031 A 
ATOM     40  C   UNL     1      -5.741   3.142   4.303  1.00  0.00     0.074 A 
ATOM     41  C   UNL     1      -4.131   4.226   5.829  1.00  0.00     0.049 A 
ATOM     42  N   UNL     1      -6.197   2.176   5.062  1.00  0.00    -0.248 NA
ATOM     43  C   UNL     1      -6.271   3.115   2.930  1.00  0.00     0.031 C 
ATOM     44  C   UNL     1      -3.144   5.209   6.285  1.00  0.00     0.029 A 
ATOM     45  N   UNL     1      -4.186   3.318   6.861  1.00  0.00    -0.354 N 
ATOM     46  C   UNL     1      -7.104   1.467   4.279  1.00  0.00     0.074 A 
ATOM     47  C   UNL     1      -7.149   2.125   2.991  1.00  0.00     0.031 C 
ATOM     48  C   UNL     1      -2.662   4.832   7.479  1.00  0.00     0.029 A 
ATOM     49  C   UNL     1      -3.362   3.630   7.919  1.00  0.00     0.049 A 
ATOM     50  H   UNL     1      -4.761   2.519   6.845  1.00  0.00     0.167 HD
ATOM     51  C   UNL     1      -7.827   0.365   4.598  1.00  0.00     0.037 A 
ATOM     52  C   UNL     1      -3.209   3.045   9.123  1.00  0.00     0.037 A 
ATOM     53  C   UNL     1      -7.723  -0.335   5.854  1.00  0.00     0.049 A 
ATOM     54  C   UNL     1      -4.028   1.826   9.456  1.00  0.00     0.074 A 
ATOM     55  C   UNL     1      -8.394  -1.477   6.260  1.00  0.00     0.029 A 
ATOM     56  N   UNL     1      -6.883   0.023   6.897  1.00  0.00    -0.354 N 
ATOM     57  N   UNL     1      -4.913   1.199   8.718  1.00  0.00    -0.248 NA
ATOM     58  C   UNL     1      -3.829   1.237  10.787  1.00  0.00     0.031 C 
ATOM     59  C   UNL     1      -7.994  -1.782   7.565  1.00  0.00     0.029 A 
ATOM     60  C   UNL     1      -7.028  -0.867   7.951  1.00  0.00     0.049 A 
ATOM     61  H   UNL     1      -6.273   0.796   6.891  1.00  0.00     0.167 HD
ATOM     62  C   UNL     1      -5.356   0.127   9.486  1.00  0.00     0.074 A 
ATOM     63  C   UNL     1      -4.625   0.179  10.735  1.00  0.00     0.031 C 
ATOM     64  C   UNL     1      -6.287  -0.813   9.186  1.00  0.00     0.037 A 
BRANCH  51  65
ATOM     65  C   UNL     1      -8.822  -0.147   3.587  1.00  0.00     0.058 A 
ATOM     66  C   UNL     1      -8.429  -0.780   2.398  1.00  0.00     0.135 A 
ATOM     67  C   UNL     1     -10.200  -0.048   3.846  1.00  0.00     0.135 A 
ATOM     68  F   UNL     1      -7.127  -0.892   2.090  1.00  0.00    -0.206 F 
ATOM     69  C   UNL     1      -9.364  -1.277   1.493  1.00  0.00     0.059 A 
ATOM     70  C   UNL     1     -11.151  -0.566   2.971  1.00  0.00     0.059 A 
ATOM     71  F   UNL     1     -10.636   0.546   4.968  1.00  0.00    -0.206 F 
ATOM     72  C   UNL     1     -10.723  -1.169   1.790  1.00  0.00     0.060 A 
BRANCH  72  73
ATOM     73  S   UNL     1     -11.924  -1.843   0.622  1.00  0.00     0.124 S 
ATOM     74  O   UNL     1     -11.836  -0.884  -0.475  1.00  0.00    -0.237 OA
ATOM     75  O   UNL     1     -11.382  -3.171   0.348  1.00  0.00    -0.237 OA
ATOM     76  O   UNL     1     -13.177  -1.824   1.370  1.00  0.00    -0.744 OA
ENDBRANCH  72  73
ENDBRANCH  51  65
BRANCH  52  77
ATOM     77  C   UNL     1      -2.271   3.625  10.126  1.00  0.00     0.058 A 
ATOM     78  C   UNL     1      -1.122   2.933  10.539  1.00  0.00     0.135 A 
ATOM     79  C   UNL     1      -2.518   4.880  10.706  1.00  0.00     0.135 A 
ATOM     80  F   UNL     1      -0.845   1.725  10.024  1.00  0.00    -0.206 F 
ATOM     81  C   UNL     1      -0.267   3.451  11.507  1.00  0.00     0.059 A 
ATOM     82  C   UNL     1      -1.658   5.434  11.649  1.00  0.00     0.059 A 
ATOM     83  F   UNL     1      -3.595   5.591  10.340  1.00  0.00    -0.206 F 
ATOM     84  C   UNL     1      -0.544   4.704  12.056  1.00  0.00     0.060 A 
BRANCH  84  85
ATOM     85  S   UNL     1       0.588   5.383  13.289  1.00  0.00     0.124 S 
ATOM     86  O   UNL     1       0.276   4.565  14.455  1.00  0.00    -0.237 OA
ATOM     87  O   UNL     1       1.890   5.148  12.673  1.00  0.00    -0.237 OA
ATOM     88  O   UNL     1       0.188   6.784  13.375  1.00  0.00    -0.744 OA
ENDBRANCH  84  85
ENDBRANCH  52  77
BRANCH  64  89
ATOM     89  C   UNL     1      -6.521  -1.897  10.204  1.00  0.00     0.058 A 
ATOM     90  C   UNL     1      -7.145  -1.642  11.435  1.00  0.00     0.135 A 
ATOM     91  C   UNL     1      -6.114  -3.215   9.939  1.00  0.00     0.135 A 
ATOM     92  F   UNL     1      -7.553  -0.400  11.742  1.00  0.00    -0.206 F 
ATOM     93  C   UNL     1      -7.308  -2.642  12.389  1.00  0.00     0.059 A 
ATOM     94  C   UNL     1      -6.298  -4.238  10.864  1.00  0.00     0.059 A 
ATOM     95  F   UNL     1      -5.527  -3.521   8.771  1.00  0.00    -0.206 F 
ATOM     96  C   UNL     1      -6.875  -3.936  12.096  1.00  0.00     0.060 A 
BRANCH  96  97
ATOM     97  S   UNL     1      -7.073  -5.222  13.348  1.00  0.00     0.124 S 
ATOM     98  O   UNL     1      -6.024  -4.870  14.299  1.00  0.00    -0.237 OA
ATOM     99  O   UNL     1      -8.442  -5.006  13.805  1.00  0.00    -0.237 OA
ATOM    100  O   UNL     1      -6.855  -6.458  12.602  1.00  0.00    -0.744 OA
ENDBRANCH  96  97
ENDBRANCH  64  89
ENDBRANCH  38  39
ENDBRANCH  31  33
ENDBRANCH  30  31
ENDBRANCH   1  30
TORSDOF 17
