REMARK SMILES CC(C)C[C@H](NC(=O)CNC(=O)[C@@H](NC(=O)OCc1ccccc1)C(C)C)C(=O)OCCOC(=O)c1ccc(-c2c3nc(c(-c4c(F)cc(S(=O)(=O)[O-])cc4F)c4ccc([nH]4)c(-c4c(F)cc(S(=O)(=O)[O-])cc4F)c4nc(c(-c5c(F)cc(S(=O)(=O)[O-])cc5F)c5ccc2[nH]5)C=C4)C=C3)cc1
REMARK SMILES IDX 28 1 29 2 5 3 4 4 2 5 1 6 3 7 6 8 7 9 8 11 9 12 10 13 11 14
REMARK SMILES IDX 12 16 13 17 14 18 15 19 16 21 17 22 18 23 19 24 20 25 24 26
REMARK SMILES IDX 21 27 23 28 22 29 25 30 26 31 27 32 30 33 31 34 32 35 33 36
REMARK SMILES IDX 34 37 35 38 36 39 37 40 101 41 38 42 100 43 39 44 40 45
REMARK SMILES IDX 41 46 94 47 42 48 99 49 93 50 95 51 43 52 98 53 92 54 91 55
REMARK SMILES IDX 44 57 78 58 57 59 77 60 58 61 61 62 76 63 96 64 59 65 60 66
REMARK SMILES IDX 75 68 97 69 62 70 45 71 46 72 55 73 47 74 48 75 54 76 56 77
REMARK SMILES IDX 49 78 50 79 51 80 52 81 53 82 79 83 80 84 89 85 81 86 82 87
REMARK SMILES IDX 88 88 90 89 83 90 84 91 85 92 86 93 87 94 63 95 64 96 73 97
REMARK SMILES IDX 65 98 66 99 72 100 74 101 67 102 68 103 69 104 70 105 71 106
REMARK H PARENT 6 10 10 15 14 20 95 56 61 67
REMARK Flexibility Score: inf
ROOT
ATOM      1  C   UNL     1      -3.720   1.730  -0.255  1.00  0.00     0.328 C 
ATOM      2  O   UNL     1      -4.129   1.753   0.898  1.00  0.00    -0.250 OA
ENDROOT
BRANCH   1   3
ATOM      3  C   UNL     1      -2.270   1.997  -0.653  1.00  0.00     0.192 C 
BRANCH   3   4
ATOM      4  C   UNL     1      -1.934   3.460  -0.356  1.00  0.00     0.040 C 
BRANCH   4   5
ATOM      5  C   UNL     1      -2.940   4.623  -0.484  1.00  0.00    -0.015 C 
ATOM      6  C   UNL     1      -3.920   4.727   0.689  1.00  0.00     0.007 C 
ATOM      7  C   UNL     1      -2.142   5.940  -0.504  1.00  0.00     0.007 C 
ENDBRANCH   4   5
ENDBRANCH   3   4
BRANCH   3   8
ATOM      8  N   UNL     1      -2.023   1.478  -2.026  1.00  0.00    -0.341 N 
ATOM      9  C   UNL     1      -0.872   0.979  -2.565  1.00  0.00     0.240 C 
ATOM     10  H   UNL     1      -2.800   1.497  -2.631  1.00  0.00     0.164 HD
ATOM     11  O   UNL     1      -0.855  -0.218  -2.873  1.00  0.00    -0.273 OA
BRANCH   9  12
ATOM     12  C   UNL     1       0.372   1.826  -2.825  1.00  0.00     0.216 C 
BRANCH  12  13
ATOM     13  N   UNL     1       0.166   3.238  -3.045  1.00  0.00    -0.345 N 
ATOM     14  C   UNL     1       0.637   4.358  -2.450  1.00  0.00     0.243 C 
ATOM     15  H   UNL     1      -0.452   3.426  -3.788  1.00  0.00     0.164 HD
ATOM     16  O   UNL     1       0.409   5.397  -3.083  1.00  0.00    -0.273 OA
BRANCH  14  17
ATOM     17  C   UNL     1       1.327   4.417  -1.038  1.00  0.00     0.177 C 
BRANCH  17  18
ATOM     18  N   UNL     1       1.219   3.212  -0.215  1.00  0.00    -0.309 N 
ATOM     19  C   UNL     1       1.995   2.116  -0.055  1.00  0.00     0.408 C 
ATOM     20  H   UNL     1       0.407   3.195   0.342  1.00  0.00     0.167 HD
ATOM     21  O   UNL     1       1.530   1.130   0.485  1.00  0.00    -0.225 OA
BRANCH  19  22
ATOM     22  O   UNL     1       3.261   2.278  -0.485  1.00  0.00    -0.445 OA
BRANCH  22  23
ATOM     23  C   UNL     1       4.160   1.256  -0.038  1.00  0.00     0.270 C 
BRANCH  23  24
ATOM     24  C   UNL     1       4.664   1.459   1.380  1.00  0.00    -0.011 A 
ATOM     25  C   UNL     1       3.851   1.930   2.427  1.00  0.00     0.007 A 
ATOM     26  C   UNL     1       5.972   1.067   1.697  1.00  0.00     0.007 A 
ATOM     27  C   UNL     1       4.325   2.021   3.735  1.00  0.00     0.000 A 
ATOM     28  C   UNL     1       6.448   1.156   3.008  1.00  0.00     0.000 A 
ATOM     29  C   UNL     1       5.625   1.632   4.026  1.00  0.00     0.000 A 
ENDBRANCH  23  24
ENDBRANCH  22  23
ENDBRANCH  19  22
ENDBRANCH  17  18
BRANCH  17  30
ATOM     30  C   UNL     1       2.697   5.134  -1.039  1.00  0.00     0.015 C 
ATOM     31  C   UNL     1       2.609   6.544  -1.647  1.00  0.00     0.010 C 
ATOM     32  C   UNL     1       3.247   5.307   0.385  1.00  0.00     0.010 C 
ENDBRANCH  17  30
ENDBRANCH  14  17
ENDBRANCH  12  13
ENDBRANCH   9  12
ENDBRANCH   3   8
ENDBRANCH   1   3
BRANCH   1  33
ATOM     33  O   UNL     1      -4.495   1.534  -1.361  1.00  0.00    -0.461 OA
BRANCH  33  34
ATOM     34  C   UNL     1      -5.872   1.226  -1.119  1.00  0.00     0.274 C 
BRANCH  34  35
ATOM     35  C   UNL     1      -6.090  -0.283  -0.963  1.00  0.00     0.275 C 
BRANCH  35  36
ATOM     36  O   UNL     1      -5.532  -0.810   0.259  1.00  0.00    -0.458 OA
BRANCH  36  37
ATOM     37  C   UNL     1      -4.227  -1.178   0.183  1.00  0.00     0.338 C 
ATOM     38  O   UNL     1      -3.525  -1.114  -0.815  1.00  0.00    -0.246 OA
BRANCH  37  39
ATOM     39  C   UNL     1      -3.680  -1.498   1.519  1.00  0.00     0.060 A 
ATOM     40  C   UNL     1      -2.436  -0.955   1.861  1.00  0.00     0.016 A 
ATOM     41  C   UNL     1      -4.322  -2.370   2.399  1.00  0.00     0.016 A 
ATOM     42  C   UNL     1      -1.823  -1.284   3.066  1.00  0.00     0.010 A 
ATOM     43  C   UNL     1      -3.702  -2.706   3.611  1.00  0.00     0.010 A 
ATOM     44  C   UNL     1      -2.440  -2.178   3.945  1.00  0.00    -0.014 A 
BRANCH  44  45
ATOM     45  C   UNL     1      -1.704  -2.616   5.160  1.00  0.00     0.031 A 
ATOM     46  C   UNL     1      -1.153  -4.014   5.231  1.00  0.00     0.074 A 
ATOM     47  C   UNL     1      -1.469  -1.745   6.160  1.00  0.00     0.049 A 
ATOM     48  N   UNL     1      -0.525  -4.608   6.214  1.00  0.00    -0.248 NA
ATOM     49  C   UNL     1      -1.334  -4.857   4.039  1.00  0.00     0.031 C 
ATOM     50  C   UNL     1      -1.909  -0.349   6.184  1.00  0.00     0.029 A 
ATOM     51  N   UNL     1      -0.800  -1.903   7.348  1.00  0.00    -0.354 N 
ATOM     52  C   UNL     1      -0.244  -5.893   5.763  1.00  0.00     0.074 A 
ATOM     53  C   UNL     1      -0.804  -6.006   4.434  1.00  0.00     0.031 C 
ATOM     54  C   UNL     1      -1.498   0.221   7.329  1.00  0.00     0.029 A 
ATOM     55  C   UNL     1      -0.810  -0.779   8.140  1.00  0.00     0.049 A 
ATOM     56  H   UNL     1      -0.355  -2.742   7.609  1.00  0.00     0.167 HD
ATOM     57  C   UNL     1       0.433  -6.883   6.395  1.00  0.00     0.037 A 
ATOM     58  C   UNL     1      -0.346  -0.585   9.391  1.00  0.00     0.037 A 
ATOM     59  C   UNL     1       0.998  -6.758   7.716  1.00  0.00     0.049 A 
ATOM     60  C   UNL     1       0.347  -1.721  10.098  1.00  0.00     0.074 A 
ATOM     61  C   UNL     1       1.688  -7.707   8.451  1.00  0.00     0.029 A 
ATOM     62  N   UNL     1       0.945  -5.612   8.497  1.00  0.00    -0.354 N 
ATOM     63  N   UNL     1       0.587  -2.938   9.668  1.00  0.00    -0.248 NA
ATOM     64  C   UNL     1       0.837  -1.458  11.457  1.00  0.00     0.031 C 
ATOM     65  C   UNL     1       2.012  -7.149   9.693  1.00  0.00     0.029 A 
ATOM     66  C   UNL     1       1.577  -5.834   9.710  1.00  0.00     0.049 A 
ATOM     67  H   UNL     1       0.521  -4.765   8.228  1.00  0.00     0.167 HD
ATOM     68  C   UNL     1       1.275  -3.577  10.694  1.00  0.00     0.074 A 
ATOM     69  C   UNL     1       1.434  -2.603  11.755  1.00  0.00     0.031 C 
ATOM     70  C   UNL     1       1.730  -4.853  10.757  1.00  0.00     0.037 A 
BRANCH  57  71
ATOM     71  C   UNL     1       0.587  -8.196   5.673  1.00  0.00     0.058 A 
ATOM     72  C   UNL     1       1.425  -8.332   4.555  1.00  0.00     0.135 A 
ATOM     73  C   UNL     1      -0.082  -9.344   6.130  1.00  0.00     0.135 A 
ATOM     74  F   UNL     1       2.075  -7.265   4.063  1.00  0.00    -0.206 F 
ATOM     75  C   UNL     1       1.577  -9.551   3.902  1.00  0.00     0.059 A 
ATOM     76  C   UNL     1       0.078 -10.580   5.510  1.00  0.00     0.059 A 
ATOM     77  F   UNL     1      -0.898  -9.273   7.193  1.00  0.00    -0.206 F 
ATOM     78  C   UNL     1       0.901 -10.671   4.389  1.00  0.00     0.060 A 
BRANCH  78  79
ATOM     79  S   UNL     1       1.121 -12.249   3.539  1.00  0.00     0.124 S 
ATOM     80  O   UNL     1       0.396 -12.014   2.294  1.00  0.00    -0.237 OA
ATOM     81  O   UNL     1       2.573 -12.338   3.419  1.00  0.00    -0.237 OA
ATOM     82  O   UNL     1       0.510 -13.214   4.447  1.00  0.00    -0.744 OA
ENDBRANCH  78  79
ENDBRANCH  57  71
BRANCH  58  83
ATOM     83  C   UNL     1      -0.553   0.723  10.071  1.00  0.00     0.058 A 
ATOM     84  C   UNL     1       0.524   1.559  10.399  1.00  0.00     0.135 A 
ATOM     85  C   UNL     1      -1.843   1.156  10.422  1.00  0.00     0.135 A 
ATOM     86  F   UNL     1       1.778   1.190  10.096  1.00  0.00    -0.206 F 
ATOM     87  C   UNL     1       0.335   2.763  11.072  1.00  0.00     0.059 A 
ATOM     88  C   UNL     1      -2.061   2.370  11.064  1.00  0.00     0.059 A 
ATOM     89  F   UNL     1      -2.912   0.401  10.121  1.00  0.00    -0.206 F 
ATOM     90  C   UNL     1      -0.963   3.160  11.399  1.00  0.00     0.060 A 
BRANCH  90  91
ATOM     91  S   UNL     1      -1.202   4.738  12.244  1.00  0.00     0.124 S 
ATOM     92  O   UNL     1      -0.714   4.431  13.584  1.00  0.00    -0.237 OA
ATOM     93  O   UNL     1      -0.370   5.639  11.452  1.00  0.00    -0.237 OA
ATOM     94  O   UNL     1      -2.640   4.965  12.132  1.00  0.00    -0.744 OA
ENDBRANCH  90  91
ENDBRANCH  58  83
BRANCH  70  95
ATOM     95  C   UNL     1       2.480  -5.256  11.999  1.00  0.00     0.058 A 
ATOM     96  C   UNL     1       1.836  -5.406  13.238  1.00  0.00     0.135 A 
ATOM     97  C   UNL     1       3.860  -5.512  11.945  1.00  0.00     0.135 A 
ATOM     98  F   UNL     1       0.519  -5.171  13.348  1.00  0.00    -0.206 F 
ATOM     99  C   UNL     1       2.541  -5.753  14.387  1.00  0.00     0.059 A 
ATOM    100  C   UNL     1       4.578  -5.893  13.074  1.00  0.00     0.059 A 
ATOM    101  F   UNL     1       4.524  -5.398  10.784  1.00  0.00    -0.206 F 
ATOM    102  C   UNL     1       3.913  -5.991  14.295  1.00  0.00     0.060 A 
BRANCH 102 103
ATOM    103  S   UNL     1       4.816  -6.440  15.793  1.00  0.00     0.124 S 
ATOM    104  O   UNL     1       4.859  -5.166  16.503  1.00  0.00    -0.237 OA
ATOM    105  O   UNL     1       3.957  -7.465  16.380  1.00  0.00    -0.237 OA
ATOM    106  O   UNL     1       6.098  -6.920  15.286  1.00  0.00    -0.744 OA
ENDBRANCH 102 103
ENDBRANCH  70  95
ENDBRANCH  44  45
ENDBRANCH  37  39
ENDBRANCH  36  37
ENDBRANCH  35  36
ENDBRANCH  34  35
ENDBRANCH  33  34
ENDBRANCH   1  33
TORSDOF 25
