REMARK SMILES C[C@@H]1CCCN(c2cc(Br)ccc2/C=C/C(=O)OCCOC(=O)c2ccc(-c3c4nc(c(-c5c(F)cc(S(=O)(=O)[O-])cc5F)c5ccc([nH]5)c(-c5c(F)cc(S(=O)(=O)[O-])cc5F)c5nc(c(-c6c(F)cc(S(=O)(=O)[O-])cc6F)c6ccc3[nH]6)C=C5)C=C4)cc2)C1
REMARK SMILES IDX 20 1 19 2 18 3 16 4 17 5 15 6 14 7 13 8 7 9 8 10 9 11 12 12
REMARK SMILES IDX 10 13 11 14 6 15 1 16 2 17 3 18 90 19 4 20 5 21 21 22 22 23
REMARK SMILES IDX 23 24 24 25 25 26 89 27 26 28 88 29 27 30 28 31 29 32 82 33
REMARK SMILES IDX 30 34 87 35 81 36 83 37 31 38 86 39 80 40 79 41 32 43 66 44
REMARK SMILES IDX 45 45 65 46 46 47 49 48 64 49 84 50 47 51 48 52 63 54 85 55
REMARK SMILES IDX 50 56 33 57 34 58 43 59 35 60 36 61 42 62 44 63 37 64 38 65
REMARK SMILES IDX 39 66 40 67 41 68 67 69 68 70 77 71 69 72 70 73 76 74 78 75
REMARK SMILES IDX 71 76 72 77 73 78 74 79 75 80 51 81 52 82 61 83 53 84 54 85
REMARK SMILES IDX 60 86 62 87 55 88 56 89 57 90 58 91 59 92
REMARK H PARENT 83 42 49 53
REMARK Flexibility Score: inf
ROOT
ATOM      1  C   UNL     1       0.911   5.526   5.309  1.00  0.00     0.275 C 
ENDROOT
BRANCH   1   2
ATOM      2  C   UNL     1      -0.302   5.191   4.436  1.00  0.00     0.275 C 
BRANCH   2   3
ATOM      3  O   UNL     1       0.099   4.679   3.152  1.00  0.00    -0.459 OA
BRANCH   3   4
ATOM      4  C   UNL     1       0.041   5.560   2.126  1.00  0.00     0.330 C 
ATOM      5  O   UNL     1      -0.396   6.701   2.180  1.00  0.00    -0.247 OA
BRANCH   4   6
ATOM      6  C   UNL     1       0.589   5.016   0.869  1.00  0.00     0.094 C 
ATOM      7  C   UNL     1       1.262   3.861   0.745  1.00  0.00     0.018 C 
BRANCH   7   8
ATOM      8  C   UNL     1       1.833   3.407  -0.540  1.00  0.00    -0.002 A 
ATOM      9  C   UNL     1       1.741   2.061  -0.966  1.00  0.00     0.045 A 
ATOM     10  C   UNL     1       2.366   1.702  -2.176  1.00  0.00     0.042 A 
ATOM     11  C   UNL     1       3.066   2.633  -2.940  1.00  0.00     0.020 A 
ATOM     12  C   UNL     1       2.577   4.327  -1.310  1.00  0.00     0.011 A 
ATOM     13  Br  UNL     1       3.859   2.103  -4.572  1.00  0.00    -0.051 Br
ATOM     14  C   UNL     1       3.183   3.946  -2.508  1.00  0.00     0.016 A 
BRANCH   9  15
ATOM     15  N   UNL     1       1.062   1.075  -0.269  1.00  0.00    -0.371 N 
ATOM     16  C   UNL     1      -2.561   0.017   0.093  1.00  0.00     0.009 C 
ATOM     17  C   UNL     1      -1.101  -0.043  -0.346  1.00  0.00     0.005 C 
ATOM     18  C   UNL     1      -0.421  -1.311   0.199  1.00  0.00     0.007 C 
ATOM     19  C   UNL     1      -0.342   1.222   0.093  1.00  0.00     0.119 C 
ATOM     20  C   UNL     1       1.056  -1.357  -0.195  1.00  0.00     0.022 C 
ATOM     21  C   UNL     1       1.785  -0.087   0.234  1.00  0.00     0.116 C 
ENDBRANCH   9  15
ENDBRANCH   7   8
ENDBRANCH   4   6
ENDBRANCH   3   4
ENDBRANCH   2   3
ENDBRANCH   1   2
BRANCH   1  22
ATOM     22  O   UNL     1       1.637   6.663   4.809  1.00  0.00    -0.458 OA
BRANCH  22  23
ATOM     23  C   UNL     1       2.622   6.372   3.925  1.00  0.00     0.338 C 
ATOM     24  O   UNL     1       2.960   5.265   3.540  1.00  0.00    -0.246 OA
BRANCH  23  25
ATOM     25  C   UNL     1       3.197   7.619   3.391  1.00  0.00     0.060 A 
ATOM     26  C   UNL     1       3.272   7.772   2.003  1.00  0.00     0.016 A 
ATOM     27  C   UNL     1       3.728   8.590   4.243  1.00  0.00     0.016 A 
ATOM     28  C   UNL     1       3.895   8.895   1.459  1.00  0.00     0.010 A 
ATOM     29  C   UNL     1       4.352   9.714   3.696  1.00  0.00     0.010 A 
ATOM     30  C   UNL     1       4.455   9.866   2.302  1.00  0.00    -0.014 A 
BRANCH  30  31
ATOM     31  C   UNL     1       5.211  11.009   1.733  1.00  0.00     0.031 A 
ATOM     32  C   UNL     1       6.713  11.013   1.802  1.00  0.00     0.074 A 
ATOM     33  C   UNL     1       4.556  12.039   1.168  1.00  0.00     0.049 A 
ATOM     34  N   UNL     1       7.555  11.952   1.458  1.00  0.00    -0.248 NA
ATOM     35  C   UNL     1       7.349   9.798   2.336  1.00  0.00     0.031 C 
ATOM     36  C   UNL     1       3.104  12.132   1.012  1.00  0.00     0.029 A 
ATOM     37  N   UNL     1       5.027  13.211   0.631  1.00  0.00    -0.354 N 
ATOM     38  C   UNL     1       8.819  11.452   1.745  1.00  0.00     0.074 A 
ATOM     39  C   UNL     1       8.632  10.133   2.311  1.00  0.00     0.031 C 
ATOM     40  C   UNL     1       2.802  13.303   0.427  1.00  0.00     0.029 A 
ATOM     41  C   UNL     1       4.033  14.059   0.203  1.00  0.00     0.049 A 
ATOM     42  H   UNL     1       5.985  13.424   0.559  1.00  0.00     0.167 HD
ATOM     43  C   UNL     1      10.025  12.038   1.550  1.00  0.00     0.037 A 
ATOM     44  C   UNL     1       4.106  15.312  -0.287  1.00  0.00     0.037 A 
ATOM     45  C   UNL     1      10.204  13.349   0.981  1.00  0.00     0.049 A 
ATOM     46  C   UNL     1       5.454  15.964  -0.446  1.00  0.00     0.074 A 
ATOM     47  C   UNL     1      11.384  14.029   0.737  1.00  0.00     0.029 A 
ATOM     48  N   UNL     1       9.172  14.179   0.567  1.00  0.00    -0.354 N 
ATOM     49  N   UNL     1       6.641  15.480  -0.171  1.00  0.00    -0.248 NA
ATOM     50  C   UNL     1       5.472  17.334  -0.980  1.00  0.00     0.031 C 
ATOM     51  C   UNL     1      11.065  15.285   0.209  1.00  0.00     0.029 A 
ATOM     52  C   UNL     1       9.688  15.370   0.083  1.00  0.00     0.049 A 
ATOM     53  H   UNL     1       8.214  13.955   0.611  1.00  0.00     0.167 HD
ATOM     54  C   UNL     1       7.549  16.472  -0.526  1.00  0.00     0.074 A 
ATOM     55  C   UNL     1       6.774  17.583  -1.038  1.00  0.00     0.031 C 
ATOM     56  C   UNL     1       8.902  16.461  -0.440  1.00  0.00     0.037 A 
BRANCH  43  57
ATOM     57  C   UNL     1      11.246  11.274   1.980  1.00  0.00     0.058 A 
ATOM     58  C   UNL     1      11.707  10.156   1.267  1.00  0.00     0.135 A 
ATOM     59  C   UNL     1      11.979  11.679   3.107  1.00  0.00     0.135 A 
ATOM     60  F   UNL     1      11.035   9.716   0.191  1.00  0.00    -0.206 F 
ATOM     61  C   UNL     1      12.835   9.449   1.673  1.00  0.00     0.059 A 
ATOM     62  C   UNL     1      13.124  11.002   3.518  1.00  0.00     0.059 A 
ATOM     63  F   UNL     1      11.582  12.741   3.825  1.00  0.00    -0.206 F 
ATOM     64  C   UNL     1      13.534   9.877   2.803  1.00  0.00     0.060 A 
BRANCH  64  65
ATOM     65  S   UNL     1      14.990   8.946   3.325  1.00  0.00     0.124 S 
ATOM     66  O   UNL     1      14.379   7.758   3.914  1.00  0.00    -0.237 OA
ATOM     67  O   UNL     1      15.697   8.735   2.065  1.00  0.00    -0.237 OA
ATOM     68  O   UNL     1      15.649   9.845   4.267  1.00  0.00    -0.744 OA
ENDBRANCH  64  65
ENDBRANCH  43  57
BRANCH  44  69
ATOM     69  C   UNL     1       2.861  16.037  -0.654  1.00  0.00     0.058 A 
ATOM     70  C   UNL     1       2.543  16.294  -1.995  1.00  0.00     0.135 A 
ATOM     71  C   UNL     1       1.960  16.479   0.328  1.00  0.00     0.135 A 
ATOM     72  F   UNL     1       3.378  15.901  -2.969  1.00  0.00    -0.206 F 
ATOM     73  C   UNL     1       1.382  16.973  -2.352  1.00  0.00     0.059 A 
ATOM     74  C   UNL     1       0.781  17.138  -0.004  1.00  0.00     0.059 A 
ATOM     75  F   UNL     1       2.214  16.249   1.626  1.00  0.00    -0.206 F 
ATOM     76  C   UNL     1       0.505  17.389  -1.348  1.00  0.00     0.060 A 
BRANCH  76  77
ATOM     77  S   UNL     1      -1.023  18.225  -1.822  1.00  0.00     0.124 S 
ATOM     78  O   UNL     1      -0.532  19.547  -2.192  1.00  0.00    -0.237 OA
ATOM     79  O   UNL     1      -1.502  17.392  -2.921  1.00  0.00    -0.237 OA
ATOM     80  O   UNL     1      -1.828  18.168  -0.605  1.00  0.00    -0.744 OA
ENDBRANCH  76  77
ENDBRANCH  44  69
BRANCH  56  81
ATOM     81  C   UNL     1       9.642  17.665  -0.953  1.00  0.00     0.058 A 
ATOM     82  C   UNL     1       9.683  18.869  -0.234  1.00  0.00     0.135 A 
ATOM     83  C   UNL     1      10.373  17.588  -2.149  1.00  0.00     0.135 A 
ATOM     84  F   UNL     1       8.995  18.996   0.912  1.00  0.00    -0.206 F 
ATOM     85  C   UNL     1      10.415  19.962  -0.690  1.00  0.00     0.059 A 
ATOM     86  C   UNL     1      11.130  18.660  -2.612  1.00  0.00     0.059 A 
ATOM     87  F   UNL     1      10.374  16.456  -2.870  1.00  0.00    -0.206 F 
ATOM     88  C   UNL     1      11.138  19.846  -1.880  1.00  0.00     0.060 A 
BRANCH  88  89
ATOM     89  S   UNL     1      12.122  21.254  -2.437  1.00  0.00     0.124 S 
ATOM     90  O   UNL     1      11.092  22.146  -2.958  1.00  0.00    -0.237 OA
ATOM     91  O   UNL     1      12.774  21.688  -1.206  1.00  0.00    -0.237 OA
ATOM     92  O   UNL     1      13.012  20.670  -3.437  1.00  0.00    -0.744 OA
ENDBRANCH  88  89
ENDBRANCH  56  81
ENDBRANCH  30  31
ENDBRANCH  23  25
ENDBRANCH  22  23
ENDBRANCH   1  22
TORSDOF 16
