REMARK SMILES O=C(C[C@H]1N=NC(=O)c2ccccc21)N[C@@H](CC1=c2ccccc2=NC1)C(=O)OCCOC(=O)c1ccc(-c2c3nc(c(-c4c(F)cc(S(=O)(=O)[O-])cc4F)c4ccc([nH]4)c(-c4c(F)cc(S(=O)(=O)[O-])cc4F)c4nc(c(-c5c(F)cc(S(=O)(=O)[O-])cc5F)c5ccc2[nH]5)C=C4)C=C3)cc1
REMARK SMILES IDX 30 1 29 2 27 3 28 4 16 5 15 6 1 7 2 8 3 10 4 11 5 12 14 13
REMARK SMILES IDX 6 14 9 15 13 16 7 17 10 18 12 19 8 20 11 21 17 22 18 23
REMARK SMILES IDX 19 24 26 25 20 26 24 27 25 28 21 29 23 30 22 31 31 32 32 33
REMARK SMILES IDX 33 34 34 35 35 36 36 37 100 38 37 39 99 40 38 41 39 42 40 43
REMARK SMILES IDX 93 44 41 45 98 46 92 47 94 48 42 49 97 50 91 51 90 52 43 54
REMARK SMILES IDX 77 55 56 56 76 57 57 58 60 59 75 60 95 61 58 62 59 63 74 65
REMARK SMILES IDX 96 66 61 67 44 68 45 69 54 70 46 71 47 72 53 73 55 74 48 75
REMARK SMILES IDX 49 76 50 77 51 78 52 79 78 80 79 81 88 82 80 83 81 84 87 85
REMARK SMILES IDX 89 86 82 87 83 88 84 89 85 90 86 91 62 92 63 93 72 94 64 95
REMARK SMILES IDX 65 96 71 97 73 98 66 99 67 100 68 101 69 102 70 103
REMARK H PARENT 15 9 94 53 60 64
REMARK Flexibility Score: inf
ROOT
ATOM      1  C   UNL     1       6.244   1.192   4.184  1.00  0.00     0.274 C 
ENDROOT
BRANCH   1   2
ATOM      2  O   UNL     1       6.628   1.460   2.826  1.00  0.00    -0.461 OA
BRANCH   2   3
ATOM      3  C   UNL     1       7.839   0.967   2.450  1.00  0.00     0.329 C 
ATOM      4  O   UNL     1       8.652   0.450   3.207  1.00  0.00    -0.250 OA
BRANCH   3   5
ATOM      5  C   UNL     1       8.122   1.215   0.974  1.00  0.00     0.196 C 
BRANCH   5   6
ATOM      6  N   UNL     1       6.951   1.517   0.147  1.00  0.00    -0.342 N 
ATOM      7  O   UNL     1       7.273  -0.178  -1.355  1.00  0.00    -0.275 OA
ATOM      8  C   UNL     1       6.626   0.795  -0.976  1.00  0.00     0.223 C 
ATOM      9  H   UNL     1       6.371   2.269   0.407  1.00  0.00     0.164 HD
BRANCH   8  10
ATOM     10  C   UNL     1       5.556   1.397  -1.857  1.00  0.00     0.134 C 
BRANCH  10  11
ATOM     11  C   UNL     1       4.141   1.640  -1.306  1.00  0.00     0.169 C 
ATOM     12  N   UNL     1       4.193   1.927   0.135  1.00  0.00    -0.177 NA
ATOM     13  C   UNL     1       3.513   2.730  -2.140  1.00  0.00    -0.008 A 
ATOM     14  N   UNL     1       3.803   2.987   0.663  1.00  0.00    -0.111 NA
ATOM     15  C   UNL     1       3.208   3.942  -1.531  1.00  0.00     0.049 A 
ATOM     16  C   UNL     1       3.349   2.609  -3.530  1.00  0.00     0.007 A 
ATOM     17  C   UNL     1       3.292   4.036  -0.062  1.00  0.00     0.295 C 
ATOM     18  C   UNL     1       2.844   5.056  -2.298  1.00  0.00     0.014 A 
ATOM     19  C   UNL     1       2.978   3.716  -4.296  1.00  0.00     0.000 A 
ATOM     20  O   UNL     1       2.897   5.074   0.467  1.00  0.00    -0.265 OA
ATOM     21  C   UNL     1       2.751   4.946  -3.683  1.00  0.00     0.001 A 
ENDBRANCH  10  11
ENDBRANCH   8  10
ENDBRANCH   5   6
BRANCH   5  22
ATOM     22  C   UNL     1       9.239   2.262   0.851  1.00  0.00     0.070 C 
BRANCH  22  23
ATOM     23  C   UNL     1       8.997   3.733   1.190  1.00  0.00    -0.037 C 
ATOM     24  C   UNL     1       7.864   4.365   0.865  1.00  0.00     0.001 A 
ATOM     25  C   UNL     1      10.153   4.592   0.718  1.00  0.00     0.174 C 
ATOM     26  C   UNL     1       6.761   4.825   1.666  1.00  0.00     0.010 A 
ATOM     27  C   UNL     1       8.328   5.286  -0.195  1.00  0.00     0.065 A 
ATOM     28  N   UNL     1       9.603   5.420  -0.378  1.00  0.00    -0.280 NA
ATOM     29  C   UNL     1       5.933   5.732   1.115  1.00  0.00     0.001 A 
ATOM     30  C   UNL     1       7.246   5.957  -0.941  1.00  0.00     0.028 A 
ATOM     31  C   UNL     1       6.096   6.151  -0.273  1.00  0.00     0.002 A 
ENDBRANCH  22  23
ENDBRANCH   5  22
ENDBRANCH   3   5
ENDBRANCH   2   3
ENDBRANCH   1   2
BRANCH   1  32
ATOM     32  C   UNL     1       5.133   0.144   4.221  1.00  0.00     0.275 C 
BRANCH  32  33
ATOM     33  O   UNL     1       5.596  -1.125   3.725  1.00  0.00    -0.458 OA
BRANCH  33  34
ATOM     34  C   UNL     1       5.390  -1.341   2.402  1.00  0.00     0.338 C 
ATOM     35  O   UNL     1       4.821  -0.612   1.612  1.00  0.00    -0.246 OA
BRANCH  34  36
ATOM     36  C   UNL     1       6.101  -2.565   2.005  1.00  0.00     0.060 A 
ATOM     37  C   UNL     1       5.735  -3.811   2.508  1.00  0.00     0.016 A 
ATOM     38  C   UNL     1       7.123  -2.453   1.063  1.00  0.00     0.016 A 
ATOM     39  C   UNL     1       6.420  -4.946   2.068  1.00  0.00     0.010 A 
ATOM     40  C   UNL     1       7.801  -3.581   0.617  1.00  0.00     0.010 A 
ATOM     41  C   UNL     1       7.458  -4.836   1.123  1.00  0.00    -0.014 A 
BRANCH  41  42
ATOM     42  C   UNL     1       8.139  -6.044   0.613  1.00  0.00     0.031 A 
ATOM     43  C   UNL     1       9.543  -6.366   1.031  1.00  0.00     0.074 A 
ATOM     44  C   UNL     1       7.476  -6.836  -0.249  1.00  0.00     0.049 A 
ATOM     45  N   UNL     1      10.244  -7.442   0.787  1.00  0.00    -0.248 NA
ATOM     46  C   UNL     1      10.261  -5.345   1.811  1.00  0.00     0.031 C 
ATOM     47  C   UNL     1       6.141  -6.557  -0.785  1.00  0.00     0.029 A 
ATOM     48  N   UNL     1       7.819  -8.036  -0.813  1.00  0.00    -0.354 N 
ATOM     49  C   UNL     1      11.473  -7.242   1.404  1.00  0.00     0.074 A 
ATOM     50  C   UNL     1      11.447  -5.915   1.978  1.00  0.00     0.031 C 
ATOM     51  C   UNL     1       5.758  -7.583  -1.561  1.00  0.00     0.029 A 
ATOM     52  C   UNL     1       6.823  -8.581  -1.587  1.00  0.00     0.049 A 
ATOM     53  H   UNL     1       8.694  -8.465  -0.678  1.00  0.00     0.167 HD
ATOM     54  C   UNL     1      12.511  -8.106   1.505  1.00  0.00     0.037 A 
ATOM     55  C   UNL     1       6.767  -9.767  -2.222  1.00  0.00     0.037 A 
ATOM     56  C   UNL     1      12.515  -9.421   0.916  1.00  0.00     0.049 A 
ATOM     57  C   UNL     1       7.929 -10.711  -2.089  1.00  0.00     0.074 A 
ATOM     58  C   UNL     1      13.491 -10.398   0.996  1.00  0.00     0.029 A 
ATOM     59  N   UNL     1      11.495  -9.938   0.129  1.00  0.00    -0.354 N 
ATOM     60  N   UNL     1       9.046 -10.553  -1.418  1.00  0.00    -0.248 NA
ATOM     61  C   UNL     1       7.822 -11.999  -2.787  1.00  0.00     0.031 C 
ATOM     62  C   UNL     1      13.079 -11.490   0.225  1.00  0.00     0.029 A 
ATOM     63  C   UNL     1      11.826 -11.213  -0.299  1.00  0.00     0.049 A 
ATOM     64  H   UNL     1      10.658  -9.468  -0.091  1.00  0.00     0.167 HD
ATOM     65  C   UNL     1       9.770 -11.724  -1.601  1.00  0.00     0.074 A 
ATOM     66  C   UNL     1       8.954 -12.591  -2.430  1.00  0.00     0.031 C 
ATOM     67  C   UNL     1      10.998 -12.053  -1.131  1.00  0.00     0.037 A 
BRANCH  54  68
ATOM     68  C   UNL     1      13.712  -7.673   2.301  1.00  0.00     0.058 A 
ATOM     69  C   UNL     1      13.654  -7.559   3.700  1.00  0.00     0.135 A 
ATOM     70  C   UNL     1      14.947  -7.435   1.679  1.00  0.00     0.135 A 
ATOM     71  F   UNL     1      12.496  -7.764   4.348  1.00  0.00    -0.206 F 
ATOM     72  C   UNL     1      14.772  -7.210   4.451  1.00  0.00     0.059 A 
ATOM     73  C   UNL     1      16.086  -7.107   2.412  1.00  0.00     0.059 A 
ATOM     74  F   UNL     1      15.062  -7.529   0.345  1.00  0.00    -0.206 F 
ATOM     75  C   UNL     1      15.985  -6.990   3.798  1.00  0.00     0.060 A 
BRANCH  75  76
ATOM     76  S   UNL     1      17.430  -6.565   4.795  1.00  0.00     0.124 S 
ATOM     77  O   UNL     1      17.093  -5.216   5.240  1.00  0.00    -0.237 OA
ATOM     78  O   UNL     1      17.409  -7.596   5.827  1.00  0.00    -0.237 OA
ATOM     79  O   UNL     1      18.537  -6.653   3.847  1.00  0.00    -0.744 OA
ENDBRANCH  75  76
ENDBRANCH  54  68
BRANCH  55  80
ATOM     80  C   UNL     1       5.543 -10.140  -2.976  1.00  0.00     0.058 A 
ATOM     81  C   UNL     1       4.667 -11.119  -2.484  1.00  0.00     0.135 A 
ATOM     82  C   UNL     1       5.196  -9.493  -4.172  1.00  0.00     0.135 A 
ATOM     83  F   UNL     1       4.955 -11.766  -1.344  1.00  0.00    -0.206 F 
ATOM     84  C   UNL     1       3.494 -11.450  -3.154  1.00  0.00     0.059 A 
ATOM     85  C   UNL     1       4.016  -9.790  -4.848  1.00  0.00     0.059 A 
ATOM     86  F   UNL     1       5.990  -8.535  -4.673  1.00  0.00    -0.206 F 
ATOM     87  C   UNL     1       3.174 -10.775  -4.334  1.00  0.00     0.060 A 
BRANCH  87  88
ATOM     88  S   UNL     1       1.618 -11.171  -5.161  1.00  0.00     0.124 S 
ATOM     89  O   UNL     1       1.895 -12.502  -5.688  1.00  0.00    -0.237 OA
ATOM     90  O   UNL     1       0.662 -11.106  -4.059  1.00  0.00    -0.237 OA
ATOM     91  O   UNL     1       1.487 -10.112  -6.157  1.00  0.00    -0.744 OA
ENDBRANCH  87  88
ENDBRANCH  55  80
BRANCH  67  92
ATOM     92  C   UNL     1      11.538 -13.405  -1.500  1.00  0.00     0.058 A 
ATOM     93  C   UNL     1      12.004 -13.676  -2.796  1.00  0.00     0.135 A 
ATOM     94  C   UNL     1      11.654 -14.417  -0.533  1.00  0.00     0.135 A 
ATOM     95  F   UNL     1      11.908 -12.744  -3.757  1.00  0.00    -0.206 F 
ATOM     96  C   UNL     1      12.556 -14.909  -3.124  1.00  0.00     0.059 A 
ATOM     97  C   UNL     1      12.226 -15.649  -0.833  1.00  0.00     0.059 A 
ATOM     98  F   UNL     1      11.231 -14.204   0.723  1.00  0.00    -0.206 F 
ATOM     99  C   UNL     1      12.667 -15.888  -2.134  1.00  0.00     0.060 A 
BRANCH  99 100
ATOM    100  S   UNL     1      13.427 -17.466  -2.567  1.00  0.00     0.124 S 
ATOM    101  O   UNL     1      12.393 -18.072  -3.400  1.00  0.00    -0.237 OA
ATOM    102  O   UNL     1      14.639 -17.048  -3.265  1.00  0.00    -0.237 OA
ATOM    103  O   UNL     1      13.645 -18.106  -1.273  1.00  0.00    -0.744 OA
ENDBRANCH  99 100
ENDBRANCH  67  92
ENDBRANCH  41  42
ENDBRANCH  34  36
ENDBRANCH  33  34
ENDBRANCH  32  33
ENDBRANCH   1  32
TORSDOF 19
