REMARK SMILES CN(C)Nc1ncnc(Nc2ccc(C(=O)OCCOC(=O)c3ccc(-c4c5nc(c(-c6c(F)cc(S(=O)(=O)[O-])cc6F)c6ccc([nH]6)c(-c6c(F)cc(S(=O)(=O)[O-])cc6F)c6nc(c(-c7c(F)cc(S(=O)(=O)[O-])cc7F)c7ccc4[nH]7)C=C6)C=C5)cc3)cc2)c1[N+](=O)[O-]
REMARK SMILES IDX 18 1 17 2 15 3 16 4 14 5 11 6 12 7 90 8 13 9 89 10 10 11
REMARK SMILES IDX 9 13 5 14 6 15 91 16 7 17 8 18 4 19 2 21 1 22 3 23 92 24
REMARK SMILES IDX 93 25 94 26 19 27 20 28 21 29 22 30 23 31 24 32 88 33 25 34
REMARK SMILES IDX 87 35 26 36 27 37 28 38 81 39 29 40 86 41 80 42 82 43 30 44
REMARK SMILES IDX 85 45 79 46 78 47 31 49 65 50 44 51 64 52 45 53 48 54 63 55
REMARK SMILES IDX 83 56 46 57 47 58 62 60 84 61 49 62 32 63 33 64 42 65 34 66
REMARK SMILES IDX 35 67 41 68 43 69 36 70 37 71 38 72 39 73 40 74 66 75 67 76
REMARK SMILES IDX 76 77 68 78 69 79 75 80 77 81 70 82 71 83 72 84 73 85 74 86
REMARK SMILES IDX 50 87 51 88 60 89 52 90 53 91 59 92 61 93 54 94 55 95 56 96
REMARK SMILES IDX 57 97 58 98
REMARK H PARENT 10 12 4 20 82 48 48 59
REMARK Flexibility Score: inf
ROOT
ATOM      1  C   UNL     1       8.148  -8.596   3.555  1.00  0.00     0.275 C 
ENDROOT
BRANCH   1   2
ATOM      2  O   UNL     1       7.274  -7.562   3.060  1.00  0.00    -0.458 OA
BRANCH   2   3
ATOM      3  C   UNL     1       7.589  -6.311   3.479  1.00  0.00     0.338 C 
ATOM      4  O   UNL     1       8.475  -6.002   4.256  1.00  0.00    -0.246 OA
BRANCH   3   5
ATOM      5  C   UNL     1       6.745  -5.306   2.804  1.00  0.00     0.060 A 
ATOM      6  C   UNL     1       5.200  -3.192   1.792  1.00  0.00     0.040 A 
ATOM      7  C   UNL     1       6.591  -3.103   1.803  1.00  0.00     0.027 A 
ATOM      8  C   UNL     1       4.594  -4.375   2.250  1.00  0.00     0.027 A 
ATOM      9  C   UNL     1       7.353  -4.138   2.335  1.00  0.00     0.018 A 
ATOM     10  C   UNL     1       5.360  -5.442   2.734  1.00  0.00     0.018 A 
BRANCH   6  11
ATOM     11  N   UNL     1       4.469  -2.033   1.484  1.00  0.00    -0.334 N 
ATOM     12  H   UNL     1       4.709  -1.573   0.647  1.00  0.00     0.168 HD
BRANCH  11  13
ATOM     13  C   UNL     1       3.432  -1.458   2.239  1.00  0.00     0.215 A 
ATOM     14  C   UNL     1       1.576  -0.002   2.504  1.00  0.00     0.225 A 
ATOM     15  N   UNL     1       1.267  -0.582   3.684  1.00  0.00    -0.212 NA
ATOM     16  C   UNL     1       2.715  -0.355   1.809  1.00  0.00     0.354 A 
ATOM     17  C   UNL     1       2.062  -1.573   4.089  1.00  0.00     0.227 A 
ATOM     18  N   UNL     1       3.089  -2.067   3.398  1.00  0.00    -0.212 NA
BRANCH  14  19
ATOM     19  N   UNL     1       0.559   0.838   2.039  1.00  0.00    -0.298 N 
ATOM     20  H   UNL     1       0.067   1.370   2.705  1.00  0.00     0.184 HD
BRANCH  19  21
ATOM     21  N   UNL     1       0.187   0.978   0.680  1.00  0.00    -0.228 NA
ATOM     22  C   UNL     1      -0.063  -0.329   0.045  1.00  0.00     0.130 C 
ATOM     23  C   UNL     1      -1.066   1.751   0.651  1.00  0.00     0.130 C 
ENDBRANCH  19  21
ENDBRANCH  14  19
BRANCH  16  24
ATOM     24  N   UNL     1       3.210   0.471   0.746  1.00  0.00     0.070 N 
ATOM     25  O   UNL     1       3.518  -0.090  -0.317  1.00  0.00    -0.258 OA
ATOM     26  O   UNL     1       3.409   1.667   0.999  1.00  0.00    -0.258 OA
ENDBRANCH  16  24
ENDBRANCH  11  13
ENDBRANCH   6  11
ENDBRANCH   3   5
ENDBRANCH   2   3
ENDBRANCH   1   2
BRANCH   1  27
ATOM     27  C   UNL     1       9.258  -8.897   2.548  1.00  0.00     0.275 C 
BRANCH  27  28
ATOM     28  O   UNL     1      10.092  -7.738   2.374  1.00  0.00    -0.458 OA
BRANCH  28  29
ATOM     29  C   UNL     1      10.410  -7.428   1.094  1.00  0.00     0.338 C 
ATOM     30  O   UNL     1      10.108  -8.060   0.096  1.00  0.00    -0.246 OA
BRANCH  29  31
ATOM     31  C   UNL     1      11.204  -6.179   1.042  1.00  0.00     0.060 A 
ATOM     32  C   UNL     1      10.865  -5.079   1.824  1.00  0.00     0.016 A 
ATOM     33  C   UNL     1      12.232  -6.064   0.108  1.00  0.00     0.016 A 
ATOM     34  C   UNL     1      11.450  -3.832   1.581  1.00  0.00     0.010 A 
ATOM     35  C   UNL     1      12.907  -4.846  -0.042  1.00  0.00     0.010 A 
ATOM     36  C   UNL     1      12.493  -3.695   0.653  1.00  0.00    -0.014 A 
BRANCH  36  37
ATOM     37  C   UNL     1      13.124  -2.367   0.366  1.00  0.00     0.031 A 
ATOM     38  C   UNL     1      13.237  -1.875  -1.061  1.00  0.00     0.074 A 
ATOM     39  C   UNL     1      13.613  -1.589   1.356  1.00  0.00     0.049 A 
ATOM     40  N   UNL     1      13.974  -0.909  -1.550  1.00  0.00    -0.248 NA
ATOM     41  C   UNL     1      12.432  -2.579  -2.074  1.00  0.00     0.031 C 
ATOM     42  C   UNL     1      13.555  -1.888   2.788  1.00  0.00     0.029 A 
ATOM     43  N   UNL     1      14.262  -0.376   1.304  1.00  0.00    -0.354 N 
ATOM     44  C   UNL     1      13.792  -0.949  -2.929  1.00  0.00     0.074 A 
ATOM     45  C   UNL     1      12.859  -2.022  -3.199  1.00  0.00     0.031 C 
ATOM     46  C   UNL     1      14.095  -0.872   3.477  1.00  0.00     0.029 A 
ATOM     47  C   UNL     1      14.631   0.107   2.538  1.00  0.00     0.049 A 
ATOM     48  H   UNL     1      14.444   0.101   0.463  1.00  0.00     0.167 HD
ATOM     49  C   UNL     1      14.358  -0.171  -3.883  1.00  0.00     0.037 A 
ATOM     50  C   UNL     1      15.362   1.185   2.885  1.00  0.00     0.037 A 
ATOM     51  C   UNL     1      15.210   0.958  -3.611  1.00  0.00     0.049 A 
ATOM     52  C   UNL     1      15.951   2.058   1.814  1.00  0.00     0.074 A 
ATOM     53  C   UNL     1      15.822   1.814  -4.513  1.00  0.00     0.029 A 
ATOM     54  N   UNL     1      15.540   1.413  -2.345  1.00  0.00    -0.354 N 
ATOM     55  N   UNL     1      15.854   1.941   0.512  1.00  0.00    -0.248 NA
ATOM     56  C   UNL     1      16.775   3.192   2.258  1.00  0.00     0.031 C 
ATOM     57  C   UNL     1      16.530   2.780  -3.790  1.00  0.00     0.029 A 
ATOM     58  C   UNL     1      16.338   2.541  -2.440  1.00  0.00     0.049 A 
ATOM     59  H   UNL     1      15.249   0.996  -1.501  1.00  0.00     0.167 HD
ATOM     60  C   UNL     1      16.604   2.985  -0.018  1.00  0.00     0.074 A 
ATOM     61  C   UNL     1      17.130   3.737   1.102  1.00  0.00     0.031 C 
ATOM     62  C   UNL     1      16.845   3.285  -1.317  1.00  0.00     0.037 A 
BRANCH  49  63
ATOM     63  C   UNL     1      14.103  -0.525  -5.322  1.00  0.00     0.058 A 
ATOM     64  C   UNL     1      12.890  -0.229  -5.960  1.00  0.00     0.135 A 
ATOM     65  C   UNL     1      15.118  -1.123  -6.087  1.00  0.00     0.135 A 
ATOM     66  F   UNL     1      11.882   0.327  -5.271  1.00  0.00    -0.206 F 
ATOM     67  C   UNL     1      12.685  -0.530  -7.304  1.00  0.00     0.059 A 
ATOM     68  C   UNL     1      14.943  -1.414  -7.437  1.00  0.00     0.059 A 
ATOM     69  F   UNL     1      16.299  -1.426  -5.525  1.00  0.00    -0.206 F 
ATOM     70  C   UNL     1      13.717  -1.125  -8.034  1.00  0.00     0.060 A 
BRANCH  70  71
ATOM     71  S   UNL     1      13.449  -1.496  -9.781  1.00  0.00     0.124 S 
ATOM     72  O   UNL     1      12.648  -2.714  -9.698  1.00  0.00    -0.237 OA
ATOM     73  O   UNL     1      12.746  -0.308 -10.254  1.00  0.00    -0.237 OA
ATOM     74  O   UNL     1      14.801  -1.668 -10.302  1.00  0.00    -0.744 OA
ENDBRANCH  70  71
ENDBRANCH  49  63
BRANCH  50  75
ATOM     75  C   UNL     1      15.622   1.471   4.321  1.00  0.00     0.058 A 
ATOM     76  C   UNL     1      15.007   2.556   4.963  1.00  0.00     0.135 A 
ATOM     77  C   UNL     1      16.475   0.657   5.082  1.00  0.00     0.135 A 
ATOM     78  F   UNL     1      14.195   3.370   4.272  1.00  0.00    -0.206 F 
ATOM     79  C   UNL     1      15.231   2.827   6.309  1.00  0.00     0.059 A 
ATOM     80  C   UNL     1      16.695   0.893   6.435  1.00  0.00     0.059 A 
ATOM     81  F   UNL     1      17.079  -0.399   4.516  1.00  0.00    -0.206 F 
ATOM     82  C   UNL     1      16.075   1.987   7.038  1.00  0.00     0.060 A 
BRANCH  82  83
ATOM     83  S   UNL     1      16.314   2.297   8.801  1.00  0.00     0.124 S 
ATOM     84  O   UNL     1      17.336   3.337   8.779  1.00  0.00    -0.237 OA
ATOM     85  O   UNL     1      14.983   2.719   9.229  1.00  0.00    -0.237 OA
ATOM     86  O   UNL     1      16.742   0.997   9.310  1.00  0.00    -0.744 OA
ENDBRANCH  82  83
ENDBRANCH  50  75
BRANCH  62  87
ATOM     87  C   UNL     1      17.691   4.492  -1.598  1.00  0.00     0.058 A 
ATOM     88  C   UNL     1      19.087   4.449  -1.475  1.00  0.00     0.135 A 
ATOM     89  C   UNL     1      17.102   5.688  -2.035  1.00  0.00     0.135 A 
ATOM     90  F   UNL     1      19.695   3.329  -1.054  1.00  0.00    -0.206 F 
ATOM     91  C   UNL     1      19.873   5.561  -1.760  1.00  0.00     0.059 A 
ATOM     92  C   UNL     1      17.870   6.807  -2.341  1.00  0.00     0.059 A 
ATOM     93  F   UNL     1      15.770   5.774  -2.174  1.00  0.00    -0.206 F 
ATOM     94  C   UNL     1      19.255   6.737  -2.191  1.00  0.00     0.060 A 
BRANCH  94  95
ATOM     95  S   UNL     1      20.283   8.166  -2.589  1.00  0.00     0.124 S 
ATOM     96  O   UNL     1      20.575   8.697  -1.261  1.00  0.00    -0.237 OA
ATOM     97  O   UNL     1      21.411   7.561  -3.291  1.00  0.00    -0.237 OA
ATOM     98  O   UNL     1      19.409   8.990  -3.418  1.00  0.00    -0.744 OA
ENDBRANCH  94  95
ENDBRANCH  62  87
ENDBRANCH  36  37
ENDBRANCH  29  31
ENDBRANCH  28  29
ENDBRANCH  27  28
ENDBRANCH   1  27
TORSDOF 19
