REMARK SMILES CC[C@@](C)([NH2+]CC(=O)N[C@@H](C)c1ccc(F)cc1)C(=O)OCCOC(=O)c1ccc(-c2c3nc(c(-c4c(F)cc(S(=O)(=O)[O-])cc4F)c4ccc([nH]4)c(-c4c(F)cc(S(=O)(=O)[O-])cc4F)c4nc(c(-c5c(F)cc(S(=O)(=O)[O-])cc5F)c5ccc2[nH]5)C=C4)C=C3)cc1
REMARK SMILES IDX 22 1 21 2 19 3 20 4 3 5 4 6 2 7 1 8 5 9 6 12 7 13 8 14 9 15
REMARK SMILES IDX 10 17 11 18 12 19 13 20 18 21 14 22 17 23 15 24 16 25 23 26
REMARK SMILES IDX 24 27 25 28 26 29 27 30 28 31 92 32 29 33 91 34 30 35 31 36
REMARK SMILES IDX 32 37 85 38 33 39 90 40 84 41 86 42 34 43 89 44 83 45 82 46
REMARK SMILES IDX 35 48 69 49 48 50 68 51 49 52 52 53 67 54 87 55 50 56 51 57
REMARK SMILES IDX 66 59 88 60 53 61 36 62 37 63 46 64 38 65 39 66 45 67 47 68
REMARK SMILES IDX 40 69 41 70 42 71 43 72 44 73 70 74 71 75 80 76 72 77 73 78
REMARK SMILES IDX 79 79 81 80 74 81 75 82 76 83 77 84 78 85 54 86 55 87 64 88
REMARK SMILES IDX 56 89 57 90 63 91 65 92 58 93 59 94 60 95 61 96 62 97
REMARK H PARENT 5 10 5 11 9 16 86 47 52 58
REMARK Flexibility Score: inf
ROOT
ATOM      1  C   UNL     1       4.101  -2.556   0.772  1.00  0.00     0.274 C 
ENDROOT
BRANCH   1   2
ATOM      2  O   UNL     1       2.718  -2.785   0.419  1.00  0.00    -0.457 OA
BRANCH   2   3
ATOM      3  C   UNL     1       1.783  -1.870   0.830  1.00  0.00     0.367 C 
ATOM      4  O   UNL     1       2.059  -0.735   1.200  1.00  0.00    -0.245 OA
BRANCH   3   5
ATOM      5  C   UNL     1       0.337  -2.470   0.806  1.00  0.00     0.191 C 
ATOM      6  C   UNL     1      -0.689  -1.870   1.780  1.00  0.00     0.092 C 
BRANCH   5   7
ATOM      7  C   UNL     1      -0.200  -2.138  -0.622  1.00  0.00     0.077 C 
ATOM      8  C   UNL     1      -0.395  -0.625  -0.856  1.00  0.00     0.011 C 
ENDBRANCH   5   7
BRANCH   5   9
ATOM      9  N   UNL     1       0.372  -3.937   1.085  1.00  0.00    -0.325 N 
ATOM     10  H   UNL     1       0.739  -4.395   0.251  1.00  0.00     0.347 HD
ATOM     11  H   UNL     1      -0.590  -4.171   1.333  1.00  0.00     0.347 HD
BRANCH   9  12
ATOM     12  C   UNL     1       1.181  -4.411   2.244  1.00  0.00     0.362 C 
BRANCH  12  13
ATOM     13  C   UNL     1       0.654  -4.120   3.663  1.00  0.00     0.275 C 
ATOM     14  O   UNL     1      -0.278  -4.779   4.133  1.00  0.00    -0.268 OA
ATOM     15  N   UNL     1       1.243  -3.171   4.471  1.00  0.00    -0.345 N 
ATOM     16  H   UNL     1       1.157  -3.323   5.440  1.00  0.00     0.164 HD
BRANCH  15  17
ATOM     17  C   UNL     1       1.978  -1.967   4.083  1.00  0.00     0.109 C 
ATOM     18  C   UNL     1       1.114  -0.720   4.338  1.00  0.00     0.036 C 
BRANCH  17  19
ATOM     19  C   UNL     1       3.392  -1.826   4.629  1.00  0.00    -0.026 A 
ATOM     20  C   UNL     1       4.013  -0.555   4.673  1.00  0.00     0.009 A 
ATOM     21  C   UNL     1       4.176  -2.947   4.936  1.00  0.00     0.009 A 
ATOM     22  C   UNL     1       5.348  -0.406   5.046  1.00  0.00     0.039 A 
ATOM     23  C   UNL     1       5.518  -2.798   5.302  1.00  0.00     0.039 A 
ATOM     24  C   UNL     1       6.090  -1.532   5.357  1.00  0.00     0.123 A 
ATOM     25  F   UNL     1       7.378  -1.400   5.696  1.00  0.00    -0.207 F 
ENDBRANCH  17  19
ENDBRANCH  15  17
ENDBRANCH  12  13
ENDBRANCH   9  12
ENDBRANCH   5   9
ENDBRANCH   3   5
ENDBRANCH   2   3
ENDBRANCH   1   2
BRANCH   1  26
ATOM     26  C   UNL     1       5.008  -3.253  -0.243  1.00  0.00     0.275 C 
BRANCH  26  27
ATOM     27  O   UNL     1       4.960  -2.476  -1.446  1.00  0.00    -0.458 OA
BRANCH  27  28
ATOM     28  C   UNL     1       4.280  -3.010  -2.481  1.00  0.00     0.338 C 
ATOM     29  O   UNL     1       4.042  -4.189  -2.704  1.00  0.00    -0.246 OA
BRANCH  28  30
ATOM     30  C   UNL     1       3.715  -1.878  -3.223  1.00  0.00     0.060 A 
ATOM     31  C   UNL     1       2.801  -1.068  -2.549  1.00  0.00     0.016 A 
ATOM     32  C   UNL     1       4.055  -1.610  -4.543  1.00  0.00     0.016 A 
ATOM     33  C   UNL     1       2.200   0.000  -3.188  1.00  0.00     0.010 A 
ATOM     34  C   UNL     1       3.500  -0.486  -5.166  1.00  0.00     0.010 A 
ATOM     35  C   UNL     1       2.569   0.326  -4.490  1.00  0.00    -0.014 A 
BRANCH  35  36
ATOM     36  C   UNL     1       1.956   1.508  -5.137  1.00  0.00     0.031 A 
ATOM     37  C   UNL     1       1.119   1.313  -6.363  1.00  0.00     0.074 A 
ATOM     38  C   UNL     1       2.119   2.738  -4.609  1.00  0.00     0.049 A 
ATOM     39  N   UNL     1       0.734   2.196  -7.241  1.00  0.00    -0.248 NA
ATOM     40  C   UNL     1       0.655  -0.058  -6.638  1.00  0.00     0.031 C 
ATOM     41  C   UNL     1       2.799   3.041  -3.345  1.00  0.00     0.029 A 
ATOM     42  N   UNL     1       1.730   3.970  -5.073  1.00  0.00    -0.354 N 
ATOM     43  C   UNL     1       0.038   1.484  -8.207  1.00  0.00     0.074 A 
ATOM     44  C   UNL     1       0.026   0.098  -7.796  1.00  0.00     0.031 C 
ATOM     45  C   UNL     1       2.777   4.366  -3.137  1.00  0.00     0.029 A 
ATOM     46  C   UNL     1       2.189   5.014  -4.302  1.00  0.00     0.049 A 
ATOM     47  H   UNL     1       1.177   4.095  -5.878  1.00  0.00     0.167 HD
ATOM     48  C   UNL     1      -0.517   1.959  -9.343  1.00  0.00     0.037 A 
ATOM     49  C   UNL     1       2.216   6.339  -4.547  1.00  0.00     0.037 A 
ATOM     50  C   UNL     1      -0.527   3.352  -9.699  1.00  0.00     0.049 A 
ATOM     51  C   UNL     1       1.686   6.834  -5.863  1.00  0.00     0.074 A 
ATOM     52  C   UNL     1      -1.050   3.944 -10.834  1.00  0.00     0.029 A 
ATOM     53  N   UNL     1       0.000   4.370  -8.919  1.00  0.00    -0.354 N 
ATOM     54  N   UNL     1       1.116   6.150  -6.827  1.00  0.00    -0.248 NA
ATOM     55  C   UNL     1       1.837   8.267  -6.149  1.00  0.00     0.031 C 
ATOM     56  C   UNL     1      -0.803   5.318 -10.758  1.00  0.00     0.029 A 
ATOM     57  C   UNL     1      -0.163   5.585  -9.557  1.00  0.00     0.049 A 
ATOM     58  H   UNL     1       0.427   4.246  -8.040  1.00  0.00     0.167 HD
ATOM     59  C   UNL     1       0.843   7.067  -7.833  1.00  0.00     0.074 A 
ATOM     60  C   UNL     1       1.289   8.359  -7.355  1.00  0.00     0.031 C 
ATOM     61  C   UNL     1       0.283   6.857  -9.049  1.00  0.00     0.037 A 
BRANCH  48  62
ATOM     62  C   UNL     1      -1.113   0.982 -10.310  1.00  0.00     0.058 A 
ATOM     63  C   UNL     1      -0.434   0.680 -11.502  1.00  0.00     0.135 A 
ATOM     64  C   UNL     1      -2.386   0.427 -10.118  1.00  0.00     0.135 A 
ATOM     65  F   UNL     1       0.795   1.173 -11.723  1.00  0.00    -0.206 F 
ATOM     66  C   UNL     1      -1.014  -0.107 -12.489  1.00  0.00     0.059 A 
ATOM     67  C   UNL     1      -2.979  -0.380 -11.086  1.00  0.00     0.059 A 
ATOM     68  F   UNL     1      -3.060   0.661  -8.981  1.00  0.00    -0.206 F 
ATOM     69  C   UNL     1      -2.293  -0.622 -12.277  1.00  0.00     0.060 A 
BRANCH  69  70
ATOM     70  S   UNL     1      -3.041  -1.620 -13.582  1.00  0.00     0.124 S 
ATOM     71  O   UNL     1      -3.284  -0.624 -14.620  1.00  0.00    -0.237 OA
ATOM     72  O   UNL     1      -1.989  -2.591 -13.866  1.00  0.00    -0.237 OA
ATOM     73  O   UNL     1      -4.235  -2.170 -12.946  1.00  0.00    -0.744 OA
ENDBRANCH  69  70
ENDBRANCH  48  62
BRANCH  49  74
ATOM     74  C   UNL     1       2.873   7.262  -3.582  1.00  0.00     0.058 A 
ATOM     75  C   UNL     1       4.257   7.199  -3.347  1.00  0.00     0.135 A 
ATOM     76  C   UNL     1       2.135   8.215  -2.866  1.00  0.00     0.135 A 
ATOM     77  F   UNL     1       5.012   6.306  -4.005  1.00  0.00    -0.206 F 
ATOM     78  C   UNL     1       4.880   8.022  -2.417  1.00  0.00     0.059 A 
ATOM     79  C   UNL     1       2.741   9.073  -1.951  1.00  0.00     0.059 A 
ATOM     80  F   UNL     1       0.813   8.329  -3.069  1.00  0.00    -0.206 F 
ATOM     81  C   UNL     1       4.112   8.956  -1.721  1.00  0.00     0.060 A 
BRANCH  81  82
ATOM     82  S   UNL     1       4.942  10.029  -0.530  1.00  0.00     0.124 S 
ATOM     83  O   UNL     1       5.180   9.107   0.576  1.00  0.00    -0.237 OA
ATOM     84  O   UNL     1       6.127  10.453  -1.269  1.00  0.00    -0.237 OA
ATOM     85  O   UNL     1       3.957  11.075  -0.278  1.00  0.00    -0.744 OA
ENDBRANCH  81  82
ENDBRANCH  49  74
BRANCH  61  86
ATOM     86  C   UNL     1       0.107   8.042  -9.950  1.00  0.00     0.058 A 
ATOM     87  C   UNL     1      -1.169   8.579 -10.174  1.00  0.00     0.135 A 
ATOM     88  C   UNL     1       1.183   8.558 -10.686  1.00  0.00     0.135 A 
ATOM     89  F   UNL     1      -2.229   8.114  -9.492  1.00  0.00    -0.206 F 
ATOM     90  C   UNL     1      -1.381   9.563 -11.131  1.00  0.00     0.059 A 
ATOM     91  C   UNL     1       0.998   9.558 -11.634  1.00  0.00     0.059 A 
ATOM     92  F   UNL     1       2.424   8.083 -10.492  1.00  0.00    -0.206 F 
ATOM     93  C   UNL     1      -0.292  10.036 -11.866  1.00  0.00     0.060 A 
BRANCH  93  94
ATOM     94  S   UNL     1      -0.592  11.283 -13.135  1.00  0.00     0.124 S 
ATOM     95  O   UNL     1      -1.298  10.510 -14.152  1.00  0.00    -0.237 OA
ATOM     96  O   UNL     1      -1.394  12.268 -12.416  1.00  0.00    -0.237 OA
ATOM     97  O   UNL     1       0.751  11.724 -13.501  1.00  0.00    -0.744 OA
ENDBRANCH  93  94
ENDBRANCH  61  86
ENDBRANCH  35  36
ENDBRANCH  28  30
ENDBRANCH  27  28
ENDBRANCH  26  27
ENDBRANCH   1  26
TORSDOF 20
