REMARK SMILES COc1cc(C(=O)NC2(C(=O)OCCOC(=O)c3ccc(-c4c5nc(c(-c6c(F)cc(S(=O)(=O)[O-])cc6F)c6ccc([nH]6)c(-c6c(F)cc(S(=O)(=O)[O-])cc6F)c6nc(c(-c7c(F)cc(S(=O)(=O)[O-])cc7F)c7ccc4[nH]7)C=C6)C=C5)cc3)CCCCC2)cc2c1OCCO2
REMARK SMILES IDX 13 1 12 2 10 3 11 4 9 5 84 6 88 7 85 8 87 9 86 10 8 11 6 12
REMARK SMILES IDX 7 13 5 15 3 16 4 17 91 18 90 19 92 20 89 21 95 22 93 23
REMARK SMILES IDX 94 24 2 25 1 26 14 27 15 28 16 29 17 30 18 31 19 32 83 33
REMARK SMILES IDX 20 34 82 35 21 36 22 37 23 38 76 39 24 40 81 41 75 42 77 43
REMARK SMILES IDX 25 44 80 45 74 46 73 47 26 49 60 50 39 51 59 52 40 53 43 54
REMARK SMILES IDX 58 55 78 56 41 57 42 58 57 60 79 61 44 62 27 63 28 64 37 65
REMARK SMILES IDX 29 66 30 67 36 68 38 69 31 70 32 71 33 72 34 73 35 74 61 75
REMARK SMILES IDX 62 76 71 77 63 78 64 79 70 80 72 81 65 82 66 83 67 84 68 85
REMARK SMILES IDX 69 86 45 87 46 88 55 89 47 90 48 91 54 92 56 93 49 94 50 95
REMARK SMILES IDX 51 96 52 97 53 98
REMARK H PARENT 8 14 77 48 43 59
REMARK Flexibility Score: inf
ROOT
ATOM      1  C   UNL     1      -2.362   4.188  -2.428  1.00  0.00     0.274 C 
ENDROOT
BRANCH   1   2
ATOM      2  O   UNL     1      -2.813   3.672  -1.155  1.00  0.00    -0.460 OA
BRANCH   2   3
ATOM      3  C   UNL     1      -2.109   4.113  -0.080  1.00  0.00     0.331 C 
ATOM      4  O   UNL     1      -1.195   4.926  -0.189  1.00  0.00    -0.249 OA
BRANCH   3   5
ATOM      5  C   UNL     1      -2.542   3.475   1.288  1.00  0.00     0.138 C 
ATOM      6  C   UNL     1      -2.330   1.967   1.528  1.00  0.00     0.040 C 
ATOM      7  C   UNL     1      -4.058   3.764   1.503  1.00  0.00     0.040 C 
ATOM      8  C   UNL     1      -3.202   1.069   0.667  1.00  0.00     0.003 C 
ATOM      9  C   UNL     1      -5.007   2.835   0.732  1.00  0.00     0.003 C 
ATOM     10  C   UNL     1      -4.674   1.358   0.905  1.00  0.00     0.000 C 
BRANCH   5  11
ATOM     11  N   UNL     1      -1.777   4.238   2.322  1.00  0.00    -0.336 N 
ATOM     12  C   UNL     1      -0.450   4.394   2.658  1.00  0.00     0.252 C 
ATOM     13  O   UNL     1      -0.238   5.197   3.571  1.00  0.00    -0.269 OA
ATOM     14  H   UNL     1      -2.370   4.759   2.910  1.00  0.00     0.165 HD
BRANCH  12  15
ATOM     15  C   UNL     1       0.722   3.660   2.074  1.00  0.00     0.047 A 
ATOM     16  C   UNL     1       1.797   2.078   0.561  1.00  0.00     0.165 A 
ATOM     17  C   UNL     1       0.713   2.884   0.915  1.00  0.00     0.064 A 
ATOM     18  C   UNL     1       2.981   2.132   1.282  1.00  0.00     0.203 A 
ATOM     19  C   UNL     1       3.061   3.014   2.363  1.00  0.00     0.166 A 
ATOM     20  O   UNL     1       4.017   1.324   0.891  1.00  0.00    -0.483 OA
ATOM     21  C   UNL     1       1.939   3.743   2.774  1.00  0.00     0.064 A 
ATOM     22  O   UNL     1       4.211   3.194   3.090  1.00  0.00    -0.486 OA
ATOM     23  C   UNL     1       5.058   1.290   1.872  1.00  0.00     0.271 C 
ATOM     24  C   UNL     1       5.351   2.690   2.384  1.00  0.00     0.271 C 
BRANCH  16  25
ATOM     25  O   UNL     1       1.620   1.248  -0.517  1.00  0.00    -0.493 OA
ATOM     26  C   UNL     1       1.363  -0.085  -0.070  1.00  0.00     0.278 C 
ENDBRANCH  16  25
ENDBRANCH  12  15
ENDBRANCH   5  11
ENDBRANCH   3   5
ENDBRANCH   2   3
ENDBRANCH   1   2
BRANCH   1  27
ATOM     27  C   UNL     1      -3.019   5.518  -2.831  1.00  0.00     0.275 C 
BRANCH  27  28
ATOM     28  O   UNL     1      -2.564   6.634  -2.039  1.00  0.00    -0.458 OA
BRANCH  28  29
ATOM     29  C   UNL     1      -3.392   7.001  -1.037  1.00  0.00     0.338 C 
ATOM     30  O   UNL     1      -4.491   6.513  -0.788  1.00  0.00    -0.246 OA
BRANCH  29  31
ATOM     31  C   UNL     1      -2.753   7.979  -0.140  1.00  0.00     0.060 A 
ATOM     32  C   UNL     1      -2.499   7.563   1.168  1.00  0.00     0.016 A 
ATOM     33  C   UNL     1      -2.531   9.309  -0.503  1.00  0.00     0.016 A 
ATOM     34  C   UNL     1      -2.051   8.460   2.130  1.00  0.00     0.010 A 
ATOM     35  C   UNL     1      -2.086  10.221   0.469  1.00  0.00     0.010 A 
ATOM     36  C   UNL     1      -1.874   9.807   1.799  1.00  0.00    -0.014 A 
BRANCH  36  37
ATOM     37  C   UNL     1      -1.606  10.774   2.895  1.00  0.00     0.031 A 
ATOM     38  C   UNL     1      -2.728  11.641   3.403  1.00  0.00     0.074 A 
ATOM     39  C   UNL     1      -0.408  10.800   3.510  1.00  0.00     0.049 A 
ATOM     40  N   UNL     1      -2.716  12.545   4.349  1.00  0.00    -0.248 NA
ATOM     41  C   UNL     1      -4.041  11.459   2.764  1.00  0.00     0.031 C 
ATOM     42  C   UNL     1       0.735   9.955   3.167  1.00  0.00     0.029 A 
ATOM     43  N   UNL     1       0.036  11.552   4.569  1.00  0.00    -0.354 N 
ATOM     44  C   UNL     1      -4.009  13.053   4.406  1.00  0.00     0.074 A 
ATOM     45  C   UNL     1      -4.777  12.366   3.389  1.00  0.00     0.031 C 
ATOM     46  C   UNL     1       1.747  10.226   4.008  1.00  0.00     0.029 A 
ATOM     47  C   UNL     1       1.336  11.285   4.928  1.00  0.00     0.049 A 
ATOM     48  H   UNL     1      -0.523  12.220   5.028  1.00  0.00     0.167 HD
ATOM     49  C   UNL     1      -4.513  14.001   5.232  1.00  0.00     0.037 A 
ATOM     50  C   UNL     1       2.110  11.838   5.882  1.00  0.00     0.037 A 
ATOM     51  C   UNL     1      -3.758  14.667   6.260  1.00  0.00     0.049 A 
ATOM     52  C   UNL     1       1.539  12.918   6.762  1.00  0.00     0.074 A 
ATOM     53  C   UNL     1      -4.175  15.656   7.135  1.00  0.00     0.029 A 
ATOM     54  N   UNL     1      -2.430  14.402   6.561  1.00  0.00    -0.354 N 
ATOM     55  N   UNL     1       0.327  13.422   6.771  1.00  0.00    -0.248 NA
ATOM     56  C   UNL     1       2.443  13.509   7.759  1.00  0.00     0.031 C 
ATOM     57  C   UNL     1      -3.090  16.008   7.948  1.00  0.00     0.029 A 
ATOM     58  C   UNL     1      -2.008  15.215   7.601  1.00  0.00     0.049 A 
ATOM     59  H   UNL     1      -1.869  13.735   6.103  1.00  0.00     0.167 HD
ATOM     60  C   UNL     1       0.321  14.380   7.779  1.00  0.00     0.074 A 
ATOM     61  C   UNL     1       1.643  14.373   8.370  1.00  0.00     0.031 C 
ATOM     62  C   UNL     1      -0.687  15.197   8.175  1.00  0.00     0.037 A 
BRANCH  49  63
ATOM     63  C   UNL     1      -5.948  14.397   5.025  1.00  0.00     0.058 A 
ATOM     64  C   UNL     1      -7.009  13.577   5.438  1.00  0.00     0.135 A 
ATOM     65  C   UNL     1      -6.262  15.615   4.402  1.00  0.00     0.135 A 
ATOM     66  F   UNL     1      -6.762  12.393   6.021  1.00  0.00    -0.206 F 
ATOM     67  C   UNL     1      -8.335  13.938   5.213  1.00  0.00     0.059 A 
ATOM     68  C   UNL     1      -7.580  16.005   4.185  1.00  0.00     0.059 A 
ATOM     69  F   UNL     1      -5.284  16.434   3.986  1.00  0.00    -0.206 F 
ATOM     70  C   UNL     1      -8.610  15.150   4.578  1.00  0.00     0.060 A 
BRANCH  70  71
ATOM     71  S   UNL     1     -10.331  15.601   4.272  1.00  0.00     0.124 S 
ATOM     72  O   UNL     1     -10.648  14.766   3.117  1.00  0.00    -0.237 OA
ATOM     73  O   UNL     1     -10.985  15.226   5.522  1.00  0.00    -0.237 OA
ATOM     74  O   UNL     1     -10.264  17.035   4.010  1.00  0.00    -0.744 OA
ENDBRANCH  70  71
ENDBRANCH  49  63
BRANCH  50  75
ATOM     75  C   UNL     1       3.522  11.399   6.042  1.00  0.00     0.058 A 
ATOM     76  C   UNL     1       3.932  10.656   7.158  1.00  0.00     0.135 A 
ATOM     77  C   UNL     1       4.491  11.722   5.079  1.00  0.00     0.135 A 
ATOM     78  F   UNL     1       3.047  10.337   8.114  1.00  0.00    -0.206 F 
ATOM     79  C   UNL     1       5.256  10.258   7.322  1.00  0.00     0.059 A 
ATOM     80  C   UNL     1       5.815  11.318   5.210  1.00  0.00     0.059 A 
ATOM     81  F   UNL     1       4.148  12.429   3.991  1.00  0.00    -0.206 F 
ATOM     82  C   UNL     1       6.191  10.595   6.341  1.00  0.00     0.060 A 
BRANCH  82  83
ATOM     83  S   UNL     1       7.901  10.044   6.534  1.00  0.00     0.124 S 
ATOM     84  O   UNL     1       8.415  11.013   7.496  1.00  0.00    -0.237 OA
ATOM     85  O   UNL     1       7.738   8.681   7.028  1.00  0.00    -0.237 OA
ATOM     86  O   UNL     1       8.441  10.150   5.182  1.00  0.00    -0.744 OA
ENDBRANCH  82  83
ENDBRANCH  50  75
BRANCH  62  87
ATOM     87  C   UNL     1      -0.397  16.140   9.309  1.00  0.00     0.058 A 
ATOM     88  C   UNL     1       0.379  17.294   9.121  1.00  0.00     0.135 A 
ATOM     89  C   UNL     1      -0.920  15.900  10.589  1.00  0.00     0.135 A 
ATOM     90  F   UNL     1       0.905  17.566   7.917  1.00  0.00    -0.206 F 
ATOM     91  C   UNL     1       0.652  18.164  10.172  1.00  0.00     0.059 A 
ATOM     92  C   UNL     1      -0.677  16.767  11.650  1.00  0.00     0.059 A 
ATOM     93  F   UNL     1      -1.678  14.816  10.818  1.00  0.00    -0.206 F 
ATOM     94  C   UNL     1       0.124  17.889  11.435  1.00  0.00     0.060 A 
BRANCH  94  95
ATOM     95  S   UNL     1       0.471  19.028  12.792  1.00  0.00     0.124 S 
ATOM     96  O   UNL     1       1.819  18.624  13.178  1.00  0.00    -0.237 OA
ATOM     97  O   UNL     1       0.361  20.334  12.148  1.00  0.00    -0.237 OA
ATOM     98  O   UNL     1      -0.578  18.727  13.762  1.00  0.00    -0.744 OA
ENDBRANCH  94  95
ENDBRANCH  62  87
ENDBRANCH  36  37
ENDBRANCH  29  31
ENDBRANCH  28  29
ENDBRANCH  27  28
ENDBRANCH   1  27
TORSDOF 17
