REMARK SMILES C[C@@H](Sc1nc2ccccc2c(=O)n1N)C(=O)OCCOC(=O)c1ccc(-c2c3nc(c(-c4c(F)cc(S(=O)(=O)[O-])cc4F)c4ccc([nH]4)c(-c4c(F)cc(S(=O)(=O)[O-])cc4F)c4nc(c(-c5c(F)cc(S(=O)(=O)[O-])cc5F)c5ccc2[nH]5)C=C4)C=C3)cc1
REMARK SMILES IDX 19 1 18 2 16 3 17 4 2 5 1 6 3 7 4 8 5 9 14 10 6 11 12 12
REMARK SMILES IDX 7 13 11 14 13 15 8 16 10 17 9 18 15 19 20 22 21 23 22 24
REMARK SMILES IDX 23 25 24 26 25 27 89 28 26 29 88 30 27 31 28 32 29 33 82 34
REMARK SMILES IDX 30 35 87 36 81 37 83 38 31 39 86 40 80 41 79 42 32 44 66 45
REMARK SMILES IDX 45 46 65 47 46 48 49 49 64 50 84 51 47 52 48 53 63 55 85 56
REMARK SMILES IDX 50 57 33 58 34 59 43 60 35 61 36 62 42 63 44 64 37 65 38 66
REMARK SMILES IDX 39 67 40 68 41 69 67 70 68 71 77 72 69 73 70 74 76 75 78 76
REMARK SMILES IDX 71 77 72 78 73 79 74 80 75 81 51 82 52 83 61 84 53 85 54 86
REMARK SMILES IDX 60 87 62 88 55 89 56 90 57 91 58 92 59 93
REMARK H PARENT 15 20 15 21 83 43 49 54
REMARK Flexibility Score: inf
ROOT
ATOM      1  C   UNL     1      -3.128  -0.635   0.831  1.00  0.00     0.274 C 
ENDROOT
BRANCH   1   2
ATOM      2  O   UNL     1      -1.707  -0.454   0.978  1.00  0.00    -0.461 OA
BRANCH   2   3
ATOM      3  C   UNL     1      -0.935  -1.545   0.720  1.00  0.00     0.319 C 
ATOM      4  O   UNL     1      -1.386  -2.649   0.427  1.00  0.00    -0.251 OA
BRANCH   3   5
ATOM      5  C   UNL     1       0.561  -1.261   0.824  1.00  0.00     0.161 C 
ATOM      6  C   UNL     1       0.928   0.214   0.919  1.00  0.00     0.032 C 
BRANCH   5   7
ATOM      7  S   UNL     1       1.202  -2.222   2.239  1.00  0.00    -0.071 SA
BRANCH   7   8
ATOM      8  C   UNL     1       2.921  -2.135   1.937  1.00  0.00     0.191 A 
ATOM      9  N   UNL     1       3.618  -1.447   2.783  1.00  0.00    -0.222 NA
ATOM     10  N   UNL     1       3.473  -2.841   0.870  1.00  0.00    -0.202 N 
ATOM     11  C   UNL     1       5.009  -1.422   2.630  1.00  0.00     0.079 A 
ATOM     12  C   UNL     1       4.851  -2.860   0.645  1.00  0.00     0.280 A 
ATOM     13  C   UNL     1       5.768  -0.712   3.563  1.00  0.00     0.029 A 
ATOM     14  C   UNL     1       5.670  -2.102   1.607  1.00  0.00     0.068 A 
ATOM     15  O   UNL     1       5.381  -3.474  -0.280  1.00  0.00    -0.267 OA
ATOM     16  C   UNL     1       7.162  -0.689   3.479  1.00  0.00     0.002 A 
ATOM     17  C   UNL     1       7.066  -2.083   1.510  1.00  0.00     0.016 A 
ATOM     18  C   UNL     1       7.811  -1.376   2.453  1.00  0.00     0.001 A 
BRANCH  10  19
ATOM     19  N   UNL     1       2.665  -3.583  -0.055  1.00  0.00    -0.334 N 
ATOM     20  H   UNL     1       1.687  -3.605   0.054  1.00  0.00     0.178 HD
ATOM     21  H   UNL     1       3.089  -4.069  -0.798  1.00  0.00     0.178 HD
ENDBRANCH  10  19
ENDBRANCH   7   8
ENDBRANCH   5   7
ENDBRANCH   3   5
ENDBRANCH   2   3
ENDBRANCH   1   2
BRANCH   1  22
ATOM     22  C   UNL     1      -3.626  -0.132  -0.527  1.00  0.00     0.275 C 
BRANCH  22  23
ATOM     23  O   UNL     1      -3.164  -0.949  -1.617  1.00  0.00    -0.458 OA
BRANCH  23  24
ATOM     24  C   UNL     1      -1.990  -0.565  -2.174  1.00  0.00     0.338 C 
ATOM     25  O   UNL     1      -1.304   0.392  -1.862  1.00  0.00    -0.246 OA
BRANCH  24  26
ATOM     26  C   UNL     1      -1.566  -1.567  -3.162  1.00  0.00     0.060 A 
ATOM     27  C   UNL     1      -0.442  -2.345  -2.874  1.00  0.00     0.016 A 
ATOM     28  C   UNL     1      -2.230  -1.701  -4.381  1.00  0.00     0.016 A 
ATOM     29  C   UNL     1       0.023  -3.272  -3.801  1.00  0.00     0.010 A 
ATOM     30  C   UNL     1      -1.768  -2.641  -5.308  1.00  0.00     0.010 A 
ATOM     31  C   UNL     1      -0.642  -3.434  -5.021  1.00  0.00    -0.014 A 
BRANCH  31  32
ATOM     32  C   UNL     1      -0.182  -4.458  -5.987  1.00  0.00     0.031 A 
ATOM     33  C   UNL     1       0.503  -4.043  -7.255  1.00  0.00     0.074 A 
ATOM     34  C   UNL     1      -0.417  -5.758  -5.725  1.00  0.00     0.049 A 
ATOM     35  N   UNL     1       0.833  -4.774  -8.287  1.00  0.00    -0.248 NA
ATOM     36  C   UNL     1       0.861  -2.622  -7.382  1.00  0.00     0.031 C 
ATOM     37  C   UNL     1      -1.049  -6.272  -4.507  1.00  0.00     0.029 A 
ATOM     38  N   UNL     1      -0.179  -6.880  -6.477  1.00  0.00    -0.354 N 
ATOM     39  C   UNL     1       1.407  -3.901  -9.201  1.00  0.00     0.074 A 
ATOM     40  C   UNL     1       1.387  -2.584  -8.601  1.00  0.00     0.031 C 
ATOM     41  C   UNL     1      -1.174  -7.605  -4.608  1.00  0.00     0.029 A 
ATOM     42  C   UNL     1      -0.681  -8.030  -5.914  1.00  0.00     0.049 A 
ATOM     43  H   UNL     1       0.304  -6.864  -7.335  1.00  0.00     0.167 HD
ATOM     44  C   UNL     1       1.899  -4.180 -10.431  1.00  0.00     0.037 A 
ATOM     45  C   UNL     1      -0.784  -9.275  -6.418  1.00  0.00     0.037 A 
ATOM     46  C   UNL     1       1.941  -5.502 -11.001  1.00  0.00     0.049 A 
ATOM     47  C   UNL     1      -0.278  -9.545  -7.808  1.00  0.00     0.074 A 
ATOM     48  C   UNL     1       2.484  -5.899 -12.211  1.00  0.00     0.029 A 
ATOM     49  N   UNL     1       1.413  -6.638 -10.407  1.00  0.00    -0.354 N 
ATOM     50  N   UNL     1       0.293  -8.717  -8.651  1.00  0.00    -0.248 NA
ATOM     51  C   UNL     1      -0.441 -10.912  -8.323  1.00  0.00     0.031 C 
ATOM     52  C   UNL     1       2.242  -7.267 -12.370  1.00  0.00     0.029 A 
ATOM     53  C   UNL     1       1.583  -7.730 -11.242  1.00  0.00     0.049 A 
ATOM     54  H   UNL     1       0.981  -6.665  -9.523  1.00  0.00     0.167 HD
ATOM     55  C   UNL     1       0.560  -9.463  -9.792  1.00  0.00     0.074 A 
ATOM     56  C   UNL     1       0.109 -10.814  -9.526  1.00  0.00     0.031 C 
ATOM     57  C   UNL     1       1.123  -9.065 -10.959  1.00  0.00     0.037 A 
BRANCH  44  58
ATOM     58  C   UNL     1       2.409  -3.043 -11.266  1.00  0.00     0.058 A 
ATOM     59  C   UNL     1       3.662  -2.457 -11.034  1.00  0.00     0.135 A 
ATOM     60  C   UNL     1       1.668  -2.594 -12.371  1.00  0.00     0.135 A 
ATOM     61  F   UNL     1       4.403  -2.839  -9.982  1.00  0.00    -0.206 F 
ATOM     62  C   UNL     1       4.163  -1.463 -11.870  1.00  0.00     0.059 A 
ATOM     63  C   UNL     1       2.156  -1.614 -13.230  1.00  0.00     0.059 A 
ATOM     64  F   UNL     1       0.461  -3.120 -12.632  1.00  0.00    -0.206 F 
ATOM     65  C   UNL     1       3.405  -1.052 -12.969  1.00  0.00     0.060 A 
BRANCH  65  66
ATOM     66  S   UNL     1       4.088   0.206 -14.070  1.00  0.00     0.124 S 
ATOM     67  O   UNL     1       3.943   1.412 -13.260  1.00  0.00    -0.237 OA
ATOM     68  O   UNL     1       5.455  -0.262 -14.270  1.00  0.00    -0.237 OA
ATOM     69  O   UNL     1       3.226   0.133 -15.245  1.00  0.00    -0.744 OA
ENDBRANCH  65  66
ENDBRANCH  44  58
BRANCH  45  70
ATOM     70  C   UNL     1      -1.458 -10.342  -5.633  1.00  0.00     0.058 A 
ATOM     71  C   UNL     1      -0.739 -11.423  -5.106  1.00  0.00     0.135 A 
ATOM     72  C   UNL     1      -2.844 -10.304  -5.407  1.00  0.00     0.135 A 
ATOM     73  F   UNL     1       0.586 -11.508  -5.304  1.00  0.00    -0.206 F 
ATOM     74  C   UNL     1      -1.371 -12.442  -4.400  1.00  0.00     0.059 A 
ATOM     75  C   UNL     1      -3.494 -11.297  -4.683  1.00  0.00     0.059 A 
ATOM     76  F   UNL     1      -3.575  -9.283  -5.881  1.00  0.00    -0.206 F 
ATOM     77  C   UNL     1      -2.751 -12.371  -4.196  1.00  0.00     0.060 A 
BRANCH  77  78
ATOM     78  S   UNL     1      -3.564 -13.682  -3.258  1.00  0.00     0.124 S 
ATOM     79  O   UNL     1      -3.653 -14.742  -4.255  1.00  0.00    -0.237 OA
ATOM     80  O   UNL     1      -2.624 -13.911  -2.165  1.00  0.00    -0.237 OA
ATOM     81  O   UNL     1      -4.832 -13.073  -2.866  1.00  0.00    -0.744 OA
ENDBRANCH  77  78
ENDBRANCH  45  70
BRANCH  57  82
ATOM     82  C   UNL     1       1.290 -10.101 -12.032  1.00  0.00     0.058 A 
ATOM     83  C   UNL     1       0.199 -10.533 -12.803  1.00  0.00     0.135 A 
ATOM     84  C   UNL     1       2.558 -10.621 -12.334  1.00  0.00     0.135 A 
ATOM     85  F   UNL     1      -1.035 -10.073 -12.544  1.00  0.00    -0.206 F 
ATOM     86  C   UNL     1       0.359 -11.453 -13.832  1.00  0.00     0.059 A 
ATOM     87  C   UNL     1       2.745 -11.525 -13.374  1.00  0.00     0.059 A 
ATOM     88  F   UNL     1       3.633 -10.233 -11.630  1.00  0.00    -0.206 F 
ATOM     89  C   UNL     1       1.637 -11.941 -14.113  1.00  0.00     0.060 A 
BRANCH  89  90
ATOM     90  S   UNL     1       1.842 -13.096 -15.486  1.00  0.00     0.124 S 
ATOM     91  O   UNL     1       1.330 -14.334 -14.907  1.00  0.00    -0.237 OA
ATOM     92  O   UNL     1       1.017 -12.495 -16.529  1.00  0.00    -0.237 OA
ATOM     93  O   UNL     1       3.279 -13.069 -15.740  1.00  0.00    -0.744 OA
ENDBRANCH  89  90
ENDBRANCH  57  82
ENDBRANCH  31  32
ENDBRANCH  24  26
ENDBRANCH  23  24
ENDBRANCH  22  23
ENDBRANCH   1  22
TORSDOF 17
