REMARK SMILES CCN1C(=O)c2cccc3cc(S(=O)(=O)NCC(=O)OCCOC(=O)c4ccc(-c5c6nc(c(-c7c(F)cc(S(=O)(=O)[O-])cc7F)c7ccc([nH]7)c(-c7c(F)cc(S(=O)(=O)[O-])cc7F)c7nc(c(-c8c(F)cc(S(=O)(=O)[O-])cc8F)c8ccc5[nH]8)C=C7)C=C6)cc4)cc(c23)C1=O
REMARK SMILES IDX 21 1 20 2 18 3 19 4 17 5 16 6 13 8 14 9 15 10 12 11 3 12
REMARK SMILES IDX 4 13 95 14 5 15 6 16 93 17 96 18 7 19 94 20 92 21 8 22 10 23
REMARK SMILES IDX 9 24 11 25 2 26 1 27 22 28 23 29 24 30 25 31 26 32 27 33
REMARK SMILES IDX 91 34 28 35 90 36 29 37 30 38 31 39 84 40 32 41 89 42 83 43
REMARK SMILES IDX 85 44 33 45 88 46 82 47 81 48 34 50 68 51 47 52 67 53 48 54
REMARK SMILES IDX 51 55 66 56 86 57 49 58 50 59 65 61 87 62 52 63 35 64 36 65
REMARK SMILES IDX 45 66 37 67 38 68 44 69 46 70 39 71 40 72 41 73 42 74 43 75
REMARK SMILES IDX 69 76 70 77 79 78 71 79 72 80 78 81 80 82 73 83 74 84 75 85
REMARK SMILES IDX 76 86 77 87 53 88 54 89 63 90 55 91 56 92 62 93 64 94 57 95
REMARK SMILES IDX 58 96 59 97 60 98 61 99
REMARK H PARENT 16 7 85 49 51 60
REMARK Flexibility Score: inf
ROOT
ATOM      1  C   UNL     1       6.292  -4.876  -5.075  1.00  0.00     0.274 C 
ENDROOT
BRANCH   1   2
ATOM      2  O   UNL     1       5.401  -3.905  -5.642  1.00  0.00    -0.461 OA
BRANCH   2   3
ATOM      3  C   UNL     1       5.924  -3.075  -6.572  1.00  0.00     0.321 C 
ATOM      4  O   UNL     1       7.117  -2.962  -6.823  1.00  0.00    -0.251 OA
BRANCH   3   5
ATOM      5  C   UNL     1       4.859  -2.276  -7.265  1.00  0.00     0.221 C 
BRANCH   5   6
ATOM      6  N   UNL     1       3.645  -2.969  -7.766  1.00  0.00    -0.200 NA
ATOM      7  H   UNL     1       3.332  -2.450  -8.586  1.00  0.00     0.142 HD
BRANCH   6   8
ATOM      8  S   UNL     1       2.292  -3.166  -6.775  1.00  0.00     0.241 S 
ATOM      9  O   UNL     1       2.659  -4.062  -5.703  1.00  0.00    -0.207 OA
ATOM     10  O   UNL     1       1.161  -3.439  -7.631  1.00  0.00    -0.207 OA
BRANCH   8  11
ATOM     11  C   UNL     1       2.007  -1.574  -6.050  1.00  0.00     0.083 A 
ATOM     12  N   UNL     1       1.068   1.028  -2.054  1.00  0.00    -0.275 N 
ATOM     13  C   UNL     1       1.542   2.201  -2.648  1.00  0.00     0.261 C 
ATOM     14  C   UNL     1       0.967  -0.199  -2.710  1.00  0.00     0.261 C 
ATOM     15  O   UNL     1       1.573   3.293  -2.086  1.00  0.00    -0.269 OA
ATOM     16  C   UNL     1       2.003   2.110  -4.054  1.00  0.00     0.049 A 
ATOM     17  C   UNL     1       1.504  -0.275  -4.085  1.00  0.00     0.050 A 
ATOM     18  O   UNL     1       0.439  -1.197  -2.227  1.00  0.00    -0.269 OA
ATOM     19  C   UNL     1       2.502   3.251  -4.698  1.00  0.00     0.014 A 
ATOM     20  C   UNL     1       1.951   0.885  -4.723  1.00  0.00     0.007 A 
ATOM     21  C   UNL     1       1.567  -1.514  -4.728  1.00  0.00     0.036 A 
ATOM     22  C   UNL     1       2.938   3.176  -6.019  1.00  0.00     0.001 A 
ATOM     23  C   UNL     1       2.376   0.816  -6.073  1.00  0.00    -0.015 A 
ATOM     24  C   UNL     1       2.865   1.966  -6.707  1.00  0.00     0.009 A 
ATOM     25  C   UNL     1       2.340  -0.410  -6.746  1.00  0.00     0.030 A 
BRANCH  12  26
ATOM     26  C   UNL     1       0.519   1.117  -0.701  1.00  0.00     0.126 C 
ATOM     27  C   UNL     1       1.220   0.218   0.311  1.00  0.00     0.028 C 
ENDBRANCH  12  26
ENDBRANCH   8  11
ENDBRANCH   6   8
ENDBRANCH   5   6
ENDBRANCH   3   5
ENDBRANCH   2   3
ENDBRANCH   1   2
BRANCH   1  28
ATOM     28  C   UNL     1       6.179  -6.208  -5.823  1.00  0.00     0.275 C 
BRANCH  28  29
ATOM     29  O   UNL     1       6.806  -6.162  -7.122  1.00  0.00    -0.458 OA
BRANCH  29  30
ATOM     30  C   UNL     1       6.020  -5.750  -8.143  1.00  0.00     0.338 C 
ATOM     31  O   UNL     1       4.844  -5.420  -8.081  1.00  0.00    -0.246 OA
BRANCH  30  32
ATOM     32  C   UNL     1       6.816  -5.551  -9.366  1.00  0.00     0.060 A 
ATOM     33  C   UNL     1       6.676  -4.331 -10.036  1.00  0.00     0.016 A 
ATOM     34  C   UNL     1       7.629  -6.557  -9.891  1.00  0.00     0.016 A 
ATOM     35  C   UNL     1       7.340  -4.111 -11.237  1.00  0.00     0.010 A 
ATOM     36  C   UNL     1       8.300  -6.332 -11.099  1.00  0.00     0.010 A 
ATOM     37  C   UNL     1       8.152  -5.112 -11.782  1.00  0.00    -0.014 A 
BRANCH  37  38
ATOM     38  C   UNL     1       8.811  -4.878 -13.089  1.00  0.00     0.031 A 
ATOM     39  C   UNL     1       8.307  -5.581 -14.317  1.00  0.00     0.074 A 
ATOM     40  C   UNL     1       9.839  -4.013 -13.171  1.00  0.00     0.049 A 
ATOM     41  N   UNL     1       8.787  -5.563 -15.533  1.00  0.00    -0.248 NA
ATOM     42  C   UNL     1       7.105  -6.415 -14.156  1.00  0.00     0.031 C 
ATOM     43  C   UNL     1      10.386  -3.246 -12.049  1.00  0.00     0.029 A 
ATOM     44  N   UNL     1      10.611  -3.635 -14.240  1.00  0.00    -0.354 N 
ATOM     45  C   UNL     1       7.966  -6.402 -16.277  1.00  0.00     0.074 A 
ATOM     46  C   UNL     1       6.961  -6.920 -15.374  1.00  0.00     0.031 C 
ATOM     47  C   UNL     1      11.408  -2.495 -12.488  1.00  0.00     0.029 A 
ATOM     48  C   UNL     1      11.621  -2.763 -13.908  1.00  0.00     0.049 A 
ATOM     49  H   UNL     1      10.457  -3.958 -15.157  1.00  0.00     0.167 HD
ATOM     50  C   UNL     1       8.049  -6.709 -17.594  1.00  0.00     0.037 A 
ATOM     51  C   UNL     1      12.625  -2.264 -14.655  1.00  0.00     0.037 A 
ATOM     52  C   UNL     1       9.041  -6.166 -18.486  1.00  0.00     0.049 A 
ATOM     53  C   UNL     1      12.714  -2.649 -16.107  1.00  0.00     0.074 A 
ATOM     54  C   UNL     1       9.190  -6.390 -19.844  1.00  0.00     0.029 A 
ATOM     55  N   UNL     1      10.054  -5.295 -18.112  1.00  0.00    -0.354 N 
ATOM     56  N   UNL     1      11.925  -3.435 -16.800  1.00  0.00    -0.248 NA
ATOM     57  C   UNL     1      13.829  -2.084 -16.879  1.00  0.00     0.031 C 
ATOM     58  C   UNL     1      10.321  -5.692 -20.281  1.00  0.00     0.029 A 
ATOM     59  C   UNL     1      10.846  -4.991 -19.207  1.00  0.00     0.049 A 
ATOM     60  H   UNL     1      10.189  -4.944 -17.202  1.00  0.00     0.167 HD
ATOM     61  C   UNL     1      12.436  -3.444 -18.093  1.00  0.00     0.074 A 
ATOM     62  C   UNL     1      13.594  -2.573 -18.089  1.00  0.00     0.031 C 
ATOM     63  C   UNL     1      11.991  -4.114 -19.184  1.00  0.00     0.037 A 
BRANCH  50  64
ATOM     64  C   UNL     1       7.065  -7.702 -18.148  1.00  0.00     0.058 A 
ATOM     65  C   UNL     1       5.718  -7.374 -18.364  1.00  0.00     0.135 A 
ATOM     66  C   UNL     1       7.494  -8.987 -18.518  1.00  0.00     0.135 A 
ATOM     67  F   UNL     1       5.251  -6.166 -18.012  1.00  0.00    -0.206 F 
ATOM     68  C   UNL     1       4.827  -8.291 -18.914  1.00  0.00     0.059 A 
ATOM     69  C   UNL     1       6.626  -9.912 -19.091  1.00  0.00     0.059 A 
ATOM     70  F   UNL     1       8.772  -9.353 -18.329  1.00  0.00    -0.206 F 
ATOM     71  C   UNL     1       5.291  -9.557 -19.276  1.00  0.00     0.060 A 
BRANCH  71  72
ATOM     72  S   UNL     1       4.128 -10.729 -20.007  1.00  0.00     0.124 S 
ATOM     73  O   UNL     1       3.325 -11.104 -18.847  1.00  0.00    -0.237 OA
ATOM     74  O   UNL     1       3.450  -9.913 -21.009  1.00  0.00    -0.237 OA
ATOM     75  O   UNL     1       4.991 -11.779 -20.538  1.00  0.00    -0.744 OA
ENDBRANCH  71  72
ENDBRANCH  50  64
BRANCH  51  76
ATOM     76  C   UNL     1      13.646  -1.380 -14.032  1.00  0.00     0.058 A 
ATOM     77  C   UNL     1      13.738  -0.021 -14.365  1.00  0.00     0.135 A 
ATOM     78  C   UNL     1      14.553  -1.883 -13.085  1.00  0.00     0.135 A 
ATOM     79  F   UNL     1      12.900   0.505 -15.271  1.00  0.00    -0.206 F 
ATOM     80  C   UNL     1      14.701   0.805 -13.795  1.00  0.00     0.059 A 
ATOM     81  C   UNL     1      15.506  -1.070 -12.480  1.00  0.00     0.059 A 
ATOM     82  F   UNL     1      14.500  -3.174 -12.721  1.00  0.00    -0.206 F 
ATOM     83  C   UNL     1      15.580   0.271 -12.851  1.00  0.00     0.060 A 
BRANCH  83  84
ATOM     84  S   UNL     1      16.800   1.359 -12.084  1.00  0.00     0.124 S 
ATOM     85  O   UNL     1      17.767   1.523 -13.163  1.00  0.00    -0.237 OA
ATOM     86  O   UNL     1      16.000   2.536 -11.758  1.00  0.00    -0.237 OA
ATOM     87  O   UNL     1      17.261   0.588 -10.933  1.00  0.00    -0.744 OA
ENDBRANCH  83  84
ENDBRANCH  51  76
BRANCH  63  88
ATOM     88  C   UNL     1      12.735  -3.907 -20.474  1.00  0.00     0.058 A 
ATOM     89  C   UNL     1      13.998  -4.476 -20.695  1.00  0.00     0.135 A 
ATOM     90  C   UNL     1      12.151  -3.175 -21.520  1.00  0.00     0.135 A 
ATOM     91  F   UNL     1      14.603  -5.179 -19.724  1.00  0.00    -0.206 F 
ATOM     92  C   UNL     1      14.668  -4.308 -21.903  1.00  0.00     0.059 A 
ATOM     93  C   UNL     1      12.790  -3.017 -22.745  1.00  0.00     0.059 A 
ATOM     94  F   UNL     1      10.939  -2.619 -21.362  1.00  0.00    -0.206 F 
ATOM     95  C   UNL     1      14.054  -3.578 -22.923  1.00  0.00     0.060 A 
BRANCH  95  96
ATOM     96  S   UNL     1      14.916  -3.397 -24.499  1.00  0.00     0.124 S 
ATOM     97  O   UNL     1      15.942  -2.416 -24.161  1.00  0.00    -0.237 OA
ATOM     98  O   UNL     1      15.395  -4.753 -24.752  1.00  0.00    -0.237 OA
ATOM     99  O   UNL     1      13.873  -2.928 -25.405  1.00  0.00    -0.744 OA
ENDBRANCH  95  96
ENDBRANCH  63  88
ENDBRANCH  37  38
ENDBRANCH  30  32
ENDBRANCH  29  30
ENDBRANCH  28  29
ENDBRANCH   1  28
TORSDOF 18
