REMARK SMILES Cn1cncc1COc1c(F)cc(C(=O)OCCOC(=O)c2ccc(-c3c4nc(c(-c5c(F)cc(S(=O)(=O)[O-])cc5F)c5ccc([nH]5)c(-c5c(F)cc(S(=O)(=O)[O-])cc5F)c5nc(c(-c6c(F)cc(S(=O)(=O)[O-])cc6F)c6ccc3[nH]6)C=C5)C=C4)cc2)cc1F
REMARK SMILES IDX 17 1 16 2 14 3 15 4 13 5 9 6 10 7 89 8 11 9 12 10 88 11
REMARK SMILES IDX 90 12 8 13 7 14 6 15 1 16 2 17 3 18 4 19 5 20 18 21 19 22
REMARK SMILES IDX 20 23 21 24 22 25 23 26 87 27 24 28 86 29 25 30 26 31 27 32
REMARK SMILES IDX 80 33 28 34 85 35 79 36 81 37 29 38 84 39 78 40 77 41 30 43
REMARK SMILES IDX 64 44 43 45 63 46 44 47 47 48 62 49 82 50 45 51 46 52 61 54
REMARK SMILES IDX 83 55 48 56 31 57 32 58 41 59 33 60 34 61 40 62 42 63 35 64
REMARK SMILES IDX 36 65 37 66 38 67 39 68 65 69 66 70 75 71 67 72 68 73 74 74
REMARK SMILES IDX 76 75 69 76 70 77 71 78 72 79 73 80 49 81 50 82 59 83 51 84
REMARK SMILES IDX 52 85 58 86 60 87 53 88 54 89 55 90 56 91 57 92
REMARK H PARENT 81 42 47 53
REMARK Flexibility Score: inf
ROOT
ATOM      1  C   UNL     1       1.121   0.395   8.024  1.00  0.00     0.275 C 
ENDROOT
BRANCH   1   2
ATOM      2  O   UNL     1       0.845   0.042   6.656  1.00  0.00    -0.458 OA
BRANCH   2   3
ATOM      3  C   UNL     1       1.616  -0.929   6.108  1.00  0.00     0.338 C 
ATOM      4  O   UNL     1       2.570  -1.479   6.622  1.00  0.00    -0.246 OA
BRANCH   3   5
ATOM      5  C   UNL     1       1.074  -1.322   4.780  1.00  0.00     0.066 A 
ATOM      6  C   UNL     1      -0.014  -2.200   2.354  1.00  0.00     0.191 A 
ATOM      7  C   UNL     1      -0.382  -0.969   2.895  1.00  0.00     0.169 A 
ATOM      8  C   UNL     1       0.895  -2.995   3.043  1.00  0.00     0.169 A 
ATOM      9  F   UNL     1      -1.266  -0.185   2.264  1.00  0.00    -0.203 F 
ATOM     10  C   UNL     1       0.162  -0.518   4.092  1.00  0.00     0.059 A 
ATOM     11  C   UNL     1       1.459  -2.557   4.237  1.00  0.00     0.059 A 
ATOM     12  F   UNL     1       1.242  -4.196   2.559  1.00  0.00    -0.203 F 
BRANCH   6  13
ATOM     13  O   UNL     1      -0.592  -2.643   1.196  1.00  0.00    -0.481 OA
BRANCH  13  14
ATOM     14  C   UNL     1       0.234  -2.380   0.053  1.00  0.00     0.285 C 
BRANCH  14  15
ATOM     15  C   UNL     1      -0.109  -1.023  -0.450  1.00  0.00     0.075 A 
ATOM     16  C   UNL     1       2.147   0.069  -0.156  1.00  0.00     0.151 C 
ATOM     17  N   UNL     1       0.748   0.049  -0.504  1.00  0.00    -0.335 N 
ATOM     18  C   UNL     1       0.035   1.130  -0.940  1.00  0.00     0.199 A 
ATOM     19  N   UNL     1      -1.209   0.813  -1.211  1.00  0.00    -0.245 NA
ATOM     20  C   UNL     1      -1.315  -0.516  -0.896  1.00  0.00     0.138 A 
ENDBRANCH  14  15
ENDBRANCH  13  14
ENDBRANCH   6  13
ENDBRANCH   3   5
ENDBRANCH   2   3
ENDBRANCH   1   2
BRANCH   1  21
ATOM     21  C   UNL     1       0.025  -0.140   8.948  1.00  0.00     0.275 C 
BRANCH  21  22
ATOM     22  O   UNL     1       0.110  -1.572   9.075  1.00  0.00    -0.458 OA
BRANCH  22  23
ATOM     23  C   UNL     1      -0.745  -2.275   8.297  1.00  0.00     0.338 C 
ATOM     24  O   UNL     1      -1.593  -1.833   7.540  1.00  0.00    -0.246 OA
BRANCH  23  25
ATOM     25  C   UNL     1      -0.413  -3.704   8.379  1.00  0.00     0.060 A 
ATOM     26  C   UNL     1       0.381  -4.238   7.367  1.00  0.00     0.016 A 
ATOM     27  C   UNL     1      -0.950  -4.532   9.364  1.00  0.00     0.016 A 
ATOM     28  C   UNL     1       0.614  -5.607   7.302  1.00  0.00     0.010 A 
ATOM     29  C   UNL     1      -0.672  -5.906   9.327  1.00  0.00     0.010 A 
ATOM     30  C   UNL     1       0.098  -6.460   8.286  1.00  0.00    -0.014 A 
BRANCH  30  31
ATOM     31  C   UNL     1       0.344  -7.925   8.194  1.00  0.00     0.031 A 
ATOM     32  C   UNL     1      -0.808  -8.875   8.000  1.00  0.00     0.074 A 
ATOM     33  C   UNL     1       1.603  -8.405   8.244  1.00  0.00     0.049 A 
ATOM     34  N   UNL     1      -0.815 -10.183   8.031  1.00  0.00    -0.248 NA
ATOM     35  C   UNL     1      -2.127  -8.274   7.746  1.00  0.00     0.031 C 
ATOM     36  C   UNL     1       2.814  -7.590   8.374  1.00  0.00     0.029 A 
ATOM     37  N   UNL     1       2.079  -9.692   8.178  1.00  0.00    -0.354 N 
ATOM     38  C   UNL     1      -2.141 -10.561   7.848  1.00  0.00     0.074 A 
ATOM     39  C   UNL     1      -2.911  -9.343   7.710  1.00  0.00     0.031 C 
ATOM     40  C   UNL     1       3.890  -8.391   8.341  1.00  0.00     0.029 A 
ATOM     41  C   UNL     1       3.449  -9.780   8.269  1.00  0.00     0.049 A 
ATOM     42  H   UNL     1       1.494 -10.477   8.076  1.00  0.00     0.167 HD
ATOM     43  C   UNL     1      -2.664 -11.810   7.800  1.00  0.00     0.037 A 
ATOM     44  C   UNL     1       4.259 -10.855   8.325  1.00  0.00     0.037 A 
ATOM     45  C   UNL     1      -1.883 -13.018   7.888  1.00  0.00     0.049 A 
ATOM     46  C   UNL     1       3.654 -12.231   8.301  1.00  0.00     0.074 A 
ATOM     47  C   UNL     1      -2.320 -14.330   7.847  1.00  0.00     0.029 A 
ATOM     48  N   UNL     1      -0.502 -13.062   8.017  1.00  0.00    -0.354 N 
ATOM     49  N   UNL     1       2.391 -12.571   8.195  1.00  0.00    -0.248 NA
ATOM     50  C   UNL     1       4.576 -13.367   8.426  1.00  0.00     0.031 C 
ATOM     51  C   UNL     1      -1.208 -15.168   7.984  1.00  0.00     0.029 A 
ATOM     52  C   UNL     1      -0.072 -14.377   8.068  1.00  0.00     0.049 A 
ATOM     53  H   UNL     1       0.086 -12.273   8.065  1.00  0.00     0.167 HD
ATOM     54  C   UNL     1       2.368 -13.960   8.237  1.00  0.00     0.074 A 
ATOM     55  C   UNL     1       3.744 -14.398   8.357  1.00  0.00     0.031 C 
ATOM     56  C   UNL     1       1.302 -14.796   8.188  1.00  0.00     0.037 A 
BRANCH  43  57
ATOM     57  C   UNL     1      -4.157 -11.940   7.677  1.00  0.00     0.058 A 
ATOM     58  C   UNL     1      -4.920 -12.379   8.773  1.00  0.00     0.135 A 
ATOM     59  C   UNL     1      -4.832 -11.677   6.475  1.00  0.00     0.135 A 
ATOM     60  F   UNL     1      -4.325 -12.644   9.947  1.00  0.00    -0.206 F 
ATOM     61  C   UNL     1      -6.297 -12.557   8.683  1.00  0.00     0.059 A 
ATOM     62  C   UNL     1      -6.212 -11.825   6.369  1.00  0.00     0.059 A 
ATOM     63  F   UNL     1      -4.154 -11.239   5.402  1.00  0.00    -0.206 F 
ATOM     64  C   UNL     1      -6.936 -12.265   7.479  1.00  0.00     0.060 A 
BRANCH  64  65
ATOM     65  S   UNL     1      -8.725 -12.457   7.323  1.00  0.00     0.124 S 
ATOM     66  O   UNL     1      -9.163 -11.066   7.260  1.00  0.00    -0.237 OA
ATOM     67  O   UNL     1      -8.850 -13.217   6.084  1.00  0.00    -0.237 OA
ATOM     68  O   UNL     1      -9.098 -13.177   8.537  1.00  0.00    -0.744 OA
ENDBRANCH  64  65
ENDBRANCH  43  57
BRANCH  44  69
ATOM     69  C   UNL     1       5.730 -10.666   8.444  1.00  0.00     0.058 A 
ATOM     70  C   UNL     1       6.302 -10.138   9.613  1.00  0.00     0.135 A 
ATOM     71  C   UNL     1       6.588 -10.973   7.380  1.00  0.00     0.135 A 
ATOM     72  F   UNL     1       5.522  -9.820  10.659  1.00  0.00    -0.206 F 
ATOM     73  C   UNL     1       7.667  -9.892   9.714  1.00  0.00     0.059 A 
ATOM     74  C   UNL     1       7.961 -10.761   7.466  1.00  0.00     0.059 A 
ATOM     75  F   UNL     1       6.092 -11.494   6.247  1.00  0.00    -0.206 F 
ATOM     76  C   UNL     1       8.490 -10.210   8.635  1.00  0.00     0.060 A 
BRANCH  76  77
ATOM     77  S   UNL     1      10.261  -9.865   8.707  1.00  0.00     0.124 S 
ATOM     78  O   UNL     1      10.818 -11.208   8.820  1.00  0.00    -0.237 OA
ATOM     79  O   UNL     1      10.492  -9.183   7.438  1.00  0.00    -0.237 OA
ATOM     80  O   UNL     1      10.392  -9.025   9.894  1.00  0.00    -0.744 OA
ENDBRANCH  76  77
ENDBRANCH  44  69
BRANCH  56  81
ATOM     81  C   UNL     1       1.578 -16.271   8.247  1.00  0.00     0.058 A 
ATOM     82  C   UNL     1       1.438 -17.069   7.100  1.00  0.00     0.135 A 
ATOM     83  C   UNL     1       1.923 -16.904   9.450  1.00  0.00     0.135 A 
ATOM     84  F   UNL     1       1.102 -16.511   5.926  1.00  0.00    -0.206 F 
ATOM     85  C   UNL     1       1.622 -18.447   7.143  1.00  0.00     0.059 A 
ATOM     86  C   UNL     1       2.133 -18.278   9.512  1.00  0.00     0.059 A 
ATOM     87  F   UNL     1       2.077 -16.184  10.573  1.00  0.00    -0.206 F 
ATOM     88  C   UNL     1       1.977 -19.041   8.354  1.00  0.00     0.060 A 
BRANCH  88  89
ATOM     89  S   UNL     1       2.216 -20.828   8.459  1.00  0.00     0.124 S 
ATOM     90  O   UNL     1       3.664 -20.923   8.612  1.00  0.00    -0.237 OA
ATOM     91  O   UNL     1       1.429 -21.179   9.637  1.00  0.00    -0.237 OA
ATOM     92  O   UNL     1       1.686 -21.318   7.189  1.00  0.00    -0.744 OA
ENDBRANCH  88  89
ENDBRANCH  56  81
ENDBRANCH  30  31
ENDBRANCH  23  25
ENDBRANCH  22  23
ENDBRANCH  21  22
ENDBRANCH   1  21
TORSDOF 17
