REMARK SMILES COc1cc(/C=C2\SC(=S)N(CC(=O)OCCOC(=O)c3ccc(-c4c5nc(c(-c6c(F)cc(S(=O)(=O)[O-])cc6F)c6ccc([nH]6)c(-c6c(F)cc(S(=O)(=O)[O-])cc6F)c6nc(c(-c7c(F)cc(S(=O)(=O)[O-])cc7F)c7ccc4[nH]7)C=C6)C=C5)cc3)C2=O)cc2c1OCO2
REMARK SMILES IDX 16 1 15 2 13 3 14 4 12 5 11 6 6 7 7 8 8 9 87 10 9 11 88 12
REMARK SMILES IDX 10 13 5 14 3 15 4 16 91 17 90 18 92 19 89 20 94 21 93 22
REMARK SMILES IDX 2 23 1 24 17 25 18 26 19 27 20 28 21 29 22 30 86 31 23 32
REMARK SMILES IDX 85 33 24 34 25 35 26 36 79 37 27 38 84 39 78 40 80 41 28 42
REMARK SMILES IDX 83 43 77 44 76 45 29 47 63 48 42 49 62 50 43 51 46 52 61 53
REMARK SMILES IDX 81 54 44 55 45 56 60 58 82 59 47 60 30 61 31 62 40 63 32 64
REMARK SMILES IDX 33 65 39 66 41 67 34 68 35 69 36 70 37 71 38 72 64 73 65 74
REMARK SMILES IDX 74 75 66 76 67 77 73 78 75 79 68 80 69 81 70 82 71 83 72 84
REMARK SMILES IDX 48 85 49 86 58 87 50 88 51 89 57 90 59 91 52 92 53 93 54 94
REMARK SMILES IDX 55 95 56 96
REMARK H PARENT 80 46 46 57
REMARK Flexibility Score: inf
ROOT
ATOM      1  C   UNL     1      -4.256   5.528  -8.168  1.00  0.00     0.274 C 
ENDROOT
BRANCH   1   2
ATOM      2  O   UNL     1      -2.949   5.912  -7.697  1.00  0.00    -0.461 OA
BRANCH   2   3
ATOM      3  C   UNL     1      -2.572   7.192  -7.969  1.00  0.00     0.326 C 
ATOM      4  O   UNL     1      -3.229   7.990  -8.628  1.00  0.00    -0.250 OA
BRANCH   3   5
ATOM      5  C   UNL     1      -1.215   7.554  -7.380  1.00  0.00     0.250 C 
BRANCH   5   6
ATOM      6  N   UNL     1      -0.607   6.496  -6.578  1.00  0.00    -0.282 N 
ATOM      7  C   UNL     1      -0.239   5.072  -3.271  1.00  0.00     0.029 C 
ATOM      8  C   UNL     1      -0.168   5.322  -4.586  1.00  0.00     0.081 C 
ATOM      9  S   UNL     1       0.789   4.500  -5.758  1.00  0.00    -0.054 SA
ATOM     10  C   UNL     1      -0.901   6.441  -5.227  1.00  0.00     0.266 C 
ATOM     11  C   UNL     1       0.249   5.537  -7.067  1.00  0.00     0.148 C 
ATOM     12  O   UNL     1      -1.614   7.229  -4.623  1.00  0.00    -0.268 OA
ATOM     13  S   UNL     1       0.761   5.323  -8.641  1.00  0.00    -0.052 S 
BRANCH   7  14
ATOM     14  C   UNL     1       0.608   4.089  -2.590  1.00  0.00    -0.017 A 
ATOM     15  C   UNL     1       0.958   1.858  -1.654  1.00  0.00     0.165 A 
ATOM     16  C   UNL     1       0.120   2.812  -2.250  1.00  0.00     0.058 A 
ATOM     17  C   UNL     1       2.286   2.197  -1.458  1.00  0.00     0.207 A 
ATOM     18  C   UNL     1       2.755   3.450  -1.787  1.00  0.00     0.170 A 
ATOM     19  O   UNL     1       3.287   1.405  -0.979  1.00  0.00    -0.450 OA
ATOM     20  C   UNL     1       1.944   4.420  -2.333  1.00  0.00     0.059 A 
ATOM     21  O   UNL     1       4.086   3.601  -1.547  1.00  0.00    -0.453 OA
ATOM     22  C   UNL     1       4.426   2.280  -1.095  1.00  0.00     0.468 C 
BRANCH  15  23
ATOM     23  O   UNL     1       0.381   0.650  -1.379  1.00  0.00    -0.493 OA
ATOM     24  C   UNL     1       0.877   0.006  -0.209  1.00  0.00     0.278 C 
ENDBRANCH  15  23
ENDBRANCH   7  14
ENDBRANCH   5   6
ENDBRANCH   3   5
ENDBRANCH   2   3
ENDBRANCH   1   2
BRANCH   1  25
ATOM     25  C   UNL     1      -5.244   5.474  -7.007  1.00  0.00     0.275 C 
BRANCH  25  26
ATOM     26  O   UNL     1      -5.284   6.752  -6.351  1.00  0.00    -0.458 OA
BRANCH  26  27
ATOM     27  C   UNL     1      -4.886   6.758  -5.056  1.00  0.00     0.338 C 
ATOM     28  O   UNL     1      -4.560   5.799  -4.378  1.00  0.00    -0.246 OA
BRANCH  27  29
ATOM     29  C   UNL     1      -4.952   8.139  -4.551  1.00  0.00     0.060 A 
ATOM     30  C   UNL     1      -4.083   9.110  -5.051  1.00  0.00     0.016 A 
ATOM     31  C   UNL     1      -5.843   8.449  -3.525  1.00  0.00     0.016 A 
ATOM     32  C   UNL     1      -4.060  10.383  -4.487  1.00  0.00     0.010 A 
ATOM     33  C   UNL     1      -5.868   9.747  -3.008  1.00  0.00     0.010 A 
ATOM     34  C   UNL     1      -4.961  10.719  -3.468  1.00  0.00    -0.014 A 
BRANCH  34  35
ATOM     35  C   UNL     1      -4.954  12.078  -2.866  1.00  0.00     0.031 A 
ATOM     36  C   UNL     1      -4.608  12.258  -1.414  1.00  0.00     0.074 A 
ATOM     37  C   UNL     1      -5.284  13.147  -3.616  1.00  0.00     0.049 A 
ATOM     38  N   UNL     1      -4.709  13.326  -0.666  1.00  0.00    -0.248 NA
ATOM     39  C   UNL     1      -4.092  11.075  -0.707  1.00  0.00     0.031 C 
ATOM     40  C   UNL     1      -5.609  13.112  -5.043  1.00  0.00     0.029 A 
ATOM     41  N   UNL     1      -5.415  14.471  -3.278  1.00  0.00    -0.354 N 
ATOM     42  C   UNL     1      -4.310  12.938   0.608  1.00  0.00     0.074 A 
ATOM     43  C   UNL     1      -3.972  11.531   0.532  1.00  0.00     0.031 C 
ATOM     44  C   UNL     1      -5.896  14.355  -5.459  1.00  0.00     0.029 A 
ATOM     45  C   UNL     1      -5.842  15.263  -4.317  1.00  0.00     0.049 A 
ATOM     46  H   UNL     1      -5.221  14.820  -2.378  1.00  0.00     0.167 HD
ATOM     47  C   UNL     1      -4.233  13.686   1.735  1.00  0.00     0.037 A 
ATOM     48  C   UNL     1      -6.195  16.562  -4.342  1.00  0.00     0.037 A 
ATOM     49  C   UNL     1      -4.539  15.093   1.794  1.00  0.00     0.049 A 
ATOM     50  C   UNL     1      -6.141  17.364  -3.073  1.00  0.00     0.074 A 
ATOM     51  C   UNL     1      -4.453  15.948   2.879  1.00  0.00     0.029 A 
ATOM     52  N   UNL     1      -4.988  15.852   0.723  1.00  0.00    -0.354 N 
ATOM     53  N   UNL     1      -5.774  16.982  -1.873  1.00  0.00    -0.248 NA
ATOM     54  C   UNL     1      -6.563  18.769  -3.156  1.00  0.00     0.031 C 
ATOM     55  C   UNL     1      -4.887  17.215   2.474  1.00  0.00     0.029 A 
ATOM     56  C   UNL     1      -5.207  17.159   1.126  1.00  0.00     0.049 A 
ATOM     57  H   UNL     1      -5.131  15.511  -0.190  1.00  0.00     0.167 HD
ATOM     58  C   UNL     1      -5.917  18.098  -1.058  1.00  0.00     0.074 A 
ATOM     59  C   UNL     1      -6.385  19.176  -1.906  1.00  0.00     0.031 C 
ATOM     60  C   UNL     1      -5.685  18.218   0.272  1.00  0.00     0.037 A 
BRANCH  47  61
ATOM     61  C   UNL     1      -3.834  12.988   3.005  1.00  0.00     0.058 A 
ATOM     62  C   UNL     1      -2.515  12.573   3.243  1.00  0.00     0.135 A 
ATOM     63  C   UNL     1      -4.787  12.745   4.008  1.00  0.00     0.135 A 
ATOM     64  F   UNL     1      -1.567  12.767   2.312  1.00  0.00    -0.206 F 
ATOM     65  C   UNL     1      -2.161  11.912   4.415  1.00  0.00     0.059 A 
ATOM     66  C   UNL     1      -4.451  12.107   5.198  1.00  0.00     0.059 A 
ATOM     67  F   UNL     1      -6.064  13.122   3.832  1.00  0.00    -0.206 F 
ATOM     68  C   UNL     1      -3.138  11.679   5.385  1.00  0.00     0.060 A 
BRANCH  68  69
ATOM     69  S   UNL     1      -2.670  10.808   6.896  1.00  0.00     0.124 S 
ATOM     70  O   UNL     1      -2.572   9.431   6.420  1.00  0.00    -0.237 OA
ATOM     71  O   UNL     1      -1.406  11.446   7.249  1.00  0.00    -0.237 OA
ATOM     72  O   UNL     1      -3.780  11.081   7.803  1.00  0.00    -0.744 OA
ENDBRANCH  68  69
ENDBRANCH  47  61
BRANCH  48  73
ATOM     73  C   UNL     1      -6.666  17.168  -5.614  1.00  0.00     0.058 A 
ATOM     74  C   UNL     1      -5.865  18.073  -6.323  1.00  0.00     0.135 A 
ATOM     75  C   UNL     1      -7.907  16.815  -6.169  1.00  0.00     0.135 A 
ATOM     76  F   UNL     1      -4.677  18.449  -5.826  1.00  0.00    -0.206 F 
ATOM     77  C   UNL     1      -6.275  18.607  -7.541  1.00  0.00     0.059 A 
ATOM     78  C   UNL     1      -8.328  17.317  -7.396  1.00  0.00     0.059 A 
ATOM     79  F   UNL     1      -8.704  15.943  -5.533  1.00  0.00    -0.206 F 
ATOM     80  C   UNL     1      -7.505  18.216  -8.073  1.00  0.00     0.060 A 
BRANCH  80  81
ATOM     81  S   UNL     1      -7.991  18.847  -9.694  1.00  0.00     0.124 S 
ATOM     82  O   UNL     1      -8.397  20.209  -9.368  1.00  0.00    -0.237 OA
ATOM     83  O   UNL     1      -6.756  18.715 -10.460  1.00  0.00    -0.237 OA
ATOM     84  O   UNL     1      -9.067  17.945 -10.095  1.00  0.00    -0.744 OA
ENDBRANCH  80  81
ENDBRANCH  48  73
BRANCH  60  85
ATOM     85  C   UNL     1      -5.928  19.565   0.891  1.00  0.00     0.058 A 
ATOM     86  C   UNL     1      -7.228  20.032   1.141  1.00  0.00     0.135 A 
ATOM     87  C   UNL     1      -4.852  20.380   1.275  1.00  0.00     0.135 A 
ATOM     88  F   UNL     1      -8.291  19.294   0.784  1.00  0.00    -0.206 F 
ATOM     89  C   UNL     1      -7.453  21.270   1.734  1.00  0.00     0.059 A 
ATOM     90  C   UNL     1      -5.053  21.613   1.889  1.00  0.00     0.059 A 
ATOM     91  F   UNL     1      -3.589  19.976   1.065  1.00  0.00    -0.206 F 
ATOM     92  C   UNL     1      -6.359  22.054   2.104  1.00  0.00     0.060 A 
BRANCH  92  93
ATOM     93  S   UNL     1      -6.661  23.646   2.900  1.00  0.00     0.124 S 
ATOM     94  O   UNL     1      -7.059  24.471   1.765  1.00  0.00    -0.237 OA
ATOM     95  O   UNL     1      -7.720  23.326   3.853  1.00  0.00    -0.237 OA
ATOM     96  O   UNL     1      -5.370  23.977   3.496  1.00  0.00    -0.744 OA
ENDBRANCH  92  93
ENDBRANCH  60  85
ENDBRANCH  34  35
ENDBRANCH  27  29
ENDBRANCH  26  27
ENDBRANCH  25  26
ENDBRANCH   1  25
TORSDOF 17
