REMARK SMILES O=C(OCCOC(=O)[C@H]1[C@H]2CC[C@H](C2)[C@@H]1C(=O)Nc1sc2c(c1C(=O)NC1CCCCC1)CCCC2)c1ccc(-c2c3nc(c(-c4c(F)cc(S(=O)(=O)[O-])cc4F)c4ccc([nH]4)c(-c4c(F)cc(S(=O)(=O)[O-])cc4F)c4nc(c(-c5c(F)cc(S(=O)(=O)[O-])cc5F)c5ccc2[nH]5)C=C4)C=C3)cc1
REMARK SMILES IDX 5 1 4 2 3 3 2 4 1 5 37 6 38 7 102 8 39 9 101 10 40 11 41 12
REMARK SMILES IDX 42 13 95 14 43 15 100 16 94 17 96 18 44 19 99 20 93 21 92 22
REMARK SMILES IDX 45 24 79 25 58 26 78 27 59 28 62 29 77 30 97 31 60 32 61 33
REMARK SMILES IDX 76 35 98 36 63 37 46 38 47 39 56 40 48 41 49 42 55 43 57 44
REMARK SMILES IDX 50 45 51 46 52 47 53 48 54 49 80 50 81 51 90 52 82 53 83 54
REMARK SMILES IDX 89 55 91 56 84 57 85 58 86 59 87 60 88 61 64 62 65 63 74 64
REMARK SMILES IDX 66 65 67 66 73 67 75 68 68 69 69 70 70 71 71 72 72 73 6 74
REMARK SMILES IDX 7 75 8 76 9 77 10 78 15 79 11 80 14 81 13 82 12 83 16 84
REMARK SMILES IDX 17 85 18 86 19 88 20 89 23 90 21 91 22 92 36 93 33 94 35 95
REMARK SMILES IDX 34 96 24 97 25 98 26 99 27 101 28 102 32 103 29 104 31 105
REMARK SMILES IDX 30 106
REMARK H PARENT 96 23 62 34 18 87 26 100
REMARK Flexibility Score: inf
ROOT
ATOM      1  C   UNL     1      -0.690  -2.105   0.807  1.00  0.00     0.274 C 
ENDROOT
BRANCH   1   2
ATOM      2  C   UNL     1      -1.767  -2.344  -0.262  1.00  0.00     0.275 C 
BRANCH   2   3
ATOM      3  O   UNL     1      -1.385  -3.182  -1.359  1.00  0.00    -0.458 OA
BRANCH   3   4
ATOM      4  C   UNL     1      -0.677  -2.836  -2.460  1.00  0.00     0.338 C 
ATOM      5  O   UNL     1      -0.648  -3.616  -3.409  1.00  0.00    -0.246 OA
BRANCH   4   6
ATOM      6  C   UNL     1       0.225  -1.639  -2.486  1.00  0.00     0.060 A 
ATOM      7  C   UNL     1       0.042  -0.426  -1.810  1.00  0.00     0.016 A 
ATOM      8  C   UNL     1       1.396  -1.788  -3.227  1.00  0.00     0.016 A 
ATOM      9  C   UNL     1       1.070   0.531  -1.724  1.00  0.00     0.010 A 
ATOM     10  C   UNL     1       2.408  -0.829  -3.151  1.00  0.00     0.010 A 
ATOM     11  C   UNL     1       2.291   0.324  -2.360  1.00  0.00    -0.014 A 
BRANCH  11  12
ATOM     12  C   UNL     1       3.391   1.341  -2.360  1.00  0.00     0.031 A 
ATOM     13  C   UNL     1       3.870   1.833  -3.708  1.00  0.00     0.074 A 
ATOM     14  C   UNL     1       3.991   1.789  -1.230  1.00  0.00     0.049 A 
ATOM     15  N   UNL     1       4.949   2.501  -4.018  1.00  0.00    -0.248 NA
ATOM     16  C   UNL     1       3.035   1.477  -4.874  1.00  0.00     0.031 C 
ATOM     17  C   UNL     1       3.654   1.397   0.143  1.00  0.00     0.029 A 
ATOM     18  N   UNL     1       5.055   2.655  -1.057  1.00  0.00    -0.354 N 
ATOM     19  C   UNL     1       4.920   2.626  -5.402  1.00  0.00     0.074 A 
ATOM     20  C   UNL     1       3.803   1.849  -5.883  1.00  0.00     0.031 C 
ATOM     21  C   UNL     1       4.516   1.980   1.001  1.00  0.00     0.029 A 
ATOM     22  C   UNL     1       5.518   2.730   0.248  1.00  0.00     0.049 A 
ATOM     23  H   UNL     1       5.450   3.172  -1.796  1.00  0.00     0.167 HD
ATOM     24  C   UNL     1       5.684   3.403  -6.202  1.00  0.00     0.037 A 
ATOM     25  C   UNL     1       6.670   3.255   0.734  1.00  0.00     0.037 A 
ATOM     26  C   UNL     1       6.713   4.272  -5.714  1.00  0.00     0.049 A 
ATOM     27  C   UNL     1       7.565   4.023  -0.204  1.00  0.00     0.074 A 
ATOM     28  C   UNL     1       7.404   5.256  -6.397  1.00  0.00     0.029 A 
ATOM     29  N   UNL     1       7.183   4.271  -4.413  1.00  0.00    -0.354 N 
ATOM     30  N   UNL     1       7.501   4.148  -1.504  1.00  0.00    -0.248 NA
ATOM     31  C   UNL     1       8.670   4.769   0.425  1.00  0.00     0.031 C 
ATOM     32  C   UNL     1       8.314   5.839  -5.511  1.00  0.00     0.029 A 
ATOM     33  C   UNL     1       8.162   5.235  -4.274  1.00  0.00     0.049 A 
ATOM     34  H   UNL     1       6.868   3.674  -3.696  1.00  0.00     0.167 HD
ATOM     35  C   UNL     1       8.544   4.999  -1.844  1.00  0.00     0.074 A 
ATOM     36  C   UNL     1       9.246   5.331  -0.624  1.00  0.00     0.031 C 
ATOM     37  C   UNL     1       8.864   5.510  -3.054  1.00  0.00     0.037 A 
BRANCH  24  38
ATOM     38  C   UNL     1       5.346   3.445  -7.664  1.00  0.00     0.058 A 
ATOM     39  C   UNL     1       4.152   4.038  -8.110  1.00  0.00     0.135 A 
ATOM     40  C   UNL     1       6.232   2.946  -8.629  1.00  0.00     0.135 A 
ATOM     41  F   UNL     1       3.264   4.522  -7.226  1.00  0.00    -0.206 F 
ATOM     42  C   UNL     1       3.834   4.108  -9.458  1.00  0.00     0.059 A 
ATOM     43  C   UNL     1       5.948   3.034  -9.989  1.00  0.00     0.059 A 
ATOM     44  F   UNL     1       7.388   2.374  -8.256  1.00  0.00    -0.206 F 
ATOM     45  C   UNL     1       4.742   3.608 -10.392  1.00  0.00     0.060 A 
BRANCH  45  46
ATOM     46  S   UNL     1       4.332   3.758 -12.142  1.00  0.00     0.124 S 
ATOM     47  O   UNL     1       3.298   2.737 -12.288  1.00  0.00    -0.237 OA
ATOM     48  O   UNL     1       3.872   5.140 -12.236  1.00  0.00    -0.237 OA
ATOM     49  O   UNL     1       5.596   3.475 -12.813  1.00  0.00    -0.744 OA
ENDBRANCH  45  46
ENDBRANCH  24  38
BRANCH  25  50
ATOM     50  C   UNL     1       7.194   3.044   2.123  1.00  0.00     0.058 A 
ATOM     51  C   UNL     1       6.699   3.723   3.241  1.00  0.00     0.135 A 
ATOM     52  C   UNL     1       8.352   2.255   2.315  1.00  0.00     0.135 A 
ATOM     53  F   UNL     1       5.640   4.536   3.119  1.00  0.00    -0.206 F 
ATOM     54  C   UNL     1       7.304   3.602   4.498  1.00  0.00     0.059 A 
ATOM     55  C   UNL     1       8.954   2.097   3.558  1.00  0.00     0.059 A 
ATOM     56  F   UNL     1       8.933   1.642   1.273  1.00  0.00    -0.206 F 
ATOM     57  C   UNL     1       8.424   2.778   4.648  1.00  0.00     0.060 A 
BRANCH  57  58
ATOM     58  S   UNL     1       9.108   2.464   6.293  1.00  0.00     0.124 S 
ATOM     59  O   UNL     1      10.116   3.510   6.403  1.00  0.00    -0.237 OA
ATOM     60  O   UNL     1       7.938   2.607   7.153  1.00  0.00    -0.237 OA
ATOM     61  O   UNL     1       9.614   1.098   6.173  1.00  0.00    -0.744 OA
ENDBRANCH  57  58
ENDBRANCH  25  50
BRANCH  37  62
ATOM     62  C   UNL     1       9.964   6.521  -3.085  1.00  0.00     0.058 A 
ATOM     63  C   UNL     1      11.314   6.152  -3.026  1.00  0.00     0.135 A 
ATOM     64  C   UNL     1       9.646   7.885  -3.179  1.00  0.00     0.135 A 
ATOM     65  F   UNL     1      11.658   4.860  -2.902  1.00  0.00    -0.206 F 
ATOM     66  C   UNL     1      12.320   7.109  -3.051  1.00  0.00     0.059 A 
ATOM     67  C   UNL     1      10.636   8.855  -3.230  1.00  0.00     0.059 A 
ATOM     68  F   UNL     1       8.364   8.280  -3.226  1.00  0.00    -0.206 F 
ATOM     69  C   UNL     1      11.970   8.458  -3.157  1.00  0.00     0.060 A 
BRANCH  69  70
ATOM     70  S   UNL     1      13.282   9.692  -3.231  1.00  0.00     0.124 S 
ATOM     71  O   UNL     1      13.722   9.736  -1.840  1.00  0.00    -0.237 OA
ATOM     72  O   UNL     1      14.221   9.095  -4.175  1.00  0.00    -0.237 OA
ATOM     73  O   UNL     1      12.596  10.888  -3.711  1.00  0.00    -0.744 OA
ENDBRANCH  69  70
ENDBRANCH  37  62
ENDBRANCH  11  12
ENDBRANCH   4   6
ENDBRANCH   3   4
ENDBRANCH   2   3
ENDBRANCH   1   2
BRANCH   1  74
ATOM     74  O   UNL     1       0.678  -2.285   0.365  1.00  0.00    -0.462 OA
BRANCH  74  75
ATOM     75  C   UNL     1       1.136  -3.550   0.553  1.00  0.00     0.310 C 
ATOM     76  O   UNL     1       0.405  -4.427   1.006  1.00  0.00    -0.252 OA
BRANCH  75  77
ATOM     77  C   UNL     1       2.653  -3.726   0.351  1.00  0.00     0.115 C 
ATOM     78  C   UNL     1       2.964  -5.174   0.878  1.00  0.00     0.004 C 
ATOM     79  C   UNL     1       3.310  -3.772  -1.061  1.00  0.00     0.096 C 
ATOM     80  C   UNL     1       2.280  -6.298   0.053  1.00  0.00     0.005 C 
ATOM     81  C   UNL     1       4.385  -5.353   0.409  1.00  0.00     0.009 C 
ATOM     82  C   UNL     1       4.017  -5.149  -1.066  1.00  0.00     0.003 C 
ATOM     83  C   UNL     1       2.975  -6.234  -1.302  1.00  0.00     0.005 C 
BRANCH  79  84
ATOM     84  C   UNL     1       4.380  -2.771  -1.572  1.00  0.00     0.229 C 
ATOM     85  O   UNL     1       4.563  -2.657  -2.788  1.00  0.00    -0.274 OA
ATOM     86  N   UNL     1       5.183  -2.095  -0.702  1.00  0.00    -0.317 N 
ATOM     87  H   UNL     1       4.906  -1.196  -0.414  1.00  0.00     0.170 HD
BRANCH  86  88
ATOM     88  C   UNL     1       6.379  -2.612  -0.197  1.00  0.00     0.108 A 
ATOM     89  S   UNL     1       7.066  -4.051  -0.789  1.00  0.00    -0.122 S 
ATOM     90  C   UNL     1       7.217  -2.026   0.746  1.00  0.00     0.078 A 
ATOM     91  C   UNL     1       7.958  -4.200   0.637  1.00  0.00     0.011 A 
ATOM     92  C   UNL     1       8.217  -2.963   1.199  1.00  0.00    -0.019 A 
ATOM     93  C   UNL     1       8.404  -5.507   1.185  1.00  0.00     0.047 C 
ATOM     94  C   UNL     1       9.301  -2.807   2.224  1.00  0.00     0.037 C 
ATOM     95  C   UNL     1       8.779  -5.294   2.658  1.00  0.00     0.006 C 
ATOM     96  C   UNL     1       9.803  -4.157   2.783  1.00  0.00     0.005 C 
BRANCH  90  97
ATOM     97  C   UNL     1       6.945  -0.661   1.114  1.00  0.00     0.254 C 
ATOM     98  O   UNL     1       6.958   0.196   0.233  1.00  0.00    -0.269 OA
ATOM     99  N   UNL     1       6.452  -0.338   2.350  1.00  0.00    -0.349 N 
ATOM    100  H   UNL     1       5.939   0.502   2.373  1.00  0.00     0.164 HD
BRANCH  99 101
ATOM    101  C   UNL     1       6.551  -1.008   3.628  1.00  0.00     0.082 C 
ATOM    102  C   UNL     1       6.080  -0.112   4.780  1.00  0.00     0.025 C 
ATOM    103  C   UNL     1       5.793  -2.330   3.726  1.00  0.00     0.025 C 
ATOM    104  C   UNL     1       6.498  -0.742   6.106  1.00  0.00     0.002 C 
ATOM    105  C   UNL     1       6.184  -3.031   5.026  1.00  0.00     0.002 C 
ATOM    106  C   UNL     1       5.939  -2.156   6.256  1.00  0.00     0.000 C 
ENDBRANCH  99 101
ENDBRANCH  90  97
ENDBRANCH  86  88
ENDBRANCH  79  84
ENDBRANCH  75  77
ENDBRANCH  74  75
ENDBRANCH   1  74
TORSDOF 18
