REMARK SMILES O=C(OCCOC(=O)c1nnn(-c2cccc(OC(F)(F)F)c2)c1-c1ccncc1)c1ccc(-c2c3nc(c(-c4c(F)cc(S(=O)(=O)[O-])cc4F)c4ccc([nH]4)c(-c4c(F)cc(S(=O)(=O)[O-])cc4F)c4nc(c(-c5c(F)cc(S(=O)(=O)[O-])cc5F)c5ccc2[nH]5)C=C4)C=C3)cc1
REMARK SMILES IDX 4 1 3 2 2 3 1 4 31 5 32 6 96 7 33 8 95 9 34 10 35 11 36 12
REMARK SMILES IDX 89 13 37 14 94 15 88 16 90 17 38 18 93 19 87 20 86 21 39 23
REMARK SMILES IDX 73 24 52 25 72 26 53 27 56 28 71 29 91 30 54 31 55 32 70 34
REMARK SMILES IDX 92 35 57 36 40 37 41 38 50 39 42 40 43 41 49 42 51 43 44 44
REMARK SMILES IDX 45 45 46 46 47 47 48 48 74 49 75 50 84 51 76 52 77 53 83 54
REMARK SMILES IDX 85 55 78 56 79 57 80 58 81 59 82 60 58 61 59 62 68 63 60 64
REMARK SMILES IDX 61 65 67 66 69 67 62 68 63 69 64 70 65 71 66 72 5 73 6 74
REMARK SMILES IDX 7 75 8 76 9 77 10 78 24 79 11 80 12 81 25 82 26 83 30 84
REMARK SMILES IDX 27 85 29 86 28 87 13 88 14 89 23 90 15 91 17 92 16 93 18 94
REMARK SMILES IDX 19 95 20 96 21 97 22 98
REMARK H PARENT 90 22 56 33
REMARK Flexibility Score: inf
ROOT
ATOM      1  C   UNL     1       4.585   1.110  -0.661  1.00  0.00     0.275 C 
ENDROOT
BRANCH   1   2
ATOM      2  O   UNL     1       3.428   0.914  -1.502  1.00  0.00    -0.458 OA
BRANCH   2   3
ATOM      3  C   UNL     1       2.308   0.388  -0.957  1.00  0.00     0.338 C 
ATOM      4  O   UNL     1       1.448   1.050  -0.399  1.00  0.00    -0.246 OA
BRANCH   3   5
ATOM      5  C   UNL     1       2.198  -1.072  -1.200  1.00  0.00     0.060 A 
ATOM      6  C   UNL     1       3.311  -1.845  -1.555  1.00  0.00     0.016 A 
ATOM      7  C   UNL     1       0.946  -1.678  -1.039  1.00  0.00     0.016 A 
ATOM      8  C   UNL     1       3.160  -3.196  -1.823  1.00  0.00     0.010 A 
ATOM      9  C   UNL     1       0.797  -3.035  -1.300  1.00  0.00     0.010 A 
ATOM     10  C   UNL     1       1.895  -3.778  -1.742  1.00  0.00    -0.014 A 
BRANCH  10  11
ATOM     11  C   UNL     1       1.772  -5.171  -2.161  1.00  0.00     0.031 A 
ATOM     12  C   UNL     1       2.496  -6.190  -1.345  1.00  0.00     0.074 A 
ATOM     13  C   UNL     1       0.970  -5.527  -3.184  1.00  0.00     0.049 A 
ATOM     14  N   UNL     1       3.405  -7.036  -1.717  1.00  0.00    -0.248 NA
ATOM     15  C   UNL     1       2.214  -6.222   0.098  1.00  0.00     0.031 C 
ATOM     16  C   UNL     1      -0.010  -4.697  -3.893  1.00  0.00     0.029 A 
ATOM     17  N   UNL     1       0.788  -6.757  -3.739  1.00  0.00    -0.354 N 
ATOM     18  C   UNL     1       3.672  -7.839  -0.605  1.00  0.00     0.074 A 
ATOM     19  C   UNL     1       3.005  -7.215   0.507  1.00  0.00     0.031 C 
ATOM     20  C   UNL     1      -0.837  -5.495  -4.603  1.00  0.00     0.029 A 
ATOM     21  C   UNL     1      -0.357  -6.863  -4.514  1.00  0.00     0.049 A 
ATOM     22  H   UNL     1       1.413  -7.504  -3.601  1.00  0.00     0.167 HD
ATOM     23  C   UNL     1       4.274  -9.059  -0.711  1.00  0.00     0.037 A 
ATOM     24  C   UNL     1      -0.916  -8.006  -4.980  1.00  0.00     0.037 A 
ATOM     25  C   UNL     1       4.985  -9.192  -1.955  1.00  0.00     0.049 A 
ATOM     26  C   UNL     1       0.139  -9.052  -4.971  1.00  0.00     0.074 A 
ATOM     27  C   UNL     1       6.037  -8.524  -2.550  1.00  0.00     0.029 A 
ATOM     28  N   UNL     1       4.425  -9.953  -2.952  1.00  0.00    -0.354 N 
ATOM     29  N   UNL     1       1.200  -9.030  -5.732  1.00  0.00    -0.248 NA
ATOM     30  C   UNL     1       0.231  -9.913  -3.802  1.00  0.00     0.031 C 
ATOM     31  C   UNL     1       5.733  -8.523  -3.943  1.00  0.00     0.029 A 
ATOM     32  C   UNL     1       4.540  -9.229  -4.110  1.00  0.00     0.049 A 
ATOM     33  H   UNL     1       4.020 -10.845  -2.853  1.00  0.00     0.167 HD
ATOM     34  C   UNL     1       2.220  -9.537  -4.940  1.00  0.00     0.074 A 
ATOM     35  C   UNL     1       1.545 -10.150  -3.799  1.00  0.00     0.031 C 
ATOM     36  C   UNL     1       3.524  -9.182  -5.139  1.00  0.00     0.037 A 
BRANCH  23  37
ATOM     37  C   UNL     1       3.960 -10.257   0.164  1.00  0.00     0.058 A 
ATOM     38  C   UNL     1       4.725 -11.438   0.030  1.00  0.00     0.135 A 
ATOM     39  C   UNL     1       2.764 -10.394   0.902  1.00  0.00     0.135 A 
ATOM     40  F   UNL     1       5.890 -11.429  -0.637  1.00  0.00    -0.206 F 
ATOM     41  C   UNL     1       4.282 -12.677   0.500  1.00  0.00     0.059 A 
ATOM     42  C   UNL     1       2.329 -11.609   1.422  1.00  0.00     0.059 A 
ATOM     43  F   UNL     1       1.911  -9.378   1.076  1.00  0.00    -0.206 F 
ATOM     44  C   UNL     1       3.066 -12.754   1.170  1.00  0.00     0.060 A 
BRANCH  44  45
ATOM     45  S   UNL     1       2.413 -14.367   1.641  1.00  0.00     0.124 S 
ATOM     46  O   UNL     1       2.079 -14.933   0.339  1.00  0.00    -0.237 OA
ATOM     47  O   UNL     1       3.553 -14.967   2.327  1.00  0.00    -0.237 OA
ATOM     48  O   UNL     1       1.279 -14.031   2.497  1.00  0.00    -0.744 OA
ENDBRANCH  44  45
ENDBRANCH  23  37
BRANCH  24  49
ATOM     49  C   UNL     1      -2.368  -8.311  -5.058  1.00  0.00     0.058 A 
ATOM     50  C   UNL     1      -2.852  -9.395  -5.809  1.00  0.00     0.135 A 
ATOM     51  C   UNL     1      -3.293  -7.698  -4.185  1.00  0.00     0.135 A 
ATOM     52  F   UNL     1      -2.033 -10.057  -6.640  1.00  0.00    -0.206 F 
ATOM     53  C   UNL     1      -4.165  -9.863  -5.680  1.00  0.00     0.059 A 
ATOM     54  C   UNL     1      -4.608  -8.137  -4.050  1.00  0.00     0.059 A 
ATOM     55  F   UNL     1      -2.919  -6.704  -3.365  1.00  0.00    -0.206 F 
ATOM     56  C   UNL     1      -5.032  -9.235  -4.785  1.00  0.00     0.060 A 
BRANCH  56  57
ATOM     57  S   UNL     1      -6.677  -9.929  -4.499  1.00  0.00     0.124 S 
ATOM     58  O   UNL     1      -7.348  -9.643  -5.762  1.00  0.00    -0.237 OA
ATOM     59  O   UNL     1      -6.378 -11.333  -4.239  1.00  0.00    -0.237 OA
ATOM     60  O   UNL     1      -7.168  -9.176  -3.348  1.00  0.00    -0.744 OA
ENDBRANCH  56  57
ENDBRANCH  24  49
BRANCH  36  61
ATOM     61  C   UNL     1       3.888  -8.441  -6.400  1.00  0.00     0.058 A 
ATOM     62  C   UNL     1       3.446  -7.140  -6.698  1.00  0.00     0.135 A 
ATOM     63  C   UNL     1       4.874  -8.989  -7.235  1.00  0.00     0.135 A 
ATOM     64  F   UNL     1       2.586  -6.503  -5.892  1.00  0.00    -0.206 F 
ATOM     65  C   UNL     1       3.943  -6.426  -7.790  1.00  0.00     0.059 A 
ATOM     66  C   UNL     1       5.405  -8.283  -8.312  1.00  0.00     0.059 A 
ATOM     67  F   UNL     1       5.385 -10.201  -6.965  1.00  0.00    -0.206 F 
ATOM     68  C   UNL     1       4.930  -7.003  -8.587  1.00  0.00     0.060 A 
BRANCH  68  69
ATOM     69  S   UNL     1       5.658  -6.029  -9.924  1.00  0.00     0.124 S 
ATOM     70  O   UNL     1       4.586  -6.014 -10.913  1.00  0.00    -0.237 OA
ATOM     71  O   UNL     1       5.938  -4.753  -9.272  1.00  0.00    -0.237 OA
ATOM     72  O   UNL     1       6.843  -6.797 -10.299  1.00  0.00    -0.744 OA
ENDBRANCH  68  69
ENDBRANCH  36  61
ENDBRANCH  10  11
ENDBRANCH   3   5
ENDBRANCH   2   3
ENDBRANCH   1   2
BRANCH   1  73
ATOM     73  C   UNL     1       4.346   1.175   0.845  1.00  0.00     0.275 C 
BRANCH  73  74
ATOM     74  O   UNL     1       3.885  -0.103   1.304  1.00  0.00    -0.457 OA
BRANCH  74  75
ATOM     75  C   UNL     1       2.837  -0.090   2.175  1.00  0.00     0.361 C 
ATOM     76  O   UNL     1       2.324   0.917   2.651  1.00  0.00    -0.244 OA
BRANCH  75  77
ATOM     77  C   UNL     1       2.531  -1.421   2.638  1.00  0.00     0.198 A 
ATOM     78  N   UNL     1       1.788  -2.351   1.964  1.00  0.00    -0.122 NA
ATOM     79  C   UNL     1       3.065  -1.992   3.776  1.00  0.00     0.109 A 
ATOM     80  N   UNL     1       1.825  -3.487   2.654  1.00  0.00    -0.061 NA
ATOM     81  N   UNL     1       2.479  -3.244   3.810  1.00  0.00    -0.212 N 
BRANCH  79  82
ATOM     82  C   UNL     1       4.112  -1.493   4.659  1.00  0.00     0.006 A 
ATOM     83  C   UNL     1       3.963  -0.274   5.317  1.00  0.00     0.030 A 
ATOM     84  C   UNL     1       5.308  -2.200   4.800  1.00  0.00     0.030 A 
ATOM     85  C   UNL     1       5.011   0.180   6.097  1.00  0.00     0.111 A 
ATOM     86  C   UNL     1       6.298  -1.660   5.602  1.00  0.00     0.111 A 
ATOM     87  N   UNL     1       6.175  -0.485   6.255  1.00  0.00    -0.265 NA
ENDBRANCH  79  82
BRANCH  81  88
ATOM     88  C   UNL     1       2.445  -4.138   4.897  1.00  0.00     0.071 A 
ATOM     89  C   UNL     1       2.574  -5.511   4.697  1.00  0.00     0.029 A 
ATOM     90  C   UNL     1       2.292  -3.607   6.187  1.00  0.00     0.075 A 
ATOM     91  C   UNL     1       2.638  -6.343   5.814  1.00  0.00     0.006 A 
ATOM     92  C   UNL     1       2.303  -4.442   7.298  1.00  0.00     0.131 A 
ATOM     93  C   UNL     1       2.510  -5.810   7.104  1.00  0.00     0.047 A 
BRANCH  92  94
ATOM     94  O   UNL     1       2.130  -4.043   8.592  1.00  0.00    -0.406 OA
BRANCH  94  95
ATOM     95  C   UNL     1       1.708  -2.703   8.808  1.00  0.00     0.573 C 
ATOM     96  F   UNL     1       2.656  -1.823   8.415  1.00  0.00    -0.132 F 
ATOM     97  F   UNL     1       0.556  -2.435   8.155  1.00  0.00    -0.132 F 
ATOM     98  F   UNL     1       1.491  -2.517  10.129  1.00  0.00    -0.132 F 
ENDBRANCH  94  95
ENDBRANCH  92  94
ENDBRANCH  81  88
ENDBRANCH  75  77
ENDBRANCH  74  75
ENDBRANCH  73  74
ENDBRANCH   1  73
TORSDOF 18
