REMARK SMILES CSc1nc(O)nc(C)c1C(=O)N1C[C@@H](O)C[C@@H]1C(=O)OCCOC(=O)c1ccc(-c2c3nc(c(-c4c(F)cc(S(=O)(=O)[O-])cc4F)c4ccc([nH]4)c(-c4c(F)cc(S(=O)(=O)[O-])cc4F)c4nc(c(-c5c(F)cc(S(=O)(=O)[O-])cc5F)c5ccc2[nH]5)C=C4)C=C3)cc1
REMARK SMILES IDX 22 1 21 2 19 3 20 4 18 5 13 6 14 7 15 8 17 9 11 10 12 11
REMARK SMILES IDX 10 12 3 13 4 14 5 15 8 16 7 17 9 18 2 19 1 20 6 21 16 23
REMARK SMILES IDX 23 25 24 26 25 27 26 28 27 29 28 30 92 31 29 32 91 33 30 34
REMARK SMILES IDX 31 35 32 36 85 37 33 38 90 39 84 40 86 41 34 42 89 43 83 44
REMARK SMILES IDX 82 45 35 47 69 48 48 49 68 50 49 51 52 52 67 53 87 54 50 55
REMARK SMILES IDX 51 56 66 58 88 59 53 60 36 61 37 62 46 63 38 64 39 65 45 66
REMARK SMILES IDX 47 67 40 68 41 69 42 70 43 71 44 72 70 73 71 74 80 75 72 76
REMARK SMILES IDX 73 77 79 78 81 79 74 80 75 81 76 82 77 83 78 84 54 85 55 86
REMARK SMILES IDX 64 87 56 88 57 89 63 90 65 91 58 92 59 93 60 94 61 95 62 96
REMARK H PARENT 6 22 16 24 86 46 52 57
REMARK Flexibility Score: inf
ROOT
ATOM      1  C   UNL     1       4.758  -5.228   0.264  1.00  0.00     0.274 C 
ENDROOT
BRANCH   1   2
ATOM      2  O   UNL     1       3.411  -5.457  -0.221  1.00  0.00    -0.461 OA
BRANCH   2   3
ATOM      3  C   UNL     1       2.416  -4.879   0.511  1.00  0.00     0.329 C 
ATOM      4  O   UNL     1       2.627  -4.246   1.540  1.00  0.00    -0.250 OA
BRANCH   3   5
ATOM      5  C   UNL     1       1.010  -5.135  -0.076  1.00  0.00     0.198 C 
ATOM      6  N   UNL     1       0.496  -4.228  -1.140  1.00  0.00    -0.322 N 
ATOM      7  C   UNL     1      -0.908  -3.935  -0.845  1.00  0.00     0.152 C 
ATOM      8  C   UNL     1      -0.959  -3.892   0.677  1.00  0.00     0.136 C 
ATOM      9  C   UNL     1      -0.032  -5.039   1.069  1.00  0.00     0.071 C 
BRANCH   6  10
ATOM     10  C   UNL     1       0.906  -4.415  -2.470  1.00  0.00     0.259 C 
ATOM     11  O   UNL     1       1.127  -5.577  -2.813  1.00  0.00    -0.269 OA
BRANCH  10  12
ATOM     12  C   UNL     1       1.088  -3.264  -3.466  1.00  0.00     0.093 A 
ATOM     13  C   UNL     1       1.006  -1.897  -3.176  1.00  0.00     0.116 A 
ATOM     14  N   UNL     1       1.087  -0.916  -4.111  1.00  0.00    -0.188 NA
ATOM     15  C   UNL     1       1.474  -1.262  -5.313  1.00  0.00     0.315 A 
ATOM     16  C   UNL     1       1.505  -3.491  -4.795  1.00  0.00     0.058 A 
ATOM     17  N   UNL     1       1.725  -2.492  -5.710  1.00  0.00    -0.200 NA
ATOM     18  C   UNL     1       1.890  -4.803  -5.407  1.00  0.00     0.068 C 
BRANCH  13  19
ATOM     19  S   UNL     1       0.725  -1.226  -1.546  1.00  0.00    -0.109 SA
ATOM     20  C   UNL     1       2.244   0.411  -0.273  1.00  0.00     0.092 C 
ENDBRANCH  13  19
BRANCH  15  21
ATOM     21  O   UNL     1       1.834  -0.266  -6.160  1.00  0.00    -0.479 OA
ATOM     22  H   UNL     1       1.677   0.628  -5.926  1.00  0.00     0.297 HD
ENDBRANCH  15  21
ENDBRANCH  10  12
ENDBRANCH   6  10
BRANCH   8  23
ATOM     23  O   UNL     1      -2.253  -4.063   1.230  1.00  0.00    -0.391 OA
ATOM     24  H   UNL     1      -2.615  -4.917   0.947  1.00  0.00     0.211 HD
ENDBRANCH   8  23
ENDBRANCH   3   5
ENDBRANCH   2   3
ENDBRANCH   1   2
BRANCH   1  25
ATOM     25  C   UNL     1       5.435  -4.086  -0.489  1.00  0.00     0.275 C 
BRANCH  25  26
ATOM     26  O   UNL     1       4.722  -2.867  -0.225  1.00  0.00    -0.458 OA
BRANCH  26  27
ATOM     27  C   UNL     1       3.812  -2.601  -1.177  1.00  0.00     0.338 C 
ATOM     28  O   UNL     1       3.679  -3.183  -2.242  1.00  0.00    -0.246 OA
BRANCH  27  29
ATOM     29  C   UNL     1       2.963  -1.468  -0.832  1.00  0.00     0.060 A 
ATOM     30  C   UNL     1       1.774  -1.460   0.524  1.00  0.00     0.016 A 
ATOM     31  C   UNL     1       2.847  -0.234  -2.140  1.00  0.00     0.016 A 
ATOM     32  C   UNL     1       0.416  -0.252   0.528  1.00  0.00     0.010 A 
ATOM     33  C   UNL     1       1.509   0.959  -2.140  1.00  0.00     0.010 A 
ATOM     34  C   UNL     1       0.281   0.949  -0.817  1.00  0.00    -0.014 A 
BRANCH  34  35
ATOM     35  C   UNL     1      -0.786   1.958  -0.871  1.00  0.00     0.031 A 
ATOM     36  C   UNL     1      -1.636   2.138  -2.101  1.00  0.00     0.074 A 
ATOM     37  C   UNL     1      -0.836   2.795   0.176  1.00  0.00     0.049 A 
ATOM     38  N   UNL     1      -2.473   3.098  -2.400  1.00  0.00    -0.248 NA
ATOM     39  C   UNL     1      -1.528   1.119  -3.152  1.00  0.00     0.031 C 
ATOM     40  C   UNL     1      -0.010   2.693   1.382  1.00  0.00     0.029 A 
ATOM     41  N   UNL     1      -1.572   3.925   0.379  1.00  0.00    -0.354 N 
ATOM     42  C   UNL     1      -2.967   2.798  -3.671  1.00  0.00     0.074 A 
ATOM     43  C   UNL     1      -2.296   1.604  -4.115  1.00  0.00     0.031 C 
ATOM     44  C   UNL     1      -0.273   3.719   2.193  1.00  0.00     0.029 A 
ATOM     45  C   UNL     1      -1.245   4.575   1.541  1.00  0.00     0.049 A 
ATOM     46  H   UNL     1      -2.266   4.241  -0.244  1.00  0.00     0.167 HD
ATOM     47  C   UNL     1      -3.917   3.455  -4.381  1.00  0.00     0.037 A 
ATOM     48  C   UNL     1      -1.666   5.754   2.023  1.00  0.00     0.037 A 
ATOM     49  C   UNL     1      -4.557   4.641  -3.873  1.00  0.00     0.049 A 
ATOM     50  C   UNL     1      -2.702   6.475   1.229  1.00  0.00     0.074 A 
ATOM     51  C   UNL     1      -5.567   5.396  -4.436  1.00  0.00     0.029 A 
ATOM     52  N   UNL     1      -4.229   5.244  -2.661  1.00  0.00    -0.354 N 
ATOM     53  N   UNL     1      -3.201   6.154   0.057  1.00  0.00    -0.248 NA
ATOM     54  C   UNL     1      -3.257   7.690   1.821  1.00  0.00     0.031 C 
ATOM     55  C   UNL     1      -5.809   6.485  -3.592  1.00  0.00     0.029 A 
ATOM     56  C   UNL     1      -4.995   6.378  -2.471  1.00  0.00     0.049 A 
ATOM     57  H   UNL     1      -3.550   4.911  -2.031  1.00  0.00     0.167 HD
ATOM     58  C   UNL     1      -4.151   7.119  -0.228  1.00  0.00     0.074 A 
ATOM     59  C   UNL     1      -4.163   8.024   0.911  1.00  0.00     0.031 C 
ATOM     60  C   UNL     1      -4.941   7.253  -1.323  1.00  0.00     0.037 A 
BRANCH  47  61
ATOM     61  C   UNL     1      -4.306   2.922  -5.744  1.00  0.00     0.058 A 
ATOM     62  C   UNL     1      -4.931   1.672  -5.908  1.00  0.00     0.135 A 
ATOM     63  C   UNL     1      -4.079   3.676  -6.909  1.00  0.00     0.135 A 
ATOM     64  F   UNL     1      -5.179   0.894  -4.842  1.00  0.00    -0.206 F 
ATOM     65  C   UNL     1      -5.272   1.175  -7.166  1.00  0.00     0.059 A 
ATOM     66  C   UNL     1      -4.442   3.214  -8.176  1.00  0.00     0.059 A 
ATOM     67  F   UNL     1      -3.493   4.881  -6.830  1.00  0.00    -0.206 F 
ATOM     68  C   UNL     1      -5.023   1.954  -8.296  1.00  0.00     0.060 A 
BRANCH  68  69
ATOM     69  S   UNL     1      -5.464   1.288  -9.918  1.00  0.00     0.124 S 
ATOM     70  O   UNL     1      -4.523   0.179 -10.049  1.00  0.00    -0.237 OA
ATOM     71  O   UNL     1      -6.861   0.912  -9.730  1.00  0.00    -0.237 OA
ATOM     72  O   UNL     1      -5.236   2.409 -10.824  1.00  0.00    -0.744 OA
ENDBRANCH  68  69
ENDBRANCH  47  61
BRANCH  48  73
ATOM     73  C   UNL     1      -1.151   6.196   3.341  1.00  0.00     0.058 A 
ATOM     74  C   UNL     1      -1.936   6.034   4.489  1.00  0.00     0.135 A 
ATOM     75  C   UNL     1       0.195   6.571   3.512  1.00  0.00     0.135 A 
ATOM     76  F   UNL     1      -3.216   5.646   4.375  1.00  0.00    -0.206 F 
ATOM     77  C   UNL     1      -1.409   6.218   5.762  1.00  0.00     0.059 A 
ATOM     78  C   UNL     1       0.751   6.737   4.777  1.00  0.00     0.059 A 
ATOM     79  F   UNL     1       1.004   6.680   2.446  1.00  0.00    -0.206 F 
ATOM     80  C   UNL     1      -0.060   6.555   5.896  1.00  0.00     0.060 A 
BRANCH  80  81
ATOM     81  S   UNL     1       0.625   6.695   7.561  1.00  0.00     0.124 S 
ATOM     82  O   UNL     1      -0.084   7.861   8.074  1.00  0.00    -0.237 OA
ATOM     83  O   UNL     1       0.255   5.412   8.150  1.00  0.00    -0.237 OA
ATOM     84  O   UNL     1       2.054   6.880   7.325  1.00  0.00    -0.744 OA
ENDBRANCH  80  81
ENDBRANCH  48  73
BRANCH  60  85
ATOM     85  C   UNL     1      -5.862   8.432  -1.330  1.00  0.00     0.058 A 
ATOM     86  C   UNL     1      -5.370   9.733  -1.508  1.00  0.00     0.135 A 
ATOM     87  C   UNL     1      -7.249   8.252  -1.217  1.00  0.00     0.135 A 
ATOM     88  F   UNL     1      -4.048   9.950  -1.609  1.00  0.00    -0.206 F 
ATOM     89  C   UNL     1      -6.224  10.824  -1.551  1.00  0.00     0.059 A 
ATOM     90  C   UNL     1      -8.124   9.325  -1.295  1.00  0.00     0.059 A 
ATOM     91  F   UNL     1      -7.762   7.022  -1.055  1.00  0.00    -0.206 F 
ATOM     92  C   UNL     1      -7.600  10.608  -1.452  1.00  0.00     0.060 A 
BRANCH  92  93
ATOM     93  S   UNL     1      -8.694  12.036  -1.548  1.00  0.00     0.124 S 
ATOM     94  O   UNL     1      -8.391  12.722  -0.297  1.00  0.00    -0.237 OA
ATOM     95  O   UNL     1      -8.229  12.697  -2.764  1.00  0.00    -0.237 OA
ATOM     96  O   UNL     1     -10.025  11.441  -1.632  1.00  0.00    -0.744 OA
ENDBRANCH  92  93
ENDBRANCH  60  85
ENDBRANCH  34  35
ENDBRANCH  27  29
ENDBRANCH  26  27
ENDBRANCH  25  26
ENDBRANCH   1  25
TORSDOF 19
