REMARK SMILES CC[NH2+][C@]1(C(=O)OCCOC(=O)c2ccc(-c3c4nc(c(-c5c(F)cc(S(=O)(=O)[O-])cc5F)c5ccc([nH]5)c(-c5c(F)cc(S(=O)(=O)[O-])cc5F)c5nc(c(-c6c(F)cc(S(=O)(=O)[O-])cc6F)c6ccc3[nH]6)C=C5)C=C4)cc2)CCC[C@H]1CCSc1n[nH]c(=O)n1C
REMARK SMILES IDX 8 1 7 2 5 3 6 4 4 5 79 6 82 7 80 8 81 9 3 10 2 13 1 14 83 15
REMARK SMILES IDX 84 16 85 17 86 18 87 19 91 20 88 21 89 22 92 23 90 25 9 26
REMARK SMILES IDX 10 27 11 28 12 29 13 30 14 31 78 32 15 33 77 34 16 35 17 36
REMARK SMILES IDX 18 37 71 38 19 39 76 40 70 41 72 42 20 43 75 44 69 45 68 46
REMARK SMILES IDX 21 48 55 49 34 50 54 51 35 52 38 53 53 54 73 55 36 56 37 57
REMARK SMILES IDX 52 59 74 60 39 61 22 62 23 63 32 64 24 65 25 66 31 67 33 68
REMARK SMILES IDX 26 69 27 70 28 71 29 72 30 73 56 74 57 75 66 76 58 77 59 78
REMARK SMILES IDX 65 79 67 80 60 81 61 82 62 83 63 84 64 85 40 86 41 87 50 88
REMARK SMILES IDX 42 89 43 90 49 91 51 92 44 93 45 94 46 95 47 96 48 97
REMARK H PARENT 3 11 3 12 88 24 72 47 38 58
REMARK Flexibility Score: inf
ROOT
ATOM      1  C   UNL     1       2.516   1.060   0.632  1.00  0.00     0.274 C 
ENDROOT
BRANCH   1   2
ATOM      2  O   UNL     1       1.947   0.452   1.812  1.00  0.00    -0.457 OA
BRANCH   2   3
ATOM      3  C   UNL     1       1.090   1.222   2.529  1.00  0.00     0.368 C 
ATOM      4  O   UNL     1       0.781   2.363   2.195  1.00  0.00    -0.245 OA
BRANCH   3   5
ATOM      5  C   UNL     1       0.696   0.600   3.902  1.00  0.00     0.197 C 
ATOM      6  C   UNL     1      -0.753   1.051   4.208  1.00  0.00     0.081 C 
ATOM      7  C   UNL     1       0.562  -0.954   4.142  1.00  0.00     0.063 C 
ATOM      8  C   UNL     1      -1.166   0.297   5.453  1.00  0.00     0.008 C 
ATOM      9  C   UNL     1      -0.496  -1.062   5.298  1.00  0.00     0.011 C 
BRANCH   5  10
ATOM     10  N   UNL     1       1.556   1.249   4.954  1.00  0.00    -0.332 N 
ATOM     11  H   UNL     1       1.304   2.236   5.014  1.00  0.00     0.347 HD
ATOM     12  H   UNL     1       1.387   0.755   5.830  1.00  0.00     0.347 HD
BRANCH  10  13
ATOM     13  C   UNL     1       2.983   1.152   4.671  1.00  0.00     0.257 C 
ATOM     14  C   UNL     1       3.810   1.706   5.817  1.00  0.00     0.071 C 
ENDBRANCH  10  13
ENDBRANCH   5  10
BRANCH   7  15
ATOM     15  C   UNL     1       0.079  -1.878   2.986  1.00  0.00     0.022 C 
BRANCH  15  16
ATOM     16  C   UNL     1       1.091  -2.439   1.972  1.00  0.00     0.079 C 
BRANCH  16  17
ATOM     17  S   UNL     1       1.978  -3.954   2.443  1.00  0.00    -0.086 SA
BRANCH  17  18
ATOM     18  C   UNL     1       3.200  -3.382   3.510  1.00  0.00     0.191 A 
ATOM     19  N   UNL     1       3.564  -2.143   3.649  1.00  0.00    -0.146 NA
ATOM     20  N   UNL     1       3.841  -4.252   4.323  1.00  0.00    -0.273 N 
ATOM     21  N   UNL     1       4.451  -2.179   4.691  1.00  0.00    -0.226 N 
ATOM     22  C   UNL     1       4.610  -3.477   5.145  1.00  0.00     0.343 A 
ATOM     23  C   UNL     1       3.805  -5.692   4.378  1.00  0.00     0.157 C 
ATOM     24  H   UNL     1       4.911  -1.393   5.065  1.00  0.00     0.195 HD
ATOM     25  O   UNL     1       5.288  -3.826   6.099  1.00  0.00    -0.246 OA
ENDBRANCH  17  18
ENDBRANCH  16  17
ENDBRANCH  15  16
ENDBRANCH   7  15
ENDBRANCH   3   5
ENDBRANCH   2   3
ENDBRANCH   1   2
BRANCH   1  26
ATOM     26  C   UNL     1       1.774   0.638  -0.634  1.00  0.00     0.275 C 
BRANCH  26  27
ATOM     27  O   UNL     1       0.406   1.075  -0.571  1.00  0.00    -0.458 OA
BRANCH  27  28
ATOM     28  C   UNL     1      -0.502   0.079  -0.490  1.00  0.00     0.338 C 
ATOM     29  O   UNL     1      -0.287  -1.120  -0.569  1.00  0.00    -0.246 OA
BRANCH  28  30
ATOM     30  C   UNL     1      -1.849   0.592  -0.213  1.00  0.00     0.060 A 
ATOM     31  C   UNL     1      -2.079   1.342   0.933  1.00  0.00     0.016 A 
ATOM     32  C   UNL     1      -2.920   0.124  -0.969  1.00  0.00     0.016 A 
ATOM     33  C   UNL     1      -3.371   1.505   1.412  1.00  0.00     0.010 A 
ATOM     34  C   UNL     1      -4.223   0.422  -0.570  1.00  0.00     0.010 A 
ATOM     35  C   UNL     1      -4.462   1.094   0.640  1.00  0.00    -0.014 A 
BRANCH  35  36
ATOM     36  C   UNL     1      -5.846   1.431   1.052  1.00  0.00     0.031 A 
ATOM     37  C   UNL     1      -6.884   0.352   1.179  1.00  0.00     0.074 A 
ATOM     38  C   UNL     1      -6.168   2.727   1.241  1.00  0.00     0.049 A 
ATOM     39  N   UNL     1      -8.185   0.463   1.225  1.00  0.00    -0.248 NA
ATOM     40  C   UNL     1      -6.398  -1.036   1.240  1.00  0.00     0.031 C 
ATOM     41  C   UNL     1      -5.228   3.853   1.187  1.00  0.00     0.029 A 
ATOM     42  N   UNL     1      -7.375   3.325   1.493  1.00  0.00    -0.354 N 
ATOM     43  C   UNL     1      -8.678  -0.836   1.264  1.00  0.00     0.074 A 
ATOM     44  C   UNL     1      -7.534  -1.722   1.240  1.00  0.00     0.031 C 
ATOM     45  C   UNL     1      -5.885   4.995   1.420  1.00  0.00     0.029 A 
ATOM     46  C   UNL     1      -7.304   4.699   1.510  1.00  0.00     0.049 A 
ATOM     47  H   UNL     1      -8.208   2.822   1.647  1.00  0.00     0.167 HD
ATOM     48  C   UNL     1      -9.972  -1.237   1.304  1.00  0.00     0.037 A 
ATOM     49  C   UNL     1      -8.276   5.628   1.510  1.00  0.00     0.037 A 
ATOM     50  C   UNL     1     -11.083  -0.318   1.351  1.00  0.00     0.049 A 
ATOM     51  C   UNL     1      -9.699   5.162   1.491  1.00  0.00     0.074 A 
ATOM     52  C   UNL     1     -12.436  -0.600   1.397  1.00  0.00     0.029 A 
ATOM     53  N   UNL     1     -10.964   1.067   1.363  1.00  0.00    -0.354 N 
ATOM     54  N   UNL     1     -10.159   3.933   1.474  1.00  0.00    -0.248 NA
ATOM     55  C   UNL     1     -10.734   6.200   1.473  1.00  0.00     0.031 C 
ATOM     56  C   UNL     1     -13.135   0.613   1.394  1.00  0.00     0.029 A 
ATOM     57  C   UNL     1     -12.218   1.652   1.401  1.00  0.00     0.049 A 
ATOM     58  H   UNL     1     -10.112   1.560   1.346  1.00  0.00     0.167 HD
ATOM     59  C   UNL     1     -11.541   4.048   1.465  1.00  0.00     0.074 A 
ATOM     60  C   UNL     1     -11.839   5.468   1.491  1.00  0.00     0.031 C 
ATOM     61  C   UNL     1     -12.479   3.071   1.438  1.00  0.00     0.037 A 
BRANCH  48  62
ATOM     62  C   UNL     1     -10.262  -2.715   1.259  1.00  0.00     0.058 A 
ATOM     63  C   UNL     1      -9.978  -3.567   2.338  1.00  0.00     0.135 A 
ATOM     64  C   UNL     1     -10.875  -3.284   0.129  1.00  0.00     0.135 A 
ATOM     65  F   UNL     1      -9.380  -3.085   3.440  1.00  0.00    -0.206 F 
ATOM     66  C   UNL     1     -10.266  -4.929   2.289  1.00  0.00     0.059 A 
ATOM     67  C   UNL     1     -11.198  -4.637   0.068  1.00  0.00     0.059 A 
ATOM     68  F   UNL     1     -11.171  -2.520  -0.935  1.00  0.00    -0.206 F 
ATOM     69  C   UNL     1     -10.876  -5.455   1.149  1.00  0.00     0.060 A 
BRANCH  69  70
ATOM     70  S   UNL     1     -11.244  -7.223   1.103  1.00  0.00     0.124 S 
ATOM     71  O   UNL     1      -9.908  -7.795   0.965  1.00  0.00    -0.237 OA
ATOM     72  O   UNL     1     -11.895  -7.441   2.391  1.00  0.00    -0.237 OA
ATOM     73  O   UNL     1     -12.108  -7.362  -0.065  1.00  0.00    -0.744 OA
ENDBRANCH  69  70
ENDBRANCH  48  62
BRANCH  49  74
ATOM     74  C   UNL     1      -7.918   7.070   1.471  1.00  0.00     0.058 A 
ATOM     75  C   UNL     1      -8.145   7.897   2.579  1.00  0.00     0.135 A 
ATOM     76  C   UNL     1      -7.292   7.639   0.348  1.00  0.00     0.135 A 
ATOM     77  F   UNL     1      -8.739   7.400   3.675  1.00  0.00    -0.206 F 
ATOM     78  C   UNL     1      -7.778   9.238   2.573  1.00  0.00     0.059 A 
ATOM     79  C   UNL     1      -6.886   8.968   0.330  1.00  0.00     0.059 A 
ATOM     80  F   UNL     1      -7.029   6.885  -0.731  1.00  0.00    -0.206 F 
ATOM     81  C   UNL     1      -7.145   9.764   1.444  1.00  0.00     0.060 A 
BRANCH  81  82
ATOM     82  S   UNL     1      -6.637  11.496   1.465  1.00  0.00     0.124 S 
ATOM     83  O   UNL     1      -7.919  12.178   1.337  1.00  0.00    -0.237 OA
ATOM     84  O   UNL     1      -5.980  11.608   2.764  1.00  0.00    -0.237 OA
ATOM     85  O   UNL     1      -5.749  11.600   0.311  1.00  0.00    -0.744 OA
ENDBRANCH  81  82
ENDBRANCH  49  74
BRANCH  61  86
ATOM     86  C   UNL     1     -13.913   3.510   1.486  1.00  0.00     0.058 A 
ATOM     87  C   UNL     1     -14.546   4.090   0.377  1.00  0.00     0.135 A 
ATOM     88  C   UNL     1     -14.673   3.304   2.649  1.00  0.00     0.135 A 
ATOM     89  F   UNL     1     -13.855   4.322  -0.751  1.00  0.00    -0.206 F 
ATOM     90  C   UNL     1     -15.883   4.466   0.424  1.00  0.00     0.059 A 
ATOM     91  C   UNL     1     -16.018   3.645   2.708  1.00  0.00     0.059 A 
ATOM     92  F   UNL     1     -14.111   2.749   3.735  1.00  0.00    -0.206 F 
ATOM     93  C   UNL     1     -16.612   4.234   1.592  1.00  0.00     0.060 A 
BRANCH  93  94
ATOM     94  S   UNL     1     -18.360   4.678   1.620  1.00  0.00     0.124 S 
ATOM     95  O   UNL     1     -18.292   6.134   1.692  1.00  0.00    -0.237 OA
ATOM     96  O   UNL     1     -18.842   4.127   0.358  1.00  0.00    -0.237 OA
ATOM     97  O   UNL     1     -18.860   4.013   2.820  1.00  0.00    -0.744 OA
ENDBRANCH  93  94
ENDBRANCH  61  86
ENDBRANCH  35  36
ENDBRANCH  28  30
ENDBRANCH  27  28
ENDBRANCH  26  27
ENDBRANCH   1  26
TORSDOF 20
