REMARK SMILES COc1nc(Cl)nc(N(CC(=O)OCCOC(=O)c2ccc(-c3c4nc(c(-c5c(F)cc(S(=O)(=O)[O-])cc5F)c5ccc([nH]5)c(-c5c(F)cc(S(=O)(=O)[O-])cc5F)c5nc(c(-c6c(F)cc(S(=O)(=O)[O-])cc6F)c6ccc3[nH]6)C=C5)C=C4)cc2)C(C)(C)C)n1
REMARK SMILES IDX 14 1 13 2 11 3 12 4 10 5 9 6 8 7 3 8 4 9 89 10 5 11 6 12
REMARK SMILES IDX 7 13 2 14 1 15 85 16 86 17 87 18 88 19 15 20 16 21 17 22
REMARK SMILES IDX 18 23 19 24 20 25 84 26 21 27 83 28 22 29 23 30 24 31 77 32
REMARK SMILES IDX 25 33 82 34 76 35 78 36 26 37 81 38 75 39 74 40 27 42 61 43
REMARK SMILES IDX 40 44 60 45 41 46 44 47 59 48 79 49 42 50 43 51 58 53 80 54
REMARK SMILES IDX 45 55 28 56 29 57 38 58 30 59 31 60 37 61 39 62 32 63 33 64
REMARK SMILES IDX 34 65 35 66 36 67 62 68 63 69 72 70 64 71 65 72 71 73 73 74
REMARK SMILES IDX 66 75 67 76 68 77 69 78 70 79 46 80 47 81 56 82 48 83 49 84
REMARK SMILES IDX 55 85 57 86 50 87 51 88 52 89 53 90 54 91
REMARK H PARENT 78 41 44 52
REMARK Flexibility Score: inf
ROOT
ATOM      1  C   UNL     1      -0.171   6.929  -5.575  1.00  0.00     0.274 C 
ENDROOT
BRANCH   1   2
ATOM      2  O   UNL     1      -0.368   6.223  -4.332  1.00  0.00    -0.461 OA
BRANCH   2   3
ATOM      3  C   UNL     1       0.116   6.842  -3.217  1.00  0.00     0.325 C 
ATOM      4  O   UNL     1       0.771   7.882  -3.234  1.00  0.00    -0.250 OA
BRANCH   3   5
ATOM      5  C   UNL     1      -0.369   6.212  -1.913  1.00  0.00     0.242 C 
BRANCH   5   6
ATOM      6  N   UNL     1      -0.690   4.775  -1.987  1.00  0.00    -0.325 N 
BRANCH   6   7
ATOM      7  C   UNL     1       0.416   3.935  -1.929  1.00  0.00     0.233 A 
ATOM      8  C   UNL     1       1.320   1.882  -1.668  1.00  0.00     0.322 A 
ATOM      9  N   UNL     1       2.560   2.309  -1.540  1.00  0.00    -0.164 NA
ATOM     10  N   UNL     1       0.241   2.623  -1.880  1.00  0.00    -0.158 NA
ATOM     11  C   UNL     1       2.623   3.621  -1.663  1.00  0.00     0.230 A 
ATOM     12  Cl  UNL     1       4.175   4.315  -1.479  1.00  0.00    -0.041 Cl
ATOM     13  N   UNL     1       1.626   4.476  -1.857  1.00  0.00    -0.182 NA
BRANCH   8  14
ATOM     14  O   UNL     1       1.100   0.528  -1.565  1.00  0.00    -0.467 OA
ATOM     15  C   UNL     1       1.287   0.145  -0.207  1.00  0.00     0.282 C 
ENDBRANCH   8  14
ENDBRANCH   6   7
BRANCH   6  16
ATOM     16  C   UNL     1      -2.087   4.256  -1.917  1.00  0.00     0.035 C 
ATOM     17  C   UNL     1      -2.406   3.390  -3.153  1.00  0.00     0.034 C 
ATOM     18  C   UNL     1      -2.314   3.468  -0.610  1.00  0.00     0.034 C 
ATOM     19  C   UNL     1      -3.144   5.383  -1.915  1.00  0.00     0.034 C 
ENDBRANCH   6  16
ENDBRANCH   5   6
ENDBRANCH   3   5
ENDBRANCH   2   3
ENDBRANCH   1   2
BRANCH   1  20
ATOM     20  C   UNL     1      -1.506   7.482  -6.069  1.00  0.00     0.275 C 
BRANCH  20  21
ATOM     21  O   UNL     1      -2.125   8.237  -5.013  1.00  0.00    -0.458 OA
BRANCH  21  22
ATOM     22  C   UNL     1      -3.460   8.053  -4.869  1.00  0.00     0.338 C 
ATOM     23  O   UNL     1      -4.189   7.428  -5.620  1.00  0.00    -0.246 OA
BRANCH  22  24
ATOM     24  C   UNL     1      -3.940   8.690  -3.616  1.00  0.00     0.060 A 
ATOM     25  C   UNL     1      -3.092   8.889  -2.522  1.00  0.00     0.016 A 
ATOM     26  C   UNL     1      -5.296   9.006  -3.500  1.00  0.00     0.016 A 
ATOM     27  C   UNL     1      -3.612   9.324  -1.301  1.00  0.00     0.010 A 
ATOM     28  C   UNL     1      -5.795   9.538  -2.305  1.00  0.00     0.010 A 
ATOM     29  C   UNL     1      -4.965   9.682  -1.182  1.00  0.00    -0.014 A 
BRANCH  29  30
ATOM     30  C   UNL     1      -5.502  10.237   0.095  1.00  0.00     0.031 A 
ATOM     31  C   UNL     1      -6.657   9.578   0.809  1.00  0.00     0.074 A 
ATOM     32  C   UNL     1      -4.969  11.365   0.609  1.00  0.00     0.049 A 
ATOM     33  N   UNL     1      -7.341  10.005   1.841  1.00  0.00    -0.248 NA
ATOM     34  C   UNL     1      -7.114   8.281   0.285  1.00  0.00     0.031 C 
ATOM     35  C   UNL     1      -3.856  12.119   0.026  1.00  0.00     0.029 A 
ATOM     36  N   UNL     1      -5.291  12.076   1.738  1.00  0.00    -0.354 N 
ATOM     37  C   UNL     1      -8.338   9.060   2.061  1.00  0.00     0.074 A 
ATOM     38  C   UNL     1      -8.170   8.035   1.050  1.00  0.00     0.031 C 
ATOM     39  C   UNL     1      -3.561  13.157   0.822  1.00  0.00     0.029 A 
ATOM     40  C   UNL     1      -4.508  13.189   1.931  1.00  0.00     0.049 A 
ATOM     41  H   UNL     1      -6.014  11.814   2.353  1.00  0.00     0.167 HD
ATOM     42  C   UNL     1      -9.303   9.046   3.013  1.00  0.00     0.037 A 
ATOM     43  C   UNL     1      -4.556  14.151   2.872  1.00  0.00     0.037 A 
ATOM     44  C   UNL     1      -9.444  10.037   4.050  1.00  0.00     0.049 A 
ATOM     45  C   UNL     1      -5.617  14.100   3.929  1.00  0.00     0.074 A 
ATOM     46  C   UNL     1     -10.376  10.086   5.075  1.00  0.00     0.029 A 
ATOM     47  N   UNL     1      -8.625  11.145   4.208  1.00  0.00    -0.354 N 
ATOM     48  N   UNL     1      -6.572  13.217   4.095  1.00  0.00    -0.248 NA
ATOM     49  C   UNL     1      -5.617  15.186   4.919  1.00  0.00     0.031 C 
ATOM     50  C   UNL     1     -10.132  11.234   5.840  1.00  0.00     0.029 A 
ATOM     51  C   UNL     1      -9.030  11.883   5.309  1.00  0.00     0.049 A 
ATOM     52  H   UNL     1      -7.866  11.373   3.624  1.00  0.00     0.167 HD
ATOM     53  C   UNL     1      -7.288  13.641   5.207  1.00  0.00     0.074 A 
ATOM     54  C   UNL     1      -6.641  14.845   5.689  1.00  0.00     0.031 C 
ATOM     55  C   UNL     1      -8.389  13.087   5.771  1.00  0.00     0.037 A 
BRANCH  42  56
ATOM     56  C   UNL     1     -10.307   7.927   2.973  1.00  0.00     0.058 A 
ATOM     57  C   UNL     1      -9.986   6.630   3.402  1.00  0.00     0.135 A 
ATOM     58  C   UNL     1     -11.624   8.170   2.549  1.00  0.00     0.135 A 
ATOM     59  F   UNL     1      -8.739   6.340   3.803  1.00  0.00    -0.206 F 
ATOM     60  C   UNL     1     -10.931   5.608   3.395  1.00  0.00     0.059 A 
ATOM     61  C   UNL     1     -12.590   7.168   2.551  1.00  0.00     0.059 A 
ATOM     62  F   UNL     1     -11.983   9.394   2.129  1.00  0.00    -0.206 F 
ATOM     63  C   UNL     1     -12.230   5.887   2.965  1.00  0.00     0.060 A 
BRANCH  63  64
ATOM     64  S   UNL     1     -13.452   4.556   2.970  1.00  0.00     0.124 S 
ATOM     65  O   UNL     1     -13.077   3.815   1.770  1.00  0.00    -0.237 OA
ATOM     66  O   UNL     1     -13.183   3.885   4.238  1.00  0.00    -0.237 OA
ATOM     67  O   UNL     1     -14.725   5.266   2.899  1.00  0.00    -0.744 OA
ENDBRANCH  63  64
ENDBRANCH  42  56
BRANCH  43  68
ATOM     68  C   UNL     1      -3.565  15.256   2.838  1.00  0.00     0.058 A 
ATOM     69  C   UNL     1      -2.514  15.304   3.764  1.00  0.00     0.135 A 
ATOM     70  C   UNL     1      -3.623  16.255   1.855  1.00  0.00     0.135 A 
ATOM     71  F   UNL     1      -2.425  14.373   4.727  1.00  0.00    -0.206 F 
ATOM     72  C   UNL     1      -1.550  16.304   3.717  1.00  0.00     0.059 A 
ATOM     73  C   UNL     1      -2.659  17.252   1.773  1.00  0.00     0.059 A 
ATOM     74  F   UNL     1      -4.604  16.240   0.938  1.00  0.00    -0.206 F 
ATOM     75  C   UNL     1      -1.628  17.272   2.713  1.00  0.00     0.060 A 
BRANCH  75  76
ATOM     76  S   UNL     1      -0.328  18.519   2.598  1.00  0.00     0.124 S 
ATOM     77  O   UNL     1      -0.758  19.484   3.603  1.00  0.00    -0.237 OA
ATOM     78  O   UNL     1       0.872  17.752   2.921  1.00  0.00    -0.237 OA
ATOM     79  O   UNL     1      -0.419  18.964   1.210  1.00  0.00    -0.744 OA
ENDBRANCH  75  76
ENDBRANCH  43  68
BRANCH  55  80
ATOM     80  C   UNL     1      -8.950  13.781   6.979  1.00  0.00     0.058 A 
ATOM     81  C   UNL     1      -9.681  14.973   6.862  1.00  0.00     0.135 A 
ATOM     82  C   UNL     1      -8.741  13.259   8.264  1.00  0.00     0.135 A 
ATOM     83  F   UNL     1      -9.901  15.515   5.654  1.00  0.00    -0.206 F 
ATOM     84  C   UNL     1     -10.155  15.647   7.983  1.00  0.00     0.059 A 
ATOM     85  C   UNL     1      -9.222  13.906   9.399  1.00  0.00     0.059 A 
ATOM     86  F   UNL     1      -8.054  12.118   8.428  1.00  0.00    -0.206 F 
ATOM     87  C   UNL     1      -9.910  15.110   9.249  1.00  0.00     0.060 A 
BRANCH  87  88
ATOM     88  S   UNL     1     -10.510  15.996  10.704  1.00  0.00     0.124 S 
ATOM     89  O   UNL     1      -9.482  17.017  10.868  1.00  0.00    -0.237 OA
ATOM     90  O   UNL     1     -11.817  16.477  10.267  1.00  0.00    -0.237 OA
ATOM     91  O   UNL     1     -10.543  14.963  11.735  1.00  0.00    -0.744 OA
ENDBRANCH  87  88
ENDBRANCH  55  80
ENDBRANCH  29  30
ENDBRANCH  22  24
ENDBRANCH  21  22
ENDBRANCH  20  21
ENDBRANCH   1  20
TORSDOF 18
