REMARK SMILES COc1ccc(/C=N/NC(=O)c2cc(C)nn2C)c(C(=O)OCCOC(=O)c2ccc(-c3c4nc(c(-c5c(F)cc(S(=O)(=O)[O-])cc5F)c5ccc([nH]5)c(-c5c(F)cc(S(=O)(=O)[O-])cc5F)c5nc(c(-c6c(F)cc(S(=O)(=O)[O-])cc6F)c6ccc3[nH]6)C=C5)C=C4)cc2)c1OC
REMARK SMILES IDX 23 1 22 2 20 3 21 4 19 5 3 6 4 7 94 8 5 9 6 10 2 11 1 12
REMARK SMILES IDX 95 13 96 14 7 15 8 16 9 17 10 18 11 20 12 21 13 22 17 23
REMARK SMILES IDX 14 24 16 25 18 26 15 27 24 28 25 29 26 30 27 31 28 32 29 33
REMARK SMILES IDX 93 34 30 35 92 36 31 37 32 38 33 39 86 40 34 41 91 42 85 43
REMARK SMILES IDX 87 44 35 45 90 46 84 47 83 48 36 50 70 51 49 52 69 53 50 54
REMARK SMILES IDX 53 55 68 56 88 57 51 58 52 59 67 61 89 62 54 63 37 64 38 65
REMARK SMILES IDX 47 66 39 67 40 68 46 69 48 70 41 71 42 72 43 73 44 74 45 75
REMARK SMILES IDX 71 76 72 77 81 78 73 79 74 80 80 81 82 82 75 83 76 84 77 85
REMARK SMILES IDX 78 86 79 87 55 88 56 89 65 90 57 91 58 92 64 93 66 94 59 95
REMARK SMILES IDX 60 96 61 97 62 98 63 99
REMARK H PARENT 9 19 87 49 53 60
REMARK Flexibility Score: inf
ROOT
ATOM      1  C   UNL     1       5.877  -2.905  -2.558  1.00  0.00     0.275 C 
ENDROOT
BRANCH   1   2
ATOM      2  O   UNL     1       4.470  -2.719  -2.386  1.00  0.00    -0.458 OA
BRANCH   2   3
ATOM      3  C   UNL     1       3.954  -1.565  -2.864  1.00  0.00     0.342 C 
ATOM      4  O   UNL     1       4.520  -0.662  -3.435  1.00  0.00    -0.246 OA
BRANCH   3   5
ATOM      5  C   UNL     1       2.513  -1.593  -2.608  1.00  0.00     0.114 A 
ATOM      6  C   UNL     1       0.672  -1.625  -1.051  1.00  0.00     0.161 A 
ATOM      7  C   UNL     1      -0.224  -1.869  -2.090  1.00  0.00     0.051 A 
ATOM      8  C   UNL     1       2.046  -1.538  -1.292  1.00  0.00     0.175 A 
ATOM      9  C   UNL     1       0.247  -1.928  -3.399  1.00  0.00     0.015 A 
ATOM     10  C   UNL     1       1.615  -1.739  -3.665  1.00  0.00     0.013 A 
BRANCH   6  11
ATOM     11  O   UNL     1       0.170  -1.460   0.211  1.00  0.00    -0.493 OA
ATOM     12  C   UNL     1      -0.075  -0.070   0.446  1.00  0.00     0.278 C 
ENDBRANCH   6  11
BRANCH   8  13
ATOM     13  O   UNL     1       2.909  -1.514  -0.230  1.00  0.00    -0.492 OA
ATOM     14  C   UNL     1       3.338  -0.197   0.093  1.00  0.00     0.278 C 
ENDBRANCH   8  13
BRANCH  10  15
ATOM     15  C   UNL     1       2.088  -1.814  -5.062  1.00  0.00     0.142 C 
ATOM     16  N   UNL     1       1.475  -2.633  -5.830  1.00  0.00    -0.180 NA
BRANCH  16  17
ATOM     17  N   UNL     1       1.836  -2.900  -7.094  1.00  0.00    -0.242 N 
ATOM     18  C   UNL     1       2.981  -2.873  -7.862  1.00  0.00     0.289 C 
ATOM     19  H   UNL     1       1.063  -3.201  -7.624  1.00  0.00     0.194 HD
ATOM     20  O   UNL     1       2.903  -3.388  -8.976  1.00  0.00    -0.266 OA
BRANCH  18  21
ATOM     21  C   UNL     1       4.243  -2.331  -7.479  1.00  0.00     0.127 A 
ATOM     22  C   UNL     1       4.985  -2.451  -6.326  1.00  0.00     0.059 A 
ATOM     23  N   UNL     1       5.097  -1.755  -8.395  1.00  0.00    -0.263 N 
ATOM     24  C   UNL     1       6.264  -1.956  -6.645  1.00  0.00     0.060 A 
ATOM     25  N   UNL     1       6.309  -1.464  -7.883  1.00  0.00    -0.178 NA
ATOM     26  C   UNL     1       4.880  -1.487  -9.802  1.00  0.00     0.174 C 
ATOM     27  C   UNL     1       7.492  -1.977  -5.826  1.00  0.00     0.069 C 
ENDBRANCH  18  21
ENDBRANCH  16  17
ENDBRANCH  10  15
ENDBRANCH   3   5
ENDBRANCH   2   3
ENDBRANCH   1   2
BRANCH   1  28
ATOM     28  C   UNL     1       6.176  -4.375  -2.871  1.00  0.00     0.275 C 
BRANCH  28  29
ATOM     29  O   UNL     1       5.476  -4.834  -4.051  1.00  0.00    -0.458 OA
BRANCH  29  30
ATOM     30  C   UNL     1       4.266  -5.416  -3.823  1.00  0.00     0.338 C 
ATOM     31  O   UNL     1       3.766  -5.604  -2.725  1.00  0.00    -0.246 OA
BRANCH  30  32
ATOM     32  C   UNL     1       3.547  -5.725  -5.093  1.00  0.00     0.060 A 
ATOM     33  C   UNL     1       2.146  -5.655  -5.088  1.00  0.00     0.016 A 
ATOM     34  C   UNL     1       4.197  -6.125  -6.263  1.00  0.00     0.016 A 
ATOM     35  C   UNL     1       1.397  -5.976  -6.234  1.00  0.00     0.010 A 
ATOM     36  C   UNL     1       3.444  -6.460  -7.409  1.00  0.00     0.010 A 
ATOM     37  C   UNL     1       2.034  -6.399  -7.408  1.00  0.00    -0.014 A 
BRANCH  37  38
ATOM     38  C   UNL     1       1.259  -7.036  -8.523  1.00  0.00     0.031 A 
ATOM     39  C   UNL     1       0.913  -8.487  -8.374  1.00  0.00     0.074 A 
ATOM     40  C   UNL     1       0.860  -6.414  -9.653  1.00  0.00     0.049 A 
ATOM     41  N   UNL     1       0.247  -9.252  -9.196  1.00  0.00    -0.248 NA
ATOM     42  C   UNL     1       1.302  -9.139  -7.114  1.00  0.00     0.031 C 
ATOM     43  C   UNL     1       0.886  -4.990  -9.887  1.00  0.00     0.029 A 
ATOM     44  N   UNL     1       0.382  -6.897 -10.851  1.00  0.00    -0.354 N 
ATOM     45  C   UNL     1       0.060 -10.445  -8.520  1.00  0.00     0.074 A 
ATOM     46  C   UNL     1       0.746 -10.332  -7.251  1.00  0.00     0.031 C 
ATOM     47  C   UNL     1       0.676  -4.707 -11.176  1.00  0.00     0.029 A 
ATOM     48  C   UNL     1       0.374  -5.949 -11.857  1.00  0.00     0.049 A 
ATOM     49  H   UNL     1       0.076  -7.825 -10.978  1.00  0.00     0.167 HD
ATOM     50  C   UNL     1      -0.651 -11.523  -8.916  1.00  0.00     0.037 A 
ATOM     51  C   UNL     1       0.128  -6.034 -13.177  1.00  0.00     0.037 A 
ATOM     52  C   UNL     1      -1.244 -11.660 -10.219  1.00  0.00     0.049 A 
ATOM     53  C   UNL     1      -0.458  -7.309 -13.682  1.00  0.00     0.074 A 
ATOM     54  C   UNL     1      -1.939 -12.736 -10.737  1.00  0.00     0.029 A 
ATOM     55  N   UNL     1      -1.171 -10.707 -11.228  1.00  0.00    -0.354 N 
ATOM     56  N   UNL     1      -0.685  -8.411 -13.011  1.00  0.00    -0.248 NA
ATOM     57  C   UNL     1      -0.906  -7.339 -15.078  1.00  0.00     0.031 C 
ATOM     58  C   UNL     1      -2.226 -12.463 -12.079  1.00  0.00     0.029 A 
ATOM     59  C   UNL     1      -1.765 -11.191 -12.382  1.00  0.00     0.049 A 
ATOM     60  H   UNL     1      -0.757  -9.818 -11.137  1.00  0.00     0.167 HD
ATOM     61  C   UNL     1      -1.363  -9.247 -13.879  1.00  0.00     0.074 A 
ATOM     62  C   UNL     1      -1.485  -8.532 -15.136  1.00  0.00     0.031 C 
ATOM     63  C   UNL     1      -1.866 -10.480 -13.634  1.00  0.00     0.037 A 
BRANCH  50  64
ATOM     64  C   UNL     1      -0.766 -12.640  -7.925  1.00  0.00     0.058 A 
ATOM     65  C   UNL     1      -1.557 -12.515  -6.770  1.00  0.00     0.135 A 
ATOM     66  C   UNL     1      -0.036 -13.824  -8.100  1.00  0.00     0.135 A 
ATOM     67  F   UNL     1      -2.253 -11.389  -6.543  1.00  0.00    -0.206 F 
ATOM     68  C   UNL     1      -1.589 -13.513  -5.803  1.00  0.00     0.059 A 
ATOM     69  C   UNL     1      -0.072 -14.844  -7.157  1.00  0.00     0.059 A 
ATOM     70  F   UNL     1       0.744 -13.983  -9.180  1.00  0.00    -0.206 F 
ATOM     71  C   UNL     1      -0.834 -14.670  -6.002  1.00  0.00     0.060 A 
BRANCH  71  72
ATOM     72  S   UNL     1      -0.844 -15.938  -4.718  1.00  0.00     0.124 S 
ATOM     73  O   UNL     1      -0.029 -15.309  -3.683  1.00  0.00    -0.237 OA
ATOM     74  O   UNL     1      -2.266 -16.065  -4.415  1.00  0.00    -0.237 OA
ATOM     75  O   UNL     1      -0.241 -17.092  -5.376  1.00  0.00    -0.744 OA
ENDBRANCH  71  72
ENDBRANCH  50  64
BRANCH  51  76
ATOM     76  C   UNL     1       0.362  -4.852 -14.052  1.00  0.00     0.058 A 
ATOM     77  C   UNL     1      -0.690  -4.053 -14.518  1.00  0.00     0.135 A 
ATOM     78  C   UNL     1       1.672  -4.453 -14.373  1.00  0.00     0.135 A 
ATOM     79  F   UNL     1      -1.959  -4.385 -14.234  1.00  0.00    -0.206 F 
ATOM     80  C   UNL     1      -0.458  -2.904 -15.270  1.00  0.00     0.059 A 
ATOM     81  C   UNL     1       1.931  -3.300 -15.112  1.00  0.00     0.059 A 
ATOM     82  F   UNL     1       2.719  -5.173 -13.941  1.00  0.00    -0.206 F 
ATOM     83  C   UNL     1       0.858  -2.531 -15.557  1.00  0.00     0.060 A 
BRANCH  83  84
ATOM     84  S   UNL     1       1.144  -0.999 -16.473  1.00  0.00     0.124 S 
ATOM     85  O   UNL     1       0.658  -1.352 -17.802  1.00  0.00    -0.237 OA
ATOM     86  O   UNL     1       0.331  -0.042 -15.729  1.00  0.00    -0.237 OA
ATOM     87  O   UNL     1       2.587  -0.802 -16.362  1.00  0.00    -0.744 OA
ENDBRANCH  83  84
ENDBRANCH  51  76
BRANCH  63  88
ATOM     88  C   UNL     1      -2.608 -11.147 -14.751  1.00  0.00     0.058 A 
ATOM     89  C   UNL     1      -1.936 -11.684 -15.858  1.00  0.00     0.135 A 
ATOM     90  C   UNL     1      -3.999 -11.319 -14.670  1.00  0.00     0.135 A 
ATOM     91  F   UNL     1      -0.609 -11.527 -15.986  1.00  0.00    -0.206 F 
ATOM     92  C   UNL     1      -2.620 -12.374 -16.850  1.00  0.00     0.059 A 
ATOM     93  C   UNL     1      -4.699 -12.029 -15.637  1.00  0.00     0.059 A 
ATOM     94  F   UNL     1      -4.684 -10.820 -13.629  1.00  0.00    -0.206 F 
ATOM     95  C   UNL     1      -4.000 -12.552 -16.724  1.00  0.00     0.060 A 
BRANCH  95  96
ATOM     96  S   UNL     1      -4.859 -13.526 -17.976  1.00  0.00     0.124 S 
ATOM     97  O   UNL     1      -4.878 -12.602 -19.105  1.00  0.00    -0.237 OA
ATOM     98  O   UNL     1      -3.986 -14.687 -18.120  1.00  0.00    -0.237 OA
ATOM     99  O   UNL     1      -6.156 -13.797 -17.364  1.00  0.00    -0.744 OA
ENDBRANCH  95  96
ENDBRANCH  63  88
ENDBRANCH  37  38
ENDBRANCH  30  32
ENDBRANCH  29  30
ENDBRANCH  28  29
ENDBRANCH   1  28
TORSDOF 19
