REMARK SMILES Cc1cc(F)c([C@@H](C)[N@@H+]2C[C@H](C)[C@H](C(=O)OCCOC(=O)c3ccc(-c4c5nc(c(-c6c(F)cc(S(=O)(=O)[O-])cc6F)c6ccc([nH]6)c(-c6c(F)cc(S(=O)(=O)[O-])cc6F)c6nc(c(-c7c(F)cc(S(=O)(=O)[O-])cc7F)c7ccc4[nH]7)C=C6)C=C5)cc3)C2)cc1F
REMARK SMILES IDX 18 1 17 2 16 3 14 4 15 5 13 6 9 7 10 8 88 9 11 11 12 12 7 13
REMARK SMILES IDX 8 14 6 15 1 16 2 17 3 18 90 19 4 20 89 21 91 22 5 23 19 24
REMARK SMILES IDX 20 25 21 26 22 27 23 28 87 29 24 30 86 31 25 32 26 33 27 34
REMARK SMILES IDX 80 35 28 36 85 37 79 38 81 39 29 40 84 41 78 42 77 43 30 45
REMARK SMILES IDX 64 46 43 47 63 48 44 49 47 50 62 51 82 52 45 53 46 54 61 56
REMARK SMILES IDX 83 57 48 58 31 59 32 60 41 61 33 62 34 63 40 64 42 65 35 66
REMARK SMILES IDX 36 67 37 68 38 69 39 70 65 71 66 72 75 73 67 74 68 75 74 76
REMARK SMILES IDX 76 77 69 78 70 79 71 80 72 81 73 82 49 83 50 84 59 85 51 86
REMARK SMILES IDX 52 87 58 88 60 89 53 90 54 91 55 92 56 93 57 94
REMARK H PARENT 9 10 81 44 47 55
REMARK Flexibility Score: inf
ROOT
ATOM      1  C   UNL     1      -4.983   0.045  -1.252  1.00  0.00     0.275 C 
ENDROOT
BRANCH   1   2
ATOM      2  C   UNL     1      -3.887   0.597  -2.168  1.00  0.00     0.274 C 
BRANCH   2   3
ATOM      3  O   UNL     1      -3.360   1.837  -1.659  1.00  0.00    -0.462 OA
BRANCH   3   4
ATOM      4  C   UNL     1      -3.842   2.975  -2.210  1.00  0.00     0.315 C 
ATOM      5  O   UNL     1      -4.607   3.000  -3.169  1.00  0.00    -0.252 OA
BRANCH   4   6
ATOM      6  C   UNL     1      -3.334   4.252  -1.572  1.00  0.00     0.162 C 
ATOM      7  N   UNL     1      -1.286   5.500  -1.606  1.00  0.00    -0.328 N 
ATOM      8  C   UNL     1      -1.755   5.447  -0.225  1.00  0.00     0.267 C 
ATOM      9  C   UNL     1      -2.291   4.897  -2.473  1.00  0.00     0.278 C 
ATOM     10  H   UNL     1      -1.211   6.485  -1.862  1.00  0.00     0.348 HD
ATOM     11  C   UNL     1      -2.804   4.333  -0.135  1.00  0.00     0.061 C 
ATOM     12  C   UNL     1      -2.248   3.079   0.526  1.00  0.00     0.015 C 
BRANCH   7  13
ATOM     13  C   UNL     1       0.122   5.178  -1.868  1.00  0.00     0.215 C 
ATOM     14  C   UNL     1       0.531   5.575  -3.296  1.00  0.00     0.081 C 
BRANCH  13  15
ATOM     15  C   UNL     1       0.547   3.768  -1.485  1.00  0.00     0.048 A 
ATOM     16  C   UNL     1       1.347  -0.222   0.004  1.00  0.00     0.047 C 
ATOM     17  C   UNL     1       1.123   1.151  -0.547  1.00  0.00    -0.012 A 
ATOM     18  C   UNL     1       0.549   1.344  -1.806  1.00  0.00     0.046 A 
ATOM     19  C   UNL     1       1.461   2.275   0.207  1.00  0.00     0.126 A 
ATOM     20  C   UNL     1       0.280   2.636  -2.266  1.00  0.00     0.132 A 
ATOM     21  C   UNL     1       1.182   3.563  -0.246  1.00  0.00     0.052 A 
ATOM     22  F   UNL     1       2.033   2.123   1.410  1.00  0.00    -0.207 F 
ATOM     23  F   UNL     1      -0.281   2.747  -3.476  1.00  0.00    -0.206 F 
ENDBRANCH  13  15
ENDBRANCH   7  13
ENDBRANCH   4   6
ENDBRANCH   3   4
ENDBRANCH   2   3
ENDBRANCH   1   2
BRANCH   1  24
ATOM     24  O   UNL     1      -6.163   0.867  -1.289  1.00  0.00    -0.458 OA
BRANCH  24  25
ATOM     25  C   UNL     1      -6.255   1.795  -0.308  1.00  0.00     0.338 C 
ATOM     26  O   UNL     1      -5.487   1.972   0.621  1.00  0.00    -0.246 OA
BRANCH  25  27
ATOM     27  C   UNL     1      -7.379   2.694  -0.594  1.00  0.00     0.060 A 
ATOM     28  C   UNL     1      -8.698   2.271  -0.443  1.00  0.00     0.016 A 
ATOM     29  C   UNL     1      -7.090   4.013  -0.947  1.00  0.00     0.016 A 
ATOM     30  C   UNL     1      -9.730   3.184  -0.674  1.00  0.00     0.010 A 
ATOM     31  C   UNL     1      -8.114   4.923  -1.170  1.00  0.00     0.010 A 
ATOM     32  C   UNL     1      -9.444   4.512  -1.042  1.00  0.00    -0.014 A 
BRANCH  32  33
ATOM     33  C   UNL     1     -10.530   5.495  -1.240  1.00  0.00     0.031 A 
ATOM     34  C   UNL     1     -10.871   5.987  -2.616  1.00  0.00     0.074 A 
ATOM     35  C   UNL     1     -11.178   5.966  -0.159  1.00  0.00     0.049 A 
ATOM     36  N   UNL     1     -11.845   6.777  -2.986  1.00  0.00    -0.248 NA
ATOM     37  C   UNL     1      -9.995   5.555  -3.718  1.00  0.00     0.031 C 
ATOM     38  C   UNL     1     -10.859   5.619   1.228  1.00  0.00     0.029 A 
ATOM     39  N   UNL     1     -12.239   6.825  -0.053  1.00  0.00    -0.354 N 
ATOM     40  C   UNL     1     -11.714   6.920  -4.362  1.00  0.00     0.074 A 
ATOM     41  C   UNL     1     -10.528   6.190  -4.753  1.00  0.00     0.031 C 
ATOM     42  C   UNL     1     -11.738   6.223   2.044  1.00  0.00     0.029 A 
ATOM     43  C   UNL     1     -12.670   7.006   1.240  1.00  0.00     0.049 A 
ATOM     44  H   UNL     1     -12.653   7.270  -0.827  1.00  0.00     0.167 HD
ATOM     45  C   UNL     1     -12.531   7.577  -5.220  1.00  0.00     0.037 A 
ATOM     46  C   UNL     1     -13.718   7.705   1.716  1.00  0.00     0.037 A 
ATOM     47  C   UNL     1     -13.709   8.297  -4.810  1.00  0.00     0.049 A 
ATOM     48  C   UNL     1     -14.622   8.408   0.743  1.00  0.00     0.074 A 
ATOM     49  C   UNL     1     -14.636   8.953  -5.599  1.00  0.00     0.029 A 
ATOM     50  N   UNL     1     -14.118   8.457  -3.493  1.00  0.00    -0.354 N 
ATOM     51  N   UNL     1     -14.540   8.460  -0.565  1.00  0.00    -0.248 NA
ATOM     52  C   UNL     1     -15.767   9.135   1.306  1.00  0.00     0.031 C 
ATOM     53  C   UNL     1     -15.589   9.538  -4.757  1.00  0.00     0.029 A 
ATOM     54  C   UNL     1     -15.276   9.214  -3.446  1.00  0.00     0.049 A 
ATOM     55  H   UNL     1     -13.653   8.087  -2.709  1.00  0.00     0.167 HD
ATOM     56  C   UNL     1     -15.628   9.215  -0.985  1.00  0.00     0.074 A 
ATOM     57  C   UNL     1     -16.364   9.583   0.209  1.00  0.00     0.031 C 
ATOM     58  C   UNL     1     -15.986   9.572  -2.243  1.00  0.00     0.037 A 
BRANCH  45  59
ATOM     59  C   UNL     1     -12.197   7.520  -6.685  1.00  0.00     0.058 A 
ATOM     60  C   UNL     1     -12.363   6.335  -7.422  1.00  0.00     0.135 A 
ATOM     61  C   UNL     1     -11.760   8.662  -7.374  1.00  0.00     0.135 A 
ATOM     62  F   UNL     1     -12.767   5.210  -6.811  1.00  0.00    -0.206 F 
ATOM     63  C   UNL     1     -12.089   6.280  -8.784  1.00  0.00     0.059 A 
ATOM     64  C   UNL     1     -11.501   8.635  -8.743  1.00  0.00     0.059 A 
ATOM     65  F   UNL     1     -11.584   9.820  -6.720  1.00  0.00    -0.206 F 
ATOM     66  C   UNL     1     -11.659   7.436  -9.437  1.00  0.00     0.060 A 
BRANCH  66  67
ATOM     67  S   UNL     1     -11.328   7.348 -11.210  1.00  0.00     0.124 S 
ATOM     68  O   UNL     1     -10.094   6.569 -11.238  1.00  0.00    -0.237 OA
ATOM     69  O   UNL     1     -12.516   6.668 -11.716  1.00  0.00    -0.237 OA
ATOM     70  O   UNL     1     -11.195   8.748 -11.602  1.00  0.00    -0.744 OA
ENDBRANCH  66  67
ENDBRANCH  45  59
BRANCH  46  71
ATOM     71  C   UNL     1     -13.998   7.702   3.174  1.00  0.00     0.058 A 
ATOM     72  C   UNL     1     -15.066   6.959   3.696  1.00  0.00     0.135 A 
ATOM     73  C   UNL     1     -13.175   8.391   4.078  1.00  0.00     0.135 A 
ATOM     74  F   UNL     1     -15.880   6.284   2.871  1.00  0.00    -0.206 F 
ATOM     75  C   UNL     1     -15.314   6.902   5.064  1.00  0.00     0.059 A 
ATOM     76  C   UNL     1     -13.390   8.333   5.452  1.00  0.00     0.059 A 
ATOM     77  F   UNL     1     -12.128   9.100   3.628  1.00  0.00    -0.206 F 
ATOM     78  C   UNL     1     -14.466   7.588   5.935  1.00  0.00     0.060 A 
BRANCH  78  79
ATOM     79  S   UNL     1     -14.757   7.448   7.712  1.00  0.00     0.124 S 
ATOM     80  O   UNL     1     -15.960   8.255   7.877  1.00  0.00    -0.237 OA
ATOM     81  O   UNL     1     -14.925   6.008   7.882  1.00  0.00    -0.237 OA
ATOM     82  O   UNL     1     -13.539   8.002   8.296  1.00  0.00    -0.744 OA
ENDBRANCH  78  79
ENDBRANCH  46  71
BRANCH  58  83
ATOM     83  C   UNL     1     -17.228  10.402  -2.394  1.00  0.00     0.058 A 
ATOM     84  C   UNL     1     -17.235  11.768  -2.072  1.00  0.00     0.135 A 
ATOM     85  C   UNL     1     -18.399   9.845  -2.931  1.00  0.00     0.135 A 
ATOM     86  F   UNL     1     -16.142  12.345  -1.548  1.00  0.00    -0.206 F 
ATOM     87  C   UNL     1     -18.367  12.551  -2.266  1.00  0.00     0.059 A 
ATOM     88  C   UNL     1     -19.535  10.615  -3.155  1.00  0.00     0.059 A 
ATOM     89  F   UNL     1     -18.438   8.545  -3.263  1.00  0.00    -0.206 F 
ATOM     90  C   UNL     1     -19.511  11.967  -2.812  1.00  0.00     0.060 A 
BRANCH  90  91
ATOM     91  S   UNL     1     -20.957  13.008  -3.101  1.00  0.00     0.124 S 
ATOM     92  O   UNL     1     -21.449  13.211  -1.743  1.00  0.00    -0.237 OA
ATOM     93  O   UNL     1     -20.374  14.180  -3.747  1.00  0.00    -0.237 OA
ATOM     94  O   UNL     1     -21.803  12.184  -3.959  1.00  0.00    -0.744 OA
ENDBRANCH  90  91
ENDBRANCH  58  83
ENDBRANCH  32  33
ENDBRANCH  25  27
ENDBRANCH  24  25
ENDBRANCH   1  24
TORSDOF 16
