REMARK SMILES C[NH+]1CCN(c2nc3c(cc2F)c(=O)c(C(=O)OCCOC(=O)c2ccc(-c4c5nc(c(-c6c(F)cc(S(=O)(=O)[O-])cc6F)c6ccc([nH]6)c(-c6c(F)cc(S(=O)(=O)[O-])cc6F)c6nc(c(-c7c(F)cc(S(=O)(=O)[O-])cc7F)c7ccc4[nH]7)C=C6)C=C5)cc2)cn3-c2ccc(F)cc2F)CC1
REMARK SMILES IDX 20 1 19 2 18 3 16 4 17 5 15 6 6 7 7 8 11 9 8 10 10 11 12 12
REMARK SMILES IDX 9 13 91 14 13 15 90 16 14 17 5 18 1 19 2 20 3 21 101 22 4 24
REMARK SMILES IDX 100 25 92 26 93 27 98 28 94 29 97 30 99 31 95 32 96 33 21 34
REMARK SMILES IDX 22 35 23 36 24 37 25 38 89 39 26 40 88 41 27 42 28 43 29 44
REMARK SMILES IDX 82 45 30 46 87 47 81 48 83 49 31 50 86 51 80 52 79 53 32 55
REMARK SMILES IDX 66 56 45 57 65 58 46 59 49 60 64 61 84 62 47 63 48 64 63 66
REMARK SMILES IDX 85 67 50 68 33 69 34 70 43 71 35 72 36 73 42 74 44 75 37 76
REMARK SMILES IDX 38 77 39 78 40 79 41 80 67 81 68 82 77 83 69 84 70 85 76 86
REMARK SMILES IDX 78 87 71 88 72 89 73 90 74 91 75 92 51 93 52 94 61 95 53 96
REMARK SMILES IDX 54 97 60 98 62 99 55 100 56 101 57 102 58 103 59 104
REMARK H PARENT 2 23 83 54 49 65
REMARK Flexibility Score: inf
ROOT
ATOM      1  C   UNL     1     -11.256   1.191   4.546  1.00  0.00     0.275 C 
ENDROOT
BRANCH   1   2
ATOM      2  C   UNL     1     -10.688  -0.197   4.257  1.00  0.00     0.275 C 
BRANCH   2   3
ATOM      3  O   UNL     1      -9.345  -0.090   3.749  1.00  0.00    -0.458 OA
BRANCH   3   4
ATOM      4  C   UNL     1      -9.173  -0.328   2.429  1.00  0.00     0.343 C 
ATOM      5  O   UNL     1     -10.049  -0.638   1.634  1.00  0.00    -0.246 OA
BRANCH   4   6
ATOM      6  C   UNL     1      -7.778  -0.087   2.027  1.00  0.00     0.124 A 
ATOM      7  C   UNL     1      -2.825  -0.150   0.993  1.00  0.00     0.167 A 
ATOM      8  N   UNL     1      -3.896   0.417   0.391  1.00  0.00    -0.209 NA
ATOM      9  C   UNL     1      -2.949  -0.813   2.221  1.00  0.00     0.166 A 
ATOM     10  C   UNL     1      -5.124   0.285   0.963  1.00  0.00     0.151 A 
ATOM     11  C   UNL     1      -4.174  -0.898   2.848  1.00  0.00     0.059 A 
ATOM     12  F   UNL     1      -1.879  -1.364   2.818  1.00  0.00    -0.203 F 
ATOM     13  C   UNL     1      -5.279  -0.354   2.203  1.00  0.00     0.069 A 
ATOM     14  N   UNL     1      -6.291   0.767   0.286  1.00  0.00    -0.297 N 
ATOM     15  C   UNL     1      -6.612  -0.516   2.817  1.00  0.00     0.205 A 
ATOM     16  C   UNL     1      -7.534   0.500   0.845  1.00  0.00     0.113 A 
ATOM     17  O   UNL     1      -6.719  -1.065   3.909  1.00  0.00    -0.288 OA
BRANCH   7  18
ATOM     18  N   UNL     1      -1.598  -0.078   0.383  1.00  0.00    -0.343 N 
ATOM     19  C   UNL     1       2.569   0.162  -0.014  1.00  0.00     0.332 C 
ATOM     20  N   UNL     1       1.168   0.042  -0.414  1.00  0.00    -0.334 N 
ATOM     21  C   UNL     1       0.405   1.252   0.001  1.00  0.00     0.283 C 
ATOM     22  C   UNL     1       0.575  -1.173   0.194  1.00  0.00     0.283 C 
ATOM     23  H   UNL     1       1.119  -0.036  -1.430  1.00  0.00     0.347 HD
ATOM     24  C   UNL     1      -1.126   1.149  -0.245  1.00  0.00     0.179 C 
ATOM     25  C   UNL     1      -0.940  -1.301  -0.061  1.00  0.00     0.179 C 
ENDBRANCH   7  18
BRANCH  14  26
ATOM     26  C   UNL     1      -6.227   1.453  -0.965  1.00  0.00     0.083 A 
ATOM     27  C   UNL     1      -5.787   0.788  -2.121  1.00  0.00     0.033 A 
ATOM     28  C   UNL     1      -6.638   2.795  -1.085  1.00  0.00     0.150 A 
ATOM     29  C   UNL     1      -5.768   1.449  -3.352  1.00  0.00     0.041 A 
ATOM     30  C   UNL     1      -6.602   3.464  -2.304  1.00  0.00     0.080 A 
ATOM     31  F   UNL     1      -7.072   3.459  -0.002  1.00  0.00    -0.205 F 
ATOM     32  C   UNL     1      -6.169   2.779  -3.430  1.00  0.00     0.126 A 
ATOM     33  F   UNL     1      -6.134   3.404  -4.613  1.00  0.00    -0.207 F 
ENDBRANCH  14  26
ENDBRANCH   4   6
ENDBRANCH   3   4
ENDBRANCH   2   3
ENDBRANCH   1   2
BRANCH   1  34
ATOM     34  O   UNL     1     -11.484   1.896   3.313  1.00  0.00    -0.458 OA
BRANCH  34  35
ATOM     35  C   UNL     1     -10.561   2.835   3.005  1.00  0.00     0.338 C 
ATOM     36  O   UNL     1      -9.597   3.176   3.666  1.00  0.00    -0.246 OA
BRANCH  35  37
ATOM     37  C   UNL     1     -10.849   3.381   1.671  1.00  0.00     0.060 A 
ATOM     38  C   UNL     1     -10.558   2.606   0.551  1.00  0.00     0.016 A 
ATOM     39  C   UNL     1     -11.267   4.701   1.528  1.00  0.00     0.016 A 
ATOM     40  C   UNL     1     -10.576   3.178  -0.717  1.00  0.00     0.010 A 
ATOM     41  C   UNL     1     -11.379   5.247   0.246  1.00  0.00     0.010 A 
ATOM     42  C   UNL     1     -10.992   4.505  -0.886  1.00  0.00    -0.014 A 
BRANCH  42  43
ATOM     43  C   UNL     1     -10.973   5.134  -2.232  1.00  0.00     0.031 A 
ATOM     44  C   UNL     1     -10.083   6.322  -2.488  1.00  0.00     0.074 A 
ATOM     45  C   UNL     1     -11.724   4.632  -3.232  1.00  0.00     0.049 A 
ATOM     46  N   UNL     1     -10.048   7.121  -3.523  1.00  0.00    -0.248 NA
ATOM     47  C   UNL     1      -9.104   6.655  -1.440  1.00  0.00     0.031 C 
ATOM     48  C   UNL     1     -12.571   3.440  -3.142  1.00  0.00     0.029 A 
ATOM     49  N   UNL     1     -11.890   5.057  -4.527  1.00  0.00    -0.354 N 
ATOM     50  C   UNL     1      -9.074   8.071  -3.238  1.00  0.00     0.074 A 
ATOM     51  C   UNL     1      -8.547   7.756  -1.927  1.00  0.00     0.031 C 
ATOM     52  C   UNL     1     -13.137   3.211  -4.337  1.00  0.00     0.029 A 
ATOM     53  C   UNL     1     -12.763   4.282  -5.254  1.00  0.00     0.049 A 
ATOM     54  H   UNL     1     -11.429   5.843  -4.899  1.00  0.00     0.167 HD
ATOM     55  C   UNL     1      -8.657   9.109  -4.002  1.00  0.00     0.037 A 
ATOM     56  C   UNL     1     -13.239   4.436  -6.504  1.00  0.00     0.037 A 
ATOM     57  C   UNL     1      -9.167   9.399  -5.317  1.00  0.00     0.049 A 
ATOM     58  C   UNL     1     -12.820   5.638  -7.303  1.00  0.00     0.074 A 
ATOM     59  C   UNL     1      -8.842  10.451  -6.156  1.00  0.00     0.029 A 
ATOM     60  N   UNL     1     -10.094   8.621  -5.995  1.00  0.00    -0.354 N 
ATOM     61  N   UNL     1     -11.977   6.590  -6.978  1.00  0.00    -0.248 NA
ATOM     62  C   UNL     1     -13.437   5.803  -8.626  1.00  0.00     0.031 C 
ATOM     63  C   UNL     1      -9.590  10.321  -7.332  1.00  0.00     0.029 A 
ATOM     64  C   UNL     1     -10.353   9.169  -7.240  1.00  0.00     0.049 A 
ATOM     65  H   UNL     1     -10.506   7.799  -5.643  1.00  0.00     0.167 HD
ATOM     66  C   UNL     1     -11.953   7.460  -8.062  1.00  0.00     0.074 A 
ATOM     67  C   UNL     1     -12.854   6.914  -9.057  1.00  0.00     0.031 C 
ATOM     68  C   UNL     1     -11.252   8.610  -8.217  1.00  0.00     0.037 A 
BRANCH  55  69
ATOM     69  C   UNL     1      -7.611  10.023  -3.427  1.00  0.00     0.058 A 
ATOM     70  C   UNL     1      -6.265   9.637  -3.336  1.00  0.00     0.135 A 
ATOM     71  C   UNL     1      -7.953  11.317  -3.000  1.00  0.00     0.135 A 
ATOM     72  F   UNL     1      -5.890   8.403  -3.708  1.00  0.00    -0.206 F 
ATOM     73  C   UNL     1      -5.296  10.497  -2.829  1.00  0.00     0.059 A 
ATOM     74  C   UNL     1      -6.996  12.202  -2.510  1.00  0.00     0.059 A 
ATOM     75  F   UNL     1      -9.227  11.734  -3.061  1.00  0.00    -0.206 F 
ATOM     76  C   UNL     1      -5.671  11.778  -2.420  1.00  0.00     0.060 A 
BRANCH  76  77
ATOM     77  S   UNL     1      -4.398  12.887  -1.778  1.00  0.00     0.124 S 
ATOM     78  O   UNL     1      -4.124  12.291  -0.473  1.00  0.00    -0.237 OA
ATOM     79  O   UNL     1      -3.337  12.754  -2.771  1.00  0.00    -0.237 OA
ATOM     80  O   UNL     1      -5.063  14.186  -1.746  1.00  0.00    -0.744 OA
ENDBRANCH  76  77
ENDBRANCH  55  69
BRANCH  56  81
ATOM     81  C   UNL     1     -14.191   3.443  -7.067  1.00  0.00     0.058 A 
ATOM     82  C   UNL     1     -13.799   2.577  -8.098  1.00  0.00     0.135 A 
ATOM     83  C   UNL     1     -15.502   3.328  -6.579  1.00  0.00     0.135 A 
ATOM     84  F   UNL     1     -12.559   2.658  -8.605  1.00  0.00    -0.206 F 
ATOM     85  C   UNL     1     -14.673   1.636  -8.630  1.00  0.00     0.059 A 
ATOM     86  C   UNL     1     -16.387   2.378  -7.078  1.00  0.00     0.059 A 
ATOM     87  F   UNL     1     -15.923   4.127  -5.586  1.00  0.00    -0.206 F 
ATOM     88  C   UNL     1     -15.965   1.541  -8.110  1.00  0.00     0.060 A 
BRANCH  88  89
ATOM     89  S   UNL     1     -17.075   0.278  -8.768  1.00  0.00     0.124 S 
ATOM     90  O   UNL     1     -17.437   0.849 -10.060  1.00  0.00    -0.237 OA
ATOM     91  O   UNL     1     -16.212  -0.899  -8.809  1.00  0.00    -0.237 OA
ATOM     92  O   UNL     1     -18.146   0.225  -7.777  1.00  0.00    -0.744 OA
ENDBRANCH  88  89
ENDBRANCH  56  81
BRANCH  68  93
ATOM     93  C   UNL     1     -11.414   9.340  -9.519  1.00  0.00     0.058 A 
ATOM     94  C   UNL     1     -12.563  10.096  -9.797  1.00  0.00     0.135 A 
ATOM     95  C   UNL     1     -10.392   9.315 -10.480  1.00  0.00     0.135 A 
ATOM     96  F   UNL     1     -13.571  10.144  -8.912  1.00  0.00    -0.206 F 
ATOM     97  C   UNL     1     -12.702  10.788 -10.995  1.00  0.00     0.059 A 
ATOM     98  C   UNL     1     -10.501  10.016 -11.677  1.00  0.00     0.059 A 
ATOM     99  F   UNL     1      -9.270   8.612 -10.257  1.00  0.00    -0.206 F 
ATOM    100  C   UNL     1     -11.665  10.741 -11.930  1.00  0.00     0.060 A 
BRANCH 100 101
ATOM    101  S   UNL     1     -11.846  11.665 -13.470  1.00  0.00     0.124 S 
ATOM    102  O   UNL     1     -12.789  10.828 -14.205  1.00  0.00    -0.237 OA
ATOM    103  O   UNL     1     -12.365  12.948 -13.007  1.00  0.00    -0.237 OA
ATOM    104  O   UNL     1     -10.488  11.702 -14.005  1.00  0.00    -0.744 OA
ENDBRANCH 100 101
ENDBRANCH  68  93
ENDBRANCH  42  43
ENDBRANCH  35  37
ENDBRANCH  34  35
ENDBRANCH   1  34
TORSDOF 16
