REMARK SMILES CCCCCCCCNC(=O)Oc1cccc(-c2ccc([C@@H](C)C(=O)OCCOC(=O)c3ccc(-c4c5nc(c(-c6c(F)cc(S(=O)(=O)[O-])cc6F)c6ccc([nH]6)c(-c6c(F)cc(S(=O)(=O)[O-])cc6F)c6nc(c(-c7c(F)cc(S(=O)(=O)[O-])cc7F)c7ccc4[nH]7)C=C6)C=C5)cc3)cc2F)c1
REMARK SMILES IDX 18 1 19 2 20 3 21 4 98 5 99 6 100 7 17 8 13 9 14 10 101 11
REMARK SMILES IDX 15 12 16 13 12 14 10 15 9 16 11 18 8 19 7 20 6 21 5 22 4 23
REMARK SMILES IDX 3 24 2 25 1 26 22 27 23 28 24 29 25 30 26 31 27 32 28 33
REMARK SMILES IDX 29 34 30 35 31 36 32 37 33 38 97 39 34 40 96 41 35 42 36 43
REMARK SMILES IDX 37 44 90 45 38 46 95 47 89 48 91 49 39 50 94 51 88 52 87 53
REMARK SMILES IDX 40 55 74 56 53 57 73 58 54 59 57 60 72 61 92 62 55 63 56 64
REMARK SMILES IDX 71 66 93 67 58 68 41 69 42 70 51 71 43 72 44 73 50 74 52 75
REMARK SMILES IDX 45 76 46 77 47 78 48 79 49 80 75 81 76 82 85 83 77 84 78 85
REMARK SMILES IDX 84 86 86 87 79 88 80 89 81 90 82 91 83 92 59 93 60 94 69 95
REMARK SMILES IDX 61 96 62 97 68 98 70 99 63 100 64 101 65 102 66 103 67 104
REMARK H PARENT 9 17 91 54 57 65
REMARK Flexibility Score: inf
ROOT
ATOM      1  C   UNL     1      -6.507  -9.514   6.189  1.00  0.00     0.018 A 
ATOM      2  C   UNL     1      -7.701  -9.706   6.902  1.00  0.00     0.012 A 
ATOM      3  C   UNL     1      -8.722 -10.525   6.404  1.00  0.00     0.005 A 
ATOM      4  C   UNL     1      -8.588 -11.171   5.168  1.00  0.00    -0.031 A 
ATOM      5  C   UNL     1      -7.402 -10.975   4.447  1.00  0.00     0.044 A 
ATOM      6  C   UNL     1      -6.387 -10.161   4.952  1.00  0.00     0.131 A 
ATOM      7  F   UNL     1      -5.263 -10.036   4.228  1.00  0.00    -0.206 F 
ENDROOT
BRANCH   1   8
ATOM      8  C   UNL     1      -5.424  -8.680   6.738  1.00  0.00    -0.012 A 
ATOM      9  C   UNL     1      -3.787  -6.904   6.515  1.00  0.00     0.133 A 
ATOM     10  C   UNL     1      -3.313  -7.135   7.803  1.00  0.00     0.047 A 
ATOM     11  C   UNL     1      -4.822  -7.668   5.975  1.00  0.00     0.056 A 
ATOM     12  C   UNL     1      -3.902  -8.132   8.575  1.00  0.00     0.004 A 
ATOM     13  C   UNL     1      -4.946  -8.896   8.046  1.00  0.00     0.009 A 
BRANCH   9  14
ATOM     14  O   UNL     1      -3.082  -5.972   5.737  1.00  0.00    -0.410 OA
BRANCH  14  15
ATOM     15  C   UNL     1      -3.800  -4.961   5.117  1.00  0.00     0.412 C 
ATOM     16  N   UNL     1      -3.028  -4.191   4.290  1.00  0.00    -0.321 N 
ATOM     17  H   UNL     1      -3.484  -3.457   3.818  1.00  0.00     0.167 HD
ATOM     18  O   UNL     1      -4.990  -4.719   5.276  1.00  0.00    -0.224 OA
BRANCH  16  19
ATOM     19  C   UNL     1      -1.609  -4.346   4.036  1.00  0.00     0.119 C 
BRANCH  19  20
ATOM     20  C   UNL     1      -1.305  -4.596   2.560  1.00  0.00     0.021 C 
BRANCH  20  21
ATOM     21  C   UNL     1      -1.706  -3.458   1.613  1.00  0.00     0.002 C 
BRANCH  21  22
ATOM     22  C   UNL     1      -1.108  -2.085   1.942  1.00  0.00     0.000 C 
BRANCH  22  23
ATOM     23  C   UNL     1       0.423  -2.020   1.927  1.00  0.00    -0.000 C 
BRANCH  23  24
ATOM     24  C   UNL     1       1.075  -2.302   0.569  1.00  0.00    -0.000 C 
BRANCH  24  25
ATOM     25  C   UNL     1       0.653  -1.367  -0.569  1.00  0.00    -0.003 C 
ATOM     26  C   UNL     1       0.979   0.095  -0.304  1.00  0.00     0.004 C 
ENDBRANCH  24  25
ENDBRANCH  23  24
ENDBRANCH  22  23
ENDBRANCH  21  22
ENDBRANCH  20  21
ENDBRANCH  19  20
ENDBRANCH  16  19
ENDBRANCH  14  15
ENDBRANCH   9  14
ENDBRANCH   1   8
BRANCH   4  27
ATOM     27  C   UNL     1      -9.678 -12.068   4.603  1.00  0.00     0.126 C 
ATOM     28  C   UNL     1     -10.023 -13.225   5.538  1.00  0.00     0.025 C 
BRANCH  27  29
ATOM     29  C   UNL     1     -10.955 -11.368   4.151  1.00  0.00     0.313 C 
ATOM     30  O   UNL     1     -11.698 -11.853   3.303  1.00  0.00    -0.252 OA
BRANCH  29  31
ATOM     31  O   UNL     1     -11.199 -10.200   4.800  1.00  0.00    -0.462 OA
BRANCH  31  32
ATOM     32  C   UNL     1     -12.337  -9.435   4.357  1.00  0.00     0.274 C 
BRANCH  32  33
ATOM     33  C   UNL     1     -11.900  -8.258   3.484  1.00  0.00     0.275 C 
BRANCH  33  34
ATOM     34  O   UNL     1     -11.383  -8.711   2.221  1.00  0.00    -0.458 OA
BRANCH  34  35
ATOM     35  C   UNL     1     -10.035  -8.818   2.154  1.00  0.00     0.338 C 
ATOM     36  O   UNL     1      -9.224  -8.540   3.018  1.00  0.00    -0.246 OA
BRANCH  35  37
ATOM     37  C   UNL     1      -9.669  -9.443   0.876  1.00  0.00     0.060 A 
ATOM     38  C   UNL     1      -9.244 -10.773   0.883  1.00  0.00     0.016 A 
ATOM     39  C   UNL     1      -9.688  -8.706  -0.307  1.00  0.00     0.016 A 
ATOM     40  C   UNL     1      -8.831 -11.379  -0.299  1.00  0.00     0.010 A 
ATOM     41  C   UNL     1      -9.288  -9.320  -1.497  1.00  0.00     0.010 A 
ATOM     42  C   UNL     1      -8.855 -10.658  -1.500  1.00  0.00    -0.014 A 
BRANCH  42  43
ATOM     43  C   UNL     1      -8.425 -11.300  -2.764  1.00  0.00     0.031 A 
ATOM     44  C   UNL     1      -7.130 -10.898  -3.406  1.00  0.00     0.074 A 
ATOM     45  C   UNL     1      -9.212 -12.230  -3.337  1.00  0.00     0.049 A 
ATOM     46  N   UNL     1      -6.651 -11.230  -4.576  1.00  0.00    -0.248 NA
ATOM     47  C   UNL     1      -6.260 -10.001  -2.628  1.00  0.00     0.031 C 
ATOM     48  C   UNL     1     -10.470 -12.732  -2.779  1.00  0.00     0.029 A 
ATOM     49  N   UNL     1      -9.079 -12.908  -4.522  1.00  0.00    -0.354 N 
ATOM     50  C   UNL     1      -5.436 -10.566  -4.689  1.00  0.00     0.074 A 
ATOM     51  C   UNL     1      -5.255  -9.804  -3.471  1.00  0.00     0.031 C 
ATOM     52  C   UNL     1     -10.997 -13.630  -3.625  1.00  0.00     0.029 A 
ATOM     53  C   UNL     1     -10.146 -13.726  -4.808  1.00  0.00     0.049 A 
ATOM     54  H   UNL     1      -8.296 -12.817  -5.111  1.00  0.00     0.167 HD
ATOM     55  C   UNL     1      -4.556 -10.593  -5.719  1.00  0.00     0.037 A 
ATOM     56  C   UNL     1     -10.428 -14.437  -5.916  1.00  0.00     0.037 A 
ATOM     57  C   UNL     1      -4.744 -11.366  -6.919  1.00  0.00     0.049 A 
ATOM     58  C   UNL     1      -9.472 -14.394  -7.075  1.00  0.00     0.074 A 
ATOM     59  C   UNL     1      -3.904 -11.477  -8.013  1.00  0.00     0.029 A 
ATOM     60  N   UNL     1      -5.852 -12.158  -7.185  1.00  0.00    -0.354 N 
ATOM     61  N   UNL     1      -8.330 -13.755  -7.176  1.00  0.00    -0.248 NA
ATOM     62  C   UNL     1      -9.846 -15.152  -8.277  1.00  0.00     0.031 C 
ATOM     63  C   UNL     1      -4.522 -12.304  -8.957  1.00  0.00     0.029 A 
ATOM     64  C   UNL     1      -5.730 -12.741  -8.435  1.00  0.00     0.049 A 
ATOM     65  H   UNL     1      -6.614 -12.287  -6.574  1.00  0.00     0.167 HD
ATOM     66  C   UNL     1      -7.844 -14.044  -8.446  1.00  0.00     0.074 A 
ATOM     67  C   UNL     1      -8.809 -14.925  -9.072  1.00  0.00     0.031 C 
ATOM     68  C   UNL     1      -6.703 -13.616  -9.040  1.00  0.00     0.037 A 
BRANCH  55  69
ATOM     69  C   UNL     1      -3.326  -9.737  -5.605  1.00  0.00     0.058 A 
ATOM     70  C   UNL     1      -2.261 -10.080  -4.758  1.00  0.00     0.135 A 
ATOM     71  C   UNL     1      -3.199  -8.571  -6.378  1.00  0.00     0.135 A 
ATOM     72  F   UNL     1      -2.337 -11.176  -3.987  1.00  0.00    -0.206 F 
ATOM     73  C   UNL     1      -1.123  -9.284  -4.663  1.00  0.00     0.059 A 
ATOM     74  C   UNL     1      -2.061  -7.772  -6.315  1.00  0.00     0.059 A 
ATOM     75  F   UNL     1      -4.189  -8.197  -7.204  1.00  0.00    -0.206 F 
ATOM     76  C   UNL     1      -1.034  -8.129  -5.442  1.00  0.00     0.060 A 
BRANCH  76  77
ATOM     77  S   UNL     1       0.445  -7.103  -5.305  1.00  0.00     0.124 S 
ATOM     78  O   UNL     1       0.228  -6.449  -4.018  1.00  0.00    -0.237 OA
ATOM     79  O   UNL     1       1.518  -8.091  -5.339  1.00  0.00    -0.237 OA
ATOM     80  O   UNL     1       0.364  -6.231  -6.473  1.00  0.00    -0.744 OA
ENDBRANCH  76  77
ENDBRANCH  55  69
BRANCH  56  81
ATOM     81  C   UNL     1     -11.692 -15.216  -5.992  1.00  0.00     0.058 A 
ATOM     82  C   UNL     1     -11.681 -16.617  -5.959  1.00  0.00     0.135 A 
ATOM     83  C   UNL     1     -12.937 -14.572  -6.077  1.00  0.00     0.135 A 
ATOM     84  F   UNL     1     -10.515 -17.277  -5.890  1.00  0.00    -0.206 F 
ATOM     85  C   UNL     1     -12.859 -17.355  -6.011  1.00  0.00     0.059 A 
ATOM     86  C   UNL     1     -14.130 -15.288  -6.106  1.00  0.00     0.059 A 
ATOM     87  F   UNL     1     -13.001 -13.232  -6.101  1.00  0.00    -0.206 F 
ATOM     88  C   UNL     1     -14.080 -16.681  -6.081  1.00  0.00     0.060 A 
BRANCH  88  89
ATOM     89  S   UNL     1     -15.607 -17.645  -6.090  1.00  0.00     0.124 S 
ATOM     90  O   UNL     1     -15.627 -18.150  -7.457  1.00  0.00    -0.237 OA
ATOM     91  O   UNL     1     -15.354 -18.634  -5.047  1.00  0.00    -0.237 OA
ATOM     92  O   UNL     1     -16.630 -16.654  -5.766  1.00  0.00    -0.744 OA
ENDBRANCH  88  89
ENDBRANCH  56  81
BRANCH  68  93
ATOM     93  C   UNL     1      -6.425 -14.107 -10.432  1.00  0.00     0.058 A 
ATOM     94  C   UNL     1      -7.098 -13.575 -11.543  1.00  0.00     0.135 A 
ATOM     95  C   UNL     1      -5.428 -15.068 -10.663  1.00  0.00     0.135 A 
ATOM     96  F   UNL     1      -8.066 -12.662 -11.373  1.00  0.00    -0.206 F 
ATOM     97  C   UNL     1      -6.796 -13.986 -12.837  1.00  0.00     0.059 A 
ATOM     98  C   UNL     1      -5.096 -15.477 -11.950  1.00  0.00     0.059 A 
ATOM     99  F   UNL     1      -4.752 -15.601  -9.633  1.00  0.00    -0.206 F 
ATOM    100  C   UNL     1      -5.790 -14.935 -13.031  1.00  0.00     0.060 A 
BRANCH 100 101
ATOM    101  S   UNL     1      -5.369 -15.418 -14.719  1.00  0.00     0.124 S 
ATOM    102  O   UNL     1      -6.487 -16.291 -15.062  1.00  0.00    -0.237 OA
ATOM    103  O   UNL     1      -5.329 -14.135 -15.413  1.00  0.00    -0.237 OA
ATOM    104  O   UNL     1      -4.077 -16.082 -14.569  1.00  0.00    -0.744 OA
ENDBRANCH 100 101
ENDBRANCH  68  93
ENDBRANCH  42  43
ENDBRANCH  35  37
ENDBRANCH  34  35
ENDBRANCH  33  34
ENDBRANCH  32  33
ENDBRANCH  31  32
ENDBRANCH  29  31
ENDBRANCH  27  29
ENDBRANCH   4  27
TORSDOF 25
