REMARK SMILES CCCCn1c(C[N@H+]2C[C@H]3C(=O)NC[C@@]3(C(=O)OCCOC(=O)c3ccc(-c4c5nc(c(-c6c(F)cc(S(=O)(=O)[O-])cc6F)c6ccc([nH]6)c(-c6c(F)cc(S(=O)(=O)[O-])cc6F)c6nc(c(-c7c(F)cc(S(=O)(=O)[O-])cc7F)c7ccc4[nH]7)C=C6)C=C5)cc3)C2)nc2ccccc21
REMARK SMILES IDX 19 1 18 2 16 3 17 4 15 5 8 6 9 7 90 8 10 10 11 11 14 12
REMARK SMILES IDX 12 13 13 14 7 16 6 17 5 18 97 19 91 20 92 21 96 22 93 23
REMARK SMILES IDX 95 24 94 25 4 26 3 27 2 28 1 29 20 30 21 31 22 32 23 33
REMARK SMILES IDX 24 34 25 35 89 36 26 37 88 38 27 39 28 40 29 41 82 42 30 43
REMARK SMILES IDX 87 44 81 45 83 46 31 47 86 48 80 49 79 50 32 52 66 53 45 54
REMARK SMILES IDX 65 55 46 56 49 57 64 58 84 59 47 60 48 61 63 63 85 64 50 65
REMARK SMILES IDX 33 66 34 67 43 68 35 69 36 70 42 71 44 72 37 73 38 74 39 75
REMARK SMILES IDX 40 76 41 77 67 78 68 79 77 80 69 81 70 82 76 83 78 84 71 85
REMARK SMILES IDX 72 86 73 87 74 88 75 89 51 90 52 91 61 92 53 93 54 94 60 95
REMARK SMILES IDX 62 96 55 97 56 98 57 99 58 100 59 101
REMARK H PARENT 8 9 13 15 83 51 49 62
REMARK Flexibility Score: inf
ROOT
ATOM      1  C   UNL     1      -5.199   4.282   1.210  1.00  0.00     0.274 C 
ENDROOT
BRANCH   1   2
ATOM      2  O   UNL     1      -4.330   3.203   0.801  1.00  0.00    -0.461 OA
BRANCH   2   3
ATOM      3  C   UNL     1      -4.884   2.308  -0.064  1.00  0.00     0.320 C 
ATOM      4  O   UNL     1      -6.019   2.425  -0.476  1.00  0.00    -0.251 OA
BRANCH   3   5
ATOM      5  C   UNL     1      -3.959   1.147  -0.420  1.00  0.00     0.151 C 
ATOM      6  N   UNL     1      -1.675   0.442   0.052  1.00  0.00    -0.327 N 
ATOM      7  C   UNL     1      -1.654   1.064  -1.272  1.00  0.00     0.277 C 
ATOM      8  C   UNL     1      -2.938   0.840   0.675  1.00  0.00     0.284 C 
ATOM      9  H   UNL     1      -0.871   0.801   0.567  1.00  0.00     0.348 HD
ATOM     10  C   UNL     1      -3.085   1.362  -1.658  1.00  0.00     0.158 C 
ATOM     11  C   UNL     1      -3.458   0.291  -2.628  1.00  0.00     0.230 C 
ATOM     12  C   UNL     1      -4.861  -0.033  -0.784  1.00  0.00     0.141 C 
ATOM     13  O   UNL     1      -2.937   0.108  -3.725  1.00  0.00    -0.275 OA
ATOM     14  N   UNL     1      -4.401  -0.488  -2.048  1.00  0.00    -0.354 N 
ATOM     15  H   UNL     1      -4.742  -1.309  -2.471  1.00  0.00     0.163 HD
BRANCH   6  16
ATOM     16  C   UNL     1      -1.302  -0.978   0.194  1.00  0.00     0.339 C 
BRANCH  16  17
ATOM     17  C   UNL     1      -1.460  -1.873  -0.990  1.00  0.00     0.165 A 
ATOM     18  N   UNL     1      -0.509  -2.116  -1.967  1.00  0.00    -0.323 N 
ATOM     19  C   UNL     1      -1.162  -2.650  -3.057  1.00  0.00     0.068 A 
ATOM     20  N   UNL     1      -2.569  -2.529  -1.268  1.00  0.00    -0.227 NA
ATOM     21  C   UNL     1      -2.441  -2.889  -2.581  1.00  0.00     0.089 A 
ATOM     22  C   UNL     1      -0.793  -2.914  -4.384  1.00  0.00     0.028 A 
ATOM     23  C   UNL     1      -3.420  -3.337  -3.460  1.00  0.00     0.030 A 
ATOM     24  C   UNL     1      -1.814  -3.275  -5.268  1.00  0.00     0.002 A 
ATOM     25  C   UNL     1      -3.117  -3.433  -4.820  1.00  0.00     0.002 A 
BRANCH  18  26
ATOM     26  C   UNL     1       0.926  -1.946  -1.893  1.00  0.00     0.124 C 
BRANCH  26  27
ATOM     27  C   UNL     1       1.494  -0.570  -2.259  1.00  0.00     0.022 C 
BRANCH  27  28
ATOM     28  C   UNL     1       1.673   0.456  -1.135  1.00  0.00    -0.002 C 
ATOM     29  C   UNL     1       2.291  -0.032   0.163  1.00  0.00     0.004 C 
ENDBRANCH  27  28
ENDBRANCH  26  27
ENDBRANCH  18  26
ENDBRANCH  16  17
ENDBRANCH   6  16
ENDBRANCH   3   5
ENDBRANCH   2   3
ENDBRANCH   1   2
BRANCH   1  30
ATOM     30  C   UNL     1      -4.956   5.508   0.329  1.00  0.00     0.275 C 
BRANCH  30  31
ATOM     31  O   UNL     1      -5.546   5.285  -0.969  1.00  0.00    -0.458 OA
BRANCH  31  32
ATOM     32  C   UNL     1      -4.688   5.068  -1.996  1.00  0.00     0.338 C 
ATOM     33  O   UNL     1      -3.502   5.375  -2.000  1.00  0.00    -0.246 OA
BRANCH  32  34
ATOM     34  C   UNL     1      -5.295   4.139  -3.000  1.00  0.00     0.060 A 
ATOM     35  C   UNL     1      -6.623   3.694  -2.951  1.00  0.00     0.016 A 
ATOM     36  C   UNL     1      -4.413   3.486  -3.850  1.00  0.00     0.016 A 
ATOM     37  C   UNL     1      -6.996   2.464  -3.546  1.00  0.00     0.010 A 
ATOM     38  C   UNL     1      -4.791   2.266  -4.418  1.00  0.00     0.010 A 
ATOM     39  C   UNL     1      -6.049   1.666  -4.193  1.00  0.00    -0.014 A 
BRANCH  39  40
ATOM     40  C   UNL     1      -6.383   0.439  -4.993  1.00  0.00     0.031 A 
ATOM     41  C   UNL     1      -6.548   0.879  -6.390  1.00  0.00     0.074 A 
ATOM     42  C   UNL     1      -6.638  -0.882  -4.747  1.00  0.00     0.049 A 
ATOM     43  N   UNL     1      -7.678   1.338  -6.816  1.00  0.00    -0.248 NA
ATOM     44  C   UNL     1      -5.411   1.142  -7.275  1.00  0.00     0.031 C 
ATOM     45  C   UNL     1      -6.736  -1.591  -3.476  1.00  0.00     0.029 A 
ATOM     46  N   UNL     1      -6.871  -1.925  -5.648  1.00  0.00    -0.354 N 
ATOM     47  C   UNL     1      -7.450   1.699  -8.121  1.00  0.00     0.074 A 
ATOM     48  C   UNL     1      -6.022   1.824  -8.249  1.00  0.00     0.031 C 
ATOM     49  C   UNL     1      -6.803  -2.934  -3.668  1.00  0.00     0.029 A 
ATOM     50  C   UNL     1      -6.854  -3.229  -5.102  1.00  0.00     0.049 A 
ATOM     51  H   UNL     1      -7.036  -1.761  -6.604  1.00  0.00     0.167 HD
ATOM     52  C   UNL     1      -8.441   1.539  -9.034  1.00  0.00     0.037 A 
ATOM     53  C   UNL     1      -7.347  -4.417  -5.592  1.00  0.00     0.037 A 
ATOM     54  C   UNL     1      -9.707   1.262  -8.384  1.00  0.00     0.049 A 
ATOM     55  C   UNL     1      -8.468  -4.033  -6.471  1.00  0.00     0.074 A 
ATOM     56  C   UNL     1     -10.542   1.932  -7.512  1.00  0.00     0.029 A 
ATOM     57  N   UNL     1     -10.047  -0.067  -8.309  1.00  0.00    -0.354 N 
ATOM     58  N   UNL     1      -9.626  -3.650  -6.021  1.00  0.00    -0.248 NA
ATOM     59  C   UNL     1      -8.214  -3.763  -7.880  1.00  0.00     0.031 C 
ATOM     60  C   UNL     1     -11.166   0.930  -6.712  1.00  0.00     0.029 A 
ATOM     61  C   UNL     1     -10.732  -0.320  -7.148  1.00  0.00     0.049 A 
ATOM     62  H   UNL     1      -9.830  -0.742  -8.991  1.00  0.00     0.167 HD
ATOM     63  C   UNL     1     -10.032  -2.694  -6.929  1.00  0.00     0.074 A 
ATOM     64  C   UNL     1      -9.229  -2.932  -8.122  1.00  0.00     0.031 C 
ATOM     65  C   UNL     1     -10.765  -1.624  -6.516  1.00  0.00     0.037 A 
BRANCH  52  66
ATOM     66  C   UNL     1      -8.183   1.172 -10.472  1.00  0.00     0.058 A 
ATOM     67  C   UNL     1      -9.264   1.173 -11.373  1.00  0.00     0.135 A 
ATOM     68  C   UNL     1      -6.994   0.570 -10.944  1.00  0.00     0.135 A 
ATOM     69  F   UNL     1     -10.450   1.693 -11.018  1.00  0.00    -0.206 F 
ATOM     70  C   UNL     1      -9.184   0.578 -12.630  1.00  0.00     0.059 A 
ATOM     71  C   UNL     1      -6.873   0.029 -12.214  1.00  0.00     0.059 A 
ATOM     72  F   UNL     1      -5.919   0.380 -10.173  1.00  0.00    -0.206 F 
ATOM     73  C   UNL     1      -7.983   0.006 -13.038  1.00  0.00     0.060 A 
BRANCH  73  74
ATOM     74  S   UNL     1      -7.890  -0.816 -14.633  1.00  0.00     0.124 S 
ATOM     75  O   UNL     1      -8.760  -1.966 -14.418  1.00  0.00    -0.237 OA
ATOM     76  O   UNL     1      -8.399   0.216 -15.530  1.00  0.00    -0.237 OA
ATOM     77  O   UNL     1      -6.468  -1.116 -14.775  1.00  0.00    -0.744 OA
ENDBRANCH  73  74
ENDBRANCH  52  66
BRANCH  53  78
ATOM     78  C   UNL     1      -6.668  -5.758  -5.796  1.00  0.00     0.058 A 
ATOM     79  C   UNL     1      -7.231  -6.764  -6.614  1.00  0.00     0.135 A 
ATOM     80  C   UNL     1      -5.381  -6.054  -5.345  1.00  0.00     0.135 A 
ATOM     81  F   UNL     1      -8.518  -6.692  -6.983  1.00  0.00    -0.206 F 
ATOM     82  C   UNL     1      -6.497  -7.859  -7.101  1.00  0.00     0.059 A 
ATOM     83  C   UNL     1      -4.591  -7.091  -5.865  1.00  0.00     0.059 A 
ATOM     84  F   UNL     1      -4.875  -5.366  -4.325  1.00  0.00    -0.206 F 
ATOM     85  C   UNL     1      -5.151  -7.979  -6.773  1.00  0.00     0.060 A 
BRANCH  85  86
ATOM     86  S   UNL     1      -4.133  -9.250  -7.566  1.00  0.00     0.124 S 
ATOM     87  O   UNL     1      -4.462 -10.436  -6.783  1.00  0.00    -0.237 OA
ATOM     88  O   UNL     1      -4.625  -9.242  -8.940  1.00  0.00    -0.237 OA
ATOM     89  O   UNL     1      -2.773  -8.745  -7.398  1.00  0.00    -0.744 OA
ENDBRANCH  85  86
ENDBRANCH  53  78
BRANCH  65  90
ATOM     90  C   UNL     1     -11.529  -1.763  -5.223  1.00  0.00     0.058 A 
ATOM     91  C   UNL     1     -10.956  -1.919  -3.949  1.00  0.00     0.135 A 
ATOM     92  C   UNL     1     -12.925  -1.635  -5.279  1.00  0.00     0.135 A 
ATOM     93  F   UNL     1      -9.628  -1.987  -3.792  1.00  0.00    -0.206 F 
ATOM     94  C   UNL     1     -11.733  -1.960  -2.789  1.00  0.00     0.059 A 
ATOM     95  C   UNL     1     -13.717  -1.638  -4.135  1.00  0.00     0.059 A 
ATOM     96  F   UNL     1     -13.535  -1.459  -6.463  1.00  0.00    -0.206 F 
ATOM     97  C   UNL     1     -13.114  -1.805  -2.891  1.00  0.00     0.060 A 
BRANCH  97  98
ATOM     98  S   UNL     1     -14.105  -1.747  -1.384  1.00  0.00     0.124 S 
ATOM     99  O   UNL     1     -13.994  -3.114  -0.886  1.00  0.00    -0.237 OA
ATOM    100  O   UNL     1     -13.419  -0.728  -0.594  1.00  0.00    -0.237 OA
ATOM    101  O   UNL     1     -15.432  -1.364  -1.861  1.00  0.00    -0.744 OA
ENDBRANCH  97  98
ENDBRANCH  65  90
ENDBRANCH  39  40
ENDBRANCH  32  34
ENDBRANCH  31  32
ENDBRANCH  30  31
ENDBRANCH   1  30
TORSDOF 19
