REMARK SMILES O=C(OCCOC(=O)[C@@H]1[C@H](C(=O)Nc2ccccc2Cc2ccccc2)[C@H]2C=C[C@@H]1O2)c1ccc(-c2c3nc(c(-c4c(F)cc(S(=O)(=O)[O-])cc4F)c4ccc([nH]4)c(-c4c(F)cc(S(=O)(=O)[O-])cc4F)c4nc(c(-c5c(F)cc(S(=O)(=O)[O-])cc5F)c5ccc2[nH]5)C=C4)C=C3)cc1
REMARK SMILES IDX 5 1 4 2 3 3 2 4 1 5 32 6 33 7 97 8 34 9 96 10 35 11 36 12
REMARK SMILES IDX 37 13 90 14 38 15 95 16 89 17 91 18 39 19 94 20 88 21 87 22
REMARK SMILES IDX 40 24 74 25 53 26 73 27 54 28 57 29 72 30 92 31 55 32 56 33
REMARK SMILES IDX 71 35 93 36 58 37 41 38 42 39 51 40 43 41 44 42 50 43 52 44
REMARK SMILES IDX 45 45 46 46 47 47 48 48 49 49 75 50 76 51 85 52 77 53 78 54
REMARK SMILES IDX 84 55 86 56 79 57 80 58 81 59 82 60 83 61 59 62 60 63 69 64
REMARK SMILES IDX 61 65 62 66 68 67 70 68 63 69 64 70 65 71 66 72 67 73 6 74
REMARK SMILES IDX 7 75 8 76 9 77 10 78 30 79 27 80 29 81 31 82 28 83 11 84
REMARK SMILES IDX 12 85 13 86 14 88 15 89 19 90 16 91 18 92 17 93 20 94 21 95
REMARK SMILES IDX 22 96 26 97 23 98 25 99 24 100
REMARK H PARENT 91 23 57 34 13 87
REMARK Flexibility Score: inf
ROOT
ATOM      1  C   UNL     1       2.691  -0.096  -2.706  1.00  0.00     0.274 C 
ENDROOT
BRANCH   1   2
ATOM      2  C   UNL     1       3.432  -1.182  -1.836  1.00  0.00     0.275 C 
BRANCH   2   3
ATOM      3  O   UNL     1       3.200  -1.398  -0.164  1.00  0.00    -0.458 OA
BRANCH   3   4
ATOM      4  C   UNL     1       3.241  -1.034   1.664  1.00  0.00     0.338 C 
ATOM      5  O   UNL     1       2.789  -1.815   2.544  1.00  0.00    -0.246 OA
BRANCH   4   6
ATOM      6  C   UNL     1       3.707   0.228   2.452  1.00  0.00     0.060 A 
ATOM      7  C   UNL     1       5.060   0.392   2.762  1.00  0.00     0.016 A 
ATOM      8  C   UNL     1       2.787   1.226   2.842  1.00  0.00     0.016 A 
ATOM      9  C   UNL     1       5.522   1.637   3.159  1.00  0.00     0.010 A 
ATOM     10  C   UNL     1       3.247   2.469   3.303  1.00  0.00     0.010 A 
ATOM     11  C   UNL     1       4.625   2.692   3.408  1.00  0.00    -0.014 A 
BRANCH  11  12
ATOM     12  C   UNL     1       5.219   3.874   4.068  1.00  0.00     0.031 A 
ATOM     13  C   UNL     1       5.683   3.611   5.465  1.00  0.00     0.074 A 
ATOM     14  C   UNL     1       5.587   4.988   3.408  1.00  0.00     0.049 A 
ATOM     15  N   UNL     1       6.666   4.162   6.111  1.00  0.00    -0.248 NA
ATOM     16  C   UNL     1       5.065   2.455   6.143  1.00  0.00     0.031 C 
ATOM     17  C   UNL     1       5.314   5.276   2.003  1.00  0.00     0.029 A 
ATOM     18  N   UNL     1       6.322   6.070   3.824  1.00  0.00    -0.354 N 
ATOM     19  C   UNL     1       6.875   3.337   7.203  1.00  0.00     0.074 A 
ATOM     20  C   UNL     1       5.905   2.268   7.146  1.00  0.00     0.031 C 
ATOM     21  C   UNL     1       5.843   6.470   1.678  1.00  0.00     0.029 A 
ATOM     22  C   UNL     1       6.525   7.018   2.845  1.00  0.00     0.049 A 
ATOM     23  H   UNL     1       6.673   6.160   4.739  1.00  0.00     0.167 HD
ATOM     24  C   UNL     1       7.805   3.467   8.171  1.00  0.00     0.037 A 
ATOM     25  C   UNL     1       7.209   8.180   2.895  1.00  0.00     0.037 A 
ATOM     26  C   UNL     1       8.599   4.650   8.318  1.00  0.00     0.049 A 
ATOM     27  C   UNL     1       8.005   8.464   4.147  1.00  0.00     0.074 A 
ATOM     28  C   UNL     1       9.401   5.025   9.375  1.00  0.00     0.029 A 
ATOM     29  N   UNL     1       8.617   5.693   7.399  1.00  0.00    -0.354 N 
ATOM     30  N   UNL     1       8.213   7.679   5.181  1.00  0.00    -0.248 NA
ATOM     31  C   UNL     1       8.678   9.765   4.236  1.00  0.00     0.031 C 
ATOM     32  C   UNL     1       9.840   6.332   9.132  1.00  0.00     0.029 A 
ATOM     33  C   UNL     1       9.374   6.738   7.888  1.00  0.00     0.049 A 
ATOM     34  H   UNL     1       8.157   5.688   6.528  1.00  0.00     0.167 HD
ATOM     35  C   UNL     1       9.079   8.369   6.019  1.00  0.00     0.074 A 
ATOM     36  C   UNL     1       9.350   9.640   5.373  1.00  0.00     0.031 C 
ATOM     37  C   UNL     1       9.618   7.986   7.204  1.00  0.00     0.037 A 
BRANCH  24  38
ATOM     38  C   UNL     1       7.844   2.370   9.186  1.00  0.00     0.058 A 
ATOM     39  C   UNL     1       8.421   1.122   8.897  1.00  0.00     0.135 A 
ATOM     40  C   UNL     1       7.168   2.522  10.404  1.00  0.00     0.135 A 
ATOM     41  F   UNL     1       9.032   0.913   7.720  1.00  0.00    -0.206 F 
ATOM     42  C   UNL     1       8.303   0.051   9.778  1.00  0.00     0.059 A 
ATOM     43  C   UNL     1       7.049   1.469  11.303  1.00  0.00     0.059 A 
ATOM     44  F   UNL     1       6.563   3.683  10.699  1.00  0.00    -0.206 F 
ATOM     45  C   UNL     1       7.604   0.233  10.973  1.00  0.00     0.060 A 
BRANCH  45  46
ATOM     46  S   UNL     1       7.400  -1.176  12.082  1.00  0.00     0.124 S 
ATOM     47  O   UNL     1       6.431  -1.985  11.351  1.00  0.00    -0.237 OA
ATOM     48  O   UNL     1       8.754  -1.716  12.152  1.00  0.00    -0.237 OA
ATOM     49  O   UNL     1       6.907  -0.568  13.314  1.00  0.00    -0.744 OA
ENDBRANCH  45  46
ENDBRANCH  24  38
BRANCH  25  50
ATOM     50  C   UNL     1       7.175   9.152   1.760  1.00  0.00     0.058 A 
ATOM     51  C   UNL     1       8.325   9.506   1.038  1.00  0.00     0.135 A 
ATOM     52  C   UNL     1       5.976   9.798   1.411  1.00  0.00     0.135 A 
ATOM     53  F   UNL     1       9.503   8.933   1.330  1.00  0.00    -0.206 F 
ATOM     54  C   UNL     1       8.295  10.475   0.034  1.00  0.00     0.059 A 
ATOM     55  C   UNL     1       5.915  10.753   0.399  1.00  0.00     0.059 A 
ATOM     56  F   UNL     1       4.840   9.506   2.064  1.00  0.00    -0.206 F 
ATOM     57  C   UNL     1       7.084  11.096  -0.277  1.00  0.00     0.060 A 
BRANCH  57  58
ATOM     58  S   UNL     1       7.051  12.343  -1.586  1.00  0.00     0.124 S 
ATOM     59  O   UNL     1       7.783  13.442  -0.968  1.00  0.00    -0.237 OA
ATOM     60  O   UNL     1       7.731  11.655  -2.679  1.00  0.00    -0.237 OA
ATOM     61  O   UNL     1       5.624  12.574  -1.794  1.00  0.00    -0.744 OA
ENDBRANCH  57  58
ENDBRANCH  25  50
BRANCH  37  62
ATOM     62  C   UNL     1      10.584   8.930   7.857  1.00  0.00     0.058 A 
ATOM     63  C   UNL     1      10.159  10.110   8.482  1.00  0.00     0.135 A 
ATOM     64  C   UNL     1      11.946   8.596   7.925  1.00  0.00     0.135 A 
ATOM     65  F   UNL     1       8.866  10.470   8.443  1.00  0.00    -0.206 F 
ATOM     66  C   UNL     1      11.058  10.943   9.137  1.00  0.00     0.059 A 
ATOM     67  C   UNL     1      12.857   9.397   8.600  1.00  0.00     0.059 A 
ATOM     68  F   UNL     1      12.396   7.466   7.355  1.00  0.00    -0.206 F 
ATOM     69  C   UNL     1      12.405  10.575   9.192  1.00  0.00     0.060 A 
BRANCH  69  70
ATOM     70  S   UNL     1      13.558  11.639  10.082  1.00  0.00     0.124 S 
ATOM     71  O   UNL     1      13.742  12.730   9.131  1.00  0.00    -0.237 OA
ATOM     72  O   UNL     1      12.810  11.971  11.291  1.00  0.00    -0.237 OA
ATOM     73  O   UNL     1      14.720  10.781  10.289  1.00  0.00    -0.744 OA
ENDBRANCH  69  70
ENDBRANCH  37  62
ENDBRANCH  11  12
ENDBRANCH   4   6
ENDBRANCH   3   4
ENDBRANCH   2   3
ENDBRANCH   1   2
BRANCH   1  74
ATOM     74  O   UNL     1       2.574   1.278  -2.242  1.00  0.00    -0.462 OA
BRANCH  74  75
ATOM     75  C   UNL     1       1.355   1.874  -2.153  1.00  0.00     0.312 C 
ATOM     76  O   UNL     1       0.327   1.334  -2.556  1.00  0.00    -0.252 OA
BRANCH  75  77
ATOM     77  C   UNL     1       1.300   3.258  -1.455  1.00  0.00     0.147 C 
ATOM     78  C   UNL     1       2.196   4.383  -1.992  1.00  0.00     0.129 C 
ATOM     79  C   UNL     1       1.531   3.445   0.066  1.00  0.00     0.157 C 
ATOM     80  C   UNL     1       2.693   5.105  -0.742  1.00  0.00     0.155 C 
ATOM     81  C   UNL     1       0.864   4.690   0.567  1.00  0.00     0.004 C 
ATOM     82  O   UNL     1       2.881   3.976   0.121  1.00  0.00    -0.365 OA
ATOM     83  C   UNL     1       1.565   5.715   0.053  1.00  0.00     0.004 C 
BRANCH  78  84
ATOM     84  C   UNL     1       3.208   3.978  -3.031  1.00  0.00     0.231 C 
ATOM     85  O   UNL     1       2.812   4.060  -4.211  1.00  0.00    -0.274 OA
ATOM     86  N   UNL     1       4.493   3.602  -2.935  1.00  0.00    -0.325 N 
ATOM     87  H   UNL     1       4.880   3.715  -3.833  1.00  0.00     0.169 HD
BRANCH  86  88
ATOM     88  C   UNL     1       5.539   3.114  -2.114  1.00  0.00     0.044 A 
ATOM     89  C   UNL     1       6.790   3.553  -2.618  1.00  0.00     0.026 A 
ATOM     90  C   UNL     1       5.556   2.224  -1.010  1.00  0.00    -0.020 A 
ATOM     91  C   UNL     1       8.010   3.173  -2.066  1.00  0.00     0.002 A 
ATOM     92  C   UNL     1       6.814   1.844  -0.476  1.00  0.00     0.006 A 
ATOM     93  C   UNL     1       8.022   2.302  -0.997  1.00  0.00     0.000 A 
BRANCH  90  94
ATOM     94  C   UNL     1       4.366   1.784  -0.209  1.00  0.00     0.073 C 
BRANCH  94  95
ATOM     95  C   UNL     1       3.887   0.359   0.018  1.00  0.00    -0.044 A 
ATOM     96  C   UNL     1       2.064   0.050   0.151  1.00  0.00     0.004 A 
ATOM     97  C   UNL     1       5.021  -1.053   0.276  1.00  0.00     0.004 A 
ATOM     98  C   UNL     1       1.415  -1.629   0.408  1.00  0.00     0.000 A 
ATOM     99  C   UNL     1       4.356  -2.717   0.572  1.00  0.00     0.000 A 
ATOM    100  C   UNL     1       2.567  -3.016   0.590  1.00  0.00     0.000 A 
ENDBRANCH  94  95
ENDBRANCH  90  94
ENDBRANCH  86  88
ENDBRANCH  78  84
ENDBRANCH  75  77
ENDBRANCH  74  75
ENDBRANCH   1  74
TORSDOF 18
