REMARK SMILES O=C(OCCOC(=O)[C@@H]1CCCC[C@@H]1NS(=O)(=O)c1ccc2ccccc2c1)c1ccc(-c2c3nc(c(-c4c(F)cc(S(=O)(=O)[O-])cc4F)c4ccc([nH]4)c(-c4c(F)cc(S(=O)(=O)[O-])cc4F)c4nc(c(-c5c(F)cc(S(=O)(=O)[O-])cc5F)c5ccc2[nH]5)C=C4)C=C3)cc1
REMARK SMILES IDX 4 1 3 2 2 3 1 4 29 5 30 6 94 7 31 8 93 9 32 10 33 11 34 12
REMARK SMILES IDX 87 13 35 14 92 15 86 16 88 17 36 18 91 19 85 20 84 21 37 23
REMARK SMILES IDX 71 24 50 25 70 26 51 27 54 28 69 29 89 30 52 31 53 32 68 34
REMARK SMILES IDX 90 35 55 36 38 37 39 38 48 39 40 40 41 41 47 42 49 43 42 44
REMARK SMILES IDX 43 45 44 46 45 47 46 48 72 49 73 50 82 51 74 52 75 53 81 54
REMARK SMILES IDX 83 55 76 56 77 57 78 58 79 59 80 60 56 61 57 62 66 63 58 64
REMARK SMILES IDX 59 65 65 66 67 67 60 68 61 69 62 70 63 71 64 72 5 73 6 74
REMARK SMILES IDX 7 75 8 76 9 77 10 78 14 79 11 80 13 81 12 82 15 83 16 85
REMARK SMILES IDX 17 86 18 87 19 88 20 89 28 90 21 91 27 92 22 93 26 94 23 95
REMARK SMILES IDX 25 96 24 97
REMARK H PARENT 88 22 54 33 15 84
REMARK Flexibility Score: inf
ROOT
ATOM      1  C   UNL     1       3.891   2.040  -0.743  1.00  0.00     0.275 C 
ENDROOT
BRANCH   1   2
ATOM      2  O   UNL     1       2.478   0.818  -1.574  1.00  0.00    -0.458 OA
BRANCH   2   3
ATOM      3  C   UNL     1       1.840  -0.687  -1.295  1.00  0.00     0.338 C 
ATOM      4  O   UNL     1       0.883  -1.056  -1.964  1.00  0.00    -0.246 OA
BRANCH   3   5
ATOM      5  C   UNL     1       2.540  -1.692   0.004  1.00  0.00     0.060 A 
ATOM      6  C   UNL     1       4.029  -1.169   1.054  1.00  0.00     0.016 A 
ATOM      7  C   UNL     1       2.092  -3.423   0.131  1.00  0.00     0.016 A 
ATOM      8  C   UNL     1       4.944  -2.268   2.079  1.00  0.00     0.010 A 
ATOM      9  C   UNL     1       3.075  -4.520   1.176  1.00  0.00     0.010 A 
ATOM     10  C   UNL     1       4.453  -3.940   2.179  1.00  0.00    -0.014 A 
BRANCH  10  11
ATOM     11  C   UNL     1       5.497  -4.764   2.870  1.00  0.00     0.031 A 
ATOM     12  C   UNL     1       6.163  -5.884   2.138  1.00  0.00     0.074 A 
ATOM     13  C   UNL     1       6.018  -4.348   4.055  1.00  0.00     0.049 A 
ATOM     14  N   UNL     1       7.053  -6.724   2.588  1.00  0.00    -0.248 NA
ATOM     15  C   UNL     1       5.869  -6.031   0.704  1.00  0.00     0.031 C 
ATOM     16  C   UNL     1       5.694  -3.091   4.724  1.00  0.00     0.029 A 
ATOM     17  N   UNL     1       6.906  -4.900   4.944  1.00  0.00    -0.354 N 
ATOM     18  C   UNL     1       7.439  -7.484   1.493  1.00  0.00     0.074 A 
ATOM     19  C   UNL     1       6.668  -7.030   0.361  1.00  0.00     0.031 C 
ATOM     20  C   UNL     1       6.231  -3.008   5.939  1.00  0.00     0.029 A 
ATOM     21  C   UNL     1       6.950  -4.231   6.158  1.00  0.00     0.049 A 
ATOM     22  H   UNL     1       7.456  -5.691   4.740  1.00  0.00     0.167 HD
ATOM     23  C   UNL     1       8.367  -8.464   1.453  1.00  0.00     0.037 A 
ATOM     24  C   UNL     1       7.460  -4.572   7.351  1.00  0.00     0.037 A 
ATOM     25  C   UNL     1       9.090  -8.896   2.620  1.00  0.00     0.049 A 
ATOM     26  C   UNL     1       8.286  -5.808   7.355  1.00  0.00     0.074 A 
ATOM     27  C   UNL     1       9.963  -9.957   2.756  1.00  0.00     0.029 A 
ATOM     28  N   UNL     1       9.014  -8.276   3.864  1.00  0.00    -0.354 N 
ATOM     29  N   UNL     1       8.535  -6.604   6.342  1.00  0.00    -0.248 NA
ATOM     30  C   UNL     1       8.938  -6.172   8.609  1.00  0.00     0.031 C 
ATOM     31  C   UNL     1      10.368 -10.013   4.094  1.00  0.00     0.029 A 
ATOM     32  C   UNL     1       9.798  -8.951   4.782  1.00  0.00     0.049 A 
ATOM     33  H   UNL     1       8.478  -7.474   4.062  1.00  0.00     0.167 HD
ATOM     34  C   UNL     1       9.415  -7.550   6.822  1.00  0.00     0.074 A 
ATOM     35  C   UNL     1       9.656  -7.215   8.217  1.00  0.00     0.031 C 
ATOM     36  C   UNL     1       9.981  -8.591   6.167  1.00  0.00     0.037 A 
BRANCH  23  37
ATOM     37  C   UNL     1       8.569  -9.165   0.140  1.00  0.00     0.058 A 
ATOM     38  C   UNL     1       9.225  -8.555  -0.942  1.00  0.00     0.135 A 
ATOM     39  C   UNL     1       8.064 -10.460  -0.050  1.00  0.00     0.135 A 
ATOM     40  F   UNL     1       9.688  -7.299  -0.831  1.00  0.00    -0.206 F 
ATOM     41  C   UNL     1       9.367  -9.202  -2.167  1.00  0.00     0.059 A 
ATOM     42  C   UNL     1       8.214 -11.136  -1.257  1.00  0.00     0.059 A 
ATOM     43  F   UNL     1       7.402 -11.078   0.941  1.00  0.00    -0.206 F 
ATOM     44  C   UNL     1       8.862 -10.496  -2.313  1.00  0.00     0.060 A 
BRANCH  44  45
ATOM     45  S   UNL     1       9.078 -11.337  -3.897  1.00  0.00     0.124 S 
ATOM     46  O   UNL     1       8.168 -10.585  -4.756  1.00  0.00    -0.237 OA
ATOM     47  O   UNL     1      10.501 -11.146  -4.157  1.00  0.00    -0.237 OA
ATOM     48  O   UNL     1       8.676 -12.711  -3.610  1.00  0.00    -0.744 OA
ENDBRANCH  44  45
ENDBRANCH  23  37
BRANCH  24  49
ATOM     49  C   UNL     1       7.163  -3.772   8.575  1.00  0.00     0.058 A 
ATOM     50  C   UNL     1       8.154  -3.064   9.267  1.00  0.00     0.135 A 
ATOM     51  C   UNL     1       5.847  -3.689   9.074  1.00  0.00     0.135 A 
ATOM     52  F   UNL     1       9.420  -3.081   8.825  1.00  0.00    -0.206 F 
ATOM     53  C   UNL     1       7.867  -2.343  10.426  1.00  0.00     0.059 A 
ATOM     54  C   UNL     1       5.530  -2.957  10.215  1.00  0.00     0.059 A 
ATOM     55  F   UNL     1       4.844  -4.311   8.433  1.00  0.00    -0.206 F 
ATOM     56  C   UNL     1       6.553  -2.304  10.898  1.00  0.00     0.060 A 
BRANCH  56  57
ATOM     57  S   UNL     1       6.199  -1.385  12.415  1.00  0.00     0.124 S 
ATOM     58  O   UNL     1       6.862  -2.209  13.418  1.00  0.00    -0.237 OA
ATOM     59  O   UNL     1       6.818  -0.092  12.138  1.00  0.00    -0.237 OA
ATOM     60  O   UNL     1       4.740  -1.375  12.471  1.00  0.00    -0.744 OA
ENDBRANCH  56  57
ENDBRANCH  24  49
BRANCH  36  61
ATOM     61  C   UNL     1      10.920  -9.416   6.980  1.00  0.00     0.058 A 
ATOM     62  C   UNL     1      10.452 -10.259   7.998  1.00  0.00     0.135 A 
ATOM     63  C   UNL     1      12.300  -9.345   6.744  1.00  0.00     0.135 A 
ATOM     64  F   UNL     1       9.139 -10.334   8.267  1.00  0.00    -0.206 F 
ATOM     65  C   UNL     1      11.333 -10.978   8.790  1.00  0.00     0.059 A 
ATOM     66  C   UNL     1      13.195 -10.085   7.500  1.00  0.00     0.059 A 
ATOM     67  F   UNL     1      12.784  -8.549   5.778  1.00  0.00    -0.206 F 
ATOM     68  C   UNL     1      12.702 -10.883   8.532  1.00  0.00     0.060 A 
BRANCH  68  69
ATOM     69  S   UNL     1      13.834 -11.832   9.561  1.00  0.00     0.124 S 
ATOM     70  O   UNL     1      13.821 -11.058  10.797  1.00  0.00    -0.237 OA
ATOM     71  O   UNL     1      13.180 -13.136   9.621  1.00  0.00    -0.237 OA
ATOM     72  O   UNL     1      15.084 -11.798   8.808  1.00  0.00    -0.744 OA
ENDBRANCH  68  69
ENDBRANCH  36  61
ENDBRANCH  10  11
ENDBRANCH   3   5
ENDBRANCH   2   3
ENDBRANCH   1   2
BRANCH   1  73
ATOM     73  C   UNL     1       4.175   2.293   1.076  1.00  0.00     0.274 C 
BRANCH  73  74
ATOM     74  O   UNL     1       4.276   1.125   2.052  1.00  0.00    -0.462 OA
BRANCH  74  75
ATOM     75  C   UNL     1       3.228   0.757   2.874  1.00  0.00     0.310 C 
ATOM     76  O   UNL     1       2.458   1.610   3.320  1.00  0.00    -0.252 OA
BRANCH  75  77
ATOM     77  C   UNL     1       2.893  -0.878   3.125  1.00  0.00     0.117 C 
ATOM     78  C   UNL     1       2.999  -1.077   4.660  1.00  0.00     0.017 C 
ATOM     79  C   UNL     1       2.794  -2.413   2.048  1.00  0.00     0.084 C 
ATOM     80  C   UNL     1       2.367  -2.304   5.302  1.00  0.00     0.001 C 
ATOM     81  C   UNL     1       1.962  -3.470   3.104  1.00  0.00     0.021 C 
ATOM     82  C   UNL     1       2.447  -3.603   4.536  1.00  0.00     0.002 C 
BRANCH  79  83
ATOM     83  N   UNL     1       4.038  -2.952   0.356  1.00  0.00    -0.207 NA
ATOM     84  H   UNL     1       3.521  -3.709  -0.090  1.00  0.00     0.141 HD
BRANCH  83  85
ATOM     85  S   UNL     1       4.745  -1.871  -1.208  1.00  0.00     0.240 S 
ATOM     86  O   UNL     1       6.172  -1.786  -0.990  1.00  0.00    -0.207 OA
ATOM     87  O   UNL     1       4.160  -2.448  -2.397  1.00  0.00    -0.207 OA
BRANCH  85  88
ATOM     88  C   UNL     1       4.059  -0.034  -1.054  1.00  0.00     0.083 A 
ATOM     89  C   UNL     1       4.159   0.728  -2.634  1.00  0.00     0.022 A 
ATOM     90  C   UNL     1       2.782   0.659   0.185  1.00  0.00     0.030 A 
ATOM     91  C   UNL     1       3.138   2.099  -2.959  1.00  0.00     0.010 A 
ATOM     92  C   UNL     1       1.743   2.066  -0.241  1.00  0.00    -0.017 A 
ATOM     93  C   UNL     1       1.960   2.773  -1.815  1.00  0.00    -0.018 A 
ATOM     94  C   UNL     1       0.819   2.660   0.607  1.00  0.00     0.009 A 
ATOM     95  C   UNL     1       1.258   3.951  -2.024  1.00  0.00     0.009 A 
ATOM     96  C   UNL     1       0.224   3.867   0.239  1.00  0.00     0.001 A 
ATOM     97  C   UNL     1       0.452   4.493  -1.007  1.00  0.00     0.001 A 
ENDBRANCH  85  88
ENDBRANCH  83  85
ENDBRANCH  79  83
ENDBRANCH  75  77
ENDBRANCH  74  75
ENDBRANCH  73  74
ENDBRANCH   1  73
TORSDOF 17
