REMARK SMILES O=C(CCCc1csc2ccccc12)OCCOC(=O)c1ccc(-c2c3nc(c(-c4c(F)cc(S(=O)(=O)[O-])cc4F)c4ccc([nH]4)c(-c4c(F)cc(S(=O)(=O)[O-])cc4F)c4nc(c(-c5c(F)cc(S(=O)(=O)[O-])cc5F)c5ccc2[nH]5)C=C4)C=C3)cc1
REMARK SMILES IDX 16 1 15 2 2 3 1 4 3 5 4 6 5 7 6 8 7 9 14 10 8 11 9 12 13 13
REMARK SMILES IDX 10 14 12 15 11 16 17 17 18 18 19 19 20 20 21 21 22 22 86 23
REMARK SMILES IDX 23 24 85 25 24 26 25 27 26 28 79 29 27 30 84 31 78 32 80 33
REMARK SMILES IDX 28 34 83 35 77 36 76 37 29 39 63 40 42 41 62 42 43 43 46 44
REMARK SMILES IDX 61 45 81 46 44 47 45 48 60 50 82 51 47 52 30 53 31 54 40 55
REMARK SMILES IDX 32 56 33 57 39 58 41 59 34 60 35 61 36 62 37 63 38 64 64 65
REMARK SMILES IDX 65 66 74 67 66 68 67 69 73 70 75 71 68 72 69 73 70 74 71 75
REMARK SMILES IDX 72 76 48 77 49 78 58 79 50 80 51 81 57 82 59 83 52 84 53 85
REMARK SMILES IDX 54 86 55 87 56 88
REMARK H PARENT 80 38 46 49
REMARK Flexibility Score: inf
ROOT
ATOM      1  C   UNL     1       4.011  -0.495   1.284  1.00  0.00     0.274 C 
ENDROOT
BRANCH   1   2
ATOM      2  O   UNL     1       3.048   0.575   1.161  1.00  0.00    -0.462 OA
BRANCH   2   3
ATOM      3  C   UNL     1       2.511   1.061   0.023  1.00  0.00     0.305 C 
ATOM      4  O   UNL     1       1.416   1.618   0.065  1.00  0.00    -0.252 OA
BRANCH   3   5
ATOM      5  C   UNL     1       3.253   0.935  -1.285  1.00  0.00     0.123 C 
BRANCH   5   6
ATOM      6  C   UNL     1       4.376   1.923  -1.579  1.00  0.00     0.016 C 
BRANCH   6   7
ATOM      7  C   UNL     1       5.715   1.727  -0.868  1.00  0.00     0.037 C 
BRANCH   7   8
ATOM      8  C   UNL     1       6.552   0.495  -1.171  1.00  0.00    -0.029 A 
ATOM      9  C   UNL     1       6.138  -0.695  -1.737  1.00  0.00     0.069 A 
ATOM     10  C   UNL     1       7.974   0.417  -0.854  1.00  0.00    -0.004 A 
ATOM     11  S   UNL     1       7.307  -1.930  -1.685  1.00  0.00    -0.144 S 
ATOM     12  C   UNL     1       8.495  -0.865  -1.059  1.00  0.00     0.035 A 
ATOM     13  C   UNL     1       8.866   1.412  -0.375  1.00  0.00     0.010 A 
ATOM     14  C   UNL     1       9.838  -1.181  -0.777  1.00  0.00     0.019 A 
ATOM     15  C   UNL     1      10.212   1.115  -0.139  1.00  0.00     0.001 A 
ATOM     16  C   UNL     1      10.689  -0.172  -0.327  1.00  0.00     0.001 A 
ENDBRANCH   7   8
ENDBRANCH   6   7
ENDBRANCH   5   6
ENDBRANCH   3   5
ENDBRANCH   2   3
ENDBRANCH   1   2
BRANCH   1  17
ATOM     17  C   UNL     1       3.417  -1.876   1.008  1.00  0.00     0.275 C 
BRANCH  17  18
ATOM     18  O   UNL     1       3.247  -2.053  -0.409  1.00  0.00    -0.458 OA
BRANCH  18  19
ATOM     19  C   UNL     1       2.021  -2.468  -0.813  1.00  0.00     0.338 C 
ATOM     20  O   UNL     1       1.118  -2.862  -0.106  1.00  0.00    -0.246 OA
BRANCH  19  21
ATOM     21  C   UNL     1       1.877  -2.189  -2.263  1.00  0.00     0.060 A 
ATOM     22  C   UNL     1       0.722  -1.521  -2.680  1.00  0.00     0.016 A 
ATOM     23  C   UNL     1       2.851  -2.559  -3.198  1.00  0.00     0.016 A 
ATOM     24  C   UNL     1       0.510  -1.270  -4.038  1.00  0.00     0.010 A 
ATOM     25  C   UNL     1       2.640  -2.297  -4.559  1.00  0.00     0.010 A 
ATOM     26  C   UNL     1       1.449  -1.687  -4.992  1.00  0.00    -0.014 A 
BRANCH  26  27
ATOM     27  C   UNL     1       1.094  -1.630  -6.436  1.00  0.00     0.031 A 
ATOM     28  C   UNL     1       0.605  -2.884  -7.116  1.00  0.00     0.074 A 
ATOM     29  C   UNL     1       1.143  -0.476  -7.130  1.00  0.00     0.049 A 
ATOM     30  N   UNL     1       0.158  -3.046  -8.335  1.00  0.00    -0.248 NA
ATOM     31  C   UNL     1       0.621  -4.117  -6.312  1.00  0.00     0.031 C 
ATOM     32  C   UNL     1       1.585   0.813  -6.601  1.00  0.00     0.029 A 
ATOM     33  N   UNL     1       0.807  -0.206  -8.435  1.00  0.00    -0.354 N 
ATOM     34  C   UNL     1      -0.176  -4.391  -8.439  1.00  0.00     0.074 A 
ATOM     35  C   UNL     1       0.170  -5.011  -7.178  1.00  0.00     0.031 C 
ATOM     36  C   UNL     1       1.489   1.738  -7.573  1.00  0.00     0.029 A 
ATOM     37  C   UNL     1       0.989   1.108  -8.795  1.00  0.00     0.049 A 
ATOM     38  H   UNL     1       0.467  -0.891  -9.055  1.00  0.00     0.167 HD
ATOM     39  C   UNL     1      -0.742  -5.051  -9.478  1.00  0.00     0.037 A 
ATOM     40  C   UNL     1       0.773   1.733  -9.971  1.00  0.00     0.037 A 
ATOM     41  C   UNL     1      -1.085  -4.447 -10.738  1.00  0.00     0.049 A 
ATOM     42  C   UNL     1       0.202   0.964 -11.137  1.00  0.00     0.074 A 
ATOM     43  C   UNL     1      -1.685  -5.035 -11.838  1.00  0.00     0.029 A 
ATOM     44  N   UNL     1      -0.851  -3.122 -11.073  1.00  0.00    -0.354 N 
ATOM     45  N   UNL     1      -0.165  -0.294 -11.198  1.00  0.00    -0.248 NA
ATOM     46  C   UNL     1       0.006   1.705 -12.394  1.00  0.00     0.031 C 
ATOM     47  C   UNL     1      -1.772  -4.079 -12.855  1.00  0.00     0.029 A 
ATOM     48  C   UNL     1      -1.270  -2.881 -12.371  1.00  0.00     0.049 A 
ATOM     49  H   UNL     1      -0.447  -2.452 -10.476  1.00  0.00     0.167 HD
ATOM     50  C   UNL     1      -0.665  -0.484 -12.484  1.00  0.00     0.074 A 
ATOM     51  C   UNL     1      -0.559   0.787 -13.167  1.00  0.00     0.031 C 
ATOM     52  C   UNL     1      -1.172  -1.611 -13.044  1.00  0.00     0.037 A 
BRANCH  39  53
ATOM     53  C   UNL     1      -1.022  -6.515  -9.294  1.00  0.00     0.058 A 
ATOM     54  C   UNL     1      -2.064  -6.963  -8.466  1.00  0.00     0.135 A 
ATOM     55  C   UNL     1      -0.261  -7.479  -9.972  1.00  0.00     0.135 A 
ATOM     56  F   UNL     1      -2.810  -6.081  -7.781  1.00  0.00    -0.206 F 
ATOM     57  C   UNL     1      -2.325  -8.318  -8.296  1.00  0.00     0.059 A 
ATOM     58  C   UNL     1      -0.520  -8.840  -9.836  1.00  0.00     0.059 A 
ATOM     59  F   UNL     1       0.747  -7.104 -10.774  1.00  0.00    -0.206 F 
ATOM     60  C   UNL     1      -1.545  -9.249  -8.984  1.00  0.00     0.060 A 
BRANCH  60  61
ATOM     61  S   UNL     1      -1.894 -11.005  -8.752  1.00  0.00     0.124 S 
ATOM     62  O   UNL     1      -1.361 -11.232  -7.412  1.00  0.00    -0.237 OA
ATOM     63  O   UNL     1      -3.347 -11.054  -8.872  1.00  0.00    -0.237 OA
ATOM     64  O   UNL     1      -1.156 -11.644  -9.837  1.00  0.00    -0.744 OA
ENDBRANCH  60  61
ENDBRANCH  39  53
BRANCH  40  65
ATOM     65  C   UNL     1       1.087   3.180 -10.115  1.00  0.00     0.058 A 
ATOM     66  C   UNL     1       0.067   4.134 -10.252  1.00  0.00     0.135 A 
ATOM     67  C   UNL     1       2.415   3.634 -10.143  1.00  0.00     0.135 A 
ATOM     68  F   UNL     1      -1.217   3.748 -10.247  1.00  0.00    -0.206 F 
ATOM     69  C   UNL     1       0.351   5.485 -10.430  1.00  0.00     0.059 A 
ATOM     70  C   UNL     1       2.724   4.982 -10.297  1.00  0.00     0.059 A 
ATOM     71  F   UNL     1       3.426   2.762 -10.010  1.00  0.00    -0.206 F 
ATOM     72  C   UNL     1       1.685   5.899 -10.451  1.00  0.00     0.060 A 
BRANCH  72  73
ATOM     73  S   UNL     1       2.045   7.659 -10.643  1.00  0.00     0.124 S 
ATOM     74  O   UNL     1       1.758   7.864 -12.059  1.00  0.00    -0.237 OA
ATOM     75  O   UNL     1       1.106   8.269  -9.706  1.00  0.00    -0.237 OA
ATOM     76  O   UNL     1       3.451   7.756 -10.262  1.00  0.00    -0.744 OA
ENDBRANCH  72  73
ENDBRANCH  40  65
BRANCH  52  77
ATOM     77  C   UNL     1      -1.686  -1.525 -14.457  1.00  0.00     0.058 A 
ATOM     78  C   UNL     1      -0.818  -1.426 -15.555  1.00  0.00     0.135 A 
ATOM     79  C   UNL     1      -3.064  -1.611 -14.718  1.00  0.00     0.135 A 
ATOM     80  F   UNL     1       0.507  -1.338 -15.363  1.00  0.00    -0.206 F 
ATOM     81  C   UNL     1      -1.298  -1.397 -16.862  1.00  0.00     0.059 A 
ATOM     82  C   UNL     1      -3.564  -1.608 -16.017  1.00  0.00     0.059 A 
ATOM     83  F   UNL     1      -3.939  -1.719 -13.706  1.00  0.00    -0.206 F 
ATOM     84  C   UNL     1      -2.674  -1.491 -17.083  1.00  0.00     0.060 A 
BRANCH  84  85
ATOM     85  S   UNL     1      -3.281  -1.493 -18.784  1.00  0.00     0.124 S 
ATOM     86  O   UNL     1      -3.137  -0.088 -19.150  1.00  0.00    -0.237 OA
ATOM     87  O   UNL     1      -2.364  -2.417 -19.444  1.00  0.00    -0.237 OA
ATOM     88  O   UNL     1      -4.655  -1.970 -18.654  1.00  0.00    -0.744 OA
ENDBRANCH  84  85
ENDBRANCH  52  77
ENDBRANCH  26  27
ENDBRANCH  19  21
ENDBRANCH  18  19
ENDBRANCH  17  18
ENDBRANCH   1  17
TORSDOF 17
