REMARK SMILES O=C(OCCOC(=O)c1ccc(-c2c3nc(c(-c4c(F)cc(S(=O)(=O)[O-])cc4F)c4ccc([nH]4)c(-c4c(F)cc(S(=O)(=O)[O-])cc4F)c4nc(c(-c5c(F)cc(S(=O)(=O)[O-])cc5F)c5ccc2[nH]5)C=C4)C=C3)cc1)C1=Cc2cc(Cl)cc(-c3ccc(Cl)cc3)c2O[C@@H]1C(F)(F)F
REMARK SMILES IDX 5 1 4 2 3 3 2 4 1 5 75 6 76 7 92 8 77 9 91 10 78 11 90 12
REMARK SMILES IDX 79 13 82 14 80 15 81 16 93 17 94 18 95 19 96 20 83 21 84 22
REMARK SMILES IDX 89 23 85 24 88 25 86 26 87 27 6 28 7 29 8 30 9 31 10 32
REMARK SMILES IDX 74 33 11 34 73 35 12 36 13 37 14 38 67 39 15 40 72 41 66 42
REMARK SMILES IDX 68 43 16 44 71 45 65 46 64 47 17 49 51 50 30 51 50 52 31 53
REMARK SMILES IDX 34 54 49 55 69 56 32 57 33 58 48 60 70 61 35 62 18 63 19 64
REMARK SMILES IDX 28 65 20 66 21 67 27 68 29 69 22 70 23 71 24 72 25 73 26 74
REMARK SMILES IDX 52 75 53 76 62 77 54 78 55 79 61 80 63 81 56 82 57 83 58 84
REMARK SMILES IDX 59 85 60 86 36 87 37 88 46 89 38 90 39 91 45 92 47 93 40 94
REMARK SMILES IDX 41 95 42 96 43 97 44 98
REMARK H PARENT 68 48 34 59
REMARK Flexibility Score: inf
ROOT
ATOM      1  C   UNL     1       2.634   1.241  -2.190  1.00  0.00     0.275 C 
ENDROOT
BRANCH   1   2
ATOM      2  C   UNL     1       2.352  -0.123  -1.505  1.00  0.00     0.275 C 
BRANCH   2   3
ATOM      3  O   UNL     1       1.844  -0.014  -0.147  1.00  0.00    -0.459 OA
BRANCH   3   4
ATOM      4  C   UNL     1       2.388  -0.841   0.796  1.00  0.00     0.338 C 
ATOM      5  O   UNL     1       1.893  -1.907   1.120  1.00  0.00    -0.246 OA
BRANCH   4   6
ATOM      6  C   UNL     1       3.674  -0.319   1.332  1.00  0.00     0.087 C 
ATOM      7  C   UNL     1       4.662  -1.149   1.712  1.00  0.00     0.027 C 
ATOM      8  C   UNL     1       4.103   1.047   0.934  1.00  0.00     0.316 C 
ATOM      9  C   UNL     1       5.854  -1.025   0.822  1.00  0.00     0.019 A 
ATOM     10  O   UNL     1       4.941   0.951  -0.248  1.00  0.00    -0.475 OA
ATOM     11  C   UNL     1       6.891  -1.956   0.876  1.00  0.00     0.032 A 
ATOM     12  C   UNL     1       5.778  -0.145  -0.285  1.00  0.00     0.135 A 
ATOM     13  C   UNL     1       7.798  -2.039  -0.181  1.00  0.00     0.042 A 
ATOM     14  C   UNL     1       6.506  -0.424  -1.462  1.00  0.00     0.026 A 
ATOM     15  Cl  UNL     1       9.099  -3.163  -0.116  1.00  0.00    -0.084 Cl
ATOM     16  C   UNL     1       7.584  -1.319  -1.355  1.00  0.00     0.033 A 
BRANCH   8  17
ATOM     17  C   UNL     1       4.630   1.847   2.146  1.00  0.00     0.430 C 
ATOM     18  F   UNL     1       3.589   2.230   2.932  1.00  0.00    -0.167 F 
ATOM     19  F   UNL     1       5.476   1.152   2.939  1.00  0.00    -0.167 F 
ATOM     20  F   UNL     1       5.270   2.974   1.761  1.00  0.00    -0.167 F 
ENDBRANCH   8  17
BRANCH  14  21
ATOM     21  C   UNL     1       5.987  -0.183  -2.833  1.00  0.00    -0.015 A 
ATOM     22  C   UNL     1       5.380  -1.277  -3.504  1.00  0.00     0.010 A 
ATOM     23  C   UNL     1       6.103   1.020  -3.537  1.00  0.00     0.010 A 
ATOM     24  C   UNL     1       4.926  -1.184  -4.822  1.00  0.00     0.021 A 
ATOM     25  C   UNL     1       5.637   1.120  -4.863  1.00  0.00     0.021 A 
ATOM     26  C   UNL     1       5.063   0.018  -5.501  1.00  0.00     0.041 A 
ATOM     27  Cl  UNL     1       4.530   0.135  -7.133  1.00  0.00    -0.084 Cl
ENDBRANCH  14  21
ENDBRANCH   4   6
ENDBRANCH   3   4
ENDBRANCH   2   3
ENDBRANCH   1   2
BRANCH   1  28
ATOM     28  O   UNL     1       2.522   2.363  -1.311  1.00  0.00    -0.458 OA
BRANCH  28  29
ATOM     29  C   UNL     1       1.242   2.777  -1.127  1.00  0.00     0.338 C 
ATOM     30  O   UNL     1       0.296   2.498  -1.816  1.00  0.00    -0.246 OA
BRANCH  29  31
ATOM     31  C   UNL     1       1.155   3.413   0.214  1.00  0.00     0.060 A 
ATOM     32  C   UNL     1       0.026   3.092   0.967  1.00  0.00     0.016 A 
ATOM     33  C   UNL     1       2.148   4.244   0.750  1.00  0.00     0.016 A 
ATOM     34  C   UNL     1      -0.156   3.659   2.223  1.00  0.00     0.010 A 
ATOM     35  C   UNL     1       1.978   4.788   2.032  1.00  0.00     0.010 A 
ATOM     36  C   UNL     1       0.797   4.543   2.752  1.00  0.00    -0.014 A 
BRANCH  36  37
ATOM     37  C   UNL     1       0.411   5.324   3.957  1.00  0.00     0.031 A 
ATOM     38  C   UNL     1      -0.008   6.761   3.781  1.00  0.00     0.074 A 
ATOM     39  C   UNL     1       0.266   4.722   5.154  1.00  0.00     0.049 A 
ATOM     40  N   UNL     1      -0.644   7.545   4.613  1.00  0.00    -0.248 NA
ATOM     41  C   UNL     1       0.323   7.396   2.495  1.00  0.00     0.031 C 
ATOM     42  C   UNL     1       0.651   3.344   5.461  1.00  0.00     0.029 A 
ATOM     43  N   UNL     1      -0.280   5.185   6.326  1.00  0.00    -0.354 N 
ATOM     44  C   UNL     1      -0.832   8.742   3.932  1.00  0.00     0.074 A 
ATOM     45  C   UNL     1      -0.163   8.616   2.658  1.00  0.00     0.031 C 
ATOM     46  C   UNL     1       0.308   3.067   6.732  1.00  0.00     0.029 A 
ATOM     47  C   UNL     1      -0.324   4.242   7.328  1.00  0.00     0.049 A 
ATOM     48  H   UNL     1      -0.609   6.106   6.440  1.00  0.00     0.167 HD
ATOM     49  C   UNL     1      -1.538   9.833   4.309  1.00  0.00     0.037 A 
ATOM     50  C   UNL     1      -0.836   4.315   8.574  1.00  0.00     0.037 A 
ATOM     51  C   UNL     1      -2.180   9.975   5.587  1.00  0.00     0.049 A 
ATOM     52  C   UNL     1      -1.564   5.569   8.998  1.00  0.00     0.074 A 
ATOM     53  C   UNL     1      -2.905  11.047   6.074  1.00  0.00     0.029 A 
ATOM     54  N   UNL     1      -2.162   9.014   6.588  1.00  0.00    -0.354 N 
ATOM     55  N   UNL     1      -1.802   6.662   8.310  1.00  0.00    -0.248 NA
ATOM     56  C   UNL     1      -2.119   5.587  10.359  1.00  0.00     0.031 C 
ATOM     57  C   UNL     1      -3.286  10.754   7.388  1.00  0.00     0.029 A 
ATOM     58  C   UNL     1      -2.847   9.476   7.699  1.00  0.00     0.049 A 
ATOM     59  H   UNL     1      -1.727   8.134   6.518  1.00  0.00     0.167 HD
ATOM     60  C   UNL     1      -2.557   7.482   9.145  1.00  0.00     0.074 A 
ATOM     61  C   UNL     1      -2.757   6.749  10.377  1.00  0.00     0.031 C 
ATOM     62  C   UNL     1      -3.041   8.730   8.917  1.00  0.00     0.037 A 
BRANCH  49  63
ATOM     63  C   UNL     1      -1.652  10.951   3.309  1.00  0.00     0.058 A 
ATOM     64  C   UNL     1      -2.420  10.807   2.141  1.00  0.00     0.135 A 
ATOM     65  C   UNL     1      -0.991  12.171   3.512  1.00  0.00     0.135 A 
ATOM     66  F   UNL     1      -3.054   9.651   1.885  1.00  0.00    -0.206 F 
ATOM     67  C   UNL     1      -2.502  11.821   1.194  1.00  0.00     0.059 A 
ATOM     68  C   UNL     1      -1.082  13.211   2.591  1.00  0.00     0.059 A 
ATOM     69  F   UNL     1      -0.239  12.359   4.607  1.00  0.00    -0.206 F 
ATOM     70  C   UNL     1      -1.827  13.020   1.428  1.00  0.00     0.060 A 
BRANCH  70  71
ATOM     71  S   UNL     1      -1.938  14.323   0.184  1.00  0.00     0.124 S 
ATOM     72  O   UNL     1      -1.130  13.765  -0.896  1.00  0.00    -0.237 OA
ATOM     73  O   UNL     1      -3.373  14.391  -0.069  1.00  0.00    -0.237 OA
ATOM     74  O   UNL     1      -1.366  15.486   0.857  1.00  0.00    -0.744 OA
ENDBRANCH  70  71
ENDBRANCH  49  63
BRANCH  50  75
ATOM     75  C   UNL     1      -0.692   3.170   9.518  1.00  0.00     0.058 A 
ATOM     76  C   UNL     1      -1.801   2.439   9.970  1.00  0.00     0.135 A 
ATOM     77  C   UNL     1       0.568   2.819  10.030  1.00  0.00     0.135 A 
ATOM     78  F   UNL     1      -3.030   2.737   9.520  1.00  0.00    -0.206 F 
ATOM     79  C   UNL     1      -1.675   1.429  10.921  1.00  0.00     0.059 A 
ATOM     80  C   UNL     1       0.724   1.795  10.959  1.00  0.00     0.059 A 
ATOM     81  F   UNL     1       1.665   3.477   9.625  1.00  0.00    -0.206 F 
ATOM     82  C   UNL     1      -0.406   1.117  11.412  1.00  0.00     0.060 A 
BRANCH  82  83
ATOM     83  S   UNL     1      -0.248  -0.198  12.641  1.00  0.00     0.124 S 
ATOM     84  O   UNL     1      -0.824   0.432  13.823  1.00  0.00    -0.237 OA
ATOM     85  O   UNL     1      -1.034  -1.273  12.042  1.00  0.00    -0.237 OA
ATOM     86  O   UNL     1       1.192  -0.438  12.693  1.00  0.00    -0.744 OA
ENDBRANCH  82  83
ENDBRANCH  50  75
BRANCH  62  87
ATOM     87  C   UNL     1      -3.859   9.370  10.008  1.00  0.00     0.058 A 
ATOM     88  C   UNL     1      -3.282   9.789  11.218  1.00  0.00     0.135 A 
ATOM     89  C   UNL     1      -5.233   9.599   9.826  1.00  0.00     0.135 A 
ATOM     90  F   UNL     1      -1.973   9.596  11.446  1.00  0.00    -0.206 F 
ATOM     91  C   UNL     1      -4.046  10.373  12.224  1.00  0.00     0.059 A 
ATOM     92  C   UNL     1      -6.009  10.214  10.805  1.00  0.00     0.059 A 
ATOM     93  F   UNL     1      -5.834   9.236   8.682  1.00  0.00    -0.206 F 
ATOM     94  C   UNL     1      -5.409  10.579  12.009  1.00  0.00     0.060 A 
BRANCH  94  95
ATOM     95  S   UNL     1      -6.387  11.344  13.319  1.00  0.00     0.124 S 
ATOM     96  O   UNL     1      -6.489  10.255  14.284  1.00  0.00    -0.237 OA
ATOM     97  O   UNL     1      -5.548  12.469  13.720  1.00  0.00    -0.237 OA
ATOM     98  O   UNL     1      -7.631  11.707  12.647  1.00  0.00    -0.744 OA
ENDBRANCH  94  95
ENDBRANCH  62  87
ENDBRANCH  36  37
ENDBRANCH  29  31
ENDBRANCH  28  29
ENDBRANCH   1  28
TORSDOF 16
