REMARK SMILES CCOc1ccccc1[C@H](C(=O)OCCOC(=O)c1ccc(-c2c3nc(c(-c4c(F)cc(S(=O)(=O)[O-])cc4F)c4ccc([nH]4)c(-c4c(F)cc(S(=O)(=O)[O-])cc4F)c4nc(c(-c5c(F)cc(S(=O)(=O)[O-])cc5F)c5ccc2[nH]5)C=C4)C=C3)cc1)[NH+]1CCC([NH+]2CCSCC2)CC1
REMARK SMILES IDX 14 1 13 2 11 3 12 4 10 5 9 6 4 7 5 8 6 9 8 10 7 11 3 12 2 13
REMARK SMILES IDX 1 14 85 15 86 16 96 17 87 19 95 20 88 21 89 22 90 23 94 24
REMARK SMILES IDX 91 26 93 27 92 28 15 29 16 30 17 31 18 32 19 33 20 34 84 35
REMARK SMILES IDX 21 36 83 37 22 38 23 39 24 40 77 41 25 42 82 43 76 44 78 45
REMARK SMILES IDX 26 46 81 47 75 48 74 49 27 51 61 52 40 53 60 54 41 55 44 56
REMARK SMILES IDX 59 57 79 58 42 59 43 60 58 62 80 63 45 64 28 65 29 66 38 67
REMARK SMILES IDX 30 68 31 69 37 70 39 71 32 72 33 73 34 74 35 75 36 76 62 77
REMARK SMILES IDX 63 78 72 79 64 80 65 81 71 82 73 83 66 84 67 85 68 86 69 87
REMARK SMILES IDX 70 88 46 89 47 90 56 91 48 92 49 93 55 94 57 95 50 96 51 97
REMARK SMILES IDX 52 98 53 99 54 100
REMARK H PARENT 85 18 89 25 78 50 44 61
REMARK Flexibility Score: inf
ROOT
ATOM      1  C   UNL     1       2.371   0.078  -3.886  1.00  0.00     0.274 C 
ENDROOT
BRANCH   1   2
ATOM      2  O   UNL     1       1.784  -0.146  -2.585  1.00  0.00    -0.457 OA
BRANCH   2   3
ATOM      3  C   UNL     1       2.693  -0.162  -1.560  1.00  0.00     0.370 C 
ATOM      4  O   UNL     1       3.839   0.216  -1.691  1.00  0.00    -0.245 OA
BRANCH   3   5
ATOM      5  C   UNL     1       2.119  -0.766  -0.261  1.00  0.00     0.330 C 
BRANCH   5   6
ATOM      6  C   UNL     1       2.209  -2.300  -0.166  1.00  0.00     0.063 A 
ATOM      7  C   UNL     1       2.911  -3.133  -1.058  1.00  0.00     0.129 A 
ATOM      8  C   UNL     1       2.962  -4.517  -0.837  1.00  0.00     0.047 A 
ATOM      9  C   UNL     1       2.407  -5.075   0.313  1.00  0.00     0.004 A 
ATOM     10  C   UNL     1       1.632  -2.897   0.980  1.00  0.00     0.014 A 
ATOM     11  C   UNL     1       1.753  -4.263   1.230  1.00  0.00     0.001 A 
BRANCH   7  12
ATOM     12  O   UNL     1       3.507  -2.591  -2.164  1.00  0.00    -0.493 OA
BRANCH  12  13
ATOM     13  C   UNL     1       4.866  -2.995  -2.394  1.00  0.00     0.226 C 
ATOM     14  C   UNL     1       5.778  -1.779  -2.405  1.00  0.00     0.049 C 
ENDBRANCH  12  13
ENDBRANCH   7  12
ENDBRANCH   5   6
BRANCH   5  15
ATOM     15  N   UNL     1       2.702  -0.135   0.983  1.00  0.00    -0.319 N 
ATOM     16  C   UNL     1       4.111  -0.488   1.211  1.00  0.00     0.269 C 
ATOM     17  C   UNL     1       2.479   1.315   1.043  1.00  0.00     0.269 C 
ATOM     18  H   UNL     1       2.180  -0.543   1.759  1.00  0.00     0.349 HD
ATOM     19  C   UNL     1       4.607   0.022   2.565  1.00  0.00     0.126 C 
ATOM     20  C   UNL     1       3.013   1.935   2.341  1.00  0.00     0.126 C 
ATOM     21  C   UNL     1       4.481   1.549   2.606  1.00  0.00     0.195 C 
BRANCH  21  22
ATOM     22  N   UNL     1       5.101   2.243   3.757  1.00  0.00    -0.331 N 
ATOM     23  C   UNL     1       6.515   1.851   3.964  1.00  0.00     0.273 C 
ATOM     24  C   UNL     1       4.321   2.192   5.003  1.00  0.00     0.273 C 
ATOM     25  H   UNL     1       5.093   3.227   3.489  1.00  0.00     0.348 HD
ATOM     26  C   UNL     1       7.282   2.659   5.020  1.00  0.00     0.131 C 
ATOM     27  C   UNL     1       4.879   3.063   6.140  1.00  0.00     0.131 C 
ATOM     28  S   UNL     1       6.519   2.498   6.657  1.00  0.00    -0.150 SA
ENDBRANCH  21  22
ENDBRANCH   5  15
ENDBRANCH   3   5
ENDBRANCH   2   3
ENDBRANCH   1   2
BRANCH   1  29
ATOM     29  C   UNL     1       2.573   1.558  -4.236  1.00  0.00     0.275 C 
BRANCH  29  30
ATOM     30  O   UNL     1       3.677   2.141  -3.510  1.00  0.00    -0.458 OA
BRANCH  30  31
ATOM     31  C   UNL     1       3.426   3.325  -2.905  1.00  0.00     0.338 C 
ATOM     32  O   UNL     1       2.380   3.961  -2.976  1.00  0.00    -0.246 OA
BRANCH  31  33
ATOM     33  C   UNL     1       4.574   3.813  -2.102  1.00  0.00     0.060 A 
ATOM     34  C   UNL     1       5.178   2.998  -1.151  1.00  0.00     0.016 A 
ATOM     35  C   UNL     1       4.908   5.171  -2.134  1.00  0.00     0.016 A 
ATOM     36  C   UNL     1       5.976   3.556  -0.154  1.00  0.00     0.010 A 
ATOM     37  C   UNL     1       5.760   5.720  -1.157  1.00  0.00     0.010 A 
ATOM     38  C   UNL     1       6.231   4.929  -0.097  1.00  0.00    -0.014 A 
BRANCH  38  39
ATOM     39  C   UNL     1       6.796   5.508   1.167  1.00  0.00     0.031 A 
ATOM     40  C   UNL     1       5.954   6.472   1.978  1.00  0.00     0.074 A 
ATOM     41  C   UNL     1       7.945   5.049   1.711  1.00  0.00     0.049 A 
ATOM     42  N   UNL     1       6.271   7.155   3.051  1.00  0.00    -0.248 NA
ATOM     43  C   UNL     1       4.568   6.689   1.530  1.00  0.00     0.031 C 
ATOM     44  C   UNL     1       8.770   3.974   1.158  1.00  0.00     0.029 A 
ATOM     45  N   UNL     1       8.572   5.359   2.897  1.00  0.00    -0.354 N 
ATOM     46  C   UNL     1       5.168   7.955   3.336  1.00  0.00     0.074 A 
ATOM     47  C   UNL     1       4.150   7.632   2.362  1.00  0.00     0.031 C 
ATOM     48  C   UNL     1       9.697   3.622   2.062  1.00  0.00     0.029 A 
ATOM     49  C   UNL     1       9.628   4.528   3.205  1.00  0.00     0.049 A 
ATOM     50  H   UNL     1       8.291   6.107   3.474  1.00  0.00     0.167 HD
ATOM     51  C   UNL     1       5.035   8.902   4.296  1.00  0.00     0.037 A 
ATOM     52  C   UNL     1      10.438   4.493   4.285  1.00  0.00     0.037 A 
ATOM     53  C   UNL     1       6.021   9.160   5.314  1.00  0.00     0.049 A 
ATOM     54  C   UNL     1      10.277   5.552   5.349  1.00  0.00     0.074 A 
ATOM     55  C   UNL     1       6.050  10.175   6.255  1.00  0.00     0.029 A 
ATOM     56  N   UNL     1       7.135   8.368   5.548  1.00  0.00    -0.354 N 
ATOM     57  N   UNL     1       9.334   6.453   5.486  1.00  0.00    -0.248 NA
ATOM     58  C   UNL     1      11.321   5.616   6.383  1.00  0.00     0.031 C 
ATOM     59  C   UNL     1       7.207  10.025   7.027  1.00  0.00     0.029 A 
ATOM     60  C   UNL     1       7.865   8.880   6.608  1.00  0.00     0.049 A 
ATOM     61  H   UNL     1       7.372   7.561   5.037  1.00  0.00     0.167 HD
ATOM     62  C   UNL     1       9.674   7.192   6.617  1.00  0.00     0.074 A 
ATOM     63  C   UNL     1      10.879   6.598   7.156  1.00  0.00     0.031 C 
ATOM     64  C   UNL     1       9.062   8.282   7.144  1.00  0.00     0.037 A 
BRANCH  51  65
ATOM     65  C   UNL     1       3.850   9.826   4.202  1.00  0.00     0.058 A 
ATOM     66  C   UNL     1       2.545   9.451   4.550  1.00  0.00     0.135 A 
ATOM     67  C   UNL     1       4.053  11.142   3.749  1.00  0.00     0.135 A 
ATOM     68  F   UNL     1       2.288   8.200   4.964  1.00  0.00    -0.206 F 
ATOM     69  C   UNL     1       1.478  10.341   4.429  1.00  0.00     0.059 A 
ATOM     70  C   UNL     1       3.010  12.055   3.647  1.00  0.00     0.059 A 
ATOM     71  F   UNL     1       5.282  11.554   3.398  1.00  0.00    -0.206 F 
ATOM     72  C   UNL     1       1.722  11.640   3.974  1.00  0.00     0.060 A 
BRANCH  72  73
ATOM     73  S   UNL     1       0.333  12.783   3.807  1.00  0.00     0.124 S 
ATOM     74  O   UNL     1      -0.353  12.240   2.639  1.00  0.00    -0.237 OA
ATOM     75  O   UNL     1      -0.360  12.621   5.081  1.00  0.00    -0.237 OA
ATOM     76  O   UNL     1       0.978  14.077   3.608  1.00  0.00    -0.744 OA
ENDBRANCH  72  73
ENDBRANCH  51  65
BRANCH  52  77
ATOM     77  C   UNL     1      11.486   3.436   4.433  1.00  0.00     0.058 A 
ATOM     78  C   UNL     1      11.482   2.565   5.538  1.00  0.00     0.135 A 
ATOM     79  C   UNL     1      12.530   3.287   3.506  1.00  0.00     0.135 A 
ATOM     80  F   UNL     1      10.520   2.667   6.467  1.00  0.00    -0.206 F 
ATOM     81  C   UNL     1      12.476   1.608   5.727  1.00  0.00     0.059 A 
ATOM     82  C   UNL     1      13.510   2.309   3.650  1.00  0.00     0.059 A 
ATOM     83  F   UNL     1      12.597   4.087   2.431  1.00  0.00    -0.206 F 
ATOM     84  C   UNL     1      13.487   1.487   4.775  1.00  0.00     0.060 A 
BRANCH  84  85
ATOM     85  S   UNL     1      14.758   0.225   5.000  1.00  0.00     0.124 S 
ATOM     86  O   UNL     1      15.612   0.846   6.006  1.00  0.00    -0.237 OA
ATOM     87  O   UNL     1      13.980  -0.927   5.443  1.00  0.00    -0.237 OA
ATOM     88  O   UNL     1      15.341   0.100   3.667  1.00  0.00    -0.744 OA
ENDBRANCH  84  85
ENDBRANCH  52  77
BRANCH  64  89
ATOM     89  C   UNL     1       9.682   8.917   8.362  1.00  0.00     0.058 A 
ATOM     90  C   UNL     1      10.906   9.602   8.292  1.00  0.00     0.135 A 
ATOM     91  C   UNL     1       9.020   8.892   9.600  1.00  0.00     0.135 A 
ATOM     92  F   UNL     1      11.582   9.664   7.133  1.00  0.00    -0.206 F 
ATOM     93  C   UNL     1      11.468  10.210   9.411  1.00  0.00     0.059 A 
ATOM     94  C   UNL     1       9.548   9.518  10.726  1.00  0.00     0.059 A 
ATOM     95  F   UNL     1       7.837   8.268   9.723  1.00  0.00    -0.206 F 
ATOM     96  C   UNL     1      10.781  10.162  10.625  1.00  0.00     0.060 A 
BRANCH  96  97
ATOM     97  S   UNL     1      11.510  10.976  12.062  1.00  0.00     0.124 S 
ATOM     98  O   UNL     1      12.603  10.068  12.393  1.00  0.00    -0.237 OA
ATOM     99  O   UNL     1      11.906  12.273  11.520  1.00  0.00    -0.237 OA
ATOM    100  O   UNL     1      10.413  11.015  13.025  1.00  0.00    -0.744 OA
ENDBRANCH  96  97
ENDBRANCH  64  89
ENDBRANCH  38  39
ENDBRANCH  31  33
ENDBRANCH  30  31
ENDBRANCH  29  30
ENDBRANCH   1  29
TORSDOF 19
