REMARK SMILES Cc1ccccc1O[C@H](C)C(=O)Oc1cccc(C(=O)OCCOC(=O)c2ccc(-c3c4nc(c(-c5c(F)cc(S(=O)(=O)[O-])cc5F)c5ccc([nH]5)c(-c5c(F)cc(S(=O)(=O)[O-])cc5F)c5nc(c(-c6c(F)cc(S(=O)(=O)[O-])cc6F)c6ccc3[nH]6)C=C5)C=C4)cc2)c1
REMARK SMILES IDX 22 1 21 2 19 3 20 4 18 5 14 6 15 7 93 8 16 9 17 10 13 11
REMARK SMILES IDX 11 12 12 13 9 14 10 15 8 16 7 17 1 18 2 19 3 20 4 21 6 22
REMARK SMILES IDX 5 23 23 24 24 25 25 26 26 27 27 28 28 29 92 30 29 31 91 32
REMARK SMILES IDX 30 33 31 34 32 35 85 36 33 37 90 38 84 39 86 40 34 41 89 42
REMARK SMILES IDX 83 43 82 44 35 46 69 47 48 48 68 49 49 50 52 51 67 52 87 53
REMARK SMILES IDX 50 54 51 55 66 57 88 58 53 59 36 60 37 61 46 62 38 63 39 64
REMARK SMILES IDX 45 65 47 66 40 67 41 68 42 69 43 70 44 71 70 72 71 73 80 74
REMARK SMILES IDX 72 75 73 76 79 77 81 78 74 79 75 80 76 81 77 82 78 83 54 84
REMARK SMILES IDX 55 85 64 86 56 87 57 88 63 89 65 90 58 91 59 92 60 93 61 94
REMARK SMILES IDX 62 95
REMARK H PARENT 86 45 52 56
REMARK Flexibility Score: inf
ROOT
ATOM      1  C   UNL     1       2.847  -4.620  -6.853  1.00  0.00     0.275 C 
ENDROOT
BRANCH   1   2
ATOM      2  O   UNL     1       3.135  -3.453  -6.058  1.00  0.00    -0.458 OA
BRANCH   2   3
ATOM      3  C   UNL     1       4.114  -3.592  -5.133  1.00  0.00     0.338 C 
ATOM      4  O   UNL     1       4.775  -4.592  -4.923  1.00  0.00    -0.246 OA
BRANCH   3   5
ATOM      5  C   UNL     1       4.438  -2.263  -4.575  1.00  0.00     0.063 A 
ATOM      6  C   UNL     1       4.212  -0.487  -2.959  1.00  0.00     0.131 A 
ATOM      7  C   UNL     1       5.295   0.179  -3.538  1.00  0.00     0.047 A 
ATOM      8  C   UNL     1       3.795  -1.732  -3.448  1.00  0.00     0.063 A 
ATOM      9  C   UNL     1       5.928  -0.359  -4.658  1.00  0.00     0.005 A 
ATOM     10  C   UNL     1       5.496  -1.576  -5.181  1.00  0.00     0.016 A 
BRANCH   6  11
ATOM     11  O   UNL     1       3.579   0.032  -1.805  1.00  0.00    -0.424 OA
BRANCH  11  12
ATOM     12  C   UNL     1       3.224   1.379  -1.788  1.00  0.00     0.352 C 
ATOM     13  O   UNL     1       3.363   2.159  -2.728  1.00  0.00    -0.247 OA
BRANCH  12  14
ATOM     14  C   UNL     1       2.630   1.834  -0.434  1.00  0.00     0.280 C 
ATOM     15  C   UNL     1       1.167   2.257  -0.577  1.00  0.00     0.066 C 
BRANCH  14  16
ATOM     16  O   UNL     1       2.890   1.206   0.809  1.00  0.00    -0.479 OA
BRANCH  16  17
ATOM     17  C   UNL     1       2.517  -0.069   1.105  1.00  0.00     0.123 A 
ATOM     18  C   UNL     1       3.672   0.309   3.354  1.00  0.00     0.048 C 
ATOM     19  C   UNL     1       2.954  -0.556   2.353  1.00  0.00    -0.009 A 
ATOM     20  C   UNL     1       2.713  -1.897   2.697  1.00  0.00     0.007 A 
ATOM     21  C   UNL     1       2.013  -2.734   1.832  1.00  0.00     0.001 A 
ATOM     22  C   UNL     1       1.768  -0.903   0.275  1.00  0.00     0.047 A 
ATOM     23  C   UNL     1       1.524  -2.231   0.633  1.00  0.00     0.004 A 
ENDBRANCH  16  17
ENDBRANCH  14  16
ENDBRANCH  12  14
ENDBRANCH  11  12
ENDBRANCH   6  11
ENDBRANCH   3   5
ENDBRANCH   2   3
ENDBRANCH   1   2
BRANCH   1  24
ATOM     24  C   UNL     1       2.180  -5.783  -6.084  1.00  0.00     0.275 C 
BRANCH  24  25
ATOM     25  O   UNL     1       0.861  -5.501  -5.580  1.00  0.00    -0.458 OA
BRANCH  25  26
ATOM     26  C   UNL     1       0.802  -4.516  -4.633  1.00  0.00     0.338 C 
ATOM     27  O   UNL     1       1.426  -4.528  -3.587  1.00  0.00    -0.246 OA
BRANCH  26  28
ATOM     28  C   UNL     1       0.265  -3.300  -5.312  1.00  0.00     0.060 A 
ATOM     29  C   UNL     1       0.595  -2.037  -4.798  1.00  0.00     0.016 A 
ATOM     30  C   UNL     1      -0.165  -3.435  -6.634  1.00  0.00     0.016 A 
ATOM     31  C   UNL     1       0.666  -0.939  -5.657  1.00  0.00     0.010 A 
ATOM     32  C   UNL     1       0.026  -2.389  -7.502  1.00  0.00     0.010 A 
ATOM     33  C   UNL     1       0.435  -1.139  -7.021  1.00  0.00    -0.014 A 
BRANCH  33  34
ATOM     34  C   UNL     1       0.302  -0.070  -7.999  1.00  0.00     0.031 A 
ATOM     35  C   UNL     1       1.432   0.699  -8.567  1.00  0.00     0.074 A 
ATOM     36  C   UNL     1      -0.975   0.139  -8.392  1.00  0.00     0.049 A 
ATOM     37  N   UNL     1       1.315   1.916  -8.979  1.00  0.00    -0.248 NA
ATOM     38  C   UNL     1       2.782   0.166  -8.755  1.00  0.00     0.031 C 
ATOM     39  C   UNL     1      -1.494   1.003  -9.435  1.00  0.00     0.029 A 
ATOM     40  N   UNL     1      -2.142  -0.353  -7.811  1.00  0.00    -0.354 N 
ATOM     41  C   UNL     1       2.432   2.222  -9.726  1.00  0.00     0.074 A 
ATOM     42  C   UNL     1       3.357   1.137  -9.484  1.00  0.00     0.031 C 
ATOM     43  C   UNL     1      -2.793   1.247  -9.167  1.00  0.00     0.029 A 
ATOM     44  C   UNL     1      -3.086   0.656  -7.865  1.00  0.00     0.049 A 
ATOM     45  H   UNL     1      -2.271  -1.252  -7.432  1.00  0.00     0.167 HD
ATOM     46  C   UNL     1       2.388   3.271 -10.600  1.00  0.00     0.037 A 
ATOM     47  C   UNL     1      -3.491   1.334  -6.747  1.00  0.00     0.037 A 
ATOM     48  C   UNL     1       1.073   3.907 -10.577  1.00  0.00     0.049 A 
ATOM     49  C   UNL     1      -3.175   2.811  -6.873  1.00  0.00     0.074 A 
ATOM     50  C   UNL     1      -0.050   3.700 -11.362  1.00  0.00     0.029 A 
ATOM     51  N   UNL     1       0.644   4.601  -9.449  1.00  0.00    -0.354 N 
ATOM     52  N   UNL     1      -2.190   3.284  -7.588  1.00  0.00    -0.248 NA
ATOM     53  C   UNL     1      -3.971   3.866  -6.253  1.00  0.00     0.031 C 
ATOM     54  C   UNL     1      -1.175   4.187 -10.659  1.00  0.00     0.029 A 
ATOM     55  C   UNL     1      -0.735   4.720  -9.460  1.00  0.00     0.049 A 
ATOM     56  H   UNL     1       1.235   4.956  -8.747  1.00  0.00     0.167 HD
ATOM     57  C   UNL     1      -2.264   4.651  -7.620  1.00  0.00     0.074 A 
ATOM     58  C   UNL     1      -3.378   4.970  -6.744  1.00  0.00     0.031 C 
ATOM     59  C   UNL     1      -1.448   5.418  -8.403  1.00  0.00     0.037 A 
BRANCH  46  60
ATOM     60  C   UNL     1       3.409   3.494 -11.696  1.00  0.00     0.058 A 
ATOM     61  C   UNL     1       3.011   3.853 -13.004  1.00  0.00     0.135 A 
ATOM     62  C   UNL     1       4.799   3.347 -11.518  1.00  0.00     0.135 A 
ATOM     63  F   UNL     1       1.727   4.066 -13.317  1.00  0.00    -0.206 F 
ATOM     64  C   UNL     1       3.905   3.984 -14.067  1.00  0.00     0.059 A 
ATOM     65  C   UNL     1       5.716   3.449 -12.577  1.00  0.00     0.059 A 
ATOM     66  F   UNL     1       5.309   3.103 -10.300  1.00  0.00    -0.206 F 
ATOM     67  C   UNL     1       5.256   3.758 -13.854  1.00  0.00     0.060 A 
BRANCH  67  68
ATOM     68  S   UNL     1       6.369   3.848 -15.272  1.00  0.00     0.124 S 
ATOM     69  O   UNL     1       5.746   2.918 -16.211  1.00  0.00    -0.237 OA
ATOM     70  O   UNL     1       6.292   5.258 -15.635  1.00  0.00    -0.237 OA
ATOM     71  O   UNL     1       7.651   3.408 -14.728  1.00  0.00    -0.744 OA
ENDBRANCH  67  68
ENDBRANCH  46  60
BRANCH  47  72
ATOM     72  C   UNL     1      -3.469   0.548  -5.470  1.00  0.00     0.058 A 
ATOM     73  C   UNL     1      -4.194  -0.663  -5.413  1.00  0.00     0.135 A 
ATOM     74  C   UNL     1      -2.556   0.782  -4.431  1.00  0.00     0.135 A 
ATOM     75  F   UNL     1      -5.098  -0.948  -6.365  1.00  0.00    -0.206 F 
ATOM     76  C   UNL     1      -3.931  -1.649  -4.464  1.00  0.00     0.059 A 
ATOM     77  C   UNL     1      -2.291  -0.186  -3.452  1.00  0.00     0.059 A 
ATOM     78  F   UNL     1      -1.846   1.918  -4.393  1.00  0.00    -0.206 F 
ATOM     79  C   UNL     1      -2.950  -1.415  -3.505  1.00  0.00     0.060 A 
BRANCH  79  80
ATOM     80  S   UNL     1      -2.443  -2.796  -2.446  1.00  0.00     0.124 S 
ATOM     81  O   UNL     1      -3.572  -2.901  -1.530  1.00  0.00    -0.237 OA
ATOM     82  O   UNL     1      -2.306  -3.882  -3.413  1.00  0.00    -0.237 OA
ATOM     83  O   UNL     1      -1.192  -2.322  -1.862  1.00  0.00    -0.744 OA
ENDBRANCH  79  80
ENDBRANCH  47  72
BRANCH  59  84
ATOM     84  C   UNL     1      -1.361   6.920  -8.364  1.00  0.00     0.058 A 
ATOM     85  C   UNL     1      -1.522   7.672  -7.191  1.00  0.00     0.135 A 
ATOM     86  C   UNL     1      -0.952   7.644  -9.512  1.00  0.00     0.135 A 
ATOM     87  F   UNL     1      -1.810   7.083  -6.021  1.00  0.00    -0.206 F 
ATOM     88  C   UNL     1      -1.350   9.056  -7.168  1.00  0.00     0.059 A 
ATOM     89  C   UNL     1      -0.720   9.013  -9.496  1.00  0.00     0.059 A 
ATOM     90  F   UNL     1      -0.751   7.039 -10.693  1.00  0.00    -0.206 F 
ATOM     91  C   UNL     1      -0.946   9.717  -8.324  1.00  0.00     0.060 A 
BRANCH  91  92
ATOM     92  S   UNL     1      -0.650  11.492  -8.290  1.00  0.00     0.124 S 
ATOM     93  O   UNL     1      -1.952  12.009  -8.698  1.00  0.00    -0.237 OA
ATOM     94  O   UNL     1      -0.284  11.734  -6.897  1.00  0.00    -0.237 OA
ATOM     95  O   UNL     1       0.433  11.665  -9.253  1.00  0.00    -0.744 OA
ENDBRANCH  91  92
ENDBRANCH  59  84
ENDBRANCH  33  34
ENDBRANCH  26  28
ENDBRANCH  25  26
ENDBRANCH  24  25
ENDBRANCH   1  24
TORSDOF 19
