REMARK SMILES CC[C@H](Oc1ccc(C)nc1C[NH3+])C(=O)OCCOC(=O)c1ccc(-c2c3nc(c(-c4c(F)cc(S(=O)(=O)[O-])cc4F)c4ccc([nH]4)c(-c4c(F)cc(S(=O)(=O)[O-])cc4F)c4nc(c(-c5c(F)cc(S(=O)(=O)[O-])cc5F)c5ccc2[nH]5)C=C4)C=C3)cc1
REMARK SMILES IDX 17 1 16 2 14 3 15 4 3 5 2 6 1 7 4 8 5 9 6 10 11 11 7 12
REMARK SMILES IDX 10 13 8 14 9 15 12 16 13 17 18 21 19 22 20 23 21 24 22 25
REMARK SMILES IDX 23 26 87 27 24 28 86 29 25 30 26 31 27 32 80 33 28 34 85 35
REMARK SMILES IDX 79 36 81 37 29 38 84 39 78 40 77 41 30 43 64 44 43 45 63 46
REMARK SMILES IDX 44 47 47 48 62 49 82 50 45 51 46 52 61 54 83 55 48 56 31 57
REMARK SMILES IDX 32 58 41 59 33 60 34 61 40 62 42 63 35 64 36 65 37 66 38 67
REMARK SMILES IDX 39 68 65 69 66 70 75 71 67 72 68 73 74 74 76 75 69 76 70 77
REMARK SMILES IDX 71 78 72 79 73 80 49 81 50 82 59 83 51 84 52 85 58 86 60 87
REMARK SMILES IDX 53 88 54 89 55 90 56 91 57 92
REMARK H PARENT 13 18 13 19 13 20 81 42 47 53
REMARK Flexibility Score: inf
ROOT
ATOM      1  C   UNL     1      -1.136  -0.253  -5.029  1.00  0.00     0.274 C 
ENDROOT
BRANCH   1   2
ATOM      2  O   UNL     1      -0.737  -0.466  -3.661  1.00  0.00    -0.459 OA
BRANCH   2   3
ATOM      3  C   UNL     1       0.297  -1.332  -3.478  1.00  0.00     0.347 C 
ATOM      4  O   UNL     1       0.838  -1.967  -4.380  1.00  0.00    -0.248 OA
BRANCH   3   5
ATOM      5  C   UNL     1       0.706  -1.493  -2.008  1.00  0.00     0.282 C 
BRANCH   5   6
ATOM      6  C   UNL     1      -0.047  -2.705  -1.421  1.00  0.00     0.054 C 
ATOM      7  C   UNL     1      -0.991  -2.422  -0.262  1.00  0.00     0.008 C 
ENDBRANCH   5   6
BRANCH   5   8
ATOM      8  O   UNL     1       0.544  -0.282  -1.273  1.00  0.00    -0.477 OA
BRANCH   8   9
ATOM      9  C   UNL     1       1.264  -0.092  -0.122  1.00  0.00     0.147 A 
ATOM     10  C   UNL     1       2.245  -0.961   0.358  1.00  0.00     0.050 A 
ATOM     11  C   UNL     1       0.967   1.037   0.656  1.00  0.00     0.136 A 
ATOM     12  C   UNL     1       2.841  -0.732   1.597  1.00  0.00     0.027 A 
ATOM     13  N   UNL     1       1.536   1.254   1.880  1.00  0.00    -0.248 NA
ATOM     14  C   UNL     1       2.440   0.364   2.343  1.00  0.00     0.038 A 
ATOM     15  C   UNL     1       2.990   0.609   3.714  1.00  0.00     0.067 C 
BRANCH  11  16
ATOM     16  C   UNL     1       0.005   2.109   0.177  1.00  0.00     0.320 C 
BRANCH  16  17
ATOM     17  N   UNL     1      -1.222   2.203   0.986  1.00  0.00    -0.352 N 
ATOM     18  H   UNL     1      -1.735   1.324   0.928  1.00  0.00     0.344 HD
ATOM     19  H   UNL     1      -1.805   2.961   0.632  1.00  0.00     0.344 HD
ATOM     20  H   UNL     1      -0.975   2.390   1.958  1.00  0.00     0.344 HD
ENDBRANCH  16  17
ENDBRANCH  11  16
ENDBRANCH   8   9
ENDBRANCH   5   8
ENDBRANCH   3   5
ENDBRANCH   2   3
ENDBRANCH   1   2
BRANCH   1  21
ATOM     21  C   UNL     1      -0.579   1.058  -5.592  1.00  0.00     0.275 C 
BRANCH  21  22
ATOM     22  O   UNL     1       0.858   1.052  -5.655  1.00  0.00    -0.458 OA
BRANCH  22  23
ATOM     23  C   UNL     1       1.476   1.569  -4.565  1.00  0.00     0.338 C 
ATOM     24  O   UNL     1       0.946   2.050  -3.578  1.00  0.00    -0.246 OA
BRANCH  23  25
ATOM     25  C   UNL     1       2.927   1.354  -4.672  1.00  0.00     0.060 A 
ATOM     26  C   UNL     1       3.545   0.565  -3.698  1.00  0.00     0.016 A 
ATOM     27  C   UNL     1       3.684   1.985  -5.661  1.00  0.00     0.016 A 
ATOM     28  C   UNL     1       4.928   0.403  -3.705  1.00  0.00     0.010 A 
ATOM     29  C   UNL     1       5.075   1.829  -5.661  1.00  0.00     0.010 A 
ATOM     30  C   UNL     1       5.705   1.048  -4.676  1.00  0.00    -0.014 A 
BRANCH  30  31
ATOM     31  C   UNL     1       7.183   0.957  -4.609  1.00  0.00     0.031 A 
ATOM     32  C   UNL     1       7.976   2.116  -4.076  1.00  0.00     0.074 A 
ATOM     33  C   UNL     1       7.806  -0.172  -4.996  1.00  0.00     0.049 A 
ATOM     34  N   UNL     1       9.273   2.260  -3.990  1.00  0.00    -0.248 NA
ATOM     35  C   UNL     1       7.207   3.265  -3.574  1.00  0.00     0.031 C 
ATOM     36  C   UNL     1       7.137  -1.375  -5.491  1.00  0.00     0.029 A 
ATOM     37  N   UNL     1       9.140  -0.488  -5.035  1.00  0.00    -0.354 N 
ATOM     38  C   UNL     1       9.479   3.519  -3.438  1.00  0.00     0.074 A 
ATOM     39  C   UNL     1       8.172   4.105  -3.226  1.00  0.00     0.031 C 
ATOM     40  C   UNL     1       8.066  -2.299  -5.790  1.00  0.00     0.029 A 
ATOM     41  C   UNL     1       9.393  -1.740  -5.543  1.00  0.00     0.049 A 
ATOM     42  H   UNL     1       9.848   0.123  -4.728  1.00  0.00     0.167 HD
ATOM     43  C   UNL     1      10.650   4.127  -3.132  1.00  0.00     0.037 A 
ATOM     44  C   UNL     1      10.563  -2.354  -5.804  1.00  0.00     0.037 A 
ATOM     45  C   UNL     1      11.946   3.534  -3.338  1.00  0.00     0.049 A 
ATOM     46  C   UNL     1      11.853  -1.641  -5.500  1.00  0.00     0.074 A 
ATOM     47  C   UNL     1      13.193   4.068  -3.061  1.00  0.00     0.029 A 
ATOM     48  N   UNL     1      12.163   2.272  -3.874  1.00  0.00    -0.354 N 
ATOM     49  N   UNL     1      12.033  -0.448  -4.986  1.00  0.00    -0.248 NA
ATOM     50  C   UNL     1      13.099  -2.356  -5.812  1.00  0.00     0.031 C 
ATOM     51  C   UNL     1      14.164   3.143  -3.459  1.00  0.00     0.029 A 
ATOM     52  C   UNL     1      13.523   2.016  -3.948  1.00  0.00     0.049 A 
ATOM     53  H   UNL     1      11.455   1.651  -4.159  1.00  0.00     0.167 HD
ATOM     54  C   UNL     1      13.409  -0.273  -4.900  1.00  0.00     0.074 A 
ATOM     55  C   UNL     1      14.016  -1.490  -5.401  1.00  0.00     0.031 C 
ATOM     56  C   UNL     1      14.108   0.797  -4.448  1.00  0.00     0.037 A 
BRANCH  43  57
ATOM     57  C   UNL     1      10.581   5.518  -2.568  1.00  0.00     0.058 A 
ATOM     58  C   UNL     1      10.166   5.761  -1.250  1.00  0.00     0.135 A 
ATOM     59  C   UNL     1      10.954   6.622  -3.352  1.00  0.00     0.135 A 
ATOM     60  F   UNL     1       9.783   4.742  -0.464  1.00  0.00    -0.206 F 
ATOM     61  C   UNL     1      10.097   7.052  -0.736  1.00  0.00     0.059 A 
ATOM     62  C   UNL     1      10.914   7.920  -2.851  1.00  0.00     0.059 A 
ATOM     63  F   UNL     1      11.357   6.446  -4.620  1.00  0.00    -0.206 F 
ATOM     64  C   UNL     1      10.469   8.126  -1.546  1.00  0.00     0.060 A 
BRANCH  64  65
ATOM     65  S   UNL     1      10.369   9.798  -0.871  1.00  0.00     0.124 S 
ATOM     66  O   UNL     1       8.931  10.042  -0.912  1.00  0.00    -0.237 OA
ATOM     67  O   UNL     1      10.946   9.635   0.460  1.00  0.00    -0.237 OA
ATOM     68  O   UNL     1      11.167  10.588  -1.803  1.00  0.00    -0.744 OA
ENDBRANCH  64  65
ENDBRANCH  43  57
BRANCH  44  69
ATOM     69  C   UNL     1      10.564  -3.713  -6.407  1.00  0.00     0.058 A 
ATOM     70  C   UNL     1      10.948  -4.837  -5.662  1.00  0.00     0.135 A 
ATOM     71  C   UNL     1      10.161  -3.914  -7.736  1.00  0.00     0.135 A 
ATOM     72  F   UNL     1      11.351  -4.694  -4.391  1.00  0.00    -0.206 F 
ATOM     73  C   UNL     1      10.939  -6.114  -6.216  1.00  0.00     0.059 A 
ATOM     74  C   UNL     1      10.122  -5.183  -8.305  1.00  0.00     0.059 A 
ATOM     75  F   UNL     1       9.775  -2.870  -8.487  1.00  0.00    -0.206 F 
ATOM     76  C   UNL     1      10.520  -6.276  -7.538  1.00  0.00     0.060 A 
BRANCH  76  77
ATOM     77  S   UNL     1      10.450  -7.943  -8.230  1.00  0.00     0.124 S 
ATOM     78  O   UNL     1      11.859  -8.211  -8.492  1.00  0.00    -0.237 OA
ATOM     79  O   UNL     1       9.847  -8.705  -7.140  1.00  0.00    -0.237 OA
ATOM     80  O   UNL     1       9.606  -7.780  -9.409  1.00  0.00    -0.744 OA
ENDBRANCH  76  77
ENDBRANCH  44  69
BRANCH  56  81
ATOM     81  C   UNL     1      15.607   0.693  -4.452  1.00  0.00     0.058 A 
ATOM     82  C   UNL     1      16.348   0.799  -5.639  1.00  0.00     0.135 A 
ATOM     83  C   UNL     1      16.312   0.533  -3.249  1.00  0.00     0.135 A 
ATOM     84  F   UNL     1      15.720   0.946  -6.816  1.00  0.00    -0.206 F 
ATOM     85  C   UNL     1      17.737   0.732  -5.636  1.00  0.00     0.059 A 
ATOM     86  C   UNL     1      17.703   0.484  -3.219  1.00  0.00     0.059 A 
ATOM     87  F   UNL     1      15.650   0.435  -2.085  1.00  0.00    -0.206 F 
ATOM     88  C   UNL     1      18.406   0.573  -4.420  1.00  0.00     0.060 A 
BRANCH  88  89
ATOM     89  S   UNL     1      20.211   0.519  -4.422  1.00  0.00     0.124 S 
ATOM     90  O   UNL     1      20.463  -0.837  -4.899  1.00  0.00    -0.237 OA
ATOM     91  O   UNL     1      20.558   1.592  -5.349  1.00  0.00    -0.237 OA
ATOM     92  O   UNL     1      20.559   0.770  -3.027  1.00  0.00    -0.744 OA
ENDBRANCH  88  89
ENDBRANCH  56  81
ENDBRANCH  30  31
ENDBRANCH  23  25
ENDBRANCH  22  23
ENDBRANCH  21  22
ENDBRANCH   1  21
TORSDOF 19
