REMARK SMILES NC(=O)C[C@H](NC(=O)C1(c2ccccc2)CCN(C(=O)[C@@H]2CCC[NH2+]2)CC1)C(=O)OCCOC(=O)c1ccc(-c2c3nc(c(-c4c(F)cc(S(=O)(=O)[O-])cc4F)c4ccc([nH]4)c(-c4c(F)cc(S(=O)(=O)[O-])cc4F)c4nc(c(-c5c(F)cc(S(=O)(=O)[O-])cc5F)c5ccc2[nH]5)C=C4)C=C3)cc1
REMARK SMILES IDX 31 1 30 2 28 3 29 4 5 5 4 6 2 7 1 8 3 11 6 12 7 13 8 15 9 16
REMARK SMILES IDX 16 17 27 18 17 19 26 20 18 21 19 22 20 23 10 24 11 25 15 26
REMARK SMILES IDX 12 27 14 28 13 29 21 30 22 31 25 32 23 33 24 34 32 37 33 38
REMARK SMILES IDX 34 39 35 40 36 41 37 42 101 43 38 44 100 45 39 46 40 47
REMARK SMILES IDX 41 48 94 49 42 50 99 51 93 52 95 53 43 54 98 55 92 56 91 57
REMARK SMILES IDX 44 59 78 60 57 61 77 62 58 63 61 64 76 65 96 66 59 67 60 68
REMARK SMILES IDX 75 70 97 71 62 72 45 73 46 74 55 75 47 76 48 77 54 78 56 79
REMARK SMILES IDX 49 80 50 81 51 82 52 83 53 84 79 85 80 86 89 87 81 88 82 89
REMARK SMILES IDX 88 90 90 91 83 92 84 93 85 94 86 95 87 96 63 97 64 98 73 99
REMARK SMILES IDX 65 100 66 101 72 102 74 103 67 104 68 105 69 106 70 107
REMARK SMILES IDX 71 108
REMARK H PARENT 1 9 1 10 6 14 25 35 25 36 95 58 61 69
REMARK Flexibility Score: inf
ROOT
ATOM      1  C   UNL     1       4.174   4.338   3.179  1.00  0.00     0.274 C 
ENDROOT
BRANCH   1   2
ATOM      2  O   UNL     1       3.215   3.453   2.566  1.00  0.00    -0.461 OA
BRANCH   2   3
ATOM      3  C   UNL     1       3.191   2.192   3.084  1.00  0.00     0.329 C 
ATOM      4  O   UNL     1       3.841   1.819   4.052  1.00  0.00    -0.250 OA
BRANCH   3   5
ATOM      5  C   UNL     1       2.351   1.219   2.238  1.00  0.00     0.201 C 
BRANCH   5   6
ATOM      6  C   UNL     1       3.341   0.316   1.489  1.00  0.00     0.136 C 
BRANCH   6   7
ATOM      7  C   UNL     1       4.386   1.114   0.733  1.00  0.00     0.220 C 
ATOM      8  N   UNL     1       3.944   1.797  -0.360  1.00  0.00    -0.370 N 
ATOM      9  H   UNL     1       4.573   2.334  -0.893  1.00  0.00     0.159 HD
ATOM     10  H   UNL     1       2.994   1.754  -0.616  1.00  0.00     0.159 HD
ATOM     11  O   UNL     1       5.562   1.175   1.069  1.00  0.00    -0.275 OA
ENDBRANCH   6   7
ENDBRANCH   5   6
BRANCH   5  12
ATOM     12  N   UNL     1       1.427   1.848   1.286  1.00  0.00    -0.342 N 
ATOM     13  C   UNL     1       0.206   1.516   0.784  1.00  0.00     0.231 C 
ATOM     14  H   UNL     1       1.766   2.702   0.932  1.00  0.00     0.164 HD
ATOM     15  O   UNL     1      -0.107   2.176  -0.217  1.00  0.00    -0.274 OA
BRANCH  13  16
ATOM     16  C   UNL     1      -0.795   0.475   1.415  1.00  0.00     0.077 C 
ATOM     17  C   UNL     1      -0.176  -0.915   1.693  1.00  0.00     0.043 C 
ATOM     18  C   UNL     1      -1.941   0.263   0.353  1.00  0.00     0.043 C 
ATOM     19  C   UNL     1       0.254  -1.626   0.407  1.00  0.00     0.121 C 
ATOM     20  C   UNL     1      -1.492  -0.506  -0.881  1.00  0.00     0.121 C 
ATOM     21  N   UNL     1      -0.879  -1.771  -0.499  1.00  0.00    -0.337 N 
ATOM     22  C   UNL     1      -1.209  -3.043  -0.953  1.00  0.00     0.280 C 
ATOM     23  O   UNL     1      -0.455  -4.000  -0.735  1.00  0.00    -0.268 OA
BRANCH  16  24
ATOM     24  C   UNL     1      -1.516   1.065   2.660  1.00  0.00    -0.032 A 
ATOM     25  C   UNL     1      -2.643   0.414   3.211  1.00  0.00     0.005 A 
ATOM     26  C   UNL     1      -1.206   2.336   3.168  1.00  0.00     0.005 A 
ATOM     27  C   UNL     1      -3.498   1.064   4.102  1.00  0.00     0.000 A 
ATOM     28  C   UNL     1      -2.045   2.976   4.083  1.00  0.00     0.000 A 
ATOM     29  C   UNL     1      -3.215   2.360   4.505  1.00  0.00     0.000 A 
ENDBRANCH  16  24
BRANCH  22  30
ATOM     30  C   UNL     1      -2.524  -3.311  -1.715  1.00  0.00     0.272 C 
ATOM     31  C   UNL     1      -2.651  -2.713  -3.105  1.00  0.00     0.081 C 
ATOM     32  N   UNL     1      -3.727  -2.918  -0.948  1.00  0.00    -0.336 N 
ATOM     33  C   UNL     1      -4.142  -2.463  -3.244  1.00  0.00     0.068 C 
ATOM     34  C   UNL     1      -4.613  -2.167  -1.832  1.00  0.00     0.261 C 
ATOM     35  H   UNL     1      -3.455  -2.335  -0.156  1.00  0.00     0.346 HD
ATOM     36  H   UNL     1      -4.204  -3.748  -0.596  1.00  0.00     0.346 HD
ENDBRANCH  22  30
ENDBRANCH  13  16
ENDBRANCH   5  12
ENDBRANCH   3   5
ENDBRANCH   2   3
ENDBRANCH   1   2
BRANCH   1  37
ATOM     37  C   UNL     1       3.542   5.266   4.216  1.00  0.00     0.275 C 
BRANCH  37  38
ATOM     38  O   UNL     1       2.917   4.530   5.285  1.00  0.00    -0.458 OA
BRANCH  38  39
ATOM     39  C   UNL     1       1.588   4.378   5.148  1.00  0.00     0.338 C 
ATOM     40  O   UNL     1       0.889   4.819   4.227  1.00  0.00    -0.246 OA
BRANCH  39  41
ATOM     41  C   UNL     1       1.013   3.545   6.205  1.00  0.00     0.060 A 
ATOM     42  C   UNL     1       0.849   2.182   5.957  1.00  0.00     0.016 A 
ATOM     43  C   UNL     1       0.391   4.141   7.303  1.00  0.00     0.016 A 
ATOM     44  C   UNL     1      -0.036   1.440   6.737  1.00  0.00     0.010 A 
ATOM     45  C   UNL     1      -0.441   3.372   8.129  1.00  0.00     0.010 A 
ATOM     46  C   UNL     1      -0.717   2.030   7.815  1.00  0.00    -0.014 A 
BRANCH  46  47
ATOM     47  C   UNL     1      -1.758   1.247   8.544  1.00  0.00     0.031 A 
ATOM     48  C   UNL     1      -3.216   1.643   8.492  1.00  0.00     0.074 A 
ATOM     49  C   UNL     1      -1.415   0.114   9.189  1.00  0.00     0.049 A 
ATOM     50  N   UNL     1      -4.263   1.002   8.951  1.00  0.00    -0.248 NA
ATOM     51  C   UNL     1      -3.550   2.904   7.816  1.00  0.00     0.031 C 
ATOM     52  C   UNL     1      -0.055  -0.414   9.306  1.00  0.00     0.029 A 
ATOM     53  N   UNL     1      -2.187  -0.799   9.864  1.00  0.00    -0.354 N 
ATOM     54  C   UNL     1      -5.373   1.743   8.559  1.00  0.00     0.074 A 
ATOM     55  C   UNL     1      -4.875   2.914   7.875  1.00  0.00     0.031 C 
ATOM     56  C   UNL     1      -0.090  -1.563   9.997  1.00  0.00     0.029 A 
ATOM     57  C   UNL     1      -1.463  -1.825  10.422  1.00  0.00     0.049 A 
ATOM     58  H   UNL     1      -3.165  -0.726   9.941  1.00  0.00     0.167 HD
ATOM     59  C   UNL     1      -6.688   1.472   8.733  1.00  0.00     0.037 A 
ATOM     60  C   UNL     1      -1.846  -2.842  11.217  1.00  0.00     0.037 A 
ATOM     61  C   UNL     1      -7.201   0.369   9.501  1.00  0.00     0.049 A 
ATOM     62  C   UNL     1      -3.292  -2.993  11.592  1.00  0.00     0.074 A 
ATOM     63  C   UNL     1      -8.521   0.042   9.765  1.00  0.00     0.029 A 
ATOM     64  N   UNL     1      -6.419  -0.558  10.169  1.00  0.00    -0.354 N 
ATOM     65  N   UNL     1      -4.326  -2.301  11.178  1.00  0.00    -0.248 NA
ATOM     66  C   UNL     1      -3.621  -4.052  12.556  1.00  0.00     0.031 C 
ATOM     67  C   UNL     1      -8.534  -1.045  10.647  1.00  0.00     0.029 A 
ATOM     68  C   UNL     1      -7.225  -1.423  10.892  1.00  0.00     0.049 A 
ATOM     69  H   UNL     1      -5.436  -0.597  10.135  1.00  0.00     0.167 HD
ATOM     70  C   UNL     1      -5.429  -2.847  11.823  1.00  0.00     0.074 A 
ATOM     71  C   UNL     1      -4.939  -3.933  12.647  1.00  0.00     0.031 C 
ATOM     72  C   UNL     1      -6.732  -2.483  11.734  1.00  0.00     0.037 A 
BRANCH  59  73
ATOM     73  C   UNL     1      -7.681   2.402   8.096  1.00  0.00     0.058 A 
ATOM     74  C   UNL     1      -7.996   2.300   6.732  1.00  0.00     0.135 A 
ATOM     75  C   UNL     1      -8.370   3.353   8.863  1.00  0.00     0.135 A 
ATOM     76  F   UNL     1      -7.350   1.419   5.952  1.00  0.00    -0.206 F 
ATOM     77  C   UNL     1      -8.967   3.110   6.150  1.00  0.00     0.059 A 
ATOM     78  C   UNL     1      -9.351   4.167   8.304  1.00  0.00     0.059 A 
ATOM     79  F   UNL     1      -8.094   3.494  10.169  1.00  0.00    -0.206 F 
ATOM     80  C   UNL     1      -9.641   4.040   6.946  1.00  0.00     0.060 A 
BRANCH  80  81
ATOM     81  S   UNL     1     -10.912   5.070   6.181  1.00  0.00     0.124 S 
ATOM     82  O   UNL     1     -10.105   5.967   5.359  1.00  0.00    -0.237 OA
ATOM     83  O   UNL     1     -11.711   4.089   5.452  1.00  0.00    -0.237 OA
ATOM     84  O   UNL     1     -11.577   5.693   7.321  1.00  0.00    -0.744 OA
ENDBRANCH  80  81
ENDBRANCH  59  73
BRANCH  60  85
ATOM     85  C   UNL     1      -0.816  -3.759  11.768  1.00  0.00     0.058 A 
ATOM     86  C   UNL     1      -0.716  -5.089  11.340  1.00  0.00     0.135 A 
ATOM     87  C   UNL     1       0.112  -3.300  12.717  1.00  0.00     0.135 A 
ATOM     88  F   UNL     1      -1.591  -5.575  10.447  1.00  0.00    -0.206 F 
ATOM     89  C   UNL     1       0.277  -5.934  11.828  1.00  0.00     0.059 A 
ATOM     90  C   UNL     1       1.126  -4.116  13.200  1.00  0.00     0.059 A 
ATOM     91  F   UNL     1       0.056  -2.032  13.153  1.00  0.00    -0.206 F 
ATOM     92  C   UNL     1       1.198  -5.435  12.752  1.00  0.00     0.060 A 
BRANCH  92  93
ATOM     93  S   UNL     1       2.540  -6.500  13.322  1.00  0.00     0.124 S 
ATOM     94  O   UNL     1       1.876  -7.274  14.364  1.00  0.00    -0.237 OA
ATOM     95  O   UNL     1       2.894  -7.233  12.110  1.00  0.00    -0.237 OA
ATOM     96  O   UNL     1       3.545  -5.547  13.782  1.00  0.00    -0.744 OA
ENDBRANCH  92  93
ENDBRANCH  60  85
BRANCH  72  97
ATOM     97  C   UNL     1      -7.721  -3.264  12.549  1.00  0.00     0.058 A 
ATOM     98  C   UNL     1      -7.823  -3.092  13.938  1.00  0.00     0.135 A 
ATOM     99  C   UNL     1      -8.585  -4.185  11.936  1.00  0.00     0.135 A 
ATOM    100  F   UNL     1      -7.016  -2.227  14.572  1.00  0.00    -0.206 F 
ATOM    101  C   UNL     1      -8.726  -3.829  14.697  1.00  0.00     0.059 A 
ATOM    102  C   UNL     1      -9.511  -4.918  12.672  1.00  0.00     0.059 A 
ATOM    103  F   UNL     1      -8.536  -4.379  10.608  1.00  0.00    -0.206 F 
ATOM    104  C   UNL     1      -9.562  -4.745  14.055  1.00  0.00     0.060 A 
BRANCH 104 105
ATOM    105  S   UNL     1     -10.733  -5.700  15.045  1.00  0.00     0.124 S 
ATOM    106  O   UNL     1      -9.870  -6.738  15.597  1.00  0.00    -0.237 OA
ATOM    107  O   UNL     1     -11.223  -4.710  15.999  1.00  0.00    -0.237 OA
ATOM    108  O   UNL     1     -11.713  -6.152  14.063  1.00  0.00    -0.744 OA
ENDBRANCH 104 105
ENDBRANCH  72  97
ENDBRANCH  46  47
ENDBRANCH  39  41
ENDBRANCH  38  39
ENDBRANCH  37  38
ENDBRANCH   1  37
TORSDOF 20
