REMARK SMILES Cc1ccc(C(=O)N2CCC3(CCC(=O)N(CC(=O)OCCOC(=O)c4ccc(-c5c6nc(c(-c7c(F)cc(S(=O)(=O)[O-])cc7F)c7ccc([nH]7)c(-c7c(F)cc(S(=O)(=O)[O-])cc7F)c7nc(c(-c8c(F)cc(S(=O)(=O)[O-])cc8F)c8ccc5[nH]8)C=C7)C=C6)cc4)C3)CC2)cc1O
REMARK SMILES IDX 21 1 20 2 18 3 19 4 17 5 16 6 6 7 7 8 8 9 9 10 94 11 10 12
REMARK SMILES IDX 93 13 11 14 12 15 92 16 13 17 14 18 15 19 5 20 1 21 2 22
REMARK SMILES IDX 3 23 96 24 4 25 95 26 97 27 22 29 23 30 24 31 25 32 26 33
REMARK SMILES IDX 27 34 91 35 28 36 90 37 29 38 30 39 31 40 84 41 32 42 89 43
REMARK SMILES IDX 83 44 85 45 33 46 88 47 82 48 81 49 34 51 68 52 47 53 67 54
REMARK SMILES IDX 48 55 51 56 66 57 86 58 49 59 50 60 65 62 87 63 52 64 35 65
REMARK SMILES IDX 36 66 45 67 37 68 38 69 44 70 46 71 39 72 40 73 41 74 42 75
REMARK SMILES IDX 43 76 69 77 70 78 79 79 71 80 72 81 78 82 80 83 73 84 74 85
REMARK SMILES IDX 75 86 76 87 77 88 53 89 54 90 63 91 55 92 56 93 62 94 64 95
REMARK SMILES IDX 57 96 58 97 59 98 60 99 61 100
REMARK H PARENT 97 28 85 50 51 61
REMARK Flexibility Score: inf
ROOT
ATOM      1  C   UNL     1      10.040  -5.284   4.141  1.00  0.00     0.274 C 
ENDROOT
BRANCH   1   2
ATOM      2  O   UNL     1       9.135  -4.479   3.365  1.00  0.00    -0.461 OA
BRANCH   2   3
ATOM      3  C   UNL     1       8.345  -3.633   4.065  1.00  0.00     0.325 C 
ATOM      4  O   UNL     1       8.227  -3.632   5.288  1.00  0.00    -0.250 OA
BRANCH   3   5
ATOM      5  C   UNL     1       7.607  -2.619   3.196  1.00  0.00     0.242 C 
BRANCH   5   6
ATOM      6  N   UNL     1       7.756  -2.658   1.743  1.00  0.00    -0.331 N 
ATOM      7  C   UNL     1       2.929   1.477   0.389  1.00  0.00     0.253 C 
ATOM      8  O   UNL     1       2.790   2.567   0.940  1.00  0.00    -0.269 OA
ATOM      9  N   UNL     1       4.172   0.885   0.203  1.00  0.00    -0.339 N 
ATOM     10  C   UNL     1       5.236   1.165   1.151  1.00  0.00     0.120 C 
ATOM     11  C   UNL     1       4.579   0.191  -1.008  1.00  0.00     0.120 C 
ATOM     12  C   UNL     1       5.841  -0.164   1.611  1.00  0.00     0.030 C 
ATOM     13  C   UNL     1       5.253  -1.134  -0.676  1.00  0.00     0.030 C 
ATOM     14  C   UNL     1       6.340  -1.051   0.435  1.00  0.00    -0.008 C 
ATOM     15  C   UNL     1       7.670  -0.507  -0.154  1.00  0.00     0.019 C 
ATOM     16  C   UNL     1       6.582  -2.503   0.915  1.00  0.00     0.127 C 
ATOM     17  C   UNL     1       8.875  -0.752   0.754  1.00  0.00     0.101 C 
ATOM     18  C   UNL     1       8.949  -2.198   1.200  1.00  0.00     0.223 C 
ATOM     19  O   UNL     1       9.976  -2.861   1.173  1.00  0.00    -0.275 OA
BRANCH   7  20
ATOM     20  C   UNL     1       1.707   0.690   0.064  1.00  0.00     0.043 A 
ATOM     21  C   UNL     1      -1.994  -1.529  -0.179  1.00  0.00     0.048 C 
ATOM     22  C   UNL     1      -0.716  -0.743  -0.142  1.00  0.00    -0.009 A 
ATOM     23  C   UNL     1       0.488  -1.410   0.119  1.00  0.00     0.008 A 
ATOM     24  C   UNL     1      -0.683   0.649  -0.292  1.00  0.00     0.119 A 
ATOM     25  C   UNL     1       1.684  -0.699   0.237  1.00  0.00     0.014 A 
ATOM     26  C   UNL     1       0.513   1.363  -0.205  1.00  0.00     0.060 A 
BRANCH  24  27
ATOM     27  O   UNL     1      -1.816   1.388  -0.493  1.00  0.00    -0.508 OA
ATOM     28  H   UNL     1      -2.647   0.961  -0.559  1.00  0.00     0.293 HD
ENDBRANCH  24  27
ENDBRANCH   7  20
ENDBRANCH   5   6
ENDBRANCH   3   5
ENDBRANCH   2   3
ENDBRANCH   1   2
BRANCH   1  29
ATOM     29  C   UNL     1      11.399  -4.597   4.265  1.00  0.00     0.275 C 
BRANCH  29  30
ATOM     30  O   UNL     1      11.271  -3.387   5.036  1.00  0.00    -0.458 OA
BRANCH  30  31
ATOM     31  C   UNL     1      11.617  -2.248   4.394  1.00  0.00     0.338 C 
ATOM     32  O   UNL     1      12.065  -2.125   3.270  1.00  0.00    -0.246 OA
BRANCH  31  33
ATOM     33  C   UNL     1      11.428  -1.093   5.280  1.00  0.00     0.060 A 
ATOM     34  C   UNL     1      10.147  -0.612   5.554  1.00  0.00     0.016 A 
ATOM     35  C   UNL     1      12.559  -0.399   5.711  1.00  0.00     0.016 A 
ATOM     36  C   UNL     1       9.996   0.607   6.213  1.00  0.00     0.010 A 
ATOM     37  C   UNL     1      12.404   0.792   6.421  1.00  0.00     0.010 A 
ATOM     38  C   UNL     1      11.123   1.320   6.649  1.00  0.00    -0.014 A 
BRANCH  38  39
ATOM     39  C   UNL     1      10.968   2.628   7.333  1.00  0.00     0.031 A 
ATOM     40  C   UNL     1      11.445   3.891   6.668  1.00  0.00     0.074 A 
ATOM     41  C   UNL     1      10.418   2.671   8.561  1.00  0.00     0.049 A 
ATOM     42  N   UNL     1      11.507   5.104   7.152  1.00  0.00    -0.248 NA
ATOM     43  C   UNL     1      11.926   3.774   5.281  1.00  0.00     0.031 C 
ATOM     44  C   UNL     1       9.916   1.512   9.303  1.00  0.00     0.029 A 
ATOM     45  N   UNL     1      10.198   3.728   9.406  1.00  0.00    -0.354 N 
ATOM     46  C   UNL     1      12.063   5.888   6.148  1.00  0.00     0.074 A 
ATOM     47  C   UNL     1      12.324   5.014   5.025  1.00  0.00     0.031 C 
ATOM     48  C   UNL     1       9.446   1.922  10.491  1.00  0.00     0.029 A 
ATOM     49  C   UNL     1       9.656   3.360  10.614  1.00  0.00     0.049 A 
ATOM     50  H   UNL     1      10.408   4.661   9.170  1.00  0.00     0.167 HD
ATOM     51  C   UNL     1      12.332   7.215   6.167  1.00  0.00     0.037 A 
ATOM     52  C   UNL     1       9.388   4.094  11.711  1.00  0.00     0.037 A 
ATOM     53  C   UNL     1      12.034   8.086   7.274  1.00  0.00     0.049 A 
ATOM     54  C   UNL     1       9.686   5.566  11.700  1.00  0.00     0.074 A 
ATOM     55  C   UNL     1      12.233   9.453   7.372  1.00  0.00     0.029 A 
ATOM     56  N   UNL     1      11.465   7.678   8.471  1.00  0.00    -0.354 N 
ATOM     57  N   UNL     1      10.211   6.290  10.741  1.00  0.00    -0.248 NA
ATOM     58  C   UNL     1       9.363   6.319  12.919  1.00  0.00     0.031 C 
ATOM     59  C   UNL     1      11.807   9.867   8.640  1.00  0.00     0.029 A 
ATOM     60  C   UNL     1      11.317   8.763   9.318  1.00  0.00     0.049 A 
ATOM     61  H   UNL     1      11.205   6.753   8.687  1.00  0.00     0.167 HD
ATOM     62  C   UNL     1      10.276   7.585  11.238  1.00  0.00     0.074 A 
ATOM     63  C   UNL     1       9.719   7.549  12.575  1.00  0.00     0.031 C 
ATOM     64  C   UNL     1      10.758   8.704  10.644  1.00  0.00     0.037 A 
BRANCH  51  65
ATOM     65  C   UNL     1      12.999   7.816   4.962  1.00  0.00     0.058 A 
ATOM     66  C   UNL     1      12.284   8.105   3.791  1.00  0.00     0.135 A 
ATOM     67  C   UNL     1      14.356   8.172   5.009  1.00  0.00     0.135 A 
ATOM     68  F   UNL     1      10.988   7.769   3.690  1.00  0.00    -0.206 F 
ATOM     69  C   UNL     1      12.892   8.725   2.704  1.00  0.00     0.059 A 
ATOM     70  C   UNL     1      14.982   8.807   3.940  1.00  0.00     0.059 A 
ATOM     71  F   UNL     1      15.085   7.912   6.106  1.00  0.00    -0.206 F 
ATOM     72  C   UNL     1      14.242   9.074   2.788  1.00  0.00     0.060 A 
BRANCH  72  73
ATOM     73  S   UNL     1      15.013   9.909   1.385  1.00  0.00     0.124 S 
ATOM     74  O   UNL     1      15.208   8.799   0.457  1.00  0.00    -0.237 OA
ATOM     75  O   UNL     1      13.998  10.884   1.001  1.00  0.00    -0.237 OA
ATOM     76  O   UNL     1      16.233  10.473   1.954  1.00  0.00    -0.744 OA
ENDBRANCH  72  73
ENDBRANCH  51  65
BRANCH  52  77
ATOM     77  C   UNL     1       8.836   3.435  12.922  1.00  0.00     0.058 A 
ATOM     78  C   UNL     1       7.501   3.623  13.304  1.00  0.00     0.135 A 
ATOM     79  C   UNL     1       9.633   2.590  13.710  1.00  0.00     0.135 A 
ATOM     80  F   UNL     1       6.704   4.426  12.583  1.00  0.00    -0.206 F 
ATOM     81  C   UNL     1       6.975   3.006  14.434  1.00  0.00     0.059 A 
ATOM     82  C   UNL     1       9.124   1.945  14.831  1.00  0.00     0.059 A 
ATOM     83  F   UNL     1      10.913   2.367  13.374  1.00  0.00    -0.206 F 
ATOM     84  C   UNL     1       7.796   2.168  15.192  1.00  0.00     0.060 A 
BRANCH  84  85
ATOM     85  S   UNL     1       7.100   1.325  16.630  1.00  0.00     0.124 S 
ATOM     86  O   UNL     1       7.183   2.366  17.647  1.00  0.00    -0.237 OA
ATOM     87  O   UNL     1       5.757   0.983  16.174  1.00  0.00    -0.237 OA
ATOM     88  O   UNL     1       7.998   0.188  16.812  1.00  0.00    -0.744 OA
ENDBRANCH  84  85
ENDBRANCH  52  77
BRANCH  64  89
ATOM     89  C   UNL     1      10.687   9.978  11.431  1.00  0.00     0.058 A 
ATOM     90  C   UNL     1      11.604  10.254  12.456  1.00  0.00     0.135 A 
ATOM     91  C   UNL     1       9.716  10.947  11.134  1.00  0.00     0.135 A 
ATOM     92  F   UNL     1      12.546   9.354  12.780  1.00  0.00    -0.206 F 
ATOM     93  C   UNL     1      11.549  11.442  13.177  1.00  0.00     0.059 A 
ATOM     94  C   UNL     1       9.653  12.149  11.830  1.00  0.00     0.059 A 
ATOM     95  F   UNL     1       8.822  10.730  10.157  1.00  0.00    -0.206 F 
ATOM     96  C   UNL     1      10.567  12.382  12.858  1.00  0.00     0.060 A 
BRANCH  96  97
ATOM     97  S   UNL     1      10.515  13.934  13.780  1.00  0.00     0.124 S 
ATOM     98  O   UNL     1       9.829  13.526  15.001  1.00  0.00    -0.237 OA
ATOM     99  O   UNL     1      11.929  14.264  13.928  1.00  0.00    -0.237 OA
ATOM    100  O   UNL     1       9.760  14.822  12.901  1.00  0.00    -0.744 OA
ENDBRANCH  96  97
ENDBRANCH  64  89
ENDBRANCH  38  39
ENDBRANCH  31  33
ENDBRANCH  30  31
ENDBRANCH  29  30
ENDBRANCH   1  29
TORSDOF 17
