REMARK SMILES CCn1nc(C(C)C)cc1C(=O)N1CCCC[C@@H]1C(=O)OCCOC(=O)c1ccc(-c2c3nc(c(-c4c(F)cc(S(=O)(=O)[O-])cc4F)c4ccc([nH]4)c(-c4c(F)cc(S(=O)(=O)[O-])cc4F)c4nc(c(-c5c(F)cc(S(=O)(=O)[O-])cc5F)c5ccc2[nH]5)C=C4)C=C3)cc1
REMARK SMILES IDX 22 1 21 2 19 3 20 4 18 5 13 6 14 7 15 8 17 9 16 10 11 11
REMARK SMILES IDX 12 12 10 13 3 14 4 15 5 16 9 17 2 18 1 19 6 20 7 21 8 22
REMARK SMILES IDX 23 23 24 24 25 25 26 26 27 27 28 28 92 29 29 30 91 31 30 32
REMARK SMILES IDX 31 33 32 34 85 35 33 36 90 37 84 38 86 39 34 40 89 41 83 42
REMARK SMILES IDX 82 43 35 45 69 46 48 47 68 48 49 49 52 50 67 51 87 52 50 53
REMARK SMILES IDX 51 54 66 56 88 57 53 58 36 59 37 60 46 61 38 62 39 63 45 64
REMARK SMILES IDX 47 65 40 66 41 67 42 68 43 69 44 70 70 71 71 72 80 73 72 74
REMARK SMILES IDX 73 75 79 76 81 77 74 78 75 79 76 80 77 81 78 82 54 83 55 84
REMARK SMILES IDX 64 85 56 86 57 87 63 88 65 89 58 90 59 91 60 92 61 93 62 94
REMARK H PARENT 86 44 52 55
REMARK Flexibility Score: inf
ROOT
ATOM      1  C   UNL     1      -1.702  -1.789   4.466  1.00  0.00     0.274 C 
ENDROOT
BRANCH   1   2
ATOM      2  O   UNL     1      -0.518  -2.596   4.646  1.00  0.00    -0.461 OA
BRANCH   2   3
ATOM      3  C   UNL     1       0.453  -2.083   5.460  1.00  0.00     0.328 C 
ATOM      4  O   UNL     1       0.395  -0.996   6.027  1.00  0.00    -0.250 OA
BRANCH   3   5
ATOM      5  C   UNL     1       1.687  -2.994   5.547  1.00  0.00     0.195 C 
ATOM      6  N   UNL     1       2.591  -3.007   4.371  1.00  0.00    -0.323 N 
ATOM      7  C   UNL     1       3.722  -3.919   4.452  1.00  0.00     0.121 C 
ATOM      8  C   UNL     1       3.297  -5.340   4.793  1.00  0.00     0.022 C 
ATOM      9  C   UNL     1       1.288  -4.424   5.964  1.00  0.00     0.037 C 
ATOM     10  C   UNL     1       2.488  -5.357   6.081  1.00  0.00     0.005 C 
BRANCH   6  11
ATOM     11  C   UNL     1       2.303  -2.410   3.143  1.00  0.00     0.272 C 
ATOM     12  O   UNL     1       2.495  -3.013   2.089  1.00  0.00    -0.267 OA
BRANCH  11  13
ATOM     13  C   UNL     1       1.903  -1.017   3.175  1.00  0.00     0.126 A 
ATOM     14  N   UNL     1       1.125  -0.357   2.253  1.00  0.00    -0.260 N 
ATOM     15  N   UNL     1       0.823   0.912   2.612  1.00  0.00    -0.177 NA
ATOM     16  C   UNL     1       1.500   1.108   3.747  1.00  0.00     0.066 A 
ATOM     17  C   UNL     1       2.252  -0.034   4.089  1.00  0.00     0.059 A 
BRANCH  14  18
ATOM     18  C   UNL     1       0.551  -0.853   1.015  1.00  0.00     0.142 C 
ATOM     19  C   UNL     1       1.040  -0.064  -0.190  1.00  0.00     0.029 C 
ENDBRANCH  14  18
BRANCH  16  20
ATOM     20  C   UNL     1       1.411   2.398   4.512  1.00  0.00     0.034 C 
ATOM     21  C   UNL     1       2.298   3.474   3.887  1.00  0.00     0.014 C 
ATOM     22  C   UNL     1      -0.027   2.902   4.657  1.00  0.00     0.014 C 
ENDBRANCH  16  20
ENDBRANCH  11  13
ENDBRANCH   6  11
ENDBRANCH   3   5
ENDBRANCH   2   3
ENDBRANCH   1   2
BRANCH   1  23
ATOM     23  C   UNL     1      -2.742  -1.983   5.567  1.00  0.00     0.275 C 
BRANCH  23  24
ATOM     24  O   UNL     1      -2.251  -1.472   6.798  1.00  0.00    -0.458 OA
BRANCH  24  25
ATOM     25  C   UNL     1      -1.529  -2.363   7.516  1.00  0.00     0.338 C 
ATOM     26  O   UNL     1      -1.322  -3.527   7.229  1.00  0.00    -0.246 OA
BRANCH  25  27
ATOM     27  C   UNL     1      -1.081  -1.749   8.769  1.00  0.00     0.060 A 
ATOM     28  C   UNL     1      -0.332  -2.573   9.618  1.00  0.00     0.016 A 
ATOM     29  C   UNL     1      -1.819  -0.660   9.228  1.00  0.00     0.016 A 
ATOM     30  C   UNL     1      -0.621  -2.530  10.960  1.00  0.00     0.010 A 
ATOM     31  C   UNL     1      -2.158  -0.665  10.549  1.00  0.00     0.010 A 
ATOM     32  C   UNL     1      -1.635  -1.667  11.370  1.00  0.00    -0.014 A 
BRANCH  32  33
ATOM     33  C   UNL     1      -2.132  -1.751  12.723  1.00  0.00     0.031 A 
ATOM     34  C   UNL     1      -1.308  -0.939  13.640  1.00  0.00     0.074 A 
ATOM     35  C   UNL     1      -3.317  -2.334  12.987  1.00  0.00     0.049 A 
ATOM     36  N   UNL     1      -0.429  -1.352  14.494  1.00  0.00    -0.248 NA
ATOM     37  C   UNL     1      -1.226   0.509  13.359  1.00  0.00     0.031 C 
ATOM     38  C   UNL     1      -4.286  -2.887  12.034  1.00  0.00     0.029 A 
ATOM     39  N   UNL     1      -3.973  -2.430  14.172  1.00  0.00    -0.354 N 
ATOM     40  C   UNL     1       0.083  -0.182  15.046  1.00  0.00     0.074 A 
ATOM     41  C   UNL     1      -0.152   0.841  14.073  1.00  0.00     0.031 C 
ATOM     42  C   UNL     1      -5.482  -3.036  12.649  1.00  0.00     0.029 A 
ATOM     43  C   UNL     1      -5.338  -2.694  14.052  1.00  0.00     0.049 A 
ATOM     44  H   UNL     1      -3.524  -2.323  15.042  1.00  0.00     0.167 HD
ATOM     45  C   UNL     1       0.251  -0.062  16.392  1.00  0.00     0.037 A 
ATOM     46  C   UNL     1      -6.257  -2.510  15.038  1.00  0.00     0.037 A 
ATOM     47  C   UNL     1       0.263  -1.370  17.012  1.00  0.00     0.049 A 
ATOM     48  C   UNL     1      -5.492  -2.434  16.320  1.00  0.00     0.074 A 
ATOM     49  C   UNL     1       1.012  -2.518  16.840  1.00  0.00     0.029 A 
ATOM     50  N   UNL     1      -0.871  -1.757  17.689  1.00  0.00    -0.354 N 
ATOM     51  N   UNL     1      -4.820  -3.437  16.820  1.00  0.00    -0.248 NA
ATOM     52  C   UNL     1      -5.055  -1.115  16.759  1.00  0.00     0.031 C 
ATOM     53  C   UNL     1       0.092  -3.594  17.010  1.00  0.00     0.029 A 
ATOM     54  C   UNL     1      -1.148  -3.056  17.355  1.00  0.00     0.049 A 
ATOM     55  H   UNL     1      -1.393  -1.196  18.307  1.00  0.00     0.167 HD
ATOM     56  C   UNL     1      -3.634  -2.879  17.284  1.00  0.00     0.074 A 
ATOM     57  C   UNL     1      -3.863  -1.435  17.271  1.00  0.00     0.031 C 
ATOM     58  C   UNL     1      -2.483  -3.615  17.344  1.00  0.00     0.037 A 
BRANCH  45  59
ATOM     59  C   UNL     1      -0.066   1.204  17.178  1.00  0.00     0.058 A 
ATOM     60  C   UNL     1       0.150   1.186  18.571  1.00  0.00     0.135 A 
ATOM     61  C   UNL     1      -0.817   2.311  16.710  1.00  0.00     0.135 A 
ATOM     62  F   UNL     1       0.887   0.216  19.136  1.00  0.00    -0.206 F 
ATOM     63  C   UNL     1      -0.446   2.103  19.436  1.00  0.00     0.059 A 
ATOM     64  C   UNL     1      -1.384   3.259  17.550  1.00  0.00     0.059 A 
ATOM     65  F   UNL     1      -1.117   2.520  15.426  1.00  0.00    -0.206 F 
ATOM     66  C   UNL     1      -1.237   3.119  18.915  1.00  0.00     0.060 A 
BRANCH  66  67
ATOM     67  S   UNL     1      -2.108   4.233  20.023  1.00  0.00     0.124 S 
ATOM     68  O   UNL     1      -3.075   3.330  20.635  1.00  0.00    -0.237 OA
ATOM     69  O   UNL     1      -1.027   4.700  20.884  1.00  0.00    -0.237 OA
ATOM     70  O   UNL     1      -2.663   5.238  19.121  1.00  0.00    -0.744 OA
ENDBRANCH  66  67
ENDBRANCH  45  59
BRANCH  46  71
ATOM     71  C   UNL     1      -7.651  -1.995  14.906  1.00  0.00     0.058 A 
ATOM     72  C   UNL     1      -8.558  -2.044  15.983  1.00  0.00     0.135 A 
ATOM     73  C   UNL     1      -8.043  -1.196  13.812  1.00  0.00     0.135 A 
ATOM     74  F   UNL     1      -8.263  -2.760  17.078  1.00  0.00    -0.206 F 
ATOM     75  C   UNL     1      -9.755  -1.312  15.992  1.00  0.00     0.059 A 
ATOM     76  C   UNL     1      -9.233  -0.468  13.793  1.00  0.00     0.059 A 
ATOM     77  F   UNL     1      -7.235  -1.020  12.757  1.00  0.00    -0.206 F 
ATOM     78  C   UNL     1     -10.075  -0.510  14.896  1.00  0.00     0.060 A 
BRANCH  78  79
ATOM     79  S   UNL     1     -11.529   0.566  14.961  1.00  0.00     0.124 S 
ATOM     80  O   UNL     1     -12.622  -0.398  14.912  1.00  0.00    -0.237 OA
ATOM     81  O   UNL     1     -11.346   1.259  16.232  1.00  0.00    -0.237 OA
ATOM     82  O   UNL     1     -11.384   1.404  13.773  1.00  0.00    -0.744 OA
ENDBRANCH  78  79
ENDBRANCH  46  71
BRANCH  58  83
ATOM     83  C   UNL     1      -2.579  -5.110  17.186  1.00  0.00     0.058 A 
ATOM     84  C   UNL     1      -2.980  -5.767  16.009  1.00  0.00     0.135 A 
ATOM     85  C   UNL     1      -2.075  -5.908  18.224  1.00  0.00     0.135 A 
ATOM     86  F   UNL     1      -3.376  -5.071  14.934  1.00  0.00    -0.206 F 
ATOM     87  C   UNL     1      -2.914  -7.158  15.884  1.00  0.00     0.059 A 
ATOM     88  C   UNL     1      -1.971  -7.290  18.110  1.00  0.00     0.059 A 
ATOM     89  F   UNL     1      -1.618  -5.335  19.349  1.00  0.00    -0.206 F 
ATOM     90  C   UNL     1      -2.404  -7.911  16.942  1.00  0.00     0.060 A 
BRANCH  90  91
ATOM     91  S   UNL     1      -2.246  -9.701  16.759  1.00  0.00     0.124 S 
ATOM     92  O   UNL     1      -3.638 -10.135  16.780  1.00  0.00    -0.237 OA
ATOM     93  O   UNL     1      -1.560  -9.829  15.476  1.00  0.00    -0.237 OA
ATOM     94  O   UNL     1      -1.452 -10.094  17.921  1.00  0.00    -0.744 OA
ENDBRANCH  90  91
ENDBRANCH  58  83
ENDBRANCH  32  33
ENDBRANCH  25  27
ENDBRANCH  24  25
ENDBRANCH  23  24
ENDBRANCH   1  23
TORSDOF 18
