REMARK SMILES CNS(=O)(=O)c1ccc([C@H]2CC(=O)Nc3cc(O)c(C(=O)OCCOC(=O)c4ccc(-c5c6nc(c(-c7c(F)cc(S(=O)(=O)[O-])cc7F)c7ccc([nH]7)c(-c7c(F)cc(S(=O)(=O)[O-])cc7F)c7nc(c(-c8c(F)cc(S(=O)(=O)[O-])cc8F)c8ccc5[nH]8)C=C7)C=C6)cc4)cc32)cc1
REMARK SMILES IDX 23 1 22 2 20 3 21 4 19 5 10 6 11 7 95 8 12 9 15 10 94 11
REMARK SMILES IDX 13 12 14 13 16 14 17 16 9 17 6 18 7 19 97 20 8 21 96 22 3 23
REMARK SMILES IDX 4 24 5 25 2 26 1 27 18 29 24 31 25 32 26 33 27 34 28 35
REMARK SMILES IDX 29 36 93 37 30 38 92 39 31 40 32 41 33 42 86 43 34 44 91 45
REMARK SMILES IDX 85 46 87 47 35 48 90 49 84 50 83 51 36 53 70 54 49 55 69 56
REMARK SMILES IDX 50 57 53 58 68 59 88 60 51 61 52 62 67 64 89 65 54 66 37 67
REMARK SMILES IDX 38 68 47 69 39 70 40 71 46 72 48 73 41 74 42 75 43 76 44 77
REMARK SMILES IDX 45 78 71 79 72 80 81 81 73 82 74 83 80 84 82 85 75 86 76 87
REMARK SMILES IDX 77 88 78 89 79 90 55 91 56 92 65 93 57 94 58 95 64 96 66 97
REMARK SMILES IDX 59 98 60 99 61 100 62 101 63 102
REMARK H PARENT 14 15 2 28 18 30 87 52 53 63
REMARK Flexibility Score: inf
ROOT
ATOM      1  C   UNL     1      -4.690  -2.401   9.031  1.00  0.00     0.275 C 
ENDROOT
BRANCH   1   2
ATOM      2  O   UNL     1      -4.644  -2.197   7.600  1.00  0.00    -0.458 OA
BRANCH   2   3
ATOM      3  C   UNL     1      -4.877  -3.309   6.867  1.00  0.00     0.342 C 
ATOM      4  O   UNL     1      -5.061  -4.440   7.290  1.00  0.00    -0.246 OA
BRANCH   3   5
ATOM      5  C   UNL     1      -4.898  -3.023   5.421  1.00  0.00     0.102 A 
ATOM      6  C   UNL     1      -3.304  -4.396   2.231  1.00  0.00     0.061 C 
ATOM      7  C   UNL     1      -3.717  -4.143   0.761  1.00  0.00     0.113 C 
ATOM      8  C   UNL     1      -4.310  -3.832   3.209  1.00  0.00    -0.015 A 
ATOM      9  C   UNL     1      -5.196  -4.191   0.497  1.00  0.00     0.225 C 
ATOM     10  C   UNL     1      -5.540  -3.348   2.745  1.00  0.00     0.048 A 
ATOM     11  C   UNL     1      -4.037  -3.742   4.586  1.00  0.00     0.026 A 
ATOM     12  O   UNL     1      -5.660  -4.552  -0.581  1.00  0.00    -0.275 OA
ATOM     13  N   UNL     1      -5.981  -3.640   1.460  1.00  0.00    -0.326 N 
ATOM     14  C   UNL     1      -6.355  -2.576   3.558  1.00  0.00     0.073 A 
ATOM     15  H   UNL     1      -6.918  -3.435   1.233  1.00  0.00     0.169 HD
ATOM     16  C   UNL     1      -5.956  -2.319   4.858  1.00  0.00     0.132 A 
BRANCH   6  17
ATOM     17  C   UNL     1      -2.849  -5.841   2.386  1.00  0.00    -0.040 A 
ATOM     18  C   UNL     1      -2.290  -8.549   2.055  1.00  0.00     0.082 A 
ATOM     19  C   UNL     1      -1.571  -7.608   1.321  1.00  0.00     0.022 A 
ATOM     20  C   UNL     1      -3.191  -8.149   3.043  1.00  0.00     0.022 A 
ATOM     21  C   UNL     1      -1.808  -6.261   1.534  1.00  0.00     0.006 A 
ATOM     22  C   UNL     1      -3.479  -6.790   3.200  1.00  0.00     0.006 A 
BRANCH  18  23
ATOM     23  S   UNL     1      -2.183 -10.243   1.558  1.00  0.00     0.240 S 
ATOM     24  O   UNL     1      -1.974 -10.287   0.124  1.00  0.00    -0.207 OA
ATOM     25  O   UNL     1      -3.253 -10.981   2.186  1.00  0.00    -0.207 OA
BRANCH  23  26
ATOM     26  N   UNL     1      -0.765 -10.761   2.298  1.00  0.00    -0.214 NA
ATOM     27  C   UNL     1       0.506 -10.272   1.779  1.00  0.00     0.120 C 
ATOM     28  H   UNL     1      -0.817 -10.483   3.278  1.00  0.00     0.141 HD
ENDBRANCH  23  26
ENDBRANCH  18  23
ENDBRANCH   6  17
BRANCH  16  29
ATOM     29  O   UNL     1      -6.629  -1.325   5.486  1.00  0.00    -0.507 OA
ATOM     30  H   UNL     1      -7.334  -0.889   5.050  1.00  0.00     0.293 HD
ENDBRANCH  16  29
ENDBRANCH   3   5
ENDBRANCH   2   3
ENDBRANCH   1   2
BRANCH   1  31
ATOM     31  C   UNL     1      -5.610  -1.366   9.673  1.00  0.00     0.275 C 
BRANCH  31  32
ATOM     32  O   UNL     1      -6.963  -1.546   9.204  1.00  0.00    -0.458 OA
BRANCH  32  33
ATOM     33  C   UNL     1      -7.345  -0.662   8.255  1.00  0.00     0.338 C 
ATOM     34  O   UNL     1      -6.666   0.252   7.806  1.00  0.00    -0.246 OA
BRANCH  33  35
ATOM     35  C   UNL     1      -8.657  -0.998   7.670  1.00  0.00     0.060 A 
ATOM     36  C   UNL     1      -8.800  -2.195   6.968  1.00  0.00     0.016 A 
ATOM     37  C   UNL     1      -9.613   0.009   7.535  1.00  0.00     0.016 A 
ATOM     38  C   UNL     1      -9.818  -2.312   6.018  1.00  0.00     0.010 A 
ATOM     39  C   UNL     1     -10.715  -0.182   6.692  1.00  0.00     0.010 A 
ATOM     40  C   UNL     1     -10.814  -1.327   5.883  1.00  0.00    -0.014 A 
BRANCH  40  41
ATOM     41  C   UNL     1     -11.954  -1.495   4.922  1.00  0.00     0.031 A 
ATOM     42  C   UNL     1     -12.329  -0.403   3.939  1.00  0.00     0.074 A 
ATOM     43  C   UNL     1     -12.695  -2.624   4.952  1.00  0.00     0.049 A 
ATOM     44  N   UNL     1     -13.417  -0.276   3.218  1.00  0.00    -0.248 NA
ATOM     45  C   UNL     1     -11.370   0.698   3.753  1.00  0.00     0.031 C 
ATOM     46  C   UNL     1     -12.452  -3.778   5.822  1.00  0.00     0.029 A 
ATOM     47  N   UNL     1     -13.813  -2.989   4.239  1.00  0.00    -0.354 N 
ATOM     48  C   UNL     1     -13.309   0.945   2.556  1.00  0.00     0.074 A 
ATOM     49  C   UNL     1     -12.038   1.517   2.948  1.00  0.00     0.031 C 
ATOM     50  C   UNL     1     -13.354  -4.733   5.562  1.00  0.00     0.029 A 
ATOM     51  C   UNL     1     -14.318  -4.218   4.600  1.00  0.00     0.049 A 
ATOM     52  H   UNL     1     -14.213  -2.426   3.537  1.00  0.00     0.167 HD
ATOM     53  C   UNL     1     -14.190   1.534   1.708  1.00  0.00     0.037 A 
ATOM     54  C   UNL     1     -15.460  -4.847   4.262  1.00  0.00     0.037 A 
ATOM     55  C   UNL     1     -15.418   0.921   1.258  1.00  0.00     0.049 A 
ATOM     56  C   UNL     1     -16.426  -4.165   3.338  1.00  0.00     0.074 A 
ATOM     57  C   UNL     1     -16.344   1.416   0.354  1.00  0.00     0.029 A 
ATOM     58  N   UNL     1     -15.886  -0.320   1.663  1.00  0.00    -0.354 N 
ATOM     59  N   UNL     1     -16.321  -2.997   2.754  1.00  0.00    -0.248 NA
ATOM     60  C   UNL     1     -17.677  -4.878   3.046  1.00  0.00     0.031 C 
ATOM     61  C   UNL     1     -17.394   0.498   0.249  1.00  0.00     0.029 A 
ATOM     62  C   UNL     1     -17.098  -0.594   1.047  1.00  0.00     0.049 A 
ATOM     63  H   UNL     1     -15.426  -0.918   2.295  1.00  0.00     0.167 HD
ATOM     64  C   UNL     1     -17.484  -2.843   2.009  1.00  0.00     0.074 A 
ATOM     65  C   UNL     1     -18.270  -4.044   2.203  1.00  0.00     0.031 C 
ATOM     66  C   UNL     1     -17.868  -1.797   1.238  1.00  0.00     0.037 A 
BRANCH  53  67
ATOM     67  C   UNL     1     -13.902   2.932   1.220  1.00  0.00     0.058 A 
ATOM     68  C   UNL     1     -12.923   3.207   0.253  1.00  0.00     0.135 A 
ATOM     69  C   UNL     1     -14.700   4.004   1.659  1.00  0.00     0.135 A 
ATOM     70  F   UNL     1     -12.126   2.226  -0.199  1.00  0.00    -0.206 F 
ATOM     71  C   UNL     1     -12.736   4.493  -0.250  1.00  0.00     0.059 A 
ATOM     72  C   UNL     1     -14.548   5.293   1.151  1.00  0.00     0.059 A 
ATOM     73  F   UNL     1     -15.658   3.801   2.577  1.00  0.00    -0.206 F 
ATOM     74  C   UNL     1     -13.556   5.529   0.202  1.00  0.00     0.060 A 
BRANCH  74  75
ATOM     75  S   UNL     1     -13.321   7.186  -0.480  1.00  0.00     0.124 S 
ATOM     76  O   UNL     1     -12.068   7.586   0.152  1.00  0.00    -0.237 OA
ATOM     77  O   UNL     1     -13.252   6.927  -1.915  1.00  0.00    -0.237 OA
ATOM     78  O   UNL     1     -14.507   7.911  -0.034  1.00  0.00    -0.744 OA
ENDBRANCH  74  75
ENDBRANCH  53  67
BRANCH  54  79
ATOM     79  C   UNL     1     -15.781  -6.172   4.857  1.00  0.00     0.058 A 
ATOM     80  C   UNL     1     -15.818  -7.330   4.067  1.00  0.00     0.135 A 
ATOM     81  C   UNL     1     -16.050  -6.308   6.229  1.00  0.00     0.135 A 
ATOM     82  F   UNL     1     -15.577  -7.250   2.749  1.00  0.00    -0.206 F 
ATOM     83  C   UNL     1     -16.129  -8.572   4.610  1.00  0.00     0.059 A 
ATOM     84  C   UNL     1     -16.329  -7.544   6.801  1.00  0.00     0.059 A 
ATOM     85  F   UNL     1     -16.012  -5.234   7.033  1.00  0.00    -0.206 F 
ATOM     86  C   UNL     1     -16.383  -8.668   5.979  1.00  0.00     0.060 A 
BRANCH  86  87
ATOM     87  S   UNL     1     -16.757 -10.287   6.685  1.00  0.00     0.124 S 
ATOM     88  O   UNL     1     -18.136 -10.481   6.253  1.00  0.00    -0.237 OA
ATOM     89  O   UNL     1     -15.761 -11.141   6.046  1.00  0.00    -0.237 OA
ATOM     90  O   UNL     1     -16.566 -10.079   8.117  1.00  0.00    -0.744 OA
ENDBRANCH  86  87
ENDBRANCH  54  79
BRANCH  66  91
ATOM     91  C   UNL     1     -19.176  -1.925   0.509  1.00  0.00     0.058 A 
ATOM     92  C   UNL     1     -20.406  -1.841   1.179  1.00  0.00     0.135 A 
ATOM     93  C   UNL     1     -19.197  -2.113  -0.882  1.00  0.00     0.135 A 
ATOM     94  F   UNL     1     -20.441  -1.674   2.511  1.00  0.00    -0.206 F 
ATOM     95  C   UNL     1     -21.613  -1.963   0.498  1.00  0.00     0.059 A 
ATOM     96  C   UNL     1     -20.392  -2.211  -1.587  1.00  0.00     0.059 A 
ATOM     97  F   UNL     1     -18.048  -2.195  -1.571  1.00  0.00    -0.206 F 
ATOM     98  C   UNL     1     -21.596  -2.148  -0.886  1.00  0.00     0.060 A 
BRANCH  98  99
ATOM     99  S   UNL     1     -23.169  -2.280  -1.762  1.00  0.00     0.124 S 
ATOM    100  O   UNL     1     -23.597  -3.626  -1.396  1.00  0.00    -0.237 OA
ATOM    101  O   UNL     1     -23.944  -1.188  -1.180  1.00  0.00    -0.237 OA
ATOM    102  O   UNL     1     -22.794  -2.099  -3.161  1.00  0.00    -0.744 OA
ENDBRANCH  98  99
ENDBRANCH  66  91
ENDBRANCH  40  41
ENDBRANCH  33  35
ENDBRANCH  32  33
ENDBRANCH  31  32
ENDBRANCH   1  31
TORSDOF 18
