REMARK SMILES O=C(OCCOC(=O)[C@@H]1CN(c2ncnc3c2CCC3)CCO1)c1ccc(-c2c3nc(c(-c4c(F)cc(S(=O)(=O)[O-])cc4F)c4ccc([nH]4)c(-c4c(F)cc(S(=O)(=O)[O-])cc4F)c4nc(c(-c5c(F)cc(S(=O)(=O)[O-])cc5F)c5ccc2[nH]5)C=C4)C=C3)cc1
REMARK SMILES IDX 4 1 3 2 2 3 1 4 24 5 25 6 89 7 26 8 88 9 27 10 28 11 29 12
REMARK SMILES IDX 82 13 30 14 87 15 81 16 83 17 31 18 86 19 80 20 79 21 32 23
REMARK SMILES IDX 66 24 45 25 65 26 46 27 49 28 64 29 84 30 47 31 48 32 63 34
REMARK SMILES IDX 85 35 50 36 33 37 34 38 43 39 35 40 36 41 42 42 44 43 37 44
REMARK SMILES IDX 38 45 39 46 40 47 41 48 67 49 68 50 77 51 69 52 70 53 76 54
REMARK SMILES IDX 78 55 71 56 72 57 73 58 74 59 75 60 51 61 52 62 61 63 53 64
REMARK SMILES IDX 54 65 60 66 62 67 55 68 56 69 57 70 58 71 59 72 5 73 6 74
REMARK SMILES IDX 7 75 8 76 9 77 10 78 23 79 11 80 22 81 21 82 12 83 13 84
REMARK SMILES IDX 17 85 14 86 16 87 18 88 15 89 20 90 19 91
REMARK H PARENT 83 22 49 33
REMARK Flexibility Score: inf
ROOT
ATOM      1  C   UNL     1       4.155   0.074  -1.561  1.00  0.00     0.275 C 
ENDROOT
BRANCH   1   2
ATOM      2  O   UNL     1       3.251  -0.727  -0.791  1.00  0.00    -0.458 OA
BRANCH   2   3
ATOM      3  C   UNL     1       3.272  -0.996   0.537  1.00  0.00     0.338 C 
ATOM      4  O   UNL     1       2.521  -1.878   0.955  1.00  0.00    -0.246 OA
BRANCH   3   5
ATOM      5  C   UNL     1       4.071  -0.214   1.545  1.00  0.00     0.060 A 
ATOM      6  C   UNL     1       5.213   0.562   1.312  1.00  0.00     0.016 A 
ATOM      7  C   UNL     1       3.581  -0.247   2.859  1.00  0.00     0.016 A 
ATOM      8  C   UNL     1       5.787   1.355   2.317  1.00  0.00     0.010 A 
ATOM      9  C   UNL     1       4.129   0.564   3.857  1.00  0.00     0.010 A 
ATOM     10  C   UNL     1       5.241   1.380   3.596  1.00  0.00    -0.014 A 
BRANCH  10  11
ATOM     11  C   UNL     1       5.936   2.065   4.720  1.00  0.00     0.031 A 
ATOM     12  C   UNL     1       6.501   1.171   5.793  1.00  0.00     0.074 A 
ATOM     13  C   UNL     1       6.092   3.407   4.788  1.00  0.00     0.049 A 
ATOM     14  N   UNL     1       7.068   1.491   6.923  1.00  0.00    -0.248 NA
ATOM     15  C   UNL     1       6.410  -0.286   5.562  1.00  0.00     0.031 C 
ATOM     16  C   UNL     1       5.675   4.371   3.767  1.00  0.00     0.029 A 
ATOM     17  N   UNL     1       6.634   4.207   5.772  1.00  0.00    -0.354 N 
ATOM     18  C   UNL     1       7.444   0.283   7.495  1.00  0.00     0.074 A 
ATOM     19  C   UNL     1       6.892  -0.777   6.690  1.00  0.00     0.031 C 
ATOM     20  C   UNL     1       5.939   5.621   4.196  1.00  0.00     0.029 A 
ATOM     21  C   UNL     1       6.504   5.565   5.536  1.00  0.00     0.049 A 
ATOM     22  H   UNL     1       7.075   3.844   6.573  1.00  0.00     0.167 HD
ATOM     23  C   UNL     1       8.283   0.072   8.530  1.00  0.00     0.037 A 
ATOM     24  C   UNL     1       6.782   6.622   6.333  1.00  0.00     0.037 A 
ATOM     25  C   UNL     1       8.887   1.133   9.276  1.00  0.00     0.049 A 
ATOM     26  C   UNL     1       7.497   6.346   7.625  1.00  0.00     0.074 A 
ATOM     27  C   UNL     1       9.829   1.051  10.281  1.00  0.00     0.029 A 
ATOM     28  N   UNL     1       8.602   2.476   9.086  1.00  0.00    -0.354 N 
ATOM     29  N   UNL     1       7.848   5.192   8.136  1.00  0.00    -0.248 NA
ATOM     30  C   UNL     1       7.924   7.515   8.408  1.00  0.00     0.031 C 
ATOM     31  C   UNL     1      10.078   2.347  10.737  1.00  0.00     0.029 A 
ATOM     32  C   UNL     1       9.322   3.234   9.986  1.00  0.00     0.049 A 
ATOM     33  H   UNL     1       7.981   2.834   8.412  1.00  0.00     0.167 HD
ATOM     34  C   UNL     1       8.586   5.497   9.268  1.00  0.00     0.074 A 
ATOM     35  C   UNL     1       8.587   6.939   9.399  1.00  0.00     0.031 C 
ATOM     36  C   UNL     1       9.256   4.665  10.097  1.00  0.00     0.037 A 
BRANCH  23  37
ATOM     37  C   UNL     1       8.655  -1.346   8.839  1.00  0.00     0.058 A 
ATOM     38  C   UNL     1       9.472  -2.086   7.967  1.00  0.00     0.135 A 
ATOM     39  C   UNL     1       8.213  -1.966  10.015  1.00  0.00     0.135 A 
ATOM     40  F   UNL     1       9.897  -1.546   6.813  1.00  0.00    -0.206 F 
ATOM     41  C   UNL     1       9.822  -3.401   8.242  1.00  0.00     0.059 A 
ATOM     42  C   UNL     1       8.575  -3.274  10.324  1.00  0.00     0.059 A 
ATOM     43  F   UNL     1       7.419  -1.305  10.871  1.00  0.00    -0.206 F 
ATOM     44  C   UNL     1       9.374  -3.984   9.427  1.00  0.00     0.060 A 
BRANCH  44  45
ATOM     45  S   UNL     1       9.869  -5.681   9.784  1.00  0.00     0.124 S 
ATOM     46  O   UNL     1       9.125  -6.421   8.768  1.00  0.00    -0.237 OA
ATOM     47  O   UNL     1      11.317  -5.624   9.589  1.00  0.00    -0.237 OA
ATOM     48  O   UNL     1       9.430  -5.884  11.156  1.00  0.00    -0.744 OA
ENDBRANCH  44  45
ENDBRANCH  23  37
BRANCH  24  49
ATOM     49  C   UNL     1       6.398   8.031   6.008  1.00  0.00     0.058 A 
ATOM     50  C   UNL     1       6.990   8.767   4.975  1.00  0.00     0.135 A 
ATOM     51  C   UNL     1       5.439   8.697   6.795  1.00  0.00     0.135 A 
ATOM     52  F   UNL     1       7.967   8.219   4.237  1.00  0.00    -0.206 F 
ATOM     53  C   UNL     1       6.586  10.071   4.675  1.00  0.00     0.059 A 
ATOM     54  C   UNL     1       5.013   9.995   6.515  1.00  0.00     0.059 A 
ATOM     55  F   UNL     1       4.874   8.063   7.835  1.00  0.00    -0.206 F 
ATOM     56  C   UNL     1       5.573  10.664   5.431  1.00  0.00     0.060 A 
BRANCH  56  57
ATOM     57  S   UNL     1       4.862  12.250   4.930  1.00  0.00     0.124 S 
ATOM     58  O   UNL     1       5.443  13.162   5.908  1.00  0.00    -0.237 OA
ATOM     59  O   UNL     1       5.335  12.404   3.557  1.00  0.00    -0.237 OA
ATOM     60  O   UNL     1       3.430  11.996   5.064  1.00  0.00    -0.744 OA
ENDBRANCH  56  57
ENDBRANCH  24  49
BRANCH  36  61
ATOM     61  C   UNL     1      10.049   5.300  11.190  1.00  0.00     0.058 A 
ATOM     62  C   UNL     1       9.428   5.804  12.339  1.00  0.00     0.135 A 
ATOM     63  C   UNL     1      11.450   5.336  11.109  1.00  0.00     0.135 A 
ATOM     64  F   UNL     1       8.090   5.812  12.438  1.00  0.00    -0.206 F 
ATOM     65  C   UNL     1      10.177   6.321  13.386  1.00  0.00     0.059 A 
ATOM     66  C   UNL     1      12.218   5.819  12.156  1.00  0.00     0.059 A 
ATOM     67  F   UNL     1      12.078   4.867  10.018  1.00  0.00    -0.206 F 
ATOM     68  C   UNL     1      11.571   6.309  13.290  1.00  0.00     0.060 A 
BRANCH  68  69
ATOM     69  S   UNL     1      12.528   6.904  14.695  1.00  0.00     0.124 S 
ATOM     70  O   UNL     1      12.276   8.339  14.635  1.00  0.00    -0.237 OA
ATOM     71  O   UNL     1      11.909   6.195  15.810  1.00  0.00    -0.237 OA
ATOM     72  O   UNL     1      13.892   6.491  14.376  1.00  0.00    -0.744 OA
ENDBRANCH  68  69
ENDBRANCH  36  61
ENDBRANCH  10  11
ENDBRANCH   3   5
ENDBRANCH   2   3
ENDBRANCH   1   2
BRANCH   1  73
ATOM     73  C   UNL     1       3.820   1.568  -1.569  1.00  0.00     0.274 C 
BRANCH  73  74
ATOM     74  O   UNL     1       3.245   2.024  -0.332  1.00  0.00    -0.460 OA
BRANCH  74  75
ATOM     75  C   UNL     1       1.901   2.277  -0.333  1.00  0.00     0.337 C 
ATOM     76  O   UNL     1       1.188   2.197  -1.327  1.00  0.00    -0.249 OA
BRANCH  75  77
ATOM     77  C   UNL     1       1.384   2.687   1.051  1.00  0.00     0.247 C 
ATOM     78  C   UNL     1       2.096   3.973   1.485  1.00  0.00     0.162 C 
ATOM     79  O   UNL     1       1.556   1.626   2.004  1.00  0.00    -0.363 OA
ATOM     80  N   UNL     1       1.794   4.309   2.872  1.00  0.00    -0.351 N 
ATOM     81  C   UNL     1       1.107   2.015   3.315  1.00  0.00     0.183 C 
ATOM     82  C   UNL     1       1.880   3.228   3.845  1.00  0.00     0.146 C 
BRANCH  80  83
ATOM     83  C   UNL     1       0.971   5.367   3.175  1.00  0.00     0.135 A 
ATOM     84  N   UNL     1      -0.225   5.501   2.583  1.00  0.00    -0.219 NA
ATOM     85  C   UNL     1       1.413   6.309   4.066  1.00  0.00     0.016 A 
ATOM     86  C   UNL     1      -0.943   6.594   2.935  1.00  0.00     0.224 A 
ATOM     87  C   UNL     1       0.632   7.410   4.304  1.00  0.00     0.049 A 
ATOM     88  C   UNL     1       2.712   6.361   4.768  1.00  0.00     0.042 C 
ATOM     89  N   UNL     1      -0.579   7.581   3.772  1.00  0.00    -0.241 NA
ATOM     90  C   UNL     1       1.339   8.402   5.176  1.00  0.00     0.057 C 
ATOM     91  C   UNL     1       2.732   7.779   5.318  1.00  0.00     0.011 C 
ENDBRANCH  80  83
ENDBRANCH  75  77
ENDBRANCH  74  75
ENDBRANCH  73  74
ENDBRANCH   1  73
TORSDOF 15
