REMARK SMILES CO[C@H]1C[C@H](C(=O)OCCOC(=O)c2ccc(-c3c4nc(c(-c5c(F)cc(S(=O)(=O)[O-])cc5F)c5ccc([nH]5)c(-c5c(F)cc(S(=O)(=O)[O-])cc5F)c5nc(c(-c6c(F)cc(S(=O)(=O)[O-])cc6F)c6ccc3[nH]6)C=C5)C=C4)cc2)N(C(=O)[C@H]2C=C[C@@H]([NH3+])C2)C1
REMARK SMILES IDX 9 1 8 2 6 3 7 4 5 5 3 6 4 7 89 8 80 9 2 10 1 11 81 12 82 13
REMARK SMILES IDX 83 14 84 15 88 16 85 17 86 18 87 19 10 23 11 24 12 25 13 26
REMARK SMILES IDX 14 27 15 28 79 29 16 30 78 31 17 32 18 33 19 34 72 35 20 36
REMARK SMILES IDX 77 37 71 38 73 39 21 40 76 41 70 42 69 43 22 45 56 46 35 47
REMARK SMILES IDX 55 48 36 49 39 50 54 51 74 52 37 53 38 54 53 56 75 57 40 58
REMARK SMILES IDX 23 59 24 60 33 61 25 62 26 63 32 64 34 65 27 66 28 67 29 68
REMARK SMILES IDX 30 69 31 70 57 71 58 72 67 73 59 74 60 75 66 76 68 77 61 78
REMARK SMILES IDX 62 79 63 80 64 81 65 82 41 83 42 84 51 85 43 86 44 87 50 88
REMARK SMILES IDX 52 89 45 90 46 91 47 92 48 93 49 94
REMARK H PARENT 87 20 87 21 87 22 73 44 39 55
REMARK Flexibility Score: inf
ROOT
ATOM      1  C   UNL     1      -1.108   0.421   1.535  1.00  0.00     0.274 C 
ENDROOT
BRANCH   1   2
ATOM      2  O   UNL     1      -0.259   0.967   0.504  1.00  0.00    -0.461 OA
BRANCH   2   3
ATOM      3  C   UNL     1       0.044   2.288   0.650  1.00  0.00     0.329 C 
ATOM      4  O   UNL     1      -0.426   2.983   1.542  1.00  0.00    -0.250 OA
BRANCH   3   5
ATOM      5  C   UNL     1       0.967   2.837  -0.460  1.00  0.00     0.197 C 
ATOM      6  C   UNL     1       0.832   1.362  -2.376  1.00  0.00     0.140 C 
ATOM      7  C   UNL     1       1.759   1.791  -1.234  1.00  0.00     0.071 C 
ATOM      8  C   UNL     1      -0.103   2.567  -2.575  1.00  0.00     0.152 C 
ATOM      9  N   UNL     1       0.208   3.513  -1.509  1.00  0.00    -0.326 N 
BRANCH   6  10
ATOM     10  O   UNL     1       1.524   1.092  -3.598  1.00  0.00    -0.380 OA
ATOM     11  C   UNL     1       2.565   0.132  -3.483  1.00  0.00     0.195 C 
ENDBRANCH   6  10
BRANCH   9  12
ATOM     12  C   UNL     1      -0.198   4.822  -1.624  1.00  0.00     0.230 C 
ATOM     13  O   UNL     1      -0.957   5.144  -2.548  1.00  0.00    -0.274 OA
BRANCH  12  14
ATOM     14  C   UNL     1       0.317   5.930  -0.690  1.00  0.00     0.107 C 
ATOM     15  C   UNL     1       0.120   5.729   0.777  1.00  0.00    -0.012 C 
ATOM     16  C   UNL     1       1.822   6.200  -0.802  1.00  0.00     0.087 C 
ATOM     17  C   UNL     1       1.192   6.121   1.477  1.00  0.00     0.033 C 
ATOM     18  C   UNL     1       2.244   6.696   0.590  1.00  0.00     0.205 C 
BRANCH  18  19
ATOM     19  N   UNL     1       3.577   6.247   0.927  1.00  0.00    -0.352 N 
ATOM     20  H   UNL     1       3.616   5.229   0.876  1.00  0.00     0.345 HD
ATOM     21  H   UNL     1       3.808   6.549   1.873  1.00  0.00     0.345 HD
ATOM     22  H   UNL     1       4.247   6.646   0.269  1.00  0.00     0.345 HD
ENDBRANCH  18  19
ENDBRANCH  12  14
ENDBRANCH   9  12
ENDBRANCH   3   5
ENDBRANCH   2   3
ENDBRANCH   1   2
BRANCH   1  23
ATOM     23  C   UNL     1      -0.305  -0.300   2.625  1.00  0.00     0.275 C 
BRANCH  23  24
ATOM     24  O   UNL     1       0.610   0.579   3.308  1.00  0.00    -0.458 OA
BRANCH  24  25
ATOM     25  C   UNL     1       1.838   0.662   2.746  1.00  0.00     0.338 C 
ATOM     26  O   UNL     1       2.223   0.045   1.759  1.00  0.00    -0.246 OA
BRANCH  25  27
ATOM     27  C   UNL     1       2.647   1.727   3.369  1.00  0.00     0.060 A 
ATOM     28  C   UNL     1       3.436   2.510   2.518  1.00  0.00     0.016 A 
ATOM     29  C   UNL     1       2.702   1.921   4.753  1.00  0.00     0.016 A 
ATOM     30  C   UNL     1       4.281   3.482   3.045  1.00  0.00     0.010 A 
ATOM     31  C   UNL     1       3.564   2.893   5.282  1.00  0.00     0.010 A 
ATOM     32  C   UNL     1       4.361   3.672   4.429  1.00  0.00    -0.014 A 
BRANCH  32  33
ATOM     33  C   UNL     1       5.368   4.626   4.948  1.00  0.00     0.031 A 
ATOM     34  C   UNL     1       6.789   4.168   5.116  1.00  0.00     0.074 A 
ATOM     35  C   UNL     1       5.039   5.912   5.165  1.00  0.00     0.049 A 
ATOM     36  N   UNL     1       7.839   4.852   5.487  1.00  0.00    -0.248 NA
ATOM     37  C   UNL     1       7.064   2.757   4.803  1.00  0.00     0.031 C 
ATOM     38  C   UNL     1       3.712   6.490   4.961  1.00  0.00     0.029 A 
ATOM     39  N   UNL     1       5.804   6.968   5.592  1.00  0.00    -0.354 N 
ATOM     40  C   UNL     1       8.904   3.962   5.437  1.00  0.00     0.074 A 
ATOM     41  C   UNL     1       8.370   2.685   5.013  1.00  0.00     0.031 C 
ATOM     42  C   UNL     1       3.755   7.799   5.265  1.00  0.00     0.029 A 
ATOM     43  C   UNL     1       5.103   8.144   5.715  1.00  0.00     0.049 A 
ATOM     44  H   UNL     1       6.765   6.891   5.792  1.00  0.00     0.167 HD
ATOM     45  C   UNL     1      10.208   4.187   5.724  1.00  0.00     0.037 A 
ATOM     46  C   UNL     1       5.502   9.353   6.160  1.00  0.00     0.037 A 
ATOM     47  C   UNL     1      10.729   5.443   6.194  1.00  0.00     0.049 A 
ATOM     48  C   UNL     1       6.937   9.548   6.582  1.00  0.00     0.074 A 
ATOM     49  C   UNL     1      12.025   5.753   6.566  1.00  0.00     0.029 A 
ATOM     50  N   UNL     1       9.976   6.594   6.372  1.00  0.00    -0.354 N 
ATOM     51  N   UNL     1       7.934   8.695   6.539  1.00  0.00    -0.248 NA
ATOM     52  C   UNL     1       7.301  10.867   7.120  1.00  0.00     0.031 C 
ATOM     53  C   UNL     1      12.046   7.079   7.013  1.00  0.00     0.029 A 
ATOM     54  C   UNL     1      10.774   7.610   6.872  1.00  0.00     0.049 A 
ATOM     55  H   UNL     1       9.015   6.677   6.173  1.00  0.00     0.167 HD
ATOM     56  C   UNL     1       9.046   9.383   7.016  1.00  0.00     0.074 A 
ATOM     57  C   UNL     1       8.602  10.724   7.335  1.00  0.00     0.031 C 
ATOM     58  C   UNL     1      10.320   8.945   7.174  1.00  0.00     0.037 A 
BRANCH  45  59
ATOM     59  C   UNL     1      11.147   3.024   5.590  1.00  0.00     0.058 A 
ATOM     60  C   UNL     1      11.568   2.558   4.335  1.00  0.00     0.135 A 
ATOM     61  C   UNL     1      11.628   2.366   6.732  1.00  0.00     0.135 A 
ATOM     62  F   UNL     1      11.117   3.139   3.211  1.00  0.00    -0.206 F 
ATOM     63  C   UNL     1      12.414   1.460   4.216  1.00  0.00     0.059 A 
ATOM     64  C   UNL     1      12.491   1.279   6.638  1.00  0.00     0.059 A 
ATOM     65  F   UNL     1      11.249   2.769   7.954  1.00  0.00    -0.206 F 
ATOM     66  C   UNL     1      12.864   0.823   5.374  1.00  0.00     0.060 A 
BRANCH  66  67
ATOM     67  S   UNL     1      13.938  -0.618   5.207  1.00  0.00     0.124 S 
ATOM     68  O   UNL     1      12.990  -1.635   4.760  1.00  0.00    -0.237 OA
ATOM     69  O   UNL     1      14.907  -0.174   4.210  1.00  0.00    -0.237 OA
ATOM     70  O   UNL     1      14.469  -0.805   6.553  1.00  0.00    -0.744 OA
ENDBRANCH  66  67
ENDBRANCH  45  59
BRANCH  46  71
ATOM     71  C   UNL     1       4.527  10.472   6.265  1.00  0.00     0.058 A 
ATOM     72  C   UNL     1       4.626  11.607   5.447  1.00  0.00     0.135 A 
ATOM     73  C   UNL     1       3.491  10.439   7.212  1.00  0.00     0.135 A 
ATOM     74  F   UNL     1       5.607  11.692   4.536  1.00  0.00    -0.206 F 
ATOM     75  C   UNL     1       3.747  12.678   5.576  1.00  0.00     0.059 A 
ATOM     76  C   UNL     1       2.584  11.486   7.343  1.00  0.00     0.059 A 
ATOM     77  F   UNL     1       3.347   9.373   8.016  1.00  0.00    -0.206 F 
ATOM     78  C   UNL     1       2.729  12.608   6.530  1.00  0.00     0.060 A 
BRANCH  78  79
ATOM     79  S   UNL     1       1.576  13.990   6.677  1.00  0.00     0.124 S 
ATOM     80  O   UNL     1       2.393  14.981   7.367  1.00  0.00    -0.237 OA
ATOM     81  O   UNL     1       1.262  14.280   5.281  1.00  0.00    -0.237 OA
ATOM     82  O   UNL     1       0.476  13.425   7.454  1.00  0.00    -0.744 OA
ENDBRANCH  78  79
ENDBRANCH  46  71
BRANCH  58  83
ATOM     83  C   UNL     1      11.339   9.928   7.680  1.00  0.00     0.058 A 
ATOM     84  C   UNL     1      11.373  10.333   9.023  1.00  0.00     0.135 A 
ATOM     85  C   UNL     1      12.336  10.421   6.822  1.00  0.00     0.135 A 
ATOM     86  F   UNL     1      10.441   9.895   9.884  1.00  0.00    -0.206 F 
ATOM     87  C   UNL     1      12.348  11.206   9.495  1.00  0.00     0.059 A 
ATOM     88  C   UNL     1      13.335  11.275   7.277  1.00  0.00     0.059 A 
ATOM     89  F   UNL     1      12.356  10.056   5.530  1.00  0.00    -0.206 F 
ATOM     90  C   UNL     1      13.328  11.670   8.614  1.00  0.00     0.060 A 
BRANCH  90  91
ATOM     91  S   UNL     1      14.616  12.767   9.246  1.00  0.00     0.124 S 
ATOM     92  O   UNL     1      13.897  14.031   9.359  1.00  0.00    -0.237 OA
ATOM     93  O   UNL     1      14.980  12.130  10.508  1.00  0.00    -0.237 OA
ATOM     94  O   UNL     1      15.642  12.718   8.209  1.00  0.00    -0.744 OA
ENDBRANCH  90  91
ENDBRANCH  58  83
ENDBRANCH  32  33
ENDBRANCH  25  27
ENDBRANCH  24  25
ENDBRANCH  23  24
ENDBRANCH   1  23
TORSDOF 18
