REMARK SMILES O=C(C[C@H]1C(=O)O[C@H]2[C@@H]3OC(=O)c4cc(O)c(O)c(O)c4-c4ccccc4C(=O)OC[C@H]2O[C@@H](OC(=O)c2cc(O)c(O)c(O)c2)[C@@H]3OC(=O)c2cc(O)c(O)c3c2[C@@H]1[C@H](O)C(=O)O3)OCCOC(=O)c1ccc(-c2c3nc(c(-c4c(F)cc(S(=O)(=O)[O-])cc4F)c4ccc([nH]4)c(-c4c(F)cc(S(=O)(=O)[O-])cc4F)c4nc(c(-c5c(F)cc(S(=O)(=O)[O-])cc5F)c5ccc2[nH]5)C=C4)C=C3)cc1
REMARK SMILES IDX 4 1 3 3 2 4 1 5 65 6 66 7 67 8 68 9 69 10 70 11 71 12 72 13
REMARK SMILES IDX 136 14 73 15 135 16 74 17 75 18 76 19 129 20 77 21 134 22
REMARK SMILES IDX 128 23 130 24 78 25 133 26 127 27 126 28 79 30 113 31 92 32
REMARK SMILES IDX 112 33 93 34 96 35 111 36 131 37 94 38 95 39 110 41 132 42
REMARK SMILES IDX 97 43 80 44 81 45 90 46 82 47 83 48 89 49 91 50 84 51 85 52
REMARK SMILES IDX 86 53 87 54 88 55 114 56 115 57 124 58 116 59 117 60 123 61
REMARK SMILES IDX 125 62 118 63 119 64 120 65 121 66 122 67 98 68 99 69 108 70
REMARK SMILES IDX 100 71 101 72 107 73 109 74 102 75 103 76 104 77 105 78
REMARK SMILES IDX 106 79 59 80 58 81 60 82 51 83 57 84 62 85 52 86 55 87 64 88
REMARK SMILES IDX 63 89 53 90 61 91 49 93 50 94 48 95 47 96 9 97 34 98 8 99
REMARK SMILES IDX 33 100 32 101 10 103 11 104 12 105 13 106 14 107 21 108
REMARK SMILES IDX 15 109 19 110 17 111 22 112 23 113 27 114 24 115 26 116
REMARK SMILES IDX 25 117 28 118 29 119 30 120 31 121 16 123 20 125 18 127
REMARK SMILES IDX 35 129 36 130 37 131 38 132 39 133 46 134 40 135 44 136
REMARK SMILES IDX 42 137 41 138 45 140 43 142 7 144 5 145 6 146 56 148 54 150
REMARK H PARENT 130 29 96 40 61 92 16 124 20 126 18 128 41 139 45 141 43 143
REMARK H PARENT 56 149 54 151
REMARK Flexibility Score: 170.00
ROOT
ATOM      1  C   UNL     1       4.769  -1.870   0.128  1.00  0.00     0.121 CG0
ATOM      2  G   UNL     1       6.533  -2.180   1.302  1.00  0.00     0.000 G0
ENDROOT
BRANCH   1   3
ATOM      3  C   UNL     1       3.697  -0.318   0.330  1.00  0.00     0.138 C 
BRANCH   3   4
ATOM      4  C   UNL     1       2.290   0.325  -0.002  1.00  0.00     0.306 C 
ATOM      5  O   UNL     1       1.232   0.070   0.572  1.00  0.00    -0.252 OA
BRANCH   4   6
ATOM      6  O   UNL     1       2.340   1.416  -0.774  1.00  0.00    -0.462 OA
BRANCH   6   7
ATOM      7  C   UNL     1       3.041   2.483  -0.151  1.00  0.00     0.274 C 
BRANCH   7   8
ATOM      8  C   UNL     1       2.895   2.770   1.376  1.00  0.00     0.275 C 
BRANCH   8   9
ATOM      9  O   UNL     1       3.146   1.634   2.262  1.00  0.00    -0.458 OA
BRANCH   9  10
ATOM     10  C   UNL     1       2.716   1.692   3.565  1.00  0.00     0.338 C 
ATOM     11  O   UNL     1       2.253   2.692   4.085  1.00  0.00    -0.246 OA
BRANCH  10  12
ATOM     12  C   UNL     1       2.812   0.347   4.272  1.00  0.00     0.060 A 
ATOM     13  C   UNL     1       3.567   0.059   5.413  1.00  0.00     0.016 A 
ATOM     14  C   UNL     1       2.031  -0.697   3.822  1.00  0.00     0.016 A 
ATOM     15  C   UNL     1       3.523  -1.249   6.056  1.00  0.00     0.010 A 
ATOM     16  C   UNL     1       2.024  -1.975   4.465  1.00  0.00     0.010 A 
ATOM     17  C   UNL     1       2.708  -2.327   5.615  1.00  0.00    -0.014 A 
BRANCH  17  18
ATOM     18  C   UNL     1       2.353  -3.630   6.420  1.00  0.00     0.031 A 
ATOM     19  C   UNL     1       2.160  -5.137   5.976  1.00  0.00     0.074 A 
ATOM     20  C   UNL     1       1.861  -3.429   7.654  1.00  0.00     0.049 A 
ATOM     21  N   UNL     1       1.800  -6.248   6.611  1.00  0.00    -0.248 NA
ATOM     22  C   UNL     1       2.312  -5.407   4.570  1.00  0.00     0.031 C 
ATOM     23  C   UNL     1       1.625  -2.127   8.263  1.00  0.00     0.029 A 
ATOM     24  N   UNL     1       1.467  -4.331   8.610  1.00  0.00    -0.354 N 
ATOM     25  C   UNL     1       1.667  -7.289   5.647  1.00  0.00     0.074 A 
ATOM     26  C   UNL     1       1.946  -6.673   4.396  1.00  0.00     0.031 C 
ATOM     27  C   UNL     1       1.250  -2.308   9.531  1.00  0.00     0.029 A 
ATOM     28  C   UNL     1       1.172  -3.740   9.808  1.00  0.00     0.049 A 
ATOM     29  H   UNL     1       1.403  -5.300   8.451  1.00  0.00     0.167 HD
ATOM     30  C   UNL     1       1.367  -8.622   5.734  1.00  0.00     0.037 A 
ATOM     31  C   UNL     1       0.916  -4.275  11.013  1.00  0.00     0.037 A 
ATOM     32  C   UNL     1       1.234  -9.295   6.987  1.00  0.00     0.049 A 
ATOM     33  C   UNL     1       0.907  -5.760  11.212  1.00  0.00     0.074 A 
ATOM     34  C   UNL     1       1.205 -10.653   7.252  1.00  0.00     0.029 A 
ATOM     35  N   UNL     1       1.154  -8.635   8.190  1.00  0.00    -0.354 N 
ATOM     36  N   UNL     1       1.014  -6.718  10.324  1.00  0.00    -0.248 NA
ATOM     37  C   UNL     1       0.753  -6.233  12.593  1.00  0.00     0.031 C 
ATOM     38  C   UNL     1       1.113 -10.812   8.637  1.00  0.00     0.029 A 
ATOM     39  C   UNL     1       1.079  -9.552   9.212  1.00  0.00     0.049 A 
ATOM     40  H   UNL     1       1.150  -7.657   8.303  1.00  0.00     0.167 HD
ATOM     41  C   UNL     1       0.951  -7.907  11.046  1.00  0.00     0.074 A 
ATOM     42  C   UNL     1       0.821  -7.549  12.439  1.00  0.00     0.031 C 
ATOM     43  C   UNL     1       0.979  -9.184  10.592  1.00  0.00     0.037 A 
BRANCH  30  44
ATOM     44  C   UNL     1       1.320  -9.537   4.502  1.00  0.00     0.058 A 
ATOM     45  C   UNL     1       2.511 -10.084   4.003  1.00  0.00     0.135 A 
ATOM     46  C   UNL     1       0.130 -10.043   3.940  1.00  0.00     0.135 A 
ATOM     47  F   UNL     1       3.678  -9.767   4.584  1.00  0.00    -0.206 F 
ATOM     48  C   UNL     1       2.545 -10.970   2.923  1.00  0.00     0.059 A 
ATOM     49  C   UNL     1       0.134 -10.959   2.871  1.00  0.00     0.059 A 
ATOM     50  F   UNL     1      -1.060  -9.680   4.444  1.00  0.00    -0.206 F 
ATOM     51  C   UNL     1       1.352 -11.378   2.335  1.00  0.00     0.060 A 
BRANCH  51  52
ATOM     52  S   UNL     1       1.420 -12.460   0.882  1.00  0.00     0.124 S 
ATOM     53  O   UNL     1       1.541 -11.481  -0.194  1.00  0.00    -0.237 OA
ATOM     54  O   UNL     1       2.612 -13.266   1.129  1.00  0.00    -0.237 OA
ATOM     55  O   UNL     1       0.156 -13.186   0.942  1.00  0.00    -0.744 OA
ENDBRANCH  51  52
ENDBRANCH  30  44
BRANCH  31  56
ATOM     56  C   UNL     1       0.831  -3.332  12.151  1.00  0.00     0.058 A 
ATOM     57  C   UNL     1       1.945  -3.161  12.985  1.00  0.00     0.135 A 
ATOM     58  C   UNL     1      -0.258  -2.461  12.301  1.00  0.00     0.135 A 
ATOM     59  F   UNL     1       3.013  -3.963  12.853  1.00  0.00    -0.206 F 
ATOM     60  C   UNL     1       1.988  -2.147  13.929  1.00  0.00     0.059 A 
ATOM     61  C   UNL     1      -0.224  -1.419  13.218  1.00  0.00     0.059 A 
ATOM     62  F   UNL     1      -1.314  -2.556  11.478  1.00  0.00    -0.206 F 
ATOM     63  C   UNL     1       0.905  -1.271  14.026  1.00  0.00     0.060 A 
BRANCH  63  64
ATOM     64  S   UNL     1       1.028   0.110  15.178  1.00  0.00     0.124 S 
ATOM     65  O   UNL     1       0.943  -0.575  16.462  1.00  0.00    -0.237 OA
ATOM     66  O   UNL     1       2.330   0.674  14.838  1.00  0.00    -0.237 OA
ATOM     67  O   UNL     1      -0.119   0.942  14.827  1.00  0.00    -0.744 OA
ENDBRANCH  63  64
ENDBRANCH  31  56
BRANCH  43  68
ATOM     68  C   UNL     1       0.852 -10.298  11.577  1.00  0.00     0.058 A 
ATOM     69  C   UNL     1      -0.392 -10.607  12.143  1.00  0.00     0.135 A 
ATOM     70  C   UNL     1       1.938 -11.143  11.847  1.00  0.00     0.135 A 
ATOM     71  F   UNL     1      -1.459  -9.830  11.898  1.00  0.00    -0.206 F 
ATOM     72  C   UNL     1      -0.554 -11.716  12.959  1.00  0.00     0.059 A 
ATOM     73  C   UNL     1       1.794 -12.273  12.641  1.00  0.00     0.059 A 
ATOM     74  F   UNL     1       3.140 -10.899  11.299  1.00  0.00    -0.206 F 
ATOM     75  C   UNL     1       0.544 -12.547  13.196  1.00  0.00     0.060 A 
BRANCH  75  76
ATOM     76  S   UNL     1       0.296 -14.015  14.213  1.00  0.00     0.124 S 
ATOM     77  O   UNL     1       0.100 -13.426  15.533  1.00  0.00    -0.237 OA
ATOM     78  O   UNL     1      -0.887 -14.616  13.604  1.00  0.00    -0.237 OA
ATOM     79  O   UNL     1       1.536 -14.765  14.037  1.00  0.00    -0.744 OA
ENDBRANCH  75  76
ENDBRANCH  43  68
ENDBRANCH  17  18
ENDBRANCH  10  12
ENDBRANCH   9  10
ENDBRANCH   8   9
ENDBRANCH   7   8
ENDBRANCH   6   7
ENDBRANCH   4   6
ENDBRANCH   3   4
ENDBRANCH   1   3
BRANCH   1  80
ATOM     80  C   UNL     1       3.769  -3.565   0.253  1.00  0.00     0.079 C 
ATOM     81  C   UNL     1       4.067  -4.710   1.901  1.00  0.00     0.021 A 
ATOM     82  C   UNL     1       3.757  -4.420  -1.516  1.00  0.00     0.232 C 
ATOM     83  C   UNL     1       4.790  -4.332   3.259  1.00  0.00     0.071 A 
ATOM     84  C   UNL     1       4.002  -6.389   1.669  1.00  0.00     0.180 A 
ATOM     85  C   UNL     1       3.482  -6.323  -1.500  1.00  0.00     0.341 C 
ATOM     86  C   UNL     1       5.185  -5.476   4.042  1.00  0.00     0.066 A 
ATOM     87  C   UNL     1       4.451  -7.360   2.513  1.00  0.00     0.201 A 
ATOM     88  O   UNL     1       3.794  -7.033   0.030  1.00  0.00    -0.420 OA
ATOM     89  O   UNL     1       3.302  -7.019  -2.491  1.00  0.00    -0.249 OA
ATOM     90  C   UNL     1       5.000  -6.872   3.697  1.00  0.00     0.162 A 
BRANCH  82  91
ATOM     91  O   UNL     1       3.165  -3.635  -2.522  1.00  0.00    -0.381 OA
ATOM     92  H   UNL     1       2.217  -3.535  -2.339  1.00  0.00     0.211 HD
ENDBRANCH  82  91
BRANCH  83  93
ATOM     93  C   UNL     1       5.527  -2.886   3.997  1.00  0.00     0.339 C 
ATOM     94  O   UNL     1       5.907  -3.025   5.162  1.00  0.00    -0.246 OA
BRANCH  93  95
ATOM     95  O   UNL     1       5.821  -1.550   3.413  1.00  0.00    -0.448 OA
BRANCH  95  96
ATOM     96  C   UNL     1       5.310  -0.728   2.016  1.00  0.00     0.290 C 
ATOM     97  C   UNL     1       4.204  -2.156   1.947  1.00  0.00     0.267 C 
ATOM     98  C   UNL     1       6.389  -0.452   0.294  1.00  0.00     0.357 C 
ATOM     99  C   UNL     1       5.629  -3.436   1.308  1.00  0.00     0.254 C 
ATOM    100  O   UNL     1       6.673  -2.047  -0.704  1.00  0.00    -0.329 OA
ATOM    101  C   UNL     1       6.381  -3.767  -0.071  1.00  0.00     0.205 CG1
ATOM    102  G   UNL     1       5.133  -5.257  -0.090  1.00  0.00     0.000 G1
BRANCH  97 103
ATOM    103  O   UNL     1       2.506  -2.099   1.225  1.00  0.00    -0.450 OA
BRANCH 103 104
ATOM    104  C   UNL     1       1.752  -2.156  -0.251  1.00  0.00     0.339 C 
ATOM    105  O   UNL     1       2.352  -1.725  -1.239  1.00  0.00    -0.246 OA
BRANCH 104 106
ATOM    106  C   UNL     1       0.504  -3.102  -0.585  1.00  0.00     0.075 A 
ATOM    107  C   UNL     1       0.391  -4.029  -1.647  1.00  0.00     0.066 A 
ATOM    108  C   UNL     1      -0.461  -3.284   0.370  1.00  0.00     0.043 A 
ATOM    109  C   UNL     1      -0.591  -5.063  -1.658  1.00  0.00     0.162 A 
ATOM    110  C   UNL     1      -1.580  -4.186   0.276  1.00  0.00     0.170 A 
ATOM    111  C   UNL     1      -1.593  -5.125  -0.716  1.00  0.00     0.200 A 
BRANCH 108 112
ATOM    112  C   UNL     1       0.052  -3.079   1.669  1.00  0.00     0.001 A 
ATOM    113  C   UNL     1      -0.679  -2.084   2.407  1.00  0.00     0.010 A 
ATOM    114  C   UNL     1       0.763  -4.232   2.113  1.00  0.00     0.068 A 
ATOM    115  C   UNL     1      -1.017  -2.355   3.703  1.00  0.00     0.001 A 
ATOM    116  C   UNL     1       0.041  -4.579   3.285  1.00  0.00     0.016 A 
ATOM    117  C   UNL     1      -0.731  -3.650   4.117  1.00  0.00     0.001 A 
BRANCH 114 118
ATOM    118  C   UNL     1       1.716  -5.354   1.090  1.00  0.00     0.338 C 
ATOM    119  O   UNL     1       1.157  -6.455   1.013  1.00  0.00    -0.246 OA
BRANCH 118 120
ATOM    120  O   UNL     1       3.142  -5.290   0.185  1.00  0.00    -0.459 OA
BRANCH 120 121
ATOM    121  C   UNL     1       5.133  -5.257  -0.090  1.00  0.00     0.269 CG1
ATOM    122  G   UNL     1       6.381  -3.767  -0.071  1.00  0.00     0.000 G1
ENDBRANCH 120 121
ENDBRANCH 118 120
ENDBRANCH 114 118
ENDBRANCH 108 112
BRANCH 109 123
ATOM    123  O   UNL     1      -0.481  -6.104  -2.539  1.00  0.00    -0.504 OA
ATOM    124  H   UNL     1       0.190  -6.095  -3.193  1.00  0.00     0.293 HD
ENDBRANCH 109 123
BRANCH 110 125
ATOM    125  O   UNL     1      -2.517  -4.396   1.267  1.00  0.00    -0.504 OA
ATOM    126  H   UNL     1      -3.218  -5.002   1.128  1.00  0.00     0.293 HD
ENDBRANCH 110 125
BRANCH 111 127
ATOM    127  O   UNL     1      -2.451  -6.188  -0.661  1.00  0.00    -0.502 OA
ATOM    128  H   UNL     1      -2.451  -6.826  -1.348  1.00  0.00     0.293 HD
ENDBRANCH 111 127
ENDBRANCH 104 106
ENDBRANCH 103 104
ENDBRANCH  97 103
BRANCH  98 129
ATOM    129  O   UNL     1       5.995   0.751  -0.513  1.00  0.00    -0.428 OA
BRANCH 129 130
ATOM    130  C   UNL     1       6.884   1.529  -1.192  1.00  0.00     0.340 C 
ATOM    131  O   UNL     1       7.916   1.152  -1.714  1.00  0.00    -0.246 OA
BRANCH 130 132
ATOM    132  C   UNL     1       6.506   2.991  -1.103  1.00  0.00     0.067 A 
ATOM    133  C   UNL     1       5.436   3.517  -1.848  1.00  0.00     0.066 A 
ATOM    134  C   UNL     1       7.199   3.843  -0.216  1.00  0.00     0.066 A 
ATOM    135  C   UNL     1       4.959   4.803  -1.561  1.00  0.00     0.162 A 
ATOM    136  C   UNL     1       6.755   5.160  -0.018  1.00  0.00     0.162 A 
ATOM    137  C   UNL     1       5.604   5.617  -0.644  1.00  0.00     0.200 A 
BRANCH 135 138
ATOM    138  O   UNL     1       3.782   5.226  -2.115  1.00  0.00    -0.504 OA
ATOM    139  H   UNL     1       3.335   4.685  -2.736  1.00  0.00     0.293 HD
ENDBRANCH 135 138
BRANCH 136 140
ATOM    140  O   UNL     1       7.400   6.043   0.803  1.00  0.00    -0.504 OA
ATOM    141  H   UNL     1       7.069   6.913   0.907  1.00  0.00     0.293 HD
ENDBRANCH 136 140
BRANCH 137 142
ATOM    142  O   UNL     1       5.078   6.849  -0.362  1.00  0.00    -0.502 OA
ATOM    143  H   UNL     1       4.300   7.137  -0.797  1.00  0.00     0.293 HD
ENDBRANCH 137 142
ENDBRANCH 130 132
ENDBRANCH 129 130
ENDBRANCH  98 129
BRANCH  99 144
ATOM    144  O   UNL     1       6.721  -3.331   1.940  1.00  0.00    -0.455 OA
BRANCH 144 145
ATOM    145  C   UNL     1       6.533  -2.180   1.302  1.00  0.00     0.310 CG0
ATOM    146  O   UNL     1       7.543  -1.527   1.626  1.00  0.00    -0.252 OA
ATOM    147  G   UNL     1       4.769  -1.870   0.128  1.00  0.00     0.000 G0
ENDBRANCH 144 145
ENDBRANCH  99 144
ENDBRANCH  95  96
ENDBRANCH  93  95
ENDBRANCH  83  93
BRANCH  87 148
ATOM    148  O   UNL     1       4.387  -8.665   2.196  1.00  0.00    -0.502 OA
ATOM    149  H   UNL     1       4.704  -9.309   2.798  1.00  0.00     0.293 HD
ENDBRANCH  87 148
BRANCH  90 150
ATOM    150  O   UNL     1       5.366  -7.772   4.670  1.00  0.00    -0.504 OA
ATOM    151  H   UNL     1       5.737  -7.466   5.474  1.00  0.00     0.293 HD
ENDBRANCH  90 150
ENDBRANCH   1  80
TORSDOF 27
