REMARK SMILES Cc1nc(C[N@H+](C)[C@H](C)c2ccc(C(=O)OCCOC(=O)c3ccc(-c4c5nc(c(-c6c(F)cc(S(=O)(=O)[O-])cc6F)c6ccc([nH]6)c(-c6c(F)cc(S(=O)(=O)[O-])cc6F)c6nc(c(-c7c(F)cc(S(=O)(=O)[O-])cc7F)c7ccc4[nH]7)C=C6)C=C5)cc3)o2)cs1
REMARK SMILES IDX 17 1 16 2 14 3 15 4 13 5 10 6 11 7 88 8 12 9 8 10 9 11 6 12
REMARK SMILES IDX 7 13 5 15 4 16 1 17 2 18 3 19 90 20 89 21 18 22 19 23 20 24
REMARK SMILES IDX 21 25 22 26 23 27 87 28 24 29 86 30 25 31 26 32 27 33 80 34
REMARK SMILES IDX 28 35 85 36 79 37 81 38 29 39 84 40 78 41 77 42 30 44 64 45
REMARK SMILES IDX 43 46 63 47 44 48 47 49 62 50 82 51 45 52 46 53 61 55 83 56
REMARK SMILES IDX 48 57 31 58 32 59 41 60 33 61 34 62 40 63 42 64 35 65 36 66
REMARK SMILES IDX 37 67 38 68 39 69 65 70 66 71 75 72 67 73 68 74 74 75 76 76
REMARK SMILES IDX 69 77 70 78 71 79 72 80 73 81 49 82 50 83 59 84 51 85 52 86
REMARK SMILES IDX 58 87 60 88 53 89 54 90 55 91 56 92 57 93
REMARK H PARENT 6 14 81 43 47 54
REMARK Flexibility Score: inf
ROOT
ATOM      1  C   UNL     1      -0.736   4.243  -2.583  1.00  0.00     0.275 C 
ENDROOT
BRANCH   1   2
ATOM      2  O   UNL     1      -0.839   2.811  -2.714  1.00  0.00    -0.456 OA
BRANCH   2   3
ATOM      3  C   UNL     1       0.224   2.196  -3.317  1.00  0.00     0.374 C 
ATOM      4  O   UNL     1       1.205   2.786  -3.749  1.00  0.00    -0.242 OA
BRANCH   3   5
ATOM      5  C   UNL     1       0.033   0.764  -3.335  1.00  0.00     0.212 A 
ATOM      6  C   UNL     1       0.676  -1.337  -3.030  1.00  0.00     0.162 A 
ATOM      7  C   UNL     1      -0.625  -1.373  -3.498  1.00  0.00     0.053 A 
ATOM      8  O   UNL     1       1.100  -0.041  -3.024  1.00  0.00    -0.448 OA
ATOM      9  C   UNL     1      -1.059  -0.030  -3.620  1.00  0.00     0.059 A 
BRANCH   6  10
ATOM     10  C   UNL     1       1.660  -2.413  -2.617  1.00  0.00     0.248 C 
ATOM     11  C   UNL     1       2.699  -1.977  -1.572  1.00  0.00     0.084 C 
BRANCH  10  12
ATOM     12  N   UNL     1       0.971  -3.688  -2.285  1.00  0.00    -0.324 N 
ATOM     13  C   UNL     1       1.891  -4.818  -2.475  1.00  0.00     0.333 C 
ATOM     14  H   UNL     1       0.182  -3.705  -2.931  1.00  0.00     0.348 HD
BRANCH  12  15
ATOM     15  C   UNL     1       0.366  -3.796  -0.933  1.00  0.00     0.320 C 
BRANCH  15  16
ATOM     16  C   UNL     1      -0.617  -2.708  -0.576  1.00  0.00     0.106 A 
ATOM     17  C   UNL     1      -4.023  -1.453  -1.015  1.00  0.00     0.079 C 
ATOM     18  C   UNL     1      -2.614  -1.733  -0.635  1.00  0.00     0.090 A 
ATOM     19  N   UNL     1      -1.947  -2.813  -0.988  1.00  0.00    -0.241 NA
ATOM     20  S   UNL     1      -1.736  -0.582   0.286  1.00  0.00    -0.127 S 
ATOM     21  C   UNL     1      -0.350  -1.575   0.175  1.00  0.00     0.096 A 
ENDBRANCH  15  16
ENDBRANCH  12  15
ENDBRANCH  10  12
ENDBRANCH   6  10
ENDBRANCH   3   5
ENDBRANCH   2   3
ENDBRANCH   1   2
BRANCH   1  22
ATOM     22  C   UNL     1      -0.110   4.694  -1.256  1.00  0.00     0.275 C 
BRANCH  22  23
ATOM     23  O   UNL     1       1.296   4.398  -1.182  1.00  0.00    -0.458 OA
BRANCH  23  24
ATOM     24  C   UNL     1       1.601   3.247  -0.537  1.00  0.00     0.338 C 
ATOM     25  O   UNL     1       0.819   2.483   0.005  1.00  0.00    -0.246 OA
BRANCH  24  26
ATOM     26  C   UNL     1       3.028   2.933  -0.706  1.00  0.00     0.060 A 
ATOM     27  C   UNL     1       3.337   1.829  -1.492  1.00  0.00     0.016 A 
ATOM     28  C   UNL     1       4.040   3.615  -0.035  1.00  0.00     0.016 A 
ATOM     29  C   UNL     1       4.639   1.363  -1.591  1.00  0.00     0.010 A 
ATOM     30  C   UNL     1       5.364   3.164  -0.156  1.00  0.00     0.010 A 
ATOM     31  C   UNL     1       5.669   2.021  -0.920  1.00  0.00    -0.014 A 
BRANCH  31  32
ATOM     32  C   UNL     1       7.040   1.457  -0.994  1.00  0.00     0.031 A 
ATOM     33  C   UNL     1       7.678   0.875   0.236  1.00  0.00     0.074 A 
ATOM     34  C   UNL     1       7.679   1.405  -2.179  1.00  0.00     0.049 A 
ATOM     35  N   UNL     1       8.888   0.409   0.398  1.00  0.00    -0.248 NA
ATOM     36  C   UNL     1       6.842   0.811   1.446  1.00  0.00     0.031 C 
ATOM     37  C   UNL     1       7.129   1.870  -3.455  1.00  0.00     0.029 A 
ATOM     38  N   UNL     1       8.926   0.937  -2.507  1.00  0.00    -0.354 N 
ATOM     39  C   UNL     1       8.973   0.027   1.732  1.00  0.00     0.074 A 
ATOM     40  C   UNL     1       7.696   0.334   2.340  1.00  0.00     0.031 C 
ATOM     41  C   UNL     1       8.030   1.657  -4.426  1.00  0.00     0.029 A 
ATOM     42  C   UNL     1       9.245   1.109  -3.833  1.00  0.00     0.049 A 
ATOM     43  H   UNL     1       9.533   0.517  -1.856  1.00  0.00     0.167 HD
ATOM     44  C   UNL     1      10.022  -0.531   2.384  1.00  0.00     0.037 A 
ATOM     45  C   UNL     1      10.400   0.892  -4.491  1.00  0.00     0.037 A 
ATOM     46  C   UNL     1      11.282  -0.842   1.757  1.00  0.00     0.049 A 
ATOM     47  C   UNL     1      11.575   0.344  -3.730  1.00  0.00     0.074 A 
ATOM     48  C   UNL     1      12.409  -1.408   2.325  1.00  0.00     0.029 A 
ATOM     49  N   UNL     1      11.582  -0.612   0.421  1.00  0.00    -0.354 N 
ATOM     50  N   UNL     1      11.653   0.010  -2.463  1.00  0.00    -0.248 NA
ATOM     51  C   UNL     1      12.821   0.147  -4.482  1.00  0.00     0.031 C 
ATOM     52  C   UNL     1      13.409  -1.467   1.348  1.00  0.00     0.029 A 
ATOM     53  C   UNL     1      12.885  -1.000   0.153  1.00  0.00     0.049 A 
ATOM     54  H   UNL     1      10.960  -0.229  -0.239  1.00  0.00     0.167 HD
ATOM     55  C   UNL     1      12.947  -0.459  -2.271  1.00  0.00     0.074 A 
ATOM     56  C   UNL     1      13.612  -0.378  -3.557  1.00  0.00     0.031 C 
ATOM     57  C   UNL     1      13.531  -0.916  -1.135  1.00  0.00     0.037 A 
BRANCH  44  58
ATOM     58  C   UNL     1       9.866  -0.795   3.859  1.00  0.00     0.058 A 
ATOM     59  C   UNL     1       9.008  -1.791   4.354  1.00  0.00     0.135 A 
ATOM     60  C   UNL     1      10.601  -0.046   4.793  1.00  0.00     0.135 A 
ATOM     61  F   UNL     1       8.268  -2.527   3.510  1.00  0.00    -0.206 F 
ATOM     62  C   UNL     1       8.858  -2.010   5.720  1.00  0.00     0.059 A 
ATOM     63  C   UNL     1      10.490  -0.269   6.163  1.00  0.00     0.059 A 
ATOM     64  F   UNL     1      11.436   0.920   4.379  1.00  0.00    -0.206 F 
ATOM     65  C   UNL     1       9.602  -1.241   6.617  1.00  0.00     0.060 A 
BRANCH  65  66
ATOM     66  S   UNL     1       9.386  -1.529   8.386  1.00  0.00     0.124 S 
ATOM     67  O   UNL     1       8.050  -0.984   8.609  1.00  0.00    -0.237 OA
ATOM     68  O   UNL     1       9.501  -2.981   8.482  1.00  0.00    -0.237 OA
ATOM     69  O   UNL     1      10.479  -0.775   8.992  1.00  0.00    -0.744 OA
ENDBRANCH  65  66
ENDBRANCH  44  58
BRANCH  45  70
ATOM     70  C   UNL     1      10.503   1.232  -5.936  1.00  0.00     0.058 A 
ATOM     71  C   UNL     1      10.650   0.235  -6.911  1.00  0.00     0.135 A 
ATOM     72  C   UNL     1      10.430   2.565  -6.374  1.00  0.00     0.135 A 
ATOM     73  F   UNL     1      10.736  -1.053  -6.545  1.00  0.00    -0.206 F 
ATOM     74  C   UNL     1      10.728   0.545  -8.265  1.00  0.00     0.059 A 
ATOM     75  C   UNL     1      10.474   2.898  -7.723  1.00  0.00     0.059 A 
ATOM     76  F   UNL     1      10.279   3.558  -5.483  1.00  0.00    -0.206 F 
ATOM     77  C   UNL     1      10.632   1.881  -8.662  1.00  0.00     0.060 A 
BRANCH  77  78
ATOM     78  S   UNL     1      10.680   2.267 -10.425  1.00  0.00     0.124 S 
ATOM     79  O   UNL     1      12.077   2.001 -10.747  1.00  0.00    -0.237 OA
ATOM     80  O   UNL     1       9.709   1.323 -10.970  1.00  0.00    -0.237 OA
ATOM     81  O   UNL     1      10.276   3.669 -10.475  1.00  0.00    -0.744 OA
ENDBRANCH  77  78
ENDBRANCH  45  70
BRANCH  57  82
ATOM     82  C   UNL     1      14.951  -1.404  -1.237  1.00  0.00     0.058 A 
ATOM     83  C   UNL     1      16.027  -0.524  -1.427  1.00  0.00     0.135 A 
ATOM     84  C   UNL     1      15.241  -2.771  -1.093  1.00  0.00     0.135 A 
ATOM     85  F   UNL     1      15.806   0.792  -1.579  1.00  0.00    -0.206 F 
ATOM     86  C   UNL     1      17.339  -0.983  -1.494  1.00  0.00     0.059 A 
ATOM     87  C   UNL     1      16.547  -3.249  -1.124  1.00  0.00     0.059 A 
ATOM     88  F   UNL     1      14.250  -3.656  -0.900  1.00  0.00    -0.206 F 
ATOM     89  C   UNL     1      17.589  -2.348  -1.337  1.00  0.00     0.060 A 
BRANCH  89  90
ATOM     90  S   UNL     1      19.298  -2.926  -1.390  1.00  0.00     0.124 S 
ATOM     91  O   UNL     1      19.614  -2.782  -2.807  1.00  0.00    -0.237 OA
ATOM     92  O   UNL     1      19.970  -1.992  -0.492  1.00  0.00    -0.237 OA
ATOM     93  O   UNL     1      19.208  -4.300  -0.903  1.00  0.00    -0.744 OA
ENDBRANCH  89  90
ENDBRANCH  57  82
ENDBRANCH  31  32
ENDBRANCH  24  26
ENDBRANCH  23  24
ENDBRANCH  22  23
ENDBRANCH   1  22
TORSDOF 18
