REMARK SMILES Cn1c(=O)[nH]c(=O)c2c1nc(NC1CCCC1)n2CC(=O)OCCOC(=O)c1ccc(-c2c3nc(c(-c4c(F)cc(S(=O)(=O)[O-])cc4F)c4ccc([nH]4)c(-c4c(F)cc(S(=O)(=O)[O-])cc4F)c4nc(c(-c5c(F)cc(S(=O)(=O)[O-])cc5F)c5ccc2[nH]5)C=C4)C=C3)cc1
REMARK SMILES IDX 23 1 22 2 20 3 21 4 19 5 18 6 1 7 2 8 3 9 9 10 4 11 5 12
REMARK SMILES IDX 8 13 10 14 6 15 11 17 7 18 12 19 13 21 14 22 17 23 15 24
REMARK SMILES IDX 16 25 24 26 25 27 26 28 27 29 28 30 29 31 93 32 30 33 92 34
REMARK SMILES IDX 31 35 32 36 33 37 86 38 34 39 91 40 85 41 87 42 35 43 90 44
REMARK SMILES IDX 84 45 83 46 36 48 70 49 49 50 69 51 50 52 53 53 68 54 88 55
REMARK SMILES IDX 51 56 52 57 67 59 89 60 54 61 37 62 38 63 47 64 39 65 40 66
REMARK SMILES IDX 46 67 48 68 41 69 42 70 43 71 44 72 45 73 71 74 72 75 81 76
REMARK SMILES IDX 73 77 74 78 80 79 82 80 75 81 76 82 77 83 78 84 79 85 55 86
REMARK SMILES IDX 56 87 65 88 57 89 58 90 64 91 66 92 59 93 60 94 61 95 62 96
REMARK SMILES IDX 63 97
REMARK H PARENT 5 16 12 20 87 47 53 58
REMARK Flexibility Score: inf
ROOT
ATOM      1  C   UNL     1       4.048   6.679   2.169  1.00  0.00     0.274 C 
ENDROOT
BRANCH   1   2
ATOM      2  O   UNL     1       2.993   5.932   1.520  1.00  0.00    -0.461 OA
BRANCH   2   3
ATOM      3  C   UNL     1       2.028   6.664   0.895  1.00  0.00     0.326 C 
ATOM      4  O   UNL     1       1.880   7.875   1.054  1.00  0.00    -0.250 OA
BRANCH   3   5
ATOM      5  C   UNL     1       1.214   5.891  -0.122  1.00  0.00     0.248 C 
BRANCH   5   6
ATOM      6  N   UNL     1       1.340   4.439  -0.116  1.00  0.00    -0.293 N 
ATOM      7  C   UNL     1       0.635  -0.095   0.123  1.00  0.00     0.157 C 
ATOM      8  N   UNL     1       0.218   1.208   0.606  1.00  0.00    -0.279 N 
ATOM      9  C   UNL     1      -0.817   1.352   1.518  1.00  0.00     0.329 A 
ATOM     10  C   UNL     1       0.840   2.343   0.137  1.00  0.00     0.170 A 
ATOM     11  O   UNL     1      -1.463   0.414   1.987  1.00  0.00    -0.248 OA
ATOM     12  N   UNL     1      -1.130   2.640   1.916  1.00  0.00    -0.272 N 
ATOM     13  C   UNL     1       0.512   3.588   0.572  1.00  0.00     0.154 A 
ATOM     14  N   UNL     1       1.813   2.369  -0.794  1.00  0.00    -0.194 NA
ATOM     15  C   UNL     1      -0.518   3.816   1.525  1.00  0.00     0.279 A 
ATOM     16  H   UNL     1      -1.877   2.729   2.551  1.00  0.00     0.175 HD
ATOM     17  C   UNL     1       2.122   3.638  -0.943  1.00  0.00     0.206 A 
ATOM     18  O   UNL     1      -0.849   4.900   1.966  1.00  0.00    -0.267 OA
BRANCH  17  19
ATOM     19  N   UNL     1       3.071   4.135  -1.758  1.00  0.00    -0.353 N 
ATOM     20  H   UNL     1       3.147   5.113  -1.842  1.00  0.00     0.163 HD
BRANCH  19  21
ATOM     21  C   UNL     1       3.994   3.301  -2.523  1.00  0.00     0.082 C 
ATOM     22  C   UNL     1       4.789   2.295  -1.703  1.00  0.00     0.025 C 
ATOM     23  C   UNL     1       3.383   2.474  -3.648  1.00  0.00     0.025 C 
ATOM     24  C   UNL     1       5.418   1.406  -2.768  1.00  0.00     0.002 C 
ATOM     25  C   UNL     1       4.429   1.390  -3.936  1.00  0.00     0.002 C 
ENDBRANCH  19  21
ENDBRANCH  17  19
ENDBRANCH   5   6
ENDBRANCH   3   5
ENDBRANCH   2   3
ENDBRANCH   1   2
BRANCH   1  26
ATOM     26  C   UNL     1       5.388   6.447   1.463  1.00  0.00     0.275 C 
BRANCH  26  27
ATOM     27  O   UNL     1       5.665   7.325   0.353  1.00  0.00    -0.458 OA
BRANCH  27  28
ATOM     28  C   UNL     1       4.963   7.076  -0.769  1.00  0.00     0.338 C 
ATOM     29  O   UNL     1       3.831   6.632  -0.845  1.00  0.00    -0.246 OA
BRANCH  28  30
ATOM     30  C   UNL     1       5.788   7.074  -1.974  1.00  0.00     0.060 A 
ATOM     31  C   UNL     1       5.146   6.614  -3.131  1.00  0.00     0.016 A 
ATOM     32  C   UNL     1       7.174   7.207  -1.908  1.00  0.00     0.016 A 
ATOM     33  C   UNL     1       5.903   6.075  -4.140  1.00  0.00     0.010 A 
ATOM     34  C   UNL     1       7.933   6.731  -2.960  1.00  0.00     0.010 A 
ATOM     35  C   UNL     1       7.296   6.092  -4.026  1.00  0.00    -0.014 A 
BRANCH  35  36
ATOM     36  C   UNL     1       8.036   5.591  -5.173  1.00  0.00     0.031 A 
ATOM     37  C   UNL     1       7.653   6.290  -6.432  1.00  0.00     0.074 A 
ATOM     38  C   UNL     1       9.038   4.698  -5.075  1.00  0.00     0.049 A 
ATOM     39  N   UNL     1       7.136   5.791  -7.506  1.00  0.00    -0.248 NA
ATOM     40  C   UNL     1       7.645   7.766  -6.394  1.00  0.00     0.031 C 
ATOM     41  C   UNL     1       9.644   4.154  -3.858  1.00  0.00     0.029 A 
ATOM     42  N   UNL     1       9.825   4.188  -6.057  1.00  0.00    -0.354 N 
ATOM     43  C   UNL     1       6.952   6.875  -8.363  1.00  0.00     0.074 A 
ATOM     44  C   UNL     1       7.070   8.059  -7.557  1.00  0.00     0.031 C 
ATOM     45  C   UNL     1      10.852   3.631  -4.165  1.00  0.00     0.029 A 
ATOM     46  C   UNL     1      11.040   3.689  -5.605  1.00  0.00     0.049 A 
ATOM     47  H   UNL     1       9.559   4.174  -7.005  1.00  0.00     0.167 HD
ATOM     48  C   UNL     1       6.997   6.730  -9.713  1.00  0.00     0.037 A 
ATOM     49  C   UNL     1      12.142   3.452  -6.363  1.00  0.00     0.037 A 
ATOM     50  C   UNL     1       6.761   5.364 -10.101  1.00  0.00     0.049 A 
ATOM     51  C   UNL     1      11.685   3.368  -7.777  1.00  0.00     0.074 A 
ATOM     52  C   UNL     1       5.714   4.477  -9.949  1.00  0.00     0.029 A 
ATOM     53  N   UNL     1       7.852   4.606 -10.449  1.00  0.00    -0.354 N 
ATOM     54  N   UNL     1      10.916   2.421  -8.242  1.00  0.00    -0.248 NA
ATOM     55  C   UNL     1      11.726   4.583  -8.579  1.00  0.00     0.031 C 
ATOM     56  C   UNL     1       6.327   3.205  -9.763  1.00  0.00     0.029 A 
ATOM     57  C   UNL     1       7.709   3.377  -9.859  1.00  0.00     0.049 A 
ATOM     58  H   UNL     1       8.602   4.893 -11.019  1.00  0.00     0.167 HD
ATOM     59  C   UNL     1      10.069   3.056  -9.139  1.00  0.00     0.074 A 
ATOM     60  C   UNL     1      10.677   4.363  -9.376  1.00  0.00     0.031 C 
ATOM     61  C   UNL     1       8.815   2.576  -9.385  1.00  0.00     0.037 A 
BRANCH  48  62
ATOM     62  C   UNL     1       7.665   7.733 -10.628  1.00  0.00     0.058 A 
ATOM     63  C   UNL     1       7.582   7.549 -12.023  1.00  0.00     0.135 A 
ATOM     64  C   UNL     1       8.624   8.681 -10.198  1.00  0.00     0.135 A 
ATOM     65  F   UNL     1       6.707   6.675 -12.546  1.00  0.00    -0.206 F 
ATOM     66  C   UNL     1       8.450   8.184 -12.912  1.00  0.00     0.059 A 
ATOM     67  C   UNL     1       9.458   9.366 -11.070  1.00  0.00     0.059 A 
ATOM     68  F   UNL     1       8.880   8.920  -8.907  1.00  0.00    -0.206 F 
ATOM     69  C   UNL     1       9.399   9.075 -12.420  1.00  0.00     0.060 A 
BRANCH  69  70
ATOM     70  S   UNL     1      10.609   9.794 -13.539  1.00  0.00     0.124 S 
ATOM     71  O   UNL     1      11.400   8.623 -13.899  1.00  0.00    -0.237 OA
ATOM     72  O   UNL     1       9.757  10.343 -14.589  1.00  0.00    -0.237 OA
ATOM     73  O   UNL     1      11.287  10.785 -12.708  1.00  0.00    -0.744 OA
ENDBRANCH  69  70
ENDBRANCH  48  62
BRANCH  49  74
ATOM     74  C   UNL     1      13.570   3.675  -6.003  1.00  0.00     0.058 A 
ATOM     75  C   UNL     1      14.604   3.214  -6.840  1.00  0.00     0.135 A 
ATOM     76  C   UNL     1      13.954   4.585  -4.995  1.00  0.00     0.135 A 
ATOM     77  F   UNL     1      14.332   2.358  -7.837  1.00  0.00    -0.206 F 
ATOM     78  C   UNL     1      15.921   3.672  -6.726  1.00  0.00     0.059 A 
ATOM     79  C   UNL     1      15.262   5.044  -4.852  1.00  0.00     0.059 A 
ATOM     80  F   UNL     1      13.049   5.133  -4.171  1.00  0.00    -0.206 F 
ATOM     81  C   UNL     1      16.236   4.608  -5.741  1.00  0.00     0.060 A 
BRANCH  81  82
ATOM     82  S   UNL     1      17.888   5.343  -5.706  1.00  0.00     0.124 S 
ATOM     83  O   UNL     1      18.718   4.204  -5.327  1.00  0.00    -0.237 OA
ATOM     84  O   UNL     1      18.042   5.816  -7.077  1.00  0.00    -0.237 OA
ATOM     85  O   UNL     1      17.771   6.392  -4.696  1.00  0.00    -0.744 OA
ENDBRANCH  81  82
ENDBRANCH  49  74
BRANCH  61  86
ATOM     86  C   UNL     1       8.483   1.182  -8.923  1.00  0.00     0.058 A 
ATOM     87  C   UNL     1       8.406   0.787  -7.576  1.00  0.00     0.135 A 
ATOM     88  C   UNL     1       8.062   0.256  -9.889  1.00  0.00     0.135 A 
ATOM     89  F   UNL     1       8.694   1.645  -6.587  1.00  0.00    -0.206 F 
ATOM     90  C   UNL     1       7.960  -0.485  -7.209  1.00  0.00     0.059 A 
ATOM     91  C   UNL     1       7.585  -1.005  -9.545  1.00  0.00     0.059 A 
ATOM     92  F   UNL     1       8.056   0.596 -11.188  1.00  0.00    -0.206 F 
ATOM     93  C   UNL     1       7.545  -1.372  -8.202  1.00  0.00     0.060 A 
BRANCH  93  94
ATOM     94  S   UNL     1       6.882  -2.981  -7.721  1.00  0.00     0.124 S 
ATOM     95  O   UNL     1       8.069  -3.668  -7.225  1.00  0.00    -0.237 OA
ATOM     96  O   UNL     1       5.888  -2.624  -6.712  1.00  0.00    -0.237 OA
ATOM     97  O   UNL     1       6.330  -3.510  -8.966  1.00  0.00    -0.744 OA
ENDBRANCH  93  94
ENDBRANCH  61  86
ENDBRANCH  35  36
ENDBRANCH  28  30
ENDBRANCH  27  28
ENDBRANCH  26  27
ENDBRANCH   1  26
TORSDOF 17
