REMARK SMILES O=C(OCCOC(=O)c1ccccc1[C@@H]1SCC(=O)N1NC(=S)Nc1ccccc1)c1ccc(-c2c3nc(c(-c4c(F)cc(S(=O)(=O)[O-])cc4F)c4ccc([nH]4)c(-c4c(F)cc(S(=O)(=O)[O-])cc4F)c4nc(c(-c5c(F)cc(S(=O)(=O)[O-])cc5F)c5ccc2[nH]5)C=C4)C=C3)cc1
REMARK SMILES IDX 5 1 4 2 3 3 2 4 1 5 31 6 32 7 96 8 33 9 95 10 34 11 35 12
REMARK SMILES IDX 36 13 89 14 37 15 94 16 88 17 90 18 38 19 93 20 87 21 86 22
REMARK SMILES IDX 39 24 73 25 52 26 72 27 53 28 56 29 71 30 91 31 54 32 55 33
REMARK SMILES IDX 70 35 92 36 57 37 40 38 41 39 50 40 42 41 43 42 49 43 51 44
REMARK SMILES IDX 44 45 45 46 46 47 47 48 48 49 74 50 75 51 84 52 76 53 77 54
REMARK SMILES IDX 83 55 85 56 78 57 79 58 80 59 81 60 82 61 58 62 59 63 68 64
REMARK SMILES IDX 60 65 61 66 67 67 69 68 62 69 63 70 64 71 65 72 66 73 6 74
REMARK SMILES IDX 7 75 8 76 9 77 10 78 14 79 11 80 13 81 12 82 15 83 16 84
REMARK SMILES IDX 20 85 17 86 18 87 19 88 21 89 22 91 23 92 24 93 25 95 26 96
REMARK SMILES IDX 30 97 27 98 29 99 28 100
REMARK H PARENT 90 23 56 34 21 90 24 94
REMARK Flexibility Score: inf
ROOT
ATOM      1  C   UNL     1       3.423   0.232   1.426  1.00  0.00     0.275 C 
ENDROOT
BRANCH   1   2
ATOM      2  C   UNL     1       3.719   1.305   0.385  1.00  0.00     0.275 C 
BRANCH   2   3
ATOM      3  O   UNL     1       2.585   1.494  -0.496  1.00  0.00    -0.458 OA
BRANCH   3   4
ATOM      4  C   UNL     1       2.239   0.976  -1.698  1.00  0.00     0.338 C 
ATOM      5  O   UNL     1       1.210   1.413  -2.217  1.00  0.00    -0.246 OA
BRANCH   4   6
ATOM      6  C   UNL     1       2.959  -0.115  -2.443  1.00  0.00     0.060 A 
ATOM      7  C   UNL     1       4.104  -0.766  -2.021  1.00  0.00     0.016 A 
ATOM      8  C   UNL     1       2.400  -0.563  -3.665  1.00  0.00     0.016 A 
ATOM      9  C   UNL     1       4.625  -1.835  -2.754  1.00  0.00     0.010 A 
ATOM     10  C   UNL     1       2.940  -1.647  -4.399  1.00  0.00     0.010 A 
ATOM     11  C   UNL     1       4.068  -2.316  -3.931  1.00  0.00    -0.014 A 
BRANCH  11  12
ATOM     12  C   UNL     1       4.790  -3.404  -4.666  1.00  0.00     0.031 A 
ATOM     13  C   UNL     1       5.679  -3.034  -5.801  1.00  0.00     0.074 A 
ATOM     14  C   UNL     1       4.892  -4.675  -4.217  1.00  0.00     0.049 A 
ATOM     15  N   UNL     1       6.364  -3.822  -6.582  1.00  0.00    -0.248 NA
ATOM     16  C   UNL     1       5.890  -1.598  -6.029  1.00  0.00     0.031 C 
ATOM     17  C   UNL     1       4.409  -5.094  -2.924  1.00  0.00     0.029 A 
ATOM     18  N   UNL     1       5.446  -5.831  -4.719  1.00  0.00    -0.354 N 
ATOM     19  C   UNL     1       7.092  -2.980  -7.400  1.00  0.00     0.074 A 
ATOM     20  C   UNL     1       6.770  -1.621  -7.019  1.00  0.00     0.031 C 
ATOM     21  C   UNL     1       4.598  -6.408  -2.741  1.00  0.00     0.029 A 
ATOM     22  C   UNL     1       5.188  -6.950  -3.948  1.00  0.00     0.049 A 
ATOM     23  H   UNL     1       5.975  -5.858  -5.549  1.00  0.00     0.167 HD
ATOM     24  C   UNL     1       7.945  -3.325  -8.387  1.00  0.00     0.037 A 
ATOM     25  C   UNL     1       5.354  -8.268  -4.189  1.00  0.00     0.037 A 
ATOM     26  C   UNL     1       8.262  -4.678  -8.752  1.00  0.00     0.049 A 
ATOM     27  C   UNL     1       6.064  -8.643  -5.454  1.00  0.00     0.074 A 
ATOM     28  C   UNL     1       9.043  -5.118  -9.804  1.00  0.00     0.029 A 
ATOM     29  N   UNL     1       7.809  -5.809  -8.088  1.00  0.00    -0.354 N 
ATOM     30  N   UNL     1       6.659  -7.841  -6.303  1.00  0.00    -0.248 NA
ATOM     31  C   UNL     1       6.141 -10.066  -5.806  1.00  0.00     0.031 C 
ATOM     32  C   UNL     1       8.999  -6.516  -9.822  1.00  0.00     0.029 A 
ATOM     33  C   UNL     1       8.236  -6.949  -8.750  1.00  0.00     0.049 A 
ATOM     34  H   UNL     1       7.265  -5.803  -7.267  1.00  0.00     0.167 HD
ATOM     35  C   UNL     1       7.204  -8.659  -7.277  1.00  0.00     0.074 A 
ATOM     36  C   UNL     1       6.882 -10.024  -6.907  1.00  0.00     0.031 C 
ATOM     37  C   UNL     1       7.907  -8.302  -8.377  1.00  0.00     0.037 A 
BRANCH  24  38
ATOM     38  C   UNL     1       8.473  -2.207  -9.223  1.00  0.00     0.058 A 
ATOM     39  C   UNL     1       9.528  -1.385  -8.809  1.00  0.00     0.135 A 
ATOM     40  C   UNL     1       7.881  -1.959 -10.471  1.00  0.00     0.135 A 
ATOM     41  F   UNL     1      10.089  -1.556  -7.601  1.00  0.00    -0.206 F 
ATOM     42  C   UNL     1       9.985  -0.347  -9.613  1.00  0.00     0.059 A 
ATOM     43  C   UNL     1       8.334  -0.942 -11.298  1.00  0.00     0.059 A 
ATOM     44  F   UNL     1       6.845  -2.704 -10.887  1.00  0.00    -0.206 F 
ATOM     45  C   UNL     1       9.384  -0.139 -10.858  1.00  0.00     0.060 A 
BRANCH  45  46
ATOM     46  S   UNL     1      10.007   1.187 -11.909  1.00  0.00     0.124 S 
ATOM     47  O   UNL     1       9.526   2.370 -11.202  1.00  0.00    -0.237 OA
ATOM     48  O   UNL     1      11.449   0.965 -11.866  1.00  0.00    -0.237 OA
ATOM     49  O   UNL     1       9.374   0.926 -13.198  1.00  0.00    -0.744 OA
ENDBRANCH  45  46
ENDBRANCH  24  38
BRANCH  25  50
ATOM     50  C   UNL     1       4.757  -9.312  -3.297  1.00  0.00     0.058 A 
ATOM     51  C   UNL     1       5.531 -10.297  -2.665  1.00  0.00     0.135 A 
ATOM     52  C   UNL     1       3.361  -9.391  -3.128  1.00  0.00     0.135 A 
ATOM     53  F   UNL     1       6.867 -10.279  -2.788  1.00  0.00    -0.206 F 
ATOM     54  C   UNL     1       4.950 -11.337  -1.938  1.00  0.00     0.059 A 
ATOM     55  C   UNL     1       2.758 -10.402  -2.385  1.00  0.00     0.059 A 
ATOM     56  F   UNL     1       2.561  -8.473  -3.693  1.00  0.00    -0.206 F 
ATOM     57  C   UNL     1       3.560 -11.386  -1.813  1.00  0.00     0.060 A 
BRANCH  57  58
ATOM     58  S   UNL     1       2.811 -12.754  -0.897  1.00  0.00     0.124 S 
ATOM     59  O   UNL     1       3.060 -13.877  -1.793  1.00  0.00    -0.237 OA
ATOM     60  O   UNL     1       3.577 -12.743   0.345  1.00  0.00    -0.237 OA
ATOM     61  O   UNL     1       1.415 -12.347  -0.770  1.00  0.00    -0.744 OA
ENDBRANCH  57  58
ENDBRANCH  25  50
BRANCH  37  62
ATOM     62  C   UNL     1       8.377  -9.407  -9.271  1.00  0.00     0.058 A 
ATOM     63  C   UNL     1       7.484 -10.094 -10.105  1.00  0.00     0.135 A 
ATOM     64  C   UNL     1       9.740  -9.732  -9.345  1.00  0.00     0.135 A 
ATOM     65  F   UNL     1       6.169  -9.829 -10.054  1.00  0.00    -0.206 F 
ATOM     66  C   UNL     1       7.927 -11.072 -10.986  1.00  0.00     0.059 A 
ATOM     67  C   UNL     1      10.209 -10.687 -10.239  1.00  0.00     0.059 A 
ATOM     68  F   UNL     1      10.631  -9.100  -8.565  1.00  0.00    -0.206 F 
ATOM     69  C   UNL     1       9.293 -11.354 -11.052  1.00  0.00     0.060 A 
BRANCH  69  70
ATOM     70  S   UNL     1       9.861 -12.574 -12.252  1.00  0.00     0.124 S 
ATOM     71  O   UNL     1       9.422 -13.821 -11.634  1.00  0.00    -0.237 OA
ATOM     72  O   UNL     1       9.145 -12.179 -13.461  1.00  0.00    -0.237 OA
ATOM     73  O   UNL     1      11.306 -12.366 -12.290  1.00  0.00    -0.744 OA
ENDBRANCH  69  70
ENDBRANCH  37  62
ENDBRANCH  11  12
ENDBRANCH   4   6
ENDBRANCH   3   4
ENDBRANCH   2   3
ENDBRANCH   1   2
BRANCH   1  74
ATOM     74  O   UNL     1       3.251  -1.017   0.743  1.00  0.00    -0.458 OA
BRANCH  74  75
ATOM     75  C   UNL     1       2.190  -1.757   1.082  1.00  0.00     0.338 C 
ATOM     76  O   UNL     1       1.412  -1.566   2.018  1.00  0.00    -0.246 OA
BRANCH  75  77
ATOM     77  C   UNL     1       1.944  -2.730   0.014  1.00  0.00     0.066 A 
ATOM     78  C   UNL     1       0.866  -2.386  -0.835  1.00  0.00     0.016 A 
ATOM     79  C   UNL     1       2.630  -3.946  -0.137  1.00  0.00     0.001 A 
ATOM     80  C   UNL     1       0.436  -3.252  -1.833  1.00  0.00     0.001 A 
ATOM     81  C   UNL     1       2.021  -4.873  -1.020  1.00  0.00     0.008 A 
ATOM     82  C   UNL     1       0.992  -4.517  -1.900  1.00  0.00     0.000 A 
BRANCH  79  83
ATOM     83  C   UNL     1       3.926  -4.387   0.556  1.00  0.00     0.197 C 
ATOM     84  S   UNL     1       3.560  -5.024   2.206  1.00  0.00    -0.120 SA
ATOM     85  N   UNL     1       5.006  -3.395   0.688  1.00  0.00    -0.236 N 
ATOM     86  C   UNL     1       4.637  -3.845   3.019  1.00  0.00     0.174 C 
ATOM     87  C   UNL     1       5.143  -2.879   1.974  1.00  0.00     0.252 C 
ATOM     88  O   UNL     1       5.563  -1.770   2.278  1.00  0.00    -0.272 OA
BRANCH  85  89
ATOM     89  N   UNL     1       6.130  -3.506  -0.265  1.00  0.00    -0.270 N 
ATOM     90  H   UNL     1       6.091  -4.294  -0.852  1.00  0.00     0.191 HD
BRANCH  89  91
ATOM     91  C   UNL     1       7.226  -2.691  -0.471  1.00  0.00     0.189 C 
ATOM     92  S   UNL     1       8.074  -2.740  -1.920  1.00  0.00    -0.039 S 
BRANCH  91  93
ATOM     93  N   UNL     1       7.696  -1.864   0.485  1.00  0.00    -0.331 N 
ATOM     94  H   UNL     1       7.700  -0.896   0.306  1.00  0.00     0.169 HD
BRANCH  93  95
ATOM     95  C   UNL     1       8.181  -2.317   1.725  1.00  0.00     0.040 A 
ATOM     96  C   UNL     1       8.348  -1.390   2.753  1.00  0.00     0.026 A 
ATOM     97  C   UNL     1       8.386  -3.680   1.959  1.00  0.00     0.026 A 
ATOM     98  C   UNL     1       8.532  -1.853   4.054  1.00  0.00     0.002 A 
ATOM     99  C   UNL     1       8.609  -4.134   3.250  1.00  0.00     0.002 A 
ATOM    100  C   UNL     1       8.637  -3.224   4.303  1.00  0.00     0.000 A 
ENDBRANCH  93  95
ENDBRANCH  91  93
ENDBRANCH  89  91
ENDBRANCH  85  89
ENDBRANCH  79  83
ENDBRANCH  75  77
ENDBRANCH  74  75
ENDBRANCH   1  74
TORSDOF 19
