REMARK SMILES CCc1cccc(-c2ccc([C@@H](C)C(=O)OCCOC(=O)c3ccc(-c4c5nc(c(-c6c(F)cc(S(=O)(=O)[O-])cc6F)c6ccc([nH]6)c(-c6c(F)cc(S(=O)(=O)[O-])cc6F)c6nc(c(-c7c(F)cc(S(=O)(=O)[O-])cc7F)c7ccc4[nH]7)C=C6)C=C5)cc3)cc2)c1
REMARK SMILES IDX 17 1 16 2 14 3 15 4 12 5 13 6 11 7 8 8 9 9 89 10 10 11 88 12
REMARK SMILES IDX 7 13 3 14 4 15 90 16 5 17 6 18 2 19 1 20 18 21 19 22 20 23
REMARK SMILES IDX 21 24 22 25 23 26 87 27 24 28 86 29 25 30 26 31 27 32 80 33
REMARK SMILES IDX 28 34 85 35 79 36 81 37 29 38 84 39 78 40 77 41 30 43 64 44
REMARK SMILES IDX 43 45 63 46 44 47 47 48 62 49 82 50 45 51 46 52 61 54 83 55
REMARK SMILES IDX 48 56 31 57 32 58 41 59 33 60 34 61 40 62 42 63 35 64 36 65
REMARK SMILES IDX 37 66 38 67 39 68 65 69 66 70 75 71 67 72 68 73 74 74 76 75
REMARK SMILES IDX 69 76 70 77 71 78 72 79 73 80 49 81 50 82 59 83 51 84 52 85
REMARK SMILES IDX 58 86 60 87 53 88 54 89 55 90 56 91 57 92
REMARK H PARENT 81 42 47 53
REMARK Flexibility Score: inf
ROOT
ATOM      1  C   UNL     1       7.610  -3.459   6.127  1.00  0.00     0.274 C 
ENDROOT
BRANCH   1   2
ATOM      2  O   UNL     1       6.332  -4.086   5.908  1.00  0.00    -0.462 OA
BRANCH   2   3
ATOM      3  C   UNL     1       5.538  -4.250   7.000  1.00  0.00     0.313 C 
ATOM      4  O   UNL     1       5.877  -3.966   8.145  1.00  0.00    -0.252 OA
BRANCH   3   5
ATOM      5  C   UNL     1       4.190  -4.890   6.691  1.00  0.00     0.126 C 
ATOM      6  C   UNL     1       4.238  -6.379   7.030  1.00  0.00     0.025 C 
BRANCH   5   7
ATOM      7  C   UNL     1       3.626  -4.627   5.302  1.00  0.00    -0.034 A 
ATOM      8  C   UNL     1       2.495  -4.147   2.734  1.00  0.00    -0.018 A 
ATOM      9  C   UNL     1       3.623  -4.967   2.891  1.00  0.00     0.009 A 
ATOM     10  C   UNL     1       1.953  -3.558   3.884  1.00  0.00     0.009 A 
ATOM     11  C   UNL     1       4.179  -5.206   4.153  1.00  0.00     0.005 A 
ATOM     12  C   UNL     1       2.504  -3.799   5.147  1.00  0.00     0.005 A 
BRANCH   8  13
ATOM     13  C   UNL     1       1.877  -3.945   1.412  1.00  0.00    -0.018 A 
ATOM     14  C   UNL     1       0.983  -2.463  -0.332  1.00  0.00    -0.048 A 
ATOM     15  C   UNL     1       0.645  -3.594  -1.091  1.00  0.00     0.004 A 
ATOM     16  C   UNL     1       1.598  -2.656   0.917  1.00  0.00     0.012 A 
ATOM     17  C   UNL     1       0.913  -4.877  -0.621  1.00  0.00     0.001 A 
ATOM     18  C   UNL     1       1.523  -5.049   0.620  1.00  0.00     0.009 A 
BRANCH  14  19
ATOM     19  C   UNL     1       0.641  -1.104  -0.901  1.00  0.00     0.032 C 
ATOM     20  C   UNL     1       1.088   0.117  -0.108  1.00  0.00     0.009 C 
ENDBRANCH  14  19
ENDBRANCH   8  13
ENDBRANCH   5   7
ENDBRANCH   3   5
ENDBRANCH   2   3
ENDBRANCH   1   2
BRANCH   1  21
ATOM     21  C   UNL     1       7.586  -1.993   5.695  1.00  0.00     0.275 C 
BRANCH  21  22
ATOM     22  O   UNL     1       6.732  -1.217   6.554  1.00  0.00    -0.458 OA
BRANCH  22  23
ATOM     23  C   UNL     1       5.511  -0.931   6.046  1.00  0.00     0.338 C 
ATOM     24  O   UNL     1       5.088  -1.200   4.936  1.00  0.00    -0.246 OA
BRANCH  23  25
ATOM     25  C   UNL     1       4.680  -0.317   7.091  1.00  0.00     0.060 A 
ATOM     26  C   UNL     1       3.650  -1.080   7.641  1.00  0.00     0.016 A 
ATOM     27  C   UNL     1       4.848   1.018   7.458  1.00  0.00     0.016 A 
ATOM     28  C   UNL     1       2.764  -0.507   8.548  1.00  0.00     0.010 A 
ATOM     29  C   UNL     1       3.966   1.590   8.383  1.00  0.00     0.010 A 
ATOM     30  C   UNL     1       2.908   0.836   8.920  1.00  0.00    -0.014 A 
BRANCH  30  31
ATOM     31  C   UNL     1       1.916   1.444   9.840  1.00  0.00     0.031 A 
ATOM     32  C   UNL     1       0.876   2.389   9.306  1.00  0.00     0.074 A 
ATOM     33  C   UNL     1       1.915   1.101  11.143  1.00  0.00     0.049 A 
ATOM     34  N   UNL     1      -0.057   3.041   9.951  1.00  0.00    -0.248 NA
ATOM     35  C   UNL     1       0.883   2.631   7.854  1.00  0.00     0.031 C 
ATOM     36  C   UNL     1       2.850   0.164  11.770  1.00  0.00     0.029 A 
ATOM     37  N   UNL     1       1.097   1.493  12.171  1.00  0.00    -0.354 N 
ATOM     38  C   UNL     1      -0.745   3.773   8.990  1.00  0.00     0.074 A 
ATOM     39  C   UNL     1      -0.107   3.503   7.719  1.00  0.00     0.031 C 
ATOM     40  C   UNL     1       2.545   0.047  13.073  1.00  0.00     0.029 A 
ATOM     41  C   UNL     1       1.420   0.925  13.380  1.00  0.00     0.049 A 
ATOM     42  H   UNL     1       0.349   2.122  12.054  1.00  0.00     0.167 HD
ATOM     43  C   UNL     1      -1.815   4.586   9.153  1.00  0.00     0.037 A 
ATOM     44  C   UNL     1       0.880   1.106  14.601  1.00  0.00     0.037 A 
ATOM     45  C   UNL     1      -2.453   4.846  10.418  1.00  0.00     0.049 A 
ATOM     46  C   UNL     1      -0.279   2.052  14.759  1.00  0.00     0.074 A 
ATOM     47  C   UNL     1      -3.528   5.676  10.688  1.00  0.00     0.029 A 
ATOM     48  N   UNL     1      -2.081   4.272  11.624  1.00  0.00    -0.354 N 
ATOM     49  N   UNL     1      -0.899   2.758  13.843  1.00  0.00    -0.248 NA
ATOM     50  C   UNL     1      -0.810   2.230  16.118  1.00  0.00     0.031 C 
ATOM     51  C   UNL     1      -3.792   5.621  12.061  1.00  0.00     0.029 A 
ATOM     52  C   UNL     1      -2.902   4.732  12.641  1.00  0.00     0.049 A 
ATOM     53  H   UNL     1      -1.342   3.632  11.741  1.00  0.00     0.167 HD
ATOM     54  C   UNL     1      -1.902   3.450  14.513  1.00  0.00     0.074 A 
ATOM     55  C   UNL     1      -1.819   3.064  15.906  1.00  0.00     0.031 C 
ATOM     56  C   UNL     1      -2.807   4.331  14.021  1.00  0.00     0.037 A 
BRANCH  43  57
ATOM     57  C   UNL     1      -2.366   5.266   7.932  1.00  0.00     0.058 A 
ATOM     58  C   UNL     1      -3.145   4.569   6.995  1.00  0.00     0.135 A 
ATOM     59  C   UNL     1      -2.159   6.639   7.723  1.00  0.00     0.135 A 
ATOM     60  F   UNL     1      -3.356   3.252   7.139  1.00  0.00    -0.206 F 
ATOM     61  C   UNL     1      -3.693   5.208   5.888  1.00  0.00     0.059 A 
ATOM     62  C   UNL     1      -2.713   7.303   6.632  1.00  0.00     0.059 A 
ATOM     63  F   UNL     1      -1.418   7.350   8.588  1.00  0.00    -0.206 F 
ATOM     64  C   UNL     1      -3.472   6.576   5.715  1.00  0.00     0.060 A 
BRANCH  64  65
ATOM     65  S   UNL     1      -4.208   7.398   4.286  1.00  0.00     0.124 S 
ATOM     66  O   UNL     1      -3.345   6.931   3.205  1.00  0.00    -0.237 OA
ATOM     67  O   UNL     1      -5.568   6.867   4.284  1.00  0.00    -0.237 OA
ATOM     68  O   UNL     1      -4.094   8.816   4.612  1.00  0.00    -0.744 OA
ENDBRANCH  64  65
ENDBRANCH  43  57
BRANCH  44  69
ATOM     69  C   UNL     1       1.441   0.398  15.782  1.00  0.00     0.058 A 
ATOM     70  C   UNL     1       0.719  -0.614  16.430  1.00  0.00     0.135 A 
ATOM     71  C   UNL     1       2.697   0.744  16.303  1.00  0.00     0.135 A 
ATOM     72  F   UNL     1      -0.490  -0.974  15.973  1.00  0.00    -0.206 F 
ATOM     73  C   UNL     1       1.209  -1.240  17.572  1.00  0.00     0.059 A 
ATOM     74  C   UNL     1       3.218   0.116  17.428  1.00  0.00     0.059 A 
ATOM     75  F   UNL     1       3.432   1.698  15.710  1.00  0.00    -0.206 F 
ATOM     76  C   UNL     1       2.458  -0.863  18.067  1.00  0.00     0.060 A 
BRANCH  76  77
ATOM     77  S   UNL     1       3.101  -1.685  19.541  1.00  0.00     0.124 S 
ATOM     78  O   UNL     1       2.390  -0.979  20.602  1.00  0.00    -0.237 OA
ATOM     79  O   UNL     1       2.707  -3.073  19.323  1.00  0.00    -0.237 OA
ATOM     80  O   UNL     1       4.537  -1.431  19.463  1.00  0.00    -0.744 OA
ENDBRANCH  76  77
ENDBRANCH  44  69
BRANCH  56  81
ATOM     81  C   UNL     1      -3.792   4.912  14.994  1.00  0.00     0.058 A 
ATOM     82  C   UNL     1      -3.417   5.903  15.913  1.00  0.00     0.135 A 
ATOM     83  C   UNL     1      -5.129   4.484  14.996  1.00  0.00     0.135 A 
ATOM     84  F   UNL     1      -2.148   6.341  15.954  1.00  0.00    -0.206 F 
ATOM     85  C   UNL     1      -4.327   6.431  16.823  1.00  0.00     0.059 A 
ATOM     86  C   UNL     1      -6.061   5.013  15.883  1.00  0.00     0.059 A 
ATOM     87  F   UNL     1      -5.540   3.545  14.129  1.00  0.00    -0.206 F 
ATOM     88  C   UNL     1      -5.646   5.975  16.804  1.00  0.00     0.060 A 
BRANCH  88  89
ATOM     89  S   UNL     1      -6.825   6.671  17.981  1.00  0.00     0.124 S 
ATOM     90  O   UNL     1      -6.490   5.939  19.198  1.00  0.00    -0.237 OA
ATOM     91  O   UNL     1      -6.478   8.088  17.978  1.00  0.00    -0.237 OA
ATOM     92  O   UNL     1      -8.121   6.350  17.390  1.00  0.00    -0.744 OA
ENDBRANCH  88  89
ENDBRANCH  56  81
ENDBRANCH  30  31
ENDBRANCH  23  25
ENDBRANCH  22  23
ENDBRANCH  21  22
ENDBRANCH   1  21
TORSDOF 17
