REMARK SMILES Cc1cc(C)c(C(N)=O)c(N[C@H]2C=C[C@H](C(=O)OCCOC(=O)c3ccc(-c4c5nc(c(-c6c(F)cc(S(=O)(=O)[O-])cc6F)c6ccc([nH]6)c(-c6c(F)cc(S(=O)(=O)[O-])cc6F)c6nc(c(-c7c(F)cc(S(=O)(=O)[O-])cc7F)c7ccc4[nH]7)C=C6)C=C5)cc3)C2)n1
REMARK SMILES IDX 19 1 18 2 16 3 17 4 15 5 12 6 13 7 90 8 14 9 11 10 10 12
REMARK SMILES IDX 1 13 2 14 3 15 91 16 4 17 5 18 6 19 7 20 8 21 9 22 20 25
REMARK SMILES IDX 21 26 22 27 23 28 24 29 25 30 89 31 26 32 88 33 27 34 28 35
REMARK SMILES IDX 29 36 82 37 30 38 87 39 81 40 83 41 31 42 86 43 80 44 79 45
REMARK SMILES IDX 32 47 66 48 45 49 65 50 46 51 49 52 64 53 84 54 47 55 48 56
REMARK SMILES IDX 63 58 85 59 50 60 33 61 34 62 43 63 35 64 36 65 42 66 44 67
REMARK SMILES IDX 37 68 38 69 39 70 40 71 41 72 67 73 68 74 77 75 69 76 70 77
REMARK SMILES IDX 76 78 78 79 71 80 72 81 73 82 74 83 75 84 51 85 52 86 61 87
REMARK SMILES IDX 53 88 54 89 60 90 62 91 55 92 56 93 57 94 58 95 59 96
REMARK H PARENT 11 11 8 23 8 24 83 46 49 57
REMARK Flexibility Score: inf
ROOT
ATOM      1  C   UNL     1      -6.759  -5.270  -1.541  1.00  0.00     0.274 C 
ENDROOT
BRANCH   1   2
ATOM      2  O   UNL     1      -6.092  -4.078  -1.082  1.00  0.00    -0.462 OA
BRANCH   2   3
ATOM      3  C   UNL     1      -4.821  -4.243  -0.622  1.00  0.00     0.312 C 
ATOM      4  O   UNL     1      -4.226  -5.314  -0.586  1.00  0.00    -0.252 OA
BRANCH   3   5
ATOM      5  C   UNL     1      -4.225  -2.912  -0.172  1.00  0.00     0.124 C 
ATOM      6  C   UNL     1      -1.837  -3.269   0.002  1.00  0.00     0.104 C 
ATOM      7  C   UNL     1      -2.453  -3.162   1.359  1.00  0.00    -0.006 C 
ATOM      8  C   UNL     1      -2.904  -2.640  -0.904  1.00  0.00     0.048 C 
ATOM      9  C   UNL     1      -3.779  -2.982   1.265  1.00  0.00    -0.014 C 
BRANCH   6  10
ATOM     10  N   UNL     1      -0.506  -2.704  -0.071  1.00  0.00    -0.363 N 
ATOM     11  H   UNL     1       0.235  -3.325  -0.256  1.00  0.00     0.162 HD
BRANCH  10  12
ATOM     12  C   UNL     1      -0.181  -1.367   0.097  1.00  0.00     0.139 A 
ATOM     13  C   UNL     1      -2.147   1.724   0.421  1.00  0.00     0.067 C 
ATOM     14  C   UNL     1      -0.954   0.822   0.349  1.00  0.00     0.040 A 
ATOM     15  C   UNL     1       0.327   1.342   0.284  1.00  0.00     0.028 A 
ATOM     16  N   UNL     1      -1.198  -0.502   0.298  1.00  0.00    -0.236 NA
ATOM     17  C   UNL     1       1.412   0.467   0.169  1.00  0.00    -0.033 A 
ATOM     18  C   UNL     1       2.797   1.051   0.107  1.00  0.00     0.045 C 
ATOM     19  C   UNL     1       1.154  -0.917   0.064  1.00  0.00     0.084 A 
BRANCH  19  20
ATOM     20  C   UNL     1       2.290  -1.867  -0.122  1.00  0.00     0.252 C 
ATOM     21  N   UNL     1       2.197  -3.090   0.483  1.00  0.00    -0.365 N 
ATOM     22  O   UNL     1       3.286  -1.577  -0.771  1.00  0.00    -0.269 OA
ATOM     23  H   UNL     1       1.395  -3.321   1.005  1.00  0.00     0.159 HD
ATOM     24  H   UNL     1       2.933  -3.739   0.397  1.00  0.00     0.159 HD
ENDBRANCH  19  20
ENDBRANCH  10  12
ENDBRANCH   6  10
ENDBRANCH   3   5
ENDBRANCH   2   3
ENDBRANCH   1   2
BRANCH   1  25
ATOM     25  C   UNL     1      -6.773  -5.355  -3.067  1.00  0.00     0.275 C 
BRANCH  25  26
ATOM     26  O   UNL     1      -5.467  -5.660  -3.590  1.00  0.00    -0.458 OA
BRANCH  26  27
ATOM     27  C   UNL     1      -4.771  -4.593  -4.041  1.00  0.00     0.338 C 
ATOM     28  O   UNL     1      -5.121  -3.425  -4.033  1.00  0.00    -0.246 OA
BRANCH  27  29
ATOM     29  C   UNL     1      -3.451  -5.018  -4.526  1.00  0.00     0.060 A 
ATOM     30  C   UNL     1      -2.393  -5.073  -3.621  1.00  0.00     0.016 A 
ATOM     31  C   UNL     1      -3.221  -5.181  -5.891  1.00  0.00     0.016 A 
ATOM     32  C   UNL     1      -1.085  -5.165  -4.088  1.00  0.00     0.010 A 
ATOM     33  C   UNL     1      -1.912  -5.381  -6.347  1.00  0.00     0.010 A 
ATOM     34  C   UNL     1      -0.824  -5.330  -5.457  1.00  0.00    -0.014 A 
BRANCH  34  35
ATOM     35  C   UNL     1       0.579  -5.409  -5.957  1.00  0.00     0.031 A 
ATOM     36  C   UNL     1       1.076  -4.419  -6.981  1.00  0.00     0.074 A 
ATOM     37  C   UNL     1       1.421  -6.354  -5.491  1.00  0.00     0.049 A 
ATOM     38  N   UNL     1       2.171  -4.451  -7.697  1.00  0.00    -0.248 NA
ATOM     39  C   UNL     1       0.222  -3.250  -7.247  1.00  0.00     0.031 C 
ATOM     40  C   UNL     1       1.100  -7.351  -4.468  1.00  0.00     0.029 A 
ATOM     41  N   UNL     1       2.729  -6.624  -5.814  1.00  0.00    -0.354 N 
ATOM     42  C   UNL     1       2.104  -3.352  -8.547  1.00  0.00     0.074 A 
ATOM     43  C   UNL     1       0.868  -2.662  -8.245  1.00  0.00     0.031 C 
ATOM     44  C   UNL     1       2.190  -8.091  -4.214  1.00  0.00     0.029 A 
ATOM     45  C   UNL     1       3.261  -7.683  -5.117  1.00  0.00     0.049 A 
ATOM     46  H   UNL     1       3.237  -6.109  -6.481  1.00  0.00     0.167 HD
ATOM     47  C   UNL     1       2.987  -2.963  -9.498  1.00  0.00     0.037 A 
ATOM     48  C   UNL     1       4.459  -8.290  -5.217  1.00  0.00     0.037 A 
ATOM     49  C   UNL     1       4.250  -3.609  -9.744  1.00  0.00     0.049 A 
ATOM     50  C   UNL     1       5.438  -7.823  -6.255  1.00  0.00     0.074 A 
ATOM     51  C   UNL     1       5.204  -3.306 -10.701  1.00  0.00     0.029 A 
ATOM     52  N   UNL     1       4.753  -4.667  -9.002  1.00  0.00    -0.354 N 
ATOM     53  N   UNL     1       5.308  -6.855  -7.130  1.00  0.00    -0.248 NA
ATOM     54  C   UNL     1       6.714  -8.548  -6.341  1.00  0.00     0.031 C 
ATOM     55  C   UNL     1       6.281  -4.186 -10.542  1.00  0.00     0.029 A 
ATOM     56  C   UNL     1       6.006  -5.021  -9.471  1.00  0.00     0.049 A 
ATOM     57  H   UNL     1       4.287  -5.102  -8.251  1.00  0.00     0.167 HD
ATOM     58  C   UNL     1       6.483  -6.854  -7.871  1.00  0.00     0.074 A 
ATOM     59  C   UNL     1       7.321  -7.905  -7.331  1.00  0.00     0.031 C 
ATOM     60  C   UNL     1       6.830  -6.062  -8.914  1.00  0.00     0.037 A 
BRANCH  47  61
ATOM     61  C   UNL     1       2.601  -1.806 -10.374  1.00  0.00     0.058 A 
ATOM     62  C   UNL     1       2.679  -0.478  -9.932  1.00  0.00     0.135 A 
ATOM     63  C   UNL     1       2.175  -2.035 -11.694  1.00  0.00     0.135 A 
ATOM     64  F   UNL     1       3.063  -0.206  -8.675  1.00  0.00    -0.206 F 
ATOM     65  C   UNL     1       2.328   0.585 -10.761  1.00  0.00     0.059 A 
ATOM     66  C   UNL     1       1.837  -0.988 -12.545  1.00  0.00     0.059 A 
ATOM     67  F   UNL     1       2.083  -3.289 -12.166  1.00  0.00    -0.206 F 
ATOM     68  C   UNL     1       1.902   0.319 -12.064  1.00  0.00     0.060 A 
BRANCH  68  69
ATOM     69  S   UNL     1       1.446   1.700 -13.135  1.00  0.00     0.124 S 
ATOM     70  O   UNL     1       0.093   1.991 -12.671  1.00  0.00    -0.237 OA
ATOM     71  O   UNL     1       2.456   2.703 -12.811  1.00  0.00    -0.237 OA
ATOM     72  O   UNL     1       1.542   1.132 -14.477  1.00  0.00    -0.744 OA
ENDBRANCH  68  69
ENDBRANCH  47  61
BRANCH  48  73
ATOM     73  C   UNL     1       4.777  -9.437  -4.329  1.00  0.00     0.058 A 
ATOM     74  C   UNL     1       5.683  -9.296  -3.268  1.00  0.00     0.135 A 
ATOM     75  C   UNL     1       4.151 -10.681  -4.496  1.00  0.00     0.135 A 
ATOM     76  F   UNL     1       6.313  -8.127  -3.075  1.00  0.00    -0.206 F 
ATOM     77  C   UNL     1       5.957 -10.349  -2.401  1.00  0.00     0.059 A 
ATOM     78  C   UNL     1       4.391 -11.741  -3.630  1.00  0.00     0.059 A 
ATOM     79  F   UNL     1       3.265 -10.860  -5.489  1.00  0.00    -0.206 F 
ATOM     80  C   UNL     1       5.301 -11.567  -2.587  1.00  0.00     0.060 A 
BRANCH  80  81
ATOM     81  S   UNL     1       5.589 -12.909  -1.413  1.00  0.00     0.124 S 
ATOM     82  O   UNL     1       6.817 -13.496  -1.935  1.00  0.00    -0.237 OA
ATOM     83  O   UNL     1       5.710 -12.197  -0.144  1.00  0.00    -0.237 OA
ATOM     84  O   UNL     1       4.387 -13.727  -1.547  1.00  0.00    -0.744 OA
ENDBRANCH  80  81
ENDBRANCH  48  73
BRANCH  60  85
ATOM     85  C   UNL     1       8.180  -6.287  -9.526  1.00  0.00     0.058 A 
ATOM     86  C   UNL     1       8.401  -7.329 -10.439  1.00  0.00     0.135 A 
ATOM     87  C   UNL     1       9.246  -5.422  -9.238  1.00  0.00     0.135 A 
ATOM     88  F   UNL     1       7.412  -8.185 -10.740  1.00  0.00    -0.206 F 
ATOM     89  C   UNL     1       9.641  -7.512 -11.040  1.00  0.00     0.059 A 
ATOM     90  C   UNL     1      10.491  -5.579  -9.838  1.00  0.00     0.059 A 
ATOM     91  F   UNL     1       9.079  -4.408  -8.373  1.00  0.00    -0.206 F 
ATOM     92  C   UNL     1      10.681  -6.632 -10.733  1.00  0.00     0.060 A 
BRANCH  92  93
ATOM     93  S   UNL     1      12.277  -6.850 -11.548  1.00  0.00     0.124 S 
ATOM     94  O   UNL     1      12.861  -7.934 -10.765  1.00  0.00    -0.237 OA
ATOM     95  O   UNL     1      11.892  -7.192 -12.914  1.00  0.00    -0.237 OA
ATOM     96  O   UNL     1      12.916  -5.546 -11.393  1.00  0.00    -0.744 OA
ENDBRANCH  92  93
ENDBRANCH  60  85
ENDBRANCH  34  35
ENDBRANCH  27  29
ENDBRANCH  26  27
ENDBRANCH  25  26
ENDBRANCH   1  25
TORSDOF 17
