REMARK SMILES CCCCc1ncc(C[N@H+]2C[C@@H]3c4ccccc4OC[C@]3(C(=O)OCCOC(=O)c3ccc(-c4c5nc(c(-c6c(F)cc(S(=O)(=O)[O-])cc6F)c6ccc([nH]6)c(-c6c(F)cc(S(=O)(=O)[O-])cc6F)c6nc(c(-c7c(F)cc(S(=O)(=O)[O-])cc7F)c7ccc4[nH]7)C=C6)C=C5)cc3)C2)[nH]1
REMARK SMILES IDX 25 1 24 2 22 3 23 4 21 5 10 6 11 7 96 8 12 10 13 11 20 12
REMARK SMILES IDX 14 13 18 14 19 15 15 16 17 17 16 18 9 19 8 20 5 21 6 22
REMARK SMILES IDX 97 23 7 24 4 26 3 27 2 28 1 29 26 30 27 31 28 32 29 33 30 34
REMARK SMILES IDX 31 35 95 36 32 37 94 38 33 39 34 40 35 41 88 42 36 43 93 44
REMARK SMILES IDX 87 45 89 46 37 47 92 48 86 49 85 50 38 52 72 53 51 54 71 55
REMARK SMILES IDX 52 56 55 57 70 58 90 59 53 60 54 61 69 63 91 64 56 65 39 66
REMARK SMILES IDX 40 67 49 68 41 69 42 70 48 71 50 72 43 73 44 74 45 75 46 76
REMARK SMILES IDX 47 77 73 78 74 79 83 80 75 81 76 82 82 83 84 84 77 85 78 86
REMARK SMILES IDX 79 87 80 88 81 89 57 90 58 91 67 92 59 93 60 94 66 95 68 96
REMARK SMILES IDX 61 97 62 98 63 99 64 100 65 101
REMARK H PARENT 10 9 97 25 89 51 55 62
REMARK Flexibility Score: inf
ROOT
ATOM      1  C   UNL     1      -1.417  -5.313   0.873  1.00  0.00     0.274 C 
ENDROOT
BRANCH   1   2
ATOM      2  O   UNL     1      -2.399  -4.262   1.002  1.00  0.00    -0.461 OA
BRANCH   2   3
ATOM      3  C   UNL     1      -2.132  -3.059   0.391  1.00  0.00     0.322 C 
ATOM      4  O   UNL     1      -1.033  -2.706   0.025  1.00  0.00    -0.251 OA
BRANCH   3   5
ATOM      5  C   UNL     1      -3.446  -2.310   0.186  1.00  0.00     0.162 C 
ATOM      6  N   UNL     1      -4.734  -0.917   1.724  1.00  0.00    -0.328 N 
ATOM      7  C   UNL     1      -4.611  -0.234   0.440  1.00  0.00     0.272 C 
ATOM      8  C   UNL     1      -4.039  -2.197   1.611  1.00  0.00     0.286 C 
ATOM      9  H   UNL     1      -5.721  -1.090   1.912  1.00  0.00     0.348 HD
ATOM     10  C   UNL     1      -3.377  -0.843  -0.244  1.00  0.00     0.105 C 
ATOM     11  C   UNL     1      -3.494  -0.598  -1.717  1.00  0.00     0.004 A 
ATOM     12  C   UNL     1      -4.253  -3.186  -0.796  1.00  0.00     0.255 C 
ATOM     13  C   UNL     1      -3.124   0.637  -2.275  1.00  0.00     0.008 A 
ATOM     14  C   UNL     1      -4.129  -1.534  -2.523  1.00  0.00     0.123 A 
ATOM     15  O   UNL     1      -4.735  -2.641  -2.022  1.00  0.00    -0.492 OA
ATOM     16  C   UNL     1      -3.345   0.898  -3.630  1.00  0.00     0.001 A 
ATOM     17  C   UNL     1      -4.304  -1.295  -3.887  1.00  0.00     0.047 A 
ATOM     18  C   UNL     1      -3.907  -0.081  -4.444  1.00  0.00     0.004 A 
BRANCH   6  19
ATOM     19  C   UNL     1      -4.406  -0.119   2.908  1.00  0.00     0.319 C 
BRANCH  19  20
ATOM     20  C   UNL     1      -3.209   0.762   2.798  1.00  0.00     0.090 A 
ATOM     21  C   UNL     1      -1.092   1.454   2.715  1.00  0.00     0.106 A 
ATOM     22  N   UNL     1      -1.826   2.532   2.523  1.00  0.00    -0.241 NA
ATOM     23  N   UNL     1      -1.902   0.363   2.947  1.00  0.00    -0.341 N 
ATOM     24  C   UNL     1      -3.125   2.119   2.572  1.00  0.00     0.140 A 
ATOM     25  H   UNL     1      -1.597  -0.544   3.179  1.00  0.00     0.168 HD
BRANCH  21  26
ATOM     26  C   UNL     1       0.407   1.440   2.710  1.00  0.00     0.075 C 
BRANCH  26  27
ATOM     27  C   UNL     1       1.080   0.086   2.495  1.00  0.00     0.008 C 
BRANCH  27  28
ATOM     28  C   UNL     1       0.754  -0.603   1.173  1.00  0.00    -0.003 C 
ATOM     29  C   UNL     1       1.204   0.141  -0.073  1.00  0.00     0.004 C 
ENDBRANCH  27  28
ENDBRANCH  26  27
ENDBRANCH  21  26
ENDBRANCH  19  20
ENDBRANCH   6  19
ENDBRANCH   3   5
ENDBRANCH   2   3
ENDBRANCH   1   2
BRANCH   1  30
ATOM     30  C   UNL     1      -1.708  -6.093  -0.410  1.00  0.00     0.275 C 
BRANCH  30  31
ATOM     31  O   UNL     1      -1.274  -5.281  -1.510  1.00  0.00    -0.458 OA
BRANCH  31  32
ATOM     32  C   UNL     1      -1.903  -5.462  -2.694  1.00  0.00     0.338 C 
ATOM     33  O   UNL     1      -2.739  -6.312  -2.951  1.00  0.00    -0.246 OA
BRANCH  32  34
ATOM     34  C   UNL     1      -1.364  -4.472  -3.649  1.00  0.00     0.060 A 
ATOM     35  C   UNL     1      -1.105  -4.862  -4.960  1.00  0.00     0.016 A 
ATOM     36  C   UNL     1      -1.086  -3.162  -3.245  1.00  0.00     0.016 A 
ATOM     37  C   UNL     1      -0.468  -3.968  -5.823  1.00  0.00     0.010 A 
ATOM     38  C   UNL     1      -0.520  -2.247  -4.126  1.00  0.00     0.010 A 
ATOM     39  C   UNL     1      -0.147  -2.662  -5.405  1.00  0.00    -0.014 A 
BRANCH  39  40
ATOM     40  C   UNL     1       0.624  -1.758  -6.293  1.00  0.00     0.031 A 
ATOM     41  C   UNL     1       2.023  -1.337  -5.919  1.00  0.00     0.074 A 
ATOM     42  C   UNL     1       0.074  -1.357  -7.453  1.00  0.00     0.049 A 
ATOM     43  N   UNL     1       2.898  -0.667  -6.626  1.00  0.00    -0.248 NA
ATOM     44  C   UNL     1       2.501  -1.700  -4.574  1.00  0.00     0.031 C 
ATOM     45  C   UNL     1      -1.296  -1.652  -7.879  1.00  0.00     0.029 A 
ATOM     46  N   UNL     1       0.604  -0.648  -8.500  1.00  0.00    -0.354 N 
ATOM     47  C   UNL     1       4.024  -0.538  -5.819  1.00  0.00     0.074 A 
ATOM     48  C   UNL     1       3.699  -1.134  -4.543  1.00  0.00     0.031 C 
ATOM     49  C   UNL     1      -1.475  -1.192  -9.127  1.00  0.00     0.029 A 
ATOM     50  C   UNL     1      -0.246  -0.545  -9.575  1.00  0.00     0.049 A 
ATOM     51  H   UNL     1       1.504  -0.252  -8.483  1.00  0.00     0.167 HD
ATOM     52  C   UNL     1       5.230  -0.005  -6.126  1.00  0.00     0.037 A 
ATOM     53  C   UNL     1      -0.045  -0.011 -10.795  1.00  0.00     0.037 A 
ATOM     54  C   UNL     1       5.544   0.570  -7.408  1.00  0.00     0.049 A 
ATOM     55  C   UNL     1       1.307   0.566 -11.117  1.00  0.00     0.074 A 
ATOM     56  C   UNL     1       6.744   1.104  -7.844  1.00  0.00     0.029 A 
ATOM     57  N   UNL     1       4.649   0.682  -8.463  1.00  0.00    -0.354 N 
ATOM     58  N   UNL     1       2.381   0.622 -10.364  1.00  0.00    -0.248 NA
ATOM     59  C   UNL     1       1.477   1.147 -12.455  1.00  0.00     0.031 C 
ATOM     60  C   UNL     1       6.562   1.574  -9.149  1.00  0.00     0.029 A 
ATOM     61  C   UNL     1       5.263   1.293  -9.543  1.00  0.00     0.049 A 
ATOM     62  H   UNL     1       3.714   0.374  -8.445  1.00  0.00     0.167 HD
ATOM     63  C   UNL     1       3.357   1.238 -11.139  1.00  0.00     0.074 A 
ATOM     64  C   UNL     1       2.753   1.506 -12.430  1.00  0.00     0.031 C 
ATOM     65  C   UNL     1       4.633   1.561 -10.813  1.00  0.00     0.037 A 
BRANCH  52  66
ATOM     66  C   UNL     1       6.304  -0.041  -5.070  1.00  0.00     0.058 A 
ATOM     67  C   UNL     1       6.905  -1.249  -4.677  1.00  0.00     0.135 A 
ATOM     68  C   UNL     1       6.771   1.141  -4.472  1.00  0.00     0.135 A 
ATOM     69  F   UNL     1       6.491  -2.413  -5.203  1.00  0.00    -0.206 F 
ATOM     70  C   UNL     1       7.908  -1.287  -3.713  1.00  0.00     0.059 A 
ATOM     71  C   UNL     1       7.793   1.130  -3.525  1.00  0.00     0.059 A 
ATOM     72  F   UNL     1       6.236   2.325  -4.808  1.00  0.00    -0.206 F 
ATOM     73  C   UNL     1       8.348  -0.091  -3.144  1.00  0.00     0.060 A 
BRANCH  73  74
ATOM     74  S   UNL     1       9.658  -0.163  -1.903  1.00  0.00     0.124 S 
ATOM     75  O   UNL     1       8.965  -0.791  -0.782  1.00  0.00    -0.237 OA
ATOM     76  O   UNL     1      10.666  -0.985  -2.564  1.00  0.00    -0.237 OA
ATOM     77  O   UNL     1      10.022   1.237  -1.708  1.00  0.00    -0.744 OA
ENDBRANCH  73  74
ENDBRANCH  52  66
BRANCH  53  78
ATOM     78  C   UNL     1      -1.134  -0.047 -11.807  1.00  0.00     0.058 A 
ATOM     79  C   UNL     1      -1.044  -0.875 -12.936  1.00  0.00     0.135 A 
ATOM     80  C   UNL     1      -2.303   0.713 -11.647  1.00  0.00     0.135 A 
ATOM     81  F   UNL     1       0.055  -1.619 -13.137  1.00  0.00    -0.206 F 
ATOM     82  C   UNL     1      -2.069  -0.942 -13.875  1.00  0.00     0.059 A 
ATOM     83  C   UNL     1      -3.353   0.643 -12.558  1.00  0.00     0.059 A 
ATOM     84  F   UNL     1      -2.447   1.507 -10.575  1.00  0.00    -0.206 F 
ATOM     85  C   UNL     1      -3.223  -0.183 -13.673  1.00  0.00     0.060 A 
BRANCH  85  86
ATOM     86  S   UNL     1      -4.570  -0.325 -14.868  1.00  0.00     0.124 S 
ATOM     87  O   UNL     1      -3.999   0.336 -16.036  1.00  0.00    -0.237 OA
ATOM     88  O   UNL     1      -4.736  -1.771 -14.969  1.00  0.00    -0.237 OA
ATOM     89  O   UNL     1      -5.671   0.382 -14.219  1.00  0.00    -0.744 OA
ENDBRANCH  85  86
ENDBRANCH  53  78
BRANCH  65  90
ATOM     90  C   UNL     1       5.456   2.248 -11.867  1.00  0.00     0.058 A 
ATOM     91  C   UNL     1       5.213   3.583 -12.227  1.00  0.00     0.135 A 
ATOM     92  C   UNL     1       6.524   1.583 -12.489  1.00  0.00     0.135 A 
ATOM     93  F   UNL     1       4.201   4.261 -11.664  1.00  0.00    -0.206 F 
ATOM     94  C   UNL     1       5.981   4.224 -13.192  1.00  0.00     0.059 A 
ATOM     95  C   UNL     1       7.324   2.215 -13.435  1.00  0.00     0.059 A 
ATOM     96  F   UNL     1       6.807   0.310 -12.170  1.00  0.00    -0.206 F 
ATOM     97  C   UNL     1       7.035   3.532 -13.790  1.00  0.00     0.060 A 
BRANCH  97  98
ATOM     98  S   UNL     1       8.032   4.386 -15.028  1.00  0.00     0.124 S 
ATOM     99  O   UNL     1       7.106   4.455 -16.154  1.00  0.00    -0.237 OA
ATOM    100  O   UNL     1       8.327   5.655 -14.370  1.00  0.00    -0.237 OA
ATOM    101  O   UNL     1       9.178   3.500 -15.212  1.00  0.00    -0.744 OA
ENDBRANCH  97  98
ENDBRANCH  65  90
ENDBRANCH  39  40
ENDBRANCH  32  34
ENDBRANCH  31  32
ENDBRANCH  30  31
ENDBRANCH   1  30
TORSDOF 19
