REMARK SMILES COc1ccc2c(c1)c(CC(=O)OCCOC(=O)c1ccc(-c3c4nc(c(-c5c(F)cc(S(=O)(=O)[O-])cc5F)c5ccc([nH]5)c(-c5c(F)cc(S(=O)(=O)[O-])cc5F)c5nc(c(-c6c(F)cc(S(=O)(=O)[O-])cc6F)c6ccc3[nH]6)C=C5)C=C4)cc1)c(C(F)(F)F)n2C(=O)c1ccc(Cl)cc1
REMARK SMILES IDX 14 1 13 2 11 3 12 4 10 5 9 6 3 7 4 8 8 9 5 10 7 11 6 12
REMARK SMILES IDX 90 13 85 14 2 15 1 16 91 17 92 18 93 19 94 20 99 21 95 22
REMARK SMILES IDX 98 23 96 24 97 25 86 26 87 27 88 28 89 29 15 30 16 31 17 32
REMARK SMILES IDX 18 33 19 34 20 35 84 36 21 37 83 38 22 39 23 40 24 41 77 42
REMARK SMILES IDX 25 43 82 44 76 45 78 46 26 47 81 48 75 49 74 50 27 52 61 53
REMARK SMILES IDX 40 54 60 55 41 56 44 57 59 58 79 59 42 60 43 61 58 63 80 64
REMARK SMILES IDX 45 65 28 66 29 67 38 68 30 69 31 70 37 71 39 72 32 73 33 74
REMARK SMILES IDX 34 75 35 76 36 77 62 78 63 79 72 80 64 81 65 82 71 83 73 84
REMARK SMILES IDX 66 85 67 86 68 87 69 88 70 89 46 90 47 91 56 92 48 93 49 94
REMARK SMILES IDX 55 95 57 96 50 97 51 98 52 99 53 100 54 101
REMARK H PARENT 78 51 44 62
REMARK Flexibility Score: inf
ROOT
ATOM      1  C   UNL     1      -1.878  -5.451   4.130  1.00  0.00     0.274 C 
ENDROOT
BRANCH   1   2
ATOM      2  O   UNL     1      -1.338  -5.710   2.814  1.00  0.00    -0.462 OA
BRANCH   2   3
ATOM      3  C   UNL     1      -2.213  -6.248   1.930  1.00  0.00     0.310 C 
ATOM      4  O   UNL     1      -3.381  -6.518   2.197  1.00  0.00    -0.252 OA
BRANCH   3   5
ATOM      5  C   UNL     1      -1.643  -6.561   0.575  1.00  0.00     0.161 C 
BRANCH   5   6
ATOM      6  C   UNL     1      -0.214  -6.225   0.229  1.00  0.00     0.002 A 
ATOM      7  C   UNL     1       0.927  -2.536   0.207  1.00  0.00     0.119 A 
ATOM      8  C   UNL     1       2.160  -2.769  -0.367  1.00  0.00     0.048 A 
ATOM      9  C   UNL     1       0.096  -3.627   0.505  1.00  0.00     0.057 A 
ATOM     10  C   UNL     1       2.564  -4.072  -0.668  1.00  0.00     0.031 A 
ATOM     11  C   UNL     1       0.453  -4.957   0.179  1.00  0.00     0.008 A 
ATOM     12  C   UNL     1       1.718  -5.168  -0.382  1.00  0.00     0.057 A 
ATOM     13  N   UNL     1       1.899  -6.556  -0.498  1.00  0.00    -0.271 N 
ATOM     14  C   UNL     1       0.654  -7.148  -0.354  1.00  0.00     0.135 A 
BRANCH   7  15
ATOM     15  O   UNL     1       0.435  -1.303   0.538  1.00  0.00    -0.497 OA
ATOM     16  C   UNL     1       1.017  -0.178  -0.112  1.00  0.00     0.278 C 
ENDBRANCH   7  15
BRANCH  13  17
ATOM     17  C   UNL     1       3.132  -7.231  -0.681  1.00  0.00     0.262 C 
ATOM     18  O   UNL     1       3.158  -8.454  -0.588  1.00  0.00    -0.268 OA
BRANCH  17  19
ATOM     19  C   UNL     1       4.425  -6.564  -0.870  1.00  0.00     0.040 A 
ATOM     20  C   UNL     1       5.062  -5.996   0.239  1.00  0.00     0.015 A 
ATOM     21  C   UNL     1       4.964  -6.454  -2.155  1.00  0.00     0.015 A 
ATOM     22  C   UNL     1       6.229  -5.259   0.049  1.00  0.00     0.021 A 
ATOM     23  C   UNL     1       6.138  -5.721  -2.335  1.00  0.00     0.021 A 
ATOM     24  C   UNL     1       6.758  -5.118  -1.237  1.00  0.00     0.041 A 
ATOM     25  Cl  UNL     1       8.176  -4.173  -1.470  1.00  0.00    -0.084 Cl
ENDBRANCH  17  19
ENDBRANCH  13  17
BRANCH  14  26
ATOM     26  C   UNL     1       0.339  -8.554  -0.759  1.00  0.00     0.432 C 
ATOM     27  F   UNL     1       0.311  -9.378   0.316  1.00  0.00    -0.165 F 
ATOM     28  F   UNL     1      -0.905  -8.606  -1.314  1.00  0.00    -0.165 F 
ATOM     29  F   UNL     1       1.155  -9.085  -1.695  1.00  0.00    -0.165 F 
ENDBRANCH  14  26
ENDBRANCH   5   6
ENDBRANCH   3   5
ENDBRANCH   2   3
ENDBRANCH   1   2
BRANCH   1  30
ATOM     30  C   UNL     1      -2.208  -3.965   4.294  1.00  0.00     0.275 C 
BRANCH  30  31
ATOM     31  O   UNL     1      -3.371  -3.663   3.512  1.00  0.00    -0.458 OA
BRANCH  31  32
ATOM     32  C   UNL     1      -3.216  -2.842   2.446  1.00  0.00     0.338 C 
ATOM     33  O   UNL     1      -2.333  -2.021   2.266  1.00  0.00    -0.246 OA
BRANCH  32  34
ATOM     34  C   UNL     1      -4.118  -3.376   1.408  1.00  0.00     0.060 A 
ATOM     35  C   UNL     1      -5.412  -3.766   1.752  1.00  0.00     0.016 A 
ATOM     36  C   UNL     1      -3.573  -3.717   0.165  1.00  0.00     0.016 A 
ATOM     37  C   UNL     1      -6.102  -4.620   0.905  1.00  0.00     0.010 A 
ATOM     38  C   UNL     1      -4.249  -4.606  -0.660  1.00  0.00     0.010 A 
ATOM     39  C   UNL     1      -5.490  -5.096  -0.264  1.00  0.00    -0.014 A 
BRANCH  39  40
ATOM     40  C   UNL     1      -6.314  -5.830  -1.209  1.00  0.00     0.031 A 
ATOM     41  C   UNL     1      -7.117  -4.914  -2.045  1.00  0.00     0.074 A 
ATOM     42  C   UNL     1      -6.413  -7.155  -1.416  1.00  0.00     0.049 A 
ATOM     43  N   UNL     1      -8.339  -4.567  -1.830  1.00  0.00    -0.248 NA
ATOM     44  C   UNL     1      -6.445  -4.162  -3.110  1.00  0.00     0.031 C 
ATOM     45  C   UNL     1      -5.561  -8.245  -0.956  1.00  0.00     0.029 A 
ATOM     46  N   UNL     1      -7.352  -7.789  -2.179  1.00  0.00    -0.354 N 
ATOM     47  C   UNL     1      -8.666  -3.694  -2.853  1.00  0.00     0.074 A 
ATOM     48  C   UNL     1      -7.423  -3.338  -3.490  1.00  0.00     0.031 C 
ATOM     49  C   UNL     1      -5.922  -9.387  -1.595  1.00  0.00     0.029 A 
ATOM     50  C   UNL     1      -7.115  -9.138  -2.394  1.00  0.00     0.049 A 
ATOM     51  H   UNL     1      -8.137  -7.324  -2.547  1.00  0.00     0.167 HD
ATOM     52  C   UNL     1      -9.960  -3.503  -3.221  1.00  0.00     0.037 A 
ATOM     53  C   UNL     1      -7.844  -9.959  -3.197  1.00  0.00     0.037 A 
ATOM     54  C   UNL     1     -10.873  -4.016  -2.226  1.00  0.00     0.049 A 
ATOM     55  C   UNL     1      -9.212  -9.372  -3.293  1.00  0.00     0.074 A 
ATOM     56  C   UNL     1     -11.049  -3.787  -0.873  1.00  0.00     0.029 A 
ATOM     57  N   UNL     1     -11.518  -5.203  -2.487  1.00  0.00    -0.354 N 
ATOM     58  N   UNL     1     -10.058  -9.318  -2.299  1.00  0.00    -0.248 NA
ATOM     59  C   UNL     1      -9.502  -8.470  -4.399  1.00  0.00     0.031 C 
ATOM     60  C   UNL     1     -11.347  -5.064  -0.316  1.00  0.00     0.029 A 
ATOM     61  C   UNL     1     -11.390  -5.984  -1.365  1.00  0.00     0.049 A 
ATOM     62  H   UNL     1     -11.983  -5.446  -3.320  1.00  0.00     0.167 HD
ATOM     63  C   UNL     1     -10.714  -8.106  -2.453  1.00  0.00     0.074 A 
ATOM     64  C   UNL     1     -10.405  -7.679  -3.815  1.00  0.00     0.031 C 
ATOM     65  C   UNL     1     -11.223  -7.423  -1.385  1.00  0.00     0.037 A 
BRANCH  52  66
ATOM     66  C   UNL     1     -10.391  -3.164  -4.621  1.00  0.00     0.058 A 
ATOM     67  C   UNL     1     -11.731  -2.801  -4.856  1.00  0.00     0.135 A 
ATOM     68  C   UNL     1      -9.618  -3.438  -5.772  1.00  0.00     0.135 A 
ATOM     69  F   UNL     1     -12.556  -2.526  -3.833  1.00  0.00    -0.206 F 
ATOM     70  C   UNL     1     -12.284  -2.790  -6.135  1.00  0.00     0.059 A 
ATOM     71  C   UNL     1     -10.133  -3.373  -7.059  1.00  0.00     0.059 A 
ATOM     72  F   UNL     1      -8.358  -3.884  -5.702  1.00  0.00    -0.206 F 
ATOM     73  C   UNL     1     -11.478  -3.096  -7.228  1.00  0.00     0.060 A 
BRANCH  73  74
ATOM     74  S   UNL     1     -12.216  -3.208  -8.864  1.00  0.00     0.124 S 
ATOM     75  O   UNL     1     -13.029  -4.412  -8.730  1.00  0.00    -0.237 OA
ATOM     76  O   UNL     1     -12.946  -1.948  -8.953  1.00  0.00    -0.237 OA
ATOM     77  O   UNL     1     -11.059  -3.320  -9.747  1.00  0.00    -0.744 OA
ENDBRANCH  73  74
ENDBRANCH  52  66
BRANCH  53  78
ATOM     78  C   UNL     1      -7.377 -11.056  -4.090  1.00  0.00     0.058 A 
ATOM     79  C   UNL     1      -8.292 -11.864  -4.796  1.00  0.00     0.135 A 
ATOM     80  C   UNL     1      -6.031 -11.159  -4.497  1.00  0.00     0.135 A 
ATOM     81  F   UNL     1      -9.600 -11.826  -4.498  1.00  0.00    -0.206 F 
ATOM     82  C   UNL     1      -7.907 -12.669  -5.876  1.00  0.00     0.059 A 
ATOM     83  C   UNL     1      -5.622 -11.966  -5.559  1.00  0.00     0.059 A 
ATOM     84  F   UNL     1      -5.077 -10.404  -3.935  1.00  0.00    -0.206 F 
ATOM     85  C   UNL     1      -6.570 -12.695  -6.266  1.00  0.00     0.060 A 
BRANCH  85  86
ATOM     86  S   UNL     1      -6.096 -13.582  -7.769  1.00  0.00     0.124 S 
ATOM     87  O   UNL     1      -6.325 -14.972  -7.388  1.00  0.00    -0.237 OA
ATOM     88  O   UNL     1      -7.018 -13.031  -8.756  1.00  0.00    -0.237 OA
ATOM     89  O   UNL     1      -4.695 -13.211  -7.956  1.00  0.00    -0.744 OA
ENDBRANCH  85  86
ENDBRANCH  53  78
BRANCH  65  90
ATOM     90  C   UNL     1     -11.373  -8.127  -0.059  1.00  0.00     0.058 A 
ATOM     91  C   UNL     1     -10.305  -8.660   0.683  1.00  0.00     0.135 A 
ATOM     92  C   UNL     1     -12.626  -8.072   0.576  1.00  0.00     0.135 A 
ATOM     93  F   UNL     1      -9.056  -8.667   0.194  1.00  0.00    -0.206 F 
ATOM     94  C   UNL     1     -10.478  -9.125   1.990  1.00  0.00     0.059 A 
ATOM     95  C   UNL     1     -12.814  -8.497   1.889  1.00  0.00     0.059 A 
ATOM     96  F   UNL     1     -13.679  -7.529  -0.060  1.00  0.00    -0.206 F 
ATOM     97  C   UNL     1     -11.733  -9.024   2.591  1.00  0.00     0.060 A 
BRANCH  97  98
ATOM     98  S   UNL     1     -11.917  -9.490   4.327  1.00  0.00     0.124 S 
ATOM     99  O   UNL     1     -11.785 -10.942   4.273  1.00  0.00    -0.237 OA
ATOM    100  O   UNL     1     -10.815  -8.776   4.965  1.00  0.00    -0.237 OA
ATOM    101  O   UNL     1     -13.249  -8.998   4.675  1.00  0.00    -0.744 OA
ENDBRANCH  97  98
ENDBRANCH  65  90
ENDBRANCH  39  40
ENDBRANCH  32  34
ENDBRANCH  31  32
ENDBRANCH  30  31
ENDBRANCH   1  30
TORSDOF 19
