REMARK SMILES CC(=O)[C@]1(C)CC[C@@H](C(=O)OCCOC(=O)c2ccc(-c3c4nc(c(-c5c(F)cc(S(=O)(=O)[O-])cc5F)c5ccc([nH]5)c(-c5c(F)cc(S(=O)(=O)[O-])cc5F)c5nc(c(-c6c(F)cc(S(=O)(=O)[O-])cc6F)c6ccc3[nH]6)C=C5)C=C4)cc2)C1(C)C
REMARK SMILES IDX 13 1 12 2 11 3 9 4 10 5 8 6 4 7 6 8 83 9 5 10 7 11 84 12
REMARK SMILES IDX 85 13 2 14 1 15 3 16 14 17 15 18 16 19 17 20 18 21 82 22
REMARK SMILES IDX 19 23 81 24 20 25 21 26 22 27 75 28 23 29 80 30 74 31 76 32
REMARK SMILES IDX 24 33 79 34 73 35 72 36 25 38 59 39 38 40 58 41 39 42 42 43
REMARK SMILES IDX 57 44 77 45 40 46 41 47 56 49 78 50 43 51 26 52 27 53 36 54
REMARK SMILES IDX 28 55 29 56 35 57 37 58 30 59 31 60 32 61 33 62 34 63 60 64
REMARK SMILES IDX 61 65 70 66 62 67 63 68 69 69 71 70 64 71 65 72 66 73 67 74
REMARK SMILES IDX 68 75 44 76 45 77 54 78 46 79 47 80 53 81 55 82 48 83 49 84
REMARK SMILES IDX 50 85 51 86 52 87
REMARK H PARENT 76 37 42 48
REMARK Flexibility Score: inf
ROOT
ATOM      1  C   UNL     1       6.611   0.338  -1.936  1.00  0.00     0.275 C 
ENDROOT
BRANCH   1   2
ATOM      2  C   UNL     1       5.570   1.454  -1.840  1.00  0.00     0.274 C 
BRANCH   2   3
ATOM      3  O   UNL     1       4.247   0.938  -2.089  1.00  0.00    -0.462 OA
BRANCH   3   4
ATOM      4  C   UNL     1       3.840   0.947  -3.378  1.00  0.00     0.309 C 
ATOM      5  O   UNL     1       4.441   1.520  -4.282  1.00  0.00    -0.252 OA
BRANCH   4   6
ATOM      6  C   UNL     1       2.500   0.264  -3.631  1.00  0.00     0.106 C 
ATOM      7  C   UNL     1       0.462  -0.435  -2.354  1.00  0.00     0.032 C 
ATOM      8  C   UNL     1       0.611   1.099  -2.405  1.00  0.00     0.016 C 
ATOM      9  C   UNL     1       1.938  -0.913  -2.742  1.00  0.00    -0.010 C 
ATOM     10  C   UNL     1      -0.010  -0.838  -0.944  1.00  0.00     0.020 C 
ATOM     11  C   UNL     1       1.420   1.345  -3.661  1.00  0.00     0.017 C 
ATOM     12  C   UNL     1       2.775  -1.235  -1.484  1.00  0.00     0.013 C 
ATOM     13  C   UNL     1       2.003  -2.213  -3.580  1.00  0.00     0.013 C 
BRANCH   7  14
ATOM     14  C   UNL     1      -0.674  -0.953  -3.287  1.00  0.00     0.136 C 
ATOM     15  C   UNL     1      -1.821  -0.033  -3.637  1.00  0.00     0.088 C 
ATOM     16  O   UNL     1      -0.750  -2.136  -3.627  1.00  0.00    -0.299 OA
ENDBRANCH   7  14
ENDBRANCH   4   6
ENDBRANCH   3   4
ENDBRANCH   2   3
ENDBRANCH   1   2
BRANCH   1  17
ATOM     17  O   UNL     1       6.644  -0.186  -3.275  1.00  0.00    -0.458 OA
BRANCH  17  18
ATOM     18  C   UNL     1       6.494  -1.524  -3.397  1.00  0.00     0.338 C 
ATOM     19  O   UNL     1       6.389  -2.344  -2.503  1.00  0.00    -0.246 OA
BRANCH  18  20
ATOM     20  C   UNL     1       6.510  -1.878  -4.825  1.00  0.00     0.060 A 
ATOM     21  C   UNL     1       5.473  -1.472  -5.669  1.00  0.00     0.016 A 
ATOM     22  C   UNL     1       7.544  -2.678  -5.310  1.00  0.00     0.016 A 
ATOM     23  C   UNL     1       5.457  -1.879  -7.002  1.00  0.00     0.010 A 
ATOM     24  C   UNL     1       7.552  -3.044  -6.656  1.00  0.00     0.010 A 
ATOM     25  C   UNL     1       6.504  -2.658  -7.510  1.00  0.00    -0.014 A 
BRANCH  25  26
ATOM     26  C   UNL     1       6.526  -3.080  -8.931  1.00  0.00     0.031 A 
ATOM     27  C   UNL     1       6.393  -4.534  -9.280  1.00  0.00     0.074 A 
ATOM     28  C   UNL     1       6.732  -2.164  -9.896  1.00  0.00     0.049 A 
ATOM     29  N   UNL     1       6.608  -5.133 -10.421  1.00  0.00    -0.248 NA
ATOM     30  C   UNL     1       5.976  -5.433  -8.193  1.00  0.00     0.031 C 
ATOM     31  C   UNL     1       6.848  -0.721  -9.681  1.00  0.00     0.029 A 
ATOM     32  N   UNL     1       6.915  -2.316 -11.248  1.00  0.00    -0.354 N 
ATOM     33  C   UNL     1       6.390  -6.485 -10.184  1.00  0.00     0.074 A 
ATOM     34  C   UNL     1       6.029  -6.617  -8.788  1.00  0.00     0.031 C 
ATOM     35  C   UNL     1       7.103  -0.121 -10.854  1.00  0.00     0.029 A 
ATOM     36  C   UNL     1       7.230  -1.142 -11.890  1.00  0.00     0.049 A 
ATOM     37  H   UNL     1       6.829  -3.180 -11.712  1.00  0.00     0.167 HD
ATOM     38  C   UNL     1       6.488  -7.518 -11.055  1.00  0.00     0.037 A 
ATOM     39  C   UNL     1       7.631  -0.917 -13.156  1.00  0.00     0.037 A 
ATOM     40  C   UNL     1       6.828  -7.368 -12.446  1.00  0.00     0.049 A 
ATOM     41  C   UNL     1       7.776  -2.080 -14.095  1.00  0.00     0.074 A 
ATOM     42  C   UNL     1       6.920  -8.344 -13.422  1.00  0.00     0.029 A 
ATOM     43  N   UNL     1       7.136  -6.161 -13.058  1.00  0.00    -0.354 N 
ATOM     44  N   UNL     1       7.573  -3.355 -13.861  1.00  0.00    -0.248 NA
ATOM     45  C   UNL     1       8.217  -1.780 -15.464  1.00  0.00     0.031 C 
ATOM     46  C   UNL     1       7.318  -7.732 -14.616  1.00  0.00     0.029 A 
ATOM     47  C   UNL     1       7.441  -6.369 -14.392  1.00  0.00     0.049 A 
ATOM     48  H   UNL     1       7.138  -5.285 -12.608  1.00  0.00     0.167 HD
ATOM     49  C   UNL     1       7.860  -4.010 -15.052  1.00  0.00     0.074 A 
ATOM     50  C   UNL     1       8.234  -2.989 -16.011  1.00  0.00     0.031 C 
ATOM     51  C   UNL     1       7.821  -5.338 -15.326  1.00  0.00     0.037 A 
BRANCH  38  52
ATOM     52  C   UNL     1       6.258  -8.902 -10.515  1.00  0.00     0.058 A 
ATOM     53  C   UNL     1       4.975  -9.365 -10.185  1.00  0.00     0.135 A 
ATOM     54  C   UNL     1       7.339  -9.779 -10.331  1.00  0.00     0.135 A 
ATOM     55  F   UNL     1       3.909  -8.562 -10.327  1.00  0.00    -0.206 F 
ATOM     56  C   UNL     1       4.776 -10.639  -9.659  1.00  0.00     0.059 A 
ATOM     57  C   UNL     1       7.161 -11.064  -9.827  1.00  0.00     0.059 A 
ATOM     58  F   UNL     1       8.587  -9.386 -10.631  1.00  0.00    -0.206 F 
ATOM     59  C   UNL     1       5.876 -11.478  -9.477  1.00  0.00     0.060 A 
BRANCH  59  60
ATOM     60  S   UNL     1       5.610 -13.121  -8.775  1.00  0.00     0.124 S 
ATOM     61  O   UNL     1       5.434 -12.808  -7.361  1.00  0.00    -0.237 OA
ATOM     62  O   UNL     1       4.413 -13.574  -9.477  1.00  0.00    -0.237 OA
ATOM     63  O   UNL     1       6.837 -13.836  -9.113  1.00  0.00    -0.744 OA
ENDBRANCH  59  60
ENDBRANCH  38  52
BRANCH  39  64
ATOM     64  C   UNL     1       7.970   0.467 -13.577  1.00  0.00     0.058 A 
ATOM     65  C   UNL     1       7.114   1.199 -14.410  1.00  0.00     0.135 A 
ATOM     66  C   UNL     1       9.126   1.104 -13.099  1.00  0.00     0.135 A 
ATOM     67  F   UNL     1       6.003   0.628 -14.899  1.00  0.00    -0.206 F 
ATOM     68  C   UNL     1       7.387   2.521 -14.749  1.00  0.00     0.059 A 
ATOM     69  C   UNL     1       9.409   2.431 -13.407  1.00  0.00     0.059 A 
ATOM     70  F   UNL     1       9.970   0.447 -12.288  1.00  0.00    -0.206 F 
ATOM     71  C   UNL     1       8.533   3.131 -14.235  1.00  0.00     0.060 A 
BRANCH  71  72
ATOM     72  S   UNL     1       8.831   4.875 -14.601  1.00  0.00     0.124 S 
ATOM     73  O   UNL     1       9.336   4.806 -15.967  1.00  0.00    -0.237 OA
ATOM     74  O   UNL     1       7.502   5.457 -14.441  1.00  0.00    -0.237 OA
ATOM     75  O   UNL     1       9.803   5.268 -13.585  1.00  0.00    -0.744 OA
ENDBRANCH  71  72
ENDBRANCH  39  64
BRANCH  51  76
ATOM     76  C   UNL     1       8.188  -5.762 -16.718  1.00  0.00     0.058 A 
ATOM     77  C   UNL     1       9.528  -5.825 -17.130  1.00  0.00     0.135 A 
ATOM     78  C   UNL     1       7.198  -6.167 -17.626  1.00  0.00     0.135 A 
ATOM     79  F   UNL     1      10.509  -5.439 -16.299  1.00  0.00    -0.206 F 
ATOM     80  C   UNL     1       9.874  -6.270 -18.401  1.00  0.00     0.059 A 
ATOM     81  C   UNL     1       7.523  -6.633 -18.896  1.00  0.00     0.059 A 
ATOM     82  F   UNL     1       5.903  -6.129 -17.276  1.00  0.00    -0.206 F 
ATOM     83  C   UNL     1       8.864  -6.675 -19.277  1.00  0.00     0.060 A 
BRANCH  83  84
ATOM     84  S   UNL     1       9.327  -7.298 -20.907  1.00  0.00     0.124 S 
ATOM     85  O   UNL     1       9.638  -6.061 -21.616  1.00  0.00    -0.237 OA
ATOM     86  O   UNL     1      10.466  -8.159 -20.604  1.00  0.00    -0.237 OA
ATOM     87  O   UNL     1       8.125  -7.995 -21.356  1.00  0.00    -0.744 OA
ENDBRANCH  83  84
ENDBRANCH  51  76
ENDBRANCH  25  26
ENDBRANCH  18  20
ENDBRANCH  17  18
ENDBRANCH   1  17
TORSDOF 15
