REMARK SMILES C[C@@](NC(=O)CCOC1CC[NH2+]CC1)(C(=O)OCCOC(=O)c1ccc(-c2c3nc(c(-c4c(F)cc(S(=O)(=O)[O-])cc4F)c4ccc([nH]4)c(-c4c(F)cc(S(=O)(=O)[O-])cc4F)c4nc(c(-c5c(F)cc(S(=O)(=O)[O-])cc5F)c5ccc2[nH]5)C=C4)C=C3)cc1)C(F)(F)F
REMARK SMILES IDX 18 1 17 2 15 3 16 4 2 5 1 6 3 7 4 8 5 10 6 11 7 12 8 13 9 14
REMARK SMILES IDX 10 15 14 16 11 17 13 18 12 19 89 22 90 23 91 24 92 25 19 26
REMARK SMILES IDX 20 27 21 28 22 29 23 30 24 31 88 32 25 33 87 34 26 35 27 36
REMARK SMILES IDX 28 37 81 38 29 39 86 40 80 41 82 42 30 43 85 44 79 45 78 46
REMARK SMILES IDX 31 48 65 49 44 50 64 51 45 52 48 53 63 54 83 55 46 56 47 57
REMARK SMILES IDX 62 59 84 60 49 61 32 62 33 63 42 64 34 65 35 66 41 67 43 68
REMARK SMILES IDX 36 69 37 70 38 71 39 72 40 73 66 74 67 75 76 76 68 77 69 78
REMARK SMILES IDX 75 79 77 80 70 81 71 82 72 83 73 84 74 85 50 86 51 87 60 88
REMARK SMILES IDX 52 89 53 90 59 91 61 92 54 93 55 94 56 95 57 96 58 97
REMARK H PARENT 3 9 12 20 12 21 82 47 48 58
REMARK Flexibility Score: inf
ROOT
ATOM      1  C   UNL     1      -3.035   0.425   0.565  1.00  0.00     0.274 C 
ENDROOT
BRANCH   1   2
ATOM      2  O   UNL     1      -1.611   0.118   0.563  1.00  0.00    -0.460 OA
BRANCH   2   3
ATOM      3  C   UNL     1      -0.768   1.180   0.789  1.00  0.00     0.341 C 
ATOM      4  O   UNL     1      -1.094   2.094   1.539  1.00  0.00    -0.249 OA
BRANCH   3   5
ATOM      5  C   UNL     1       0.518   1.186  -0.184  1.00  0.00     0.231 C 
ATOM      6  C   UNL     1       1.074  -0.256  -0.296  1.00  0.00     0.058 C 
BRANCH   5   7
ATOM      7  N   UNL     1       0.621   1.987  -1.792  1.00  0.00    -0.333 N 
ATOM      8  C   UNL     1      -0.144   2.770  -3.305  1.00  0.00     0.223 C 
ATOM      9  H   UNL     1       1.588   2.039  -1.966  1.00  0.00     0.164 HD
ATOM     10  O   UNL     1       0.492   3.312  -4.251  1.00  0.00    -0.275 OA
BRANCH   8  11
ATOM     11  C   UNL     1      -1.746   3.010  -3.688  1.00  0.00     0.128 C 
BRANCH  11  12
ATOM     12  C   UNL     1      -2.623   1.807  -3.811  1.00  0.00     0.170 C 
BRANCH  12  13
ATOM     13  O   UNL     1      -2.565   1.171  -2.573  1.00  0.00    -0.377 OA
BRANCH  13  14
ATOM     14  C   UNL     1      -1.245   1.340  -2.087  1.00  0.00     0.129 C 
ATOM     15  C   UNL     1      -0.921   3.155  -1.309  1.00  0.00     0.093 C 
ATOM     16  C   UNL     1       0.112   0.601  -3.276  1.00  0.00     0.093 C 
ATOM     17  C   UNL     1       0.760   4.043  -1.769  1.00  0.00     0.263 C 
ATOM     18  C   UNL     1       1.776   1.520  -3.490  1.00  0.00     0.263 C 
ATOM     19  N   UNL     1       2.136   3.151  -2.662  1.00  0.00    -0.346 N 
ATOM     20  H   UNL     1       2.874   2.981  -1.979  1.00  0.00     0.346 HD
ATOM     21  H   UNL     1       2.364   3.772  -3.439  1.00  0.00     0.346 HD
ENDBRANCH  13  14
ENDBRANCH  12  13
ENDBRANCH  11  12
ENDBRANCH   8  11
ENDBRANCH   5   7
BRANCH   5  22
ATOM     22  C   UNL     1       1.565   1.903   0.752  1.00  0.00     0.422 C 
ATOM     23  F   UNL     1       1.720   1.261   1.933  1.00  0.00    -0.168 F 
ATOM     24  F   UNL     1       2.787   1.913   0.160  1.00  0.00    -0.168 F 
ATOM     25  F   UNL     1       1.255   3.186   1.023  1.00  0.00    -0.168 F 
ENDBRANCH   5  22
ENDBRANCH   3   5
ENDBRANCH   2   3
ENDBRANCH   1   2
BRANCH   1  26
ATOM     26  C   UNL     1      -3.862  -0.507   1.445  1.00  0.00     0.275 C 
BRANCH  26  27
ATOM     27  O   UNL     1      -3.583  -0.246   2.819  1.00  0.00    -0.458 OA
BRANCH  27  28
ATOM     28  C   UNL     1      -2.434  -0.834   3.239  1.00  0.00     0.338 C 
ATOM     29  O   UNL     1      -1.811  -1.718   2.704  1.00  0.00    -0.246 OA
BRANCH  28  30
ATOM     30  C   UNL     1      -1.903   0.017   4.307  1.00  0.00     0.060 A 
ATOM     31  C   UNL     1      -0.659   0.604   4.068  1.00  0.00     0.016 A 
ATOM     32  C   UNL     1      -2.594   0.226   5.496  1.00  0.00     0.016 A 
ATOM     33  C   UNL     1      -0.086   1.428   5.012  1.00  0.00     0.010 A 
ATOM     34  C   UNL     1      -1.986   0.993   6.484  1.00  0.00     0.010 A 
ATOM     35  C   UNL     1      -0.721   1.562   6.245  1.00  0.00    -0.014 A 
BRANCH  35  36
ATOM     36  C   UNL     1       0.099   2.027   7.370  1.00  0.00     0.031 A 
ATOM     37  C   UNL     1       0.713   0.969   8.236  1.00  0.00     0.074 A 
ATOM     38  C   UNL     1       0.351   3.333   7.535  1.00  0.00     0.049 A 
ATOM     39  N   UNL     1       1.328   1.085   9.377  1.00  0.00    -0.248 NA
ATOM     40  C   UNL     1       0.610  -0.419   7.744  1.00  0.00     0.031 C 
ATOM     41  C   UNL     1      -0.091   4.399   6.635  1.00  0.00     0.029 A 
ATOM     42  N   UNL     1       1.048   3.979   8.514  1.00  0.00    -0.354 N 
ATOM     43  C   UNL     1       1.632  -0.214   9.768  1.00  0.00     0.074 A 
ATOM     44  C   UNL     1       1.143  -1.104   8.742  1.00  0.00     0.031 C 
ATOM     45  C   UNL     1       0.340   5.577   7.117  1.00  0.00     0.029 A 
ATOM     46  C   UNL     1       1.022   5.345   8.386  1.00  0.00     0.049 A 
ATOM     47  H   UNL     1       1.522   3.512   9.240  1.00  0.00     0.167 HD
ATOM     48  C   UNL     1       2.253  -0.612  10.901  1.00  0.00     0.037 A 
ATOM     49  C   UNL     1       1.461   6.287   9.239  1.00  0.00     0.037 A 
ATOM     50  C   UNL     1       2.742   0.323  11.877  1.00  0.00     0.049 A 
ATOM     51  C   UNL     1       2.084   5.823  10.530  1.00  0.00     0.074 A 
ATOM     52  C   UNL     1       3.367   0.070  13.082  1.00  0.00     0.029 A 
ATOM     53  N   UNL     1       2.662   1.705  11.744  1.00  0.00    -0.354 N 
ATOM     54  N   UNL     1       2.295   4.595  10.950  1.00  0.00    -0.248 NA
ATOM     55  C   UNL     1       2.512   6.864  11.469  1.00  0.00     0.031 C 
ATOM     56  C   UNL     1       3.623   1.301  13.698  1.00  0.00     0.029 A 
ATOM     57  C   UNL     1       3.212   2.321  12.851  1.00  0.00     0.049 A 
ATOM     58  H   UNL     1       2.270   2.176  10.973  1.00  0.00     0.167 HD
ATOM     59  C   UNL     1       2.906   4.715  12.191  1.00  0.00     0.074 A 
ATOM     60  C   UNL     1       3.038   6.138  12.445  1.00  0.00     0.031 C 
ATOM     61  C   UNL     1       3.324   3.747  13.048  1.00  0.00     0.037 A 
BRANCH  48  62
ATOM     62  C   UNL     1       2.350  -2.090  11.158  1.00  0.00     0.058 A 
ATOM     63  C   UNL     1       3.170  -2.938  10.396  1.00  0.00     0.135 A 
ATOM     64  C   UNL     1       1.575  -2.675  12.174  1.00  0.00     0.135 A 
ATOM     65  F   UNL     1       3.906  -2.442   9.389  1.00  0.00    -0.206 F 
ATOM     66  C   UNL     1       3.194  -4.314  10.610  1.00  0.00     0.059 A 
ATOM     67  C   UNL     1       1.607  -4.043  12.426  1.00  0.00     0.059 A 
ATOM     68  F   UNL     1       0.760  -1.917  12.923  1.00  0.00    -0.206 F 
ATOM     69  C   UNL     1       2.407  -4.857  11.627  1.00  0.00     0.060 A 
BRANCH  69  70
ATOM     70  S   UNL     1       2.443  -6.643  11.891  1.00  0.00     0.124 S 
ATOM     71  O   UNL     1       1.699  -7.125  10.732  1.00  0.00    -0.237 OA
ATOM     72  O   UNL     1       3.874  -6.931  11.889  1.00  0.00    -0.237 OA
ATOM     73  O   UNL     1       1.775  -6.811  13.178  1.00  0.00    -0.744 OA
ENDBRANCH  69  70
ENDBRANCH  48  62
BRANCH  49  74
ATOM     74  C   UNL     1       1.290   7.728   8.918  1.00  0.00     0.058 A 
ATOM     75  C   UNL     1       2.397   8.551   8.668  1.00  0.00     0.135 A 
ATOM     76  C   UNL     1       0.014   8.310   8.829  1.00  0.00     0.135 A 
ATOM     77  F   UNL     1       3.638   8.047   8.746  1.00  0.00    -0.206 F 
ATOM     78  C   UNL     1       2.249   9.899   8.352  1.00  0.00     0.059 A 
ATOM     79  C   UNL     1      -0.162   9.647   8.487  1.00  0.00     0.059 A 
ATOM     80  F   UNL     1      -1.082   7.567   9.047  1.00  0.00    -0.206 F 
ATOM     81  C   UNL     1       0.964  10.437   8.260  1.00  0.00     0.060 A 
BRANCH  81  82
ATOM     82  S   UNL     1       0.783  12.175   7.806  1.00  0.00     0.124 S 
ATOM     83  O   UNL     1       1.246  12.845   9.017  1.00  0.00    -0.237 OA
ATOM     84  O   UNL     1       1.657  12.282   6.643  1.00  0.00    -0.237 OA
ATOM     85  O   UNL     1      -0.644  12.302   7.522  1.00  0.00    -0.744 OA
ENDBRANCH  81  82
ENDBRANCH  49  74
BRANCH  61  86
ATOM     86  C   UNL     1       4.004   4.208  14.303  1.00  0.00     0.058 A 
ATOM     87  C   UNL     1       3.292   4.803  15.355  1.00  0.00     0.135 A 
ATOM     88  C   UNL     1       5.385   4.012  14.465  1.00  0.00     0.135 A 
ATOM     89  F   UNL     1       1.971   5.016  15.244  1.00  0.00    -0.206 F 
ATOM     90  C   UNL     1       3.934   5.220  16.515  1.00  0.00     0.059 A 
ATOM     91  C   UNL     1       6.041   4.391  15.629  1.00  0.00     0.059 A 
ATOM     92  F   UNL     1       6.106   3.433  13.492  1.00  0.00    -0.206 F 
ATOM     93  C   UNL     1       5.309   5.010  16.642  1.00  0.00     0.060 A 
BRANCH  93  94
ATOM     94  S   UNL     1       6.127   5.539  18.159  1.00  0.00     0.124 S 
ATOM     95  O   UNL     1       6.160   6.987  17.984  1.00  0.00    -0.237 OA
ATOM     96  O   UNL     1       5.221   5.045  19.191  1.00  0.00    -0.237 OA
ATOM     97  O   UNL     1       7.422   4.869  18.098  1.00  0.00    -0.744 OA
ENDBRANCH  93  94
ENDBRANCH  61  86
ENDBRANCH  35  36
ENDBRANCH  28  30
ENDBRANCH  27  28
ENDBRANCH  26  27
ENDBRANCH   1  26
TORSDOF 20
