REMARK SMILES O=C(CCCN1C(=O)C(=O)/C(=C(\[O-])c2ccccc2)[C@H]1c1ccc([N+](=O)[O-])cc1)OCCOC(=O)c1ccc(-c2c3nc(c(-c4c(F)cc(S(=O)(=O)[O-])cc4F)c4ccc([nH]4)c(-c4c(F)cc(S(=O)(=O)[O-])cc4F)c4nc(c(-c5c(F)cc(S(=O)(=O)[O-])cc5F)c5ccc2[nH]5)C=C4)C=C3)cc1
REMARK SMILES IDX 31 1 30 2 2 3 1 4 3 5 4 6 5 7 6 8 7 9 20 10 8 11 9 12 11 13
REMARK SMILES IDX 10 14 12 15 13 16 21 17 22 18 29 19 23 20 28 21 24 22 25 23
REMARK SMILES IDX 26 24 27 25 14 26 15 27 19 28 16 29 18 30 17 31 32 32 33 33
REMARK SMILES IDX 34 34 35 35 36 36 37 37 101 38 38 39 100 40 39 41 40 42
REMARK SMILES IDX 41 43 94 44 42 45 99 46 93 47 95 48 43 49 98 50 92 51 91 52
REMARK SMILES IDX 44 54 78 55 57 56 77 57 58 58 61 59 76 60 96 61 59 62 60 63
REMARK SMILES IDX 75 65 97 66 62 67 45 68 46 69 55 70 47 71 48 72 54 73 56 74
REMARK SMILES IDX 49 75 50 76 51 77 52 78 53 79 79 80 80 81 89 82 81 83 82 84
REMARK SMILES IDX 88 85 90 86 83 87 84 88 85 89 86 90 87 91 63 92 64 93 73 94
REMARK SMILES IDX 65 95 66 96 72 97 74 98 67 99 68 100 69 101 70 102 71 103
REMARK H PARENT 95 53 61 64
REMARK Flexibility Score: inf
ROOT
ATOM      1  C   UNL     1       3.224  -0.904  -1.184  1.00  0.00     0.274 C 
ENDROOT
BRANCH   1   2
ATOM      2  O   UNL     1       2.127  -0.674  -0.288  1.00  0.00    -0.462 OA
BRANCH   2   3
ATOM      3  C   UNL     1       2.381  -0.295   0.993  1.00  0.00     0.305 C 
ATOM      4  O   UNL     1       1.784  -0.816   1.929  1.00  0.00    -0.252 OA
BRANCH   3   5
ATOM      5  C   UNL     1       3.336   0.864   1.197  1.00  0.00     0.124 C 
BRANCH   5   6
ATOM      6  C   UNL     1       4.511   0.566   2.130  1.00  0.00     0.033 C 
BRANCH   6   7
ATOM      7  C   UNL     1       5.728  -0.125   1.487  1.00  0.00     0.121 C 
BRANCH   7   8
ATOM      8  N   UNL     1       6.267   0.471   0.262  1.00  0.00    -0.325 N 
ATOM      9  C   UNL     1       6.326   1.832   0.023  1.00  0.00     0.295 C 
ATOM     10  C   UNL     1       6.860  -0.326  -0.819  1.00  0.00     0.150 C 
ATOM     11  O   UNL     1       6.045   2.755   0.749  1.00  0.00    -0.265 OA
ATOM     12  C   UNL     1       6.721   1.991  -1.444  1.00  0.00     0.248 C 
ATOM     13  C   UNL     1       6.958   0.635  -1.979  1.00  0.00     0.025 C 
ATOM     14  O   UNL     1       6.768   3.021  -2.081  1.00  0.00    -0.283 OA
ATOM     15  C   UNL     1       7.176   0.428  -3.290  1.00  0.00    -0.092 C 
ATOM     16  O   UNL     1       7.227   1.444  -4.225  1.00  0.00    -0.872 OA
BRANCH  10  17
ATOM     17  C   UNL     1       8.149  -1.048  -0.435  1.00  0.00    -0.020 A 
ATOM     18  C   UNL     1       9.414  -0.671  -0.922  1.00  0.00     0.013 A 
ATOM     19  C   UNL     1       8.067  -2.215   0.353  1.00  0.00     0.013 A 
ATOM     20  C   UNL     1      10.540  -1.474  -0.706  1.00  0.00     0.086 A 
ATOM     21  C   UNL     1       9.192  -3.004   0.606  1.00  0.00     0.086 A 
ATOM     22  C   UNL     1      10.421  -2.645   0.048  1.00  0.00     0.269 A 
BRANCH  22  23
ATOM     23  N   UNL     1      11.581  -3.525   0.222  1.00  0.00     0.062 N 
ATOM     24  O   UNL     1      12.582  -3.304  -0.475  1.00  0.00    -0.258 OA
ATOM     25  O   UNL     1      11.485  -4.449   1.043  1.00  0.00    -0.258 OA
ENDBRANCH  22  23
ENDBRANCH  10  17
BRANCH  15  26
ATOM     26  C   UNL     1       7.477  -0.897  -3.855  1.00  0.00    -0.033 A 
ATOM     27  C   UNL     1       8.740  -1.120  -4.420  1.00  0.00     0.007 A 
ATOM     28  C   UNL     1       6.550  -1.945  -3.841  1.00  0.00     0.007 A 
ATOM     29  C   UNL     1       9.082  -2.374  -4.926  1.00  0.00     0.001 A 
ATOM     30  C   UNL     1       6.890  -3.200  -4.354  1.00  0.00     0.001 A 
ATOM     31  C   UNL     1       8.158  -3.416  -4.888  1.00  0.00     0.000 A 
ENDBRANCH  15  26
ENDBRANCH   7   8
ENDBRANCH   6   7
ENDBRANCH   5   6
ENDBRANCH   3   5
ENDBRANCH   2   3
ENDBRANCH   1   2
BRANCH   1  32
ATOM     32  C   UNL     1       3.211   0.008  -2.411  1.00  0.00     0.275 C 
BRANCH  32  33
ATOM     33  O   UNL     1       3.104   1.379  -2.014  1.00  0.00    -0.458 OA
BRANCH  33  34
ATOM     34  C   UNL     1       1.828   1.839  -2.045  1.00  0.00     0.338 C 
ATOM     35  O   UNL     1       0.876   1.276  -2.562  1.00  0.00    -0.246 OA
BRANCH  34  36
ATOM     36  C   UNL     1       1.683   3.036  -1.194  1.00  0.00     0.060 A 
ATOM     37  C   UNL     1       0.485   3.143  -0.481  1.00  0.00     0.016 A 
ATOM     38  C   UNL     1       2.655   4.038  -1.101  1.00  0.00     0.016 A 
ATOM     39  C   UNL     1       0.218   4.286   0.262  1.00  0.00     0.010 A 
ATOM     40  C   UNL     1       2.386   5.187  -0.344  1.00  0.00     0.010 A 
ATOM     41  C   UNL     1       1.147   5.334   0.302  1.00  0.00    -0.014 A 
BRANCH  41  42
ATOM     42  C   UNL     1       0.718   6.614   0.916  1.00  0.00     0.031 A 
ATOM     43  C   UNL     1       0.222   7.722   0.027  1.00  0.00     0.074 A 
ATOM     44  C   UNL     1       0.644   6.732   2.255  1.00  0.00     0.049 A 
ATOM     45  N   UNL     1      -0.365   8.845   0.354  1.00  0.00    -0.248 NA
ATOM     46  C   UNL     1       0.396   7.537  -1.423  1.00  0.00     0.031 C 
ATOM     47  C   UNL     1       1.081   5.720   3.217  1.00  0.00     0.029 A 
ATOM     48  N   UNL     1       0.152   7.747   3.035  1.00  0.00    -0.354 N 
ATOM     49  C   UNL     1      -0.654   9.485  -0.845  1.00  0.00     0.074 A 
ATOM     50  C   UNL     1      -0.133   8.653  -1.907  1.00  0.00     0.031 C 
ATOM     51  C   UNL     1       0.826   6.162   4.461  1.00  0.00     0.029 A 
ATOM     52  C   UNL     1       0.217   7.488   4.383  1.00  0.00     0.049 A 
ATOM     53  H   UNL     1      -0.214   8.583   2.664  1.00  0.00     0.167 HD
ATOM     54  C   UNL     1      -1.317  10.649  -1.044  1.00  0.00     0.037 A 
ATOM     55  C   UNL     1      -0.176   8.235   5.434  1.00  0.00     0.037 A 
ATOM     56  C   UNL     1      -1.824  11.483   0.014  1.00  0.00     0.049 A 
ATOM     57  C   UNL     1      -0.861   9.554   5.184  1.00  0.00     0.074 A 
ATOM     58  C   UNL     1      -2.510  12.681  -0.087  1.00  0.00     0.029 A 
ATOM     59  N   UNL     1      -1.696  11.210   1.367  1.00  0.00    -0.354 N 
ATOM     60  N   UNL     1      -1.170  10.123   4.042  1.00  0.00    -0.248 NA
ATOM     61  C   UNL     1      -1.266  10.327   6.367  1.00  0.00     0.031 C 
ATOM     62  C   UNL     1      -2.759  13.154   1.206  1.00  0.00     0.029 A 
ATOM     63  C   UNL     1      -2.270  12.227   2.112  1.00  0.00     0.049 A 
ATOM     64  H   UNL     1      -1.261  10.411   1.744  1.00  0.00     0.167 HD
ATOM     65  C   UNL     1      -1.822  11.307   4.371  1.00  0.00     0.074 A 
ATOM     66  C   UNL     1      -1.885  11.362   5.816  1.00  0.00     0.031 C 
ATOM     67  C   UNL     1      -2.322  12.267   3.552  1.00  0.00     0.037 A 
BRANCH  54  68
ATOM     68  C   UNL     1      -1.534  11.094  -2.464  1.00  0.00     0.058 A 
ATOM     69  C   UNL     1      -2.475  10.462  -3.292  1.00  0.00     0.135 A 
ATOM     70  C   UNL     1      -0.838  12.196  -2.984  1.00  0.00     0.135 A 
ATOM     71  F   UNL     1      -3.153   9.391  -2.851  1.00  0.00    -0.206 F 
ATOM     72  C   UNL     1      -2.712  10.901  -4.591  1.00  0.00     0.059 A 
ATOM     73  C   UNL     1      -1.074  12.666  -4.273  1.00  0.00     0.059 A 
ATOM     74  F   UNL     1       0.077  12.832  -2.236  1.00  0.00    -0.206 F 
ATOM     75  C   UNL     1      -2.009  12.007  -5.071  1.00  0.00     0.060 A 
BRANCH  75  76
ATOM     76  S   UNL     1      -2.349  12.583  -6.748  1.00  0.00     0.124 S 
ATOM     77  O   UNL     1      -1.726  11.534  -7.549  1.00  0.00    -0.237 OA
ATOM     78  O   UNL     1      -3.808  12.618  -6.776  1.00  0.00    -0.237 OA
ATOM     79  O   UNL     1      -1.692  13.885  -6.801  1.00  0.00    -0.744 OA
ENDBRANCH  75  76
ENDBRANCH  54  68
BRANCH  55  80
ATOM     80  C   UNL     1       0.070   7.762   6.822  1.00  0.00     0.058 A 
ATOM     81  C   UNL     1      -0.984   7.400   7.673  1.00  0.00     0.135 A 
ATOM     82  C   UNL     1       1.375   7.700   7.337  1.00  0.00     0.135 A 
ATOM     83  F   UNL     1      -2.250   7.450   7.231  1.00  0.00    -0.206 F 
ATOM     84  C   UNL     1      -0.759   7.024   8.994  1.00  0.00     0.059 A 
ATOM     85  C   UNL     1       1.628   7.302   8.645  1.00  0.00     0.059 A 
ATOM     86  F   UNL     1       2.421   8.024   6.561  1.00  0.00    -0.206 F 
ATOM     87  C   UNL     1       0.552   6.983   9.472  1.00  0.00     0.060 A 
BRANCH  87  88
ATOM     88  S   UNL     1       0.841   6.485  11.184  1.00  0.00     0.124 S 
ATOM     89  O   UNL     1       0.437   7.683  11.910  1.00  0.00    -0.237 OA
ATOM     90  O   UNL     1      -0.037   5.327  11.322  1.00  0.00    -0.237 OA
ATOM     91  O   UNL     1       2.270   6.183  11.207  1.00  0.00    -0.744 OA
ENDBRANCH  87  88
ENDBRANCH  55  80
BRANCH  67  92
ATOM     92  C   UNL     1      -2.995  13.445   4.202  1.00  0.00     0.058 A 
ATOM     93  C   UNL     1      -2.261  14.423   4.891  1.00  0.00     0.135 A 
ATOM     94  C   UNL     1      -4.387  13.611   4.115  1.00  0.00     0.135 A 
ATOM     95  F   UNL     1      -0.928  14.311   5.005  1.00  0.00    -0.206 F 
ATOM     96  C   UNL     1      -2.886  15.504   5.504  1.00  0.00     0.059 A 
ATOM     97  C   UNL     1      -5.030  14.699   4.697  1.00  0.00     0.059 A 
ATOM     98  F   UNL     1      -5.136  12.713   3.455  1.00  0.00    -0.206 F 
ATOM     99  C   UNL     1      -4.273  15.631   5.406  1.00  0.00     0.060 A 
BRANCH  99 100
ATOM    100  S   UNL     1      -5.074  17.039   6.202  1.00  0.00     0.124 S 
ATOM    101  O   UNL     1      -5.047  16.638   7.604  1.00  0.00    -0.237 OA
ATOM    102  O   UNL     1      -4.193  18.147   5.842  1.00  0.00    -0.237 OA
ATOM    103  O   UNL     1      -6.395  17.072   5.583  1.00  0.00    -0.744 OA
ENDBRANCH  99 100
ENDBRANCH  67  92
ENDBRANCH  41  42
ENDBRANCH  34  36
ENDBRANCH  33  34
ENDBRANCH  32  33
ENDBRANCH   1  32
TORSDOF 20
