REMARK SMILES O=C(OCCOC(=O)C1([NH+]2CCOCC2)CCC1)c1ccc(-c2c3nc(c(-c4c(F)cc(S(=O)(=O)[O-])cc4F)c4ccc([nH]4)c(-c4c(F)cc(S(=O)(=O)[O-])cc4F)c4nc(c(-c5c(F)cc(S(=O)(=O)[O-])cc5F)c5ccc2[nH]5)C=C4)C=C3)cc1
REMARK SMILES IDX 4 1 3 2 2 3 1 4 19 5 20 6 84 7 21 8 83 9 22 10 23 11 24 12
REMARK SMILES IDX 77 13 25 14 82 15 76 16 78 17 26 18 81 19 75 20 74 21 27 23
REMARK SMILES IDX 61 24 40 25 60 26 41 27 44 28 59 29 79 30 42 31 43 32 58 34
REMARK SMILES IDX 80 35 45 36 28 37 29 38 38 39 30 40 31 41 37 42 39 43 32 44
REMARK SMILES IDX 33 45 34 46 35 47 36 48 62 49 63 50 72 51 64 52 65 53 71 54
REMARK SMILES IDX 73 55 66 56 67 57 68 58 69 59 70 60 46 61 47 62 56 63 48 64
REMARK SMILES IDX 49 65 55 66 57 67 50 68 51 69 52 70 53 71 54 72 5 73 6 74
REMARK SMILES IDX 7 75 8 76 9 77 16 78 18 79 17 80 10 81 11 82 15 83 12 85
REMARK SMILES IDX 14 86 13 87
REMARK H PARENT 78 22 44 33 10 84
REMARK Flexibility Score: inf
ROOT
ATOM      1  C   UNL     1       4.276  -1.478  -0.323  1.00  0.00     0.275 C 
ENDROOT
BRANCH   1   2
ATOM      2  O   UNL     1       3.305  -1.085   0.657  1.00  0.00    -0.458 OA
BRANCH   2   3
ATOM      3  C   UNL     1       3.231   0.046   1.394  1.00  0.00     0.338 C 
ATOM      4  O   UNL     1       2.403   0.098   2.303  1.00  0.00    -0.246 OA
BRANCH   3   5
ATOM      5  C   UNL     1       3.999   1.295   1.082  1.00  0.00     0.060 A 
ATOM      6  C   UNL     1       5.243   1.378   0.444  1.00  0.00     0.016 A 
ATOM      7  C   UNL     1       3.379   2.498   1.461  1.00  0.00     0.016 A 
ATOM      8  C   UNL     1       5.798   2.615   0.085  1.00  0.00     0.010 A 
ATOM      9  C   UNL     1       3.928   3.733   1.105  1.00  0.00     0.010 A 
ATOM     10  C   UNL     1       5.131   3.801   0.387  1.00  0.00    -0.014 A 
BRANCH  10  11
ATOM     11  C   UNL     1       5.733   5.119   0.080  1.00  0.00     0.031 A 
ATOM     12  C   UNL     1       6.227   5.929   1.240  1.00  0.00     0.074 A 
ATOM     13  C   UNL     1       5.809   5.598  -1.180  1.00  0.00     0.049 A 
ATOM     14  N   UNL     1       6.779   7.110   1.247  1.00  0.00    -0.248 NA
ATOM     15  C   UNL     1       6.077   5.322   2.576  1.00  0.00     0.031 C 
ATOM     16  C   UNL     1       5.392   4.889  -2.390  1.00  0.00     0.029 A 
ATOM     17  N   UNL     1       6.240   6.812  -1.655  1.00  0.00    -0.354 N 
ATOM     18  C   UNL     1       7.083   7.361   2.577  1.00  0.00     0.074 A 
ATOM     19  C   UNL     1       6.535   6.280   3.361  1.00  0.00     0.031 C 
ATOM     20  C   UNL     1       5.510   5.705  -3.453  1.00  0.00     0.029 A 
ATOM     21  C   UNL     1       6.055   6.981  -3.010  1.00  0.00     0.049 A 
ATOM     22  H   UNL     1       6.646   7.500  -1.079  1.00  0.00     0.167 HD
ATOM     23  C   UNL     1       7.827   8.363   3.093  1.00  0.00     0.037 A 
ATOM     24  C   UNL     1       6.316   8.042  -3.802  1.00  0.00     0.037 A 
ATOM     25  C   UNL     1       8.360   9.433   2.304  1.00  0.00     0.049 A 
ATOM     26  C   UNL     1       7.030   9.220  -3.188  1.00  0.00     0.074 A 
ATOM     27  C   UNL     1       9.140  10.499   2.706  1.00  0.00     0.029 A 
ATOM     28  N   UNL     1       8.148   9.575   0.938  1.00  0.00    -0.354 N 
ATOM     29  N   UNL     1       7.408   9.392  -1.942  1.00  0.00    -0.248 NA
ATOM     30  C   UNL     1       7.404  10.320  -4.087  1.00  0.00     0.031 C 
ATOM     31  C   UNL     1       9.363  11.311   1.589  1.00  0.00     0.029 A 
ATOM     32  C   UNL     1       8.762  10.725   0.483  1.00  0.00     0.049 A 
ATOM     33  H   UNL     1       7.636   8.948   0.378  1.00  0.00     0.167 HD
ATOM     34  C   UNL     1       8.122  10.585  -1.921  1.00  0.00     0.074 A 
ATOM     35  C   UNL     1       8.109  11.098  -3.277  1.00  0.00     0.031 C 
ATOM     36  C   UNL     1       8.750  11.191  -0.882  1.00  0.00     0.037 A 
BRANCH  23  37
ATOM     37  C   UNL     1       8.104   8.293   4.565  1.00  0.00     0.058 A 
ATOM     38  C   UNL     1       8.934   7.289   5.097  1.00  0.00     0.135 A 
ATOM     39  C   UNL     1       7.475   9.168   5.459  1.00  0.00     0.135 A 
ATOM     40  F   UNL     1       9.531   6.403   4.284  1.00  0.00    -0.206 F 
ATOM     41  C   UNL     1       9.086   7.123   6.468  1.00  0.00     0.059 A 
ATOM     42  C   UNL     1       7.637   9.039   6.836  1.00  0.00     0.059 A 
ATOM     43  F   UNL     1       6.662  10.134   5.003  1.00  0.00    -0.206 F 
ATOM     44  C   UNL     1       8.425   7.999   7.329  1.00  0.00     0.060 A 
BRANCH  44  45
ATOM     45  S   UNL     1       8.596   7.743   9.107  1.00  0.00     0.124 S 
ATOM     46  O   UNL     1       7.778   6.551   9.309  1.00  0.00    -0.237 OA
ATOM     47  O   UNL     1      10.037   7.554   9.256  1.00  0.00    -0.237 OA
ATOM     48  O   UNL     1       8.066   8.975   9.680  1.00  0.00    -0.744 OA
ENDBRANCH  44  45
ENDBRANCH  23  37
BRANCH  24  49
ATOM     49  C   UNL     1       5.979   8.024  -5.255  1.00  0.00     0.058 A 
ATOM     50  C   UNL     1       6.983   7.946  -6.234  1.00  0.00     0.135 A 
ATOM     51  C   UNL     1       4.650   8.123  -5.700  1.00  0.00     0.135 A 
ATOM     52  F   UNL     1       8.269   7.851  -5.865  1.00  0.00    -0.206 F 
ATOM     53  C   UNL     1       6.689   8.004  -7.594  1.00  0.00     0.059 A 
ATOM     54  C   UNL     1       4.329   8.163  -7.058  1.00  0.00     0.059 A 
ATOM     55  F   UNL     1       3.648   8.189  -4.810  1.00  0.00    -0.206 F 
ATOM     56  C   UNL     1       5.358   8.118  -7.997  1.00  0.00     0.060 A 
BRANCH  56  57
ATOM     57  S   UNL     1       5.000   8.198  -9.768  1.00  0.00     0.124 S 
ATOM     58  O   UNL     1       5.568   9.492 -10.127  1.00  0.00    -0.237 OA
ATOM     59  O   UNL     1       5.712   7.028 -10.274  1.00  0.00    -0.237 OA
ATOM     60  O   UNL     1       3.544   8.113  -9.825  1.00  0.00    -0.744 OA
ENDBRANCH  56  57
ENDBRANCH  24  49
BRANCH  36  61
ATOM     61  C   UNL     1       9.522  12.444  -1.176  1.00  0.00     0.058 A 
ATOM     62  C   UNL     1       8.879  13.662  -1.432  1.00  0.00     0.135 A 
ATOM     63  C   UNL     1      10.925  12.437  -1.102  1.00  0.00     0.135 A 
ATOM     64  F   UNL     1       7.540  13.716  -1.520  1.00  0.00    -0.206 F 
ATOM     65  C   UNL     1       9.602  14.835  -1.613  1.00  0.00     0.059 A 
ATOM     66  C   UNL     1      11.665  13.603  -1.249  1.00  0.00     0.059 A 
ATOM     67  F   UNL     1      11.584  11.295  -0.848  1.00  0.00    -0.206 F 
ATOM     68  C   UNL     1      10.994  14.796  -1.510  1.00  0.00     0.060 A 
BRANCH  68  69
ATOM     69  S   UNL     1      11.915  16.339  -1.672  1.00  0.00     0.124 S 
ATOM     70  O   UNL     1      11.841  16.575  -3.110  1.00  0.00    -0.237 OA
ATOM     71  O   UNL     1      11.141  17.253  -0.838  1.00  0.00    -0.237 OA
ATOM     72  O   UNL     1      13.239  16.000  -1.157  1.00  0.00    -0.744 OA
ENDBRANCH  68  69
ENDBRANCH  36  61
ENDBRANCH  10  11
ENDBRANCH   3   5
ENDBRANCH   2   3
ENDBRANCH   1   2
BRANCH   1  73
ATOM     73  C   UNL     1       4.002  -0.985  -1.747  1.00  0.00     0.274 C 
BRANCH  73  74
ATOM     74  O   UNL     1       3.462   0.345  -1.836  1.00  0.00    -0.457 OA
BRANCH  74  75
ATOM     75  C   UNL     1       2.093   0.417  -1.988  1.00  0.00     0.368 C 
ATOM     76  O   UNL     1       1.385  -0.590  -1.938  1.00  0.00    -0.245 OA
BRANCH  75  77
ATOM     77  C   UNL     1       1.562   1.919  -2.257  1.00  0.00     0.196 C 
ATOM     78  C   UNL     1       0.515   2.343  -1.173  1.00  0.00     0.081 C 
ATOM     79  C   UNL     1       2.402   3.130  -1.819  1.00  0.00     0.081 C 
ATOM     80  C   UNL     1       1.211   3.702  -1.035  1.00  0.00     0.014 C 
BRANCH  77  81
ATOM     81  N   UNL     1       1.058   2.093  -3.652  1.00  0.00    -0.317 N 
ATOM     82  C   UNL     1       2.103   1.870  -4.677  1.00  0.00     0.292 C 
ATOM     83  C   UNL     1       0.238   3.263  -4.006  1.00  0.00     0.292 C 
ATOM     84  H   UNL     1       0.367   1.343  -3.653  1.00  0.00     0.349 HD
ATOM     85  C   UNL     1       2.798   3.131  -5.222  1.00  0.00     0.221 C 
ATOM     86  C   UNL     1       0.996   4.487  -4.551  1.00  0.00     0.221 C 
ATOM     87  O   UNL     1       1.851   4.116  -5.634  1.00  0.00    -0.370 OA
ENDBRANCH  77  81
ENDBRANCH  75  77
ENDBRANCH  74  75
ENDBRANCH  73  74
ENDBRANCH   1  73
TORSDOF 15
