REMARK SMILES Cc1ccc2c(c1)c(-c1ccnc3c(C)cccc13)c(C)n2CC(=O)OCCOC(=O)c1ccc(-c2c3nc(c(-c4c(F)cc(S(=O)(=O)[O-])cc4F)c4ccc([nH]4)c(-c4c(F)cc(S(=O)(=O)[O-])cc4F)c4nc(c(-c5c(F)cc(S(=O)(=O)[O-])cc5F)c5ccc2[nH]5)C=C4)C=C3)cc1
REMARK SMILES IDX 28 1 27 2 26 3 24 4 25 5 23 6 22 7 1 8 2 9 3 10 7 11 4 12
REMARK SMILES IDX 6 13 5 14 8 15 20 16 21 17 9 18 10 19 19 20 11 21 13 22
REMARK SMILES IDX 18 23 12 24 14 25 17 26 15 27 16 28 29 29 30 30 31 31 32 32
REMARK SMILES IDX 33 33 97 34 34 35 96 36 35 37 36 38 37 39 90 40 38 41 95 42
REMARK SMILES IDX 89 43 91 44 39 45 94 46 88 47 87 48 40 50 74 51 53 52 73 53
REMARK SMILES IDX 54 54 57 55 72 56 92 57 55 58 56 59 71 61 93 62 58 63 41 64
REMARK SMILES IDX 42 65 51 66 43 67 44 68 50 69 52 70 45 71 46 72 47 73 48 74
REMARK SMILES IDX 49 75 75 76 76 77 85 78 77 79 78 80 84 81 86 82 79 83 80 84
REMARK SMILES IDX 81 85 82 86 83 87 59 88 60 89 69 90 61 91 62 92 68 93 70 94
REMARK SMILES IDX 63 95 64 96 65 97 66 98 67 99
REMARK H PARENT 91 49 57 60
REMARK Flexibility Score: inf
ROOT
ATOM      1  C   UNL     1       1.659  -2.052   9.260  1.00  0.00     0.275 C 
ENDROOT
BRANCH   1   2
ATOM      2  C   UNL     1       2.280  -2.354   7.891  1.00  0.00     0.274 C 
BRANCH   2   3
ATOM      3  O   UNL     1       1.366  -2.048   6.803  1.00  0.00    -0.461 OA
BRANCH   3   4
ATOM      4  C   UNL     1       0.809  -3.127   6.197  1.00  0.00     0.326 C 
ATOM      5  O   UNL     1       1.000  -4.283   6.574  1.00  0.00    -0.250 OA
BRANCH   4   6
ATOM      6  C   UNL     1      -0.045  -2.866   4.984  1.00  0.00     0.244 C 
BRANCH   6   7
ATOM      7  N   UNL     1      -0.207  -1.518   4.441  1.00  0.00    -0.333 N 
ATOM      8  C   UNL     1       1.087   0.438  -0.692  1.00  0.00     0.044 C 
ATOM      9  C   UNL     1       0.726  -0.138   0.641  1.00  0.00    -0.050 A 
ATOM     10  C   UNL     1       0.834  -1.513   0.842  1.00  0.00     0.005 A 
ATOM     11  C   UNL     1       0.308   0.696   1.691  1.00  0.00     0.014 A 
ATOM     12  C   UNL     1       0.544  -2.085   2.077  1.00  0.00     0.027 A 
ATOM     13  C   UNL     1      -0.030   0.133   2.936  1.00  0.00     0.008 A 
ATOM     14  C   UNL     1       0.127  -1.240   3.118  1.00  0.00     0.049 A 
ATOM     15  C   UNL     1      -0.578   0.648   4.138  1.00  0.00     0.011 A 
ATOM     16  C   UNL     1      -0.927  -0.437   4.925  1.00  0.00     0.024 A 
ATOM     17  C   UNL     1      -1.905  -0.413   6.041  1.00  0.00     0.065 C 
BRANCH  15  18
ATOM     18  C   UNL     1      -0.968   2.001   4.505  1.00  0.00    -0.005 A 
ATOM     19  C   UNL     1      -2.126   2.538   3.951  1.00  0.00     0.029 A 
ATOM     20  C   UNL     1      -0.242   2.717   5.491  1.00  0.00     0.008 A 
ATOM     21  C   UNL     1      -2.513   3.788   4.377  1.00  0.00     0.112 A 
ATOM     22  C   UNL     1      -0.708   4.005   5.834  1.00  0.00     0.074 A 
ATOM     23  C   UNL     1       0.902   2.194   6.146  1.00  0.00     0.011 A 
ATOM     24  N   UNL     1      -1.823   4.524   5.275  1.00  0.00    -0.256 NA
ATOM     25  C   UNL     1       0.014   4.741   6.787  1.00  0.00    -0.025 A 
ATOM     26  C   UNL     1       1.590   2.927   7.103  1.00  0.00     0.001 A 
ATOM     27  C   UNL     1      -0.384   6.146   7.158  1.00  0.00     0.047 C 
ATOM     28  C   UNL     1       1.155   4.204   7.412  1.00  0.00     0.005 A 
ENDBRANCH  15  18
ENDBRANCH   6   7
ENDBRANCH   4   6
ENDBRANCH   3   4
ENDBRANCH   2   3
ENDBRANCH   1   2
BRANCH   1  29
ATOM     29  O   UNL     1       0.651  -3.032   9.549  1.00  0.00    -0.458 OA
BRANCH  29  30
ATOM     30  C   UNL     1      -0.626  -2.572   9.569  1.00  0.00     0.338 C 
ATOM     31  O   UNL     1      -0.996  -1.429   9.703  1.00  0.00    -0.246 OA
BRANCH  30  32
ATOM     32  C   UNL     1      -1.435  -3.639   8.946  1.00  0.00     0.060 A 
ATOM     33  C   UNL     1      -1.550  -4.934   9.414  1.00  0.00     0.016 A 
ATOM     34  C   UNL     1      -1.964  -3.300   7.707  1.00  0.00     0.016 A 
ATOM     35  C   UNL     1      -2.116  -5.891   8.567  1.00  0.00     0.010 A 
ATOM     36  C   UNL     1      -2.511  -4.237   6.854  1.00  0.00     0.010 A 
ATOM     37  C   UNL     1      -2.529  -5.553   7.261  1.00  0.00    -0.014 A 
BRANCH  37  38
ATOM     38  C   UNL     1      -3.229  -6.525   6.438  1.00  0.00     0.031 A 
ATOM     39  C   UNL     1      -4.611  -6.744   6.904  1.00  0.00     0.074 A 
ATOM     40  C   UNL     1      -2.842  -7.136   5.301  1.00  0.00     0.049 A 
ATOM     41  N   UNL     1      -4.992  -7.670   7.713  1.00  0.00    -0.248 NA
ATOM     42  C   UNL     1      -5.638  -5.745   6.588  1.00  0.00     0.031 C 
ATOM     43  C   UNL     1      -1.710  -6.870   4.415  1.00  0.00     0.029 A 
ATOM     44  N   UNL     1      -3.474  -8.184   4.693  1.00  0.00    -0.354 N 
ATOM     45  C   UNL     1      -6.357  -7.507   7.857  1.00  0.00     0.074 A 
ATOM     46  C   UNL     1      -6.672  -6.219   7.288  1.00  0.00     0.031 C 
ATOM     47  C   UNL     1      -1.819  -7.645   3.304  1.00  0.00     0.029 A 
ATOM     48  C   UNL     1      -2.928  -8.573   3.479  1.00  0.00     0.049 A 
ATOM     49  H   UNL     1      -4.259  -8.630   5.087  1.00  0.00     0.167 HD
ATOM     50  C   UNL     1      -7.140  -8.543   8.257  1.00  0.00     0.037 A 
ATOM     51  C   UNL     1      -3.359  -9.600   2.702  1.00  0.00     0.037 A 
ATOM     52  C   UNL     1      -6.345  -9.644   8.749  1.00  0.00     0.049 A 
ATOM     53  C   UNL     1      -4.064 -10.560   3.594  1.00  0.00     0.074 A 
ATOM     54  C   UNL     1      -5.431  -9.801   9.774  1.00  0.00     0.029 A 
ATOM     55  N   UNL     1      -6.140 -10.704   7.897  1.00  0.00    -0.354 N 
ATOM     56  N   UNL     1      -3.478 -11.271   4.517  1.00  0.00    -0.248 NA
ATOM     57  C   UNL     1      -5.512 -10.481   3.699  1.00  0.00     0.031 C 
ATOM     58  C   UNL     1      -4.435 -10.684   9.260  1.00  0.00     0.029 A 
ATOM     59  C   UNL     1      -4.812 -11.047   7.965  1.00  0.00     0.049 A 
ATOM     60  H   UNL     1      -6.823 -11.139   7.338  1.00  0.00     0.167 HD
ATOM     61  C   UNL     1      -4.413 -11.378   5.534  1.00  0.00     0.074 A 
ATOM     62  C   UNL     1      -5.677 -10.985   4.924  1.00  0.00     0.031 C 
ATOM     63  C   UNL     1      -4.031 -11.518   6.837  1.00  0.00     0.037 A 
BRANCH  50  64
ATOM     64  C   UNL     1      -8.589  -8.698   7.895  1.00  0.00     0.058 A 
ATOM     65  C   UNL     1      -9.363  -9.664   8.566  1.00  0.00     0.135 A 
ATOM     66  C   UNL     1      -9.174  -8.128   6.744  1.00  0.00     0.135 A 
ATOM     67  F   UNL     1      -8.893 -10.274   9.665  1.00  0.00    -0.206 F 
ATOM     68  C   UNL     1     -10.602 -10.085   8.088  1.00  0.00     0.059 A 
ATOM     69  C   UNL     1     -10.433  -8.490   6.282  1.00  0.00     0.059 A 
ATOM     70  F   UNL     1      -8.511  -7.271   5.956  1.00  0.00    -0.206 F 
ATOM     71  C   UNL     1     -11.119  -9.502   6.934  1.00  0.00     0.060 A 
BRANCH  71  72
ATOM     72  S   UNL     1     -12.657 -10.134   6.245  1.00  0.00     0.124 S 
ATOM     73  O   UNL     1     -12.240 -11.447   5.769  1.00  0.00    -0.237 OA
ATOM     74  O   UNL     1     -13.537 -10.124   7.409  1.00  0.00    -0.237 OA
ATOM     75  O   UNL     1     -12.986  -9.159   5.209  1.00  0.00    -0.744 OA
ENDBRANCH  71  72
ENDBRANCH  50  64
BRANCH  51  76
ATOM     76  C   UNL     1      -3.425  -9.720   1.222  1.00  0.00     0.058 A 
ATOM     77  C   UNL     1      -3.702 -10.955   0.603  1.00  0.00     0.135 A 
ATOM     78  C   UNL     1      -3.542  -8.578   0.408  1.00  0.00     0.135 A 
ATOM     79  F   UNL     1      -3.629 -12.096   1.305  1.00  0.00    -0.206 F 
ATOM     80  C   UNL     1      -4.140 -11.046  -0.722  1.00  0.00     0.059 A 
ATOM     81  C   UNL     1      -3.971  -8.645  -0.919  1.00  0.00     0.059 A 
ATOM     82  F   UNL     1      -3.337  -7.351   0.912  1.00  0.00    -0.206 F 
ATOM     83  C   UNL     1      -4.299  -9.880  -1.468  1.00  0.00     0.060 A 
BRANCH  83  84
ATOM     84  S   UNL     1      -5.050  -9.979  -3.111  1.00  0.00     0.124 S 
ATOM     85  O   UNL     1      -4.025 -10.687  -3.870  1.00  0.00    -0.237 OA
ATOM     86  O   UNL     1      -6.275 -10.726  -2.844  1.00  0.00    -0.237 OA
ATOM     87  O   UNL     1      -5.245  -8.579  -3.480  1.00  0.00    -0.744 OA
ENDBRANCH  83  84
ENDBRANCH  51  76
BRANCH  63  88
ATOM     88  C   UNL     1      -2.619 -11.964   7.125  1.00  0.00     0.058 A 
ATOM     89  C   UNL     1      -1.462 -11.238   6.790  1.00  0.00     0.135 A 
ATOM     90  C   UNL     1      -2.443 -13.118   7.906  1.00  0.00     0.135 A 
ATOM     91  F   UNL     1      -1.544 -10.076   6.125  1.00  0.00    -0.206 F 
ATOM     92  C   UNL     1      -0.191 -11.656   7.192  1.00  0.00     0.059 A 
ATOM     93  C   UNL     1      -1.189 -13.535   8.345  1.00  0.00     0.059 A 
ATOM     94  F   UNL     1      -3.512 -13.832   8.301  1.00  0.00    -0.206 F 
ATOM     95  C   UNL     1      -0.065 -12.802   7.978  1.00  0.00     0.060 A 
BRANCH  95  96
ATOM     96  S   UNL     1       1.569 -13.276   8.588  1.00  0.00     0.124 S 
ATOM     97  O   UNL     1       2.229 -13.743   7.374  1.00  0.00    -0.237 OA
ATOM     98  O   UNL     1       2.075 -12.025   9.145  1.00  0.00    -0.237 OA
ATOM     99  O   UNL     1       1.277 -14.313   9.576  1.00  0.00    -0.744 OA
ENDBRANCH  95  96
ENDBRANCH  63  88
ENDBRANCH  37  38
ENDBRANCH  30  32
ENDBRANCH  29  30
ENDBRANCH   1  29
TORSDOF 16
