REMARK SMILES CCc1cc(OCC(=O)OCCOC(=O)c2ccc(-c3c4nc(c(-c5c(F)cc(S(=O)(=O)[O-])cc5F)c5ccc([nH]5)c(-c5c(F)cc(S(=O)(=O)[O-])cc5F)c5nc(c(-c6c(F)cc(S(=O)(=O)[O-])cc6F)c6ccc3[nH]6)C=C5)C=C4)cc2)nc(Nc2ccc(C)c(F)c2)n1
REMARK SMILES IDX 11 1 10 2 8 3 9 4 7 5 6 6 5 7 3 8 4 9 93 10 83 11 82 12 2 13
REMARK SMILES IDX 1 14 84 15 85 17 86 18 92 19 87 20 90 21 88 22 91 23 89 24
REMARK SMILES IDX 12 25 13 26 14 27 15 28 16 29 17 30 81 31 18 32 80 33 19 34
REMARK SMILES IDX 20 35 21 36 74 37 22 38 79 39 73 40 75 41 23 42 78 43 72 44
REMARK SMILES IDX 71 45 24 47 58 48 37 49 57 50 38 51 41 52 56 53 76 54 39 55
REMARK SMILES IDX 40 56 55 58 77 59 42 60 25 61 26 62 35 63 27 64 28 65 34 66
REMARK SMILES IDX 36 67 29 68 30 69 31 70 32 71 33 72 59 73 60 74 69 75 61 76
REMARK SMILES IDX 62 77 68 78 70 79 63 80 64 81 65 82 66 83 67 84 43 85 44 86
REMARK SMILES IDX 53 87 45 88 46 89 52 90 54 91 47 92 48 93 49 94 50 95 51 96
REMARK H PARENT 84 16 75 46 41 57
REMARK Flexibility Score: inf
ROOT
ATOM      1  C   UNL     1      -0.639   3.041  -6.497  1.00  0.00     0.274 C 
ENDROOT
BRANCH   1   2
ATOM      2  O   UNL     1       0.251   1.914  -6.366  1.00  0.00    -0.460 OA
BRANCH   2   3
ATOM      3  C   UNL     1       1.577   2.214  -6.327  1.00  0.00     0.344 C 
ATOM      4  O   UNL     1       2.040   3.350  -6.370  1.00  0.00    -0.248 OA
BRANCH   3   5
ATOM      5  C   UNL     1       2.469   0.979  -6.234  1.00  0.00     0.353 C 
BRANCH   5   6
ATOM      6  O   UNL     1       1.852  -0.293  -6.173  1.00  0.00    -0.466 OA
BRANCH   6   7
ATOM      7  C   UNL     1       1.541  -0.815  -4.950  1.00  0.00     0.218 A 
ATOM      8  C   UNL     1       1.085  -0.782  -2.651  1.00  0.00     0.050 A 
ATOM      9  C   UNL     1       1.491  -0.099  -3.774  1.00  0.00     0.092 A 
ATOM     10  N   UNL     1       0.717  -2.065  -2.721  1.00  0.00    -0.218 NA
ATOM     11  C   UNL     1       0.819  -2.706  -3.892  1.00  0.00     0.230 A 
ATOM     12  N   UNL     1       1.243  -2.124  -5.017  1.00  0.00    -0.177 NA
BRANCH   8  13
ATOM     13  C   UNL     1       0.956  -0.099  -1.314  1.00  0.00     0.053 C 
ATOM     14  C   UNL     1       1.068  -1.034  -0.114  1.00  0.00     0.011 C 
ENDBRANCH   8  13
BRANCH  11  15
ATOM     15  N   UNL     1       0.507  -4.062  -3.928  1.00  0.00    -0.324 N 
ATOM     16  H   UNL     1       0.788  -4.562  -4.728  1.00  0.00     0.170 HD
BRANCH  15  17
ATOM     17  C   UNL     1      -0.167  -4.784  -2.937  1.00  0.00     0.044 A 
ATOM     18  C   UNL     1       0.370  -5.973  -2.436  1.00  0.00     0.026 A 
ATOM     19  C   UNL     1      -1.313  -4.261  -2.324  1.00  0.00     0.065 A 
ATOM     20  C   UNL     1      -0.215  -6.613  -1.335  1.00  0.00     0.008 A 
ATOM     21  C   UNL     1      -1.904  -4.909  -1.247  1.00  0.00     0.128 A 
ATOM     22  C   UNL     1      -1.362  -6.084  -0.730  1.00  0.00    -0.015 A 
ATOM     23  F   UNL     1      -3.005  -4.374  -0.699  1.00  0.00    -0.207 F 
ATOM     24  C   UNL     1      -1.952  -6.732   0.484  1.00  0.00     0.047 C 
ENDBRANCH  15  17
ENDBRANCH  11  15
ENDBRANCH   6   7
ENDBRANCH   5   6
ENDBRANCH   3   5
ENDBRANCH   2   3
ENDBRANCH   1   2
BRANCH   1  25
ATOM     25  C   UNL     1      -1.211   3.451  -5.143  1.00  0.00     0.275 C 
BRANCH  25  26
ATOM     26  O   UNL     1      -0.140   3.732  -4.225  1.00  0.00    -0.458 OA
BRANCH  26  27
ATOM     27  C   UNL     1      -0.272   3.175  -3.003  1.00  0.00     0.338 C 
ATOM     28  O   UNL     1      -1.219   2.509  -2.604  1.00  0.00    -0.246 OA
BRANCH  27  29
ATOM     29  C   UNL     1       0.915   3.432  -2.162  1.00  0.00     0.060 A 
ATOM     30  C   UNL     1       2.212   3.413  -2.688  1.00  0.00     0.016 A 
ATOM     31  C   UNL     1       0.723   3.551  -0.782  1.00  0.00     0.016 A 
ATOM     32  C   UNL     1       3.311   3.434  -1.825  1.00  0.00     0.010 A 
ATOM     33  C   UNL     1       1.822   3.646   0.071  1.00  0.00     0.010 A 
ATOM     34  C   UNL     1       3.126   3.562  -0.438  1.00  0.00    -0.014 A 
BRANCH  34  35
ATOM     35  C   UNL     1       4.282   3.670   0.488  1.00  0.00     0.031 A 
ATOM     36  C   UNL     1       4.541   2.623   1.537  1.00  0.00     0.074 A 
ATOM     37  C   UNL     1       5.061   4.766   0.429  1.00  0.00     0.049 A 
ATOM     38  N   UNL     1       5.397   2.636   2.526  1.00  0.00    -0.248 NA
ATOM     39  C   UNL     1       3.725   1.403   1.468  1.00  0.00     0.031 C 
ATOM     40  C   UNL     1       4.908   5.857  -0.534  1.00  0.00     0.029 A 
ATOM     41  N   UNL     1       6.114   5.157   1.215  1.00  0.00    -0.354 N 
ATOM     42  C   UNL     1       5.211   1.439   3.210  1.00  0.00     0.074 A 
ATOM     43  C   UNL     1       4.151   0.727   2.527  1.00  0.00     0.031 C 
ATOM     44  C   UNL     1       5.822   6.802  -0.274  1.00  0.00     0.029 A 
ATOM     45  C   UNL     1       6.585   6.409   0.906  1.00  0.00     0.049 A 
ATOM     46  H   UNL     1       6.494   4.596   1.930  1.00  0.00     0.167 HD
ATOM     47  C   UNL     1       5.863   0.978   4.304  1.00  0.00     0.037 A 
ATOM     48  C   UNL     1       7.495   7.182   1.528  1.00  0.00     0.037 A 
ATOM     49  C   UNL     1       6.922   1.687   4.977  1.00  0.00     0.049 A 
ATOM     50  C   UNL     1       8.184   6.671   2.754  1.00  0.00     0.074 A 
ATOM     51  C   UNL     1       7.671   1.287   6.070  1.00  0.00     0.029 A 
ATOM     52  N   UNL     1       7.376   2.950   4.625  1.00  0.00    -0.354 N 
ATOM     53  N   UNL     1       8.005   5.533   3.381  1.00  0.00    -0.248 NA
ATOM     54  C   UNL     1       9.196   7.545   3.358  1.00  0.00     0.031 C 
ATOM     55  C   UNL     1       8.557   2.321   6.398  1.00  0.00     0.029 A 
ATOM     56  C   UNL     1       8.381   3.353   5.490  1.00  0.00     0.049 A 
ATOM     57  H   UNL     1       7.034   3.482   3.871  1.00  0.00     0.167 HD
ATOM     58  C   UNL     1       8.883   5.553   4.457  1.00  0.00     0.074 A 
ATOM     59  C   UNL     1       9.603   6.810   4.385  1.00  0.00     0.031 C 
ATOM     60  C   UNL     1       9.073   4.615   5.417  1.00  0.00     0.037 A 
BRANCH  47  61
ATOM     61  C   UNL     1       5.435  -0.353   4.858  1.00  0.00     0.058 A 
ATOM     62  C   UNL     1       5.790  -1.559   4.235  1.00  0.00     0.135 A 
ATOM     63  C   UNL     1       4.683  -0.423   6.042  1.00  0.00     0.135 A 
ATOM     64  F   UNL     1       6.497  -1.548   3.094  1.00  0.00    -0.206 F 
ATOM     65  C   UNL     1       5.394  -2.790   4.753  1.00  0.00     0.059 A 
ATOM     66  C   UNL     1       4.290  -1.643   6.587  1.00  0.00     0.059 A 
ATOM     67  F   UNL     1       4.316   0.701   6.677  1.00  0.00    -0.206 F 
ATOM     68  C   UNL     1       4.638  -2.821   5.926  1.00  0.00     0.060 A 
BRANCH  68  69
ATOM     69  S   UNL     1       4.125  -4.420   6.590  1.00  0.00     0.124 S 
ATOM     70  O   UNL     1       2.990  -4.741   5.732  1.00  0.00    -0.237 OA
ATOM     71  O   UNL     1       5.316  -5.242   6.396  1.00  0.00    -0.237 OA
ATOM     72  O   UNL     1       3.798  -4.119   7.981  1.00  0.00    -0.744 OA
ENDBRANCH  68  69
ENDBRANCH  47  61
BRANCH  48  73
ATOM     73  C   UNL     1       7.757   8.539   0.990  1.00  0.00     0.058 A 
ATOM     74  C   UNL     1       8.895   8.800   0.217  1.00  0.00     0.135 A 
ATOM     75  C   UNL     1       6.811   9.565   1.144  1.00  0.00     0.135 A 
ATOM     76  F   UNL     1       9.824   7.846   0.047  1.00  0.00    -0.206 F 
ATOM     77  C   UNL     1       9.078  10.028  -0.407  1.00  0.00     0.059 A 
ATOM     78  C   UNL     1       6.964  10.794   0.515  1.00  0.00     0.059 A 
ATOM     79  F   UNL     1       5.697   9.349   1.861  1.00  0.00    -0.206 F 
ATOM     80  C   UNL     1       8.100  11.015  -0.263  1.00  0.00     0.060 A 
BRANCH  80  81
ATOM     81  S   UNL     1       8.274  12.559  -1.184  1.00  0.00     0.124 S 
ATOM     82  O   UNL     1       9.203  13.300  -0.339  1.00  0.00    -0.237 OA
ATOM     83  O   UNL     1       8.803  12.100  -2.465  1.00  0.00    -0.237 OA
ATOM     84  O   UNL     1       6.909  13.073  -1.230  1.00  0.00    -0.744 OA
ENDBRANCH  80  81
ENDBRANCH  48  73
BRANCH  60  85
ATOM     85  C   UNL     1      10.103   4.919   6.465  1.00  0.00     0.058 A 
ATOM     86  C   UNL     1       9.833   5.807   7.517  1.00  0.00     0.135 A 
ATOM     87  C   UNL     1      11.366   4.309   6.423  1.00  0.00     0.135 A 
ATOM     88  F   UNL     1       8.642   6.421   7.593  1.00  0.00    -0.206 F 
ATOM     89  C   UNL     1      10.791   6.101   8.481  1.00  0.00     0.059 A 
ATOM     90  C   UNL     1      12.334   4.575   7.386  1.00  0.00     0.059 A 
ATOM     91  F   UNL     1      11.669   3.448   5.439  1.00  0.00    -0.206 F 
ATOM     92  C   UNL     1      12.042   5.484   8.403  1.00  0.00     0.060 A 
BRANCH  92  93
ATOM     93  S   UNL     1      13.281   5.864   9.660  1.00  0.00     0.124 S 
ATOM     94  O   UNL     1      13.799   7.142   9.182  1.00  0.00    -0.237 OA
ATOM     95  O   UNL     1      12.487   5.920  10.884  1.00  0.00    -0.237 OA
ATOM     96  O   UNL     1      14.206   4.738   9.572  1.00  0.00    -0.744 OA
ENDBRANCH  92  93
ENDBRANCH  60  85
ENDBRANCH  34  35
ENDBRANCH  27  29
ENDBRANCH  26  27
ENDBRANCH  25  26
ENDBRANCH   1  25
TORSDOF 19
