REMARK SMILES Cc1cc(NC(=O)NCc2sccc2C)ccc1C(=O)OCCOC(=O)c1ccc(-c2c3nc(c(-c4c(F)cc(S(=O)(=O)[O-])cc4F)c4ccc([nH]4)c(-c4c(F)cc(S(=O)(=O)[O-])cc4F)c4nc(c(-c5c(F)cc(S(=O)(=O)[O-])cc5F)c5ccc2[nH]5)C=C4)C=C3)cc1
REMARK SMILES IDX 22 1 21 2 19 3 20 4 18 5 1 6 2 7 3 8 4 9 17 10 16 11 5 12
REMARK SMILES IDX 6 13 7 15 8 16 9 18 10 19 11 20 14 21 12 22 13 23 15 24
REMARK SMILES IDX 23 25 24 26 25 27 26 28 27 29 28 30 92 31 29 32 91 33 30 34
REMARK SMILES IDX 31 35 32 36 85 37 33 38 90 39 84 40 86 41 34 42 89 43 83 44
REMARK SMILES IDX 82 45 35 47 69 48 48 49 68 50 49 51 52 52 67 53 87 54 50 55
REMARK SMILES IDX 51 56 66 58 88 59 53 60 36 61 37 62 46 63 38 64 39 65 45 66
REMARK SMILES IDX 47 67 40 68 41 69 42 70 43 71 44 72 70 73 71 74 80 75 72 76
REMARK SMILES IDX 73 77 79 78 81 79 74 80 75 81 76 82 77 83 78 84 54 85 55 86
REMARK SMILES IDX 64 87 56 88 57 89 63 90 65 91 58 92 59 93 60 94 61 95 62 96
REMARK H PARENT 5 14 8 17 86 46 52 57
REMARK Flexibility Score: inf
ROOT
ATOM      1  C   UNL     1       3.451   2.666  -1.690  1.00  0.00     0.275 C 
ENDROOT
BRANCH   1   2
ATOM      2  O   UNL     1       2.329   1.791  -1.843  1.00  0.00    -0.458 OA
BRANCH   2   3
ATOM      3  C   UNL     1       1.950   1.121  -0.726  1.00  0.00     0.338 C 
ATOM      4  O   UNL     1       2.489   1.135   0.362  1.00  0.00    -0.246 OA
BRANCH   3   5
ATOM      5  C   UNL     1       0.883   0.173  -1.092  1.00  0.00     0.063 A 
ATOM      6  C   UNL     1       2.698  -1.351  -1.990  1.00  0.00     0.045 C 
ATOM      7  C   UNL     1       1.252  -1.010  -1.748  1.00  0.00    -0.035 A 
ATOM      8  C   UNL     1       0.280  -2.009  -1.916  1.00  0.00     0.030 A 
ATOM      9  C   UNL     1      -0.968  -1.889  -1.294  1.00  0.00     0.043 A 
ATOM     10  C   UNL     1      -0.427   0.354  -0.629  1.00  0.00     0.018 A 
ATOM     11  C   UNL     1      -1.369  -0.669  -0.755  1.00  0.00     0.027 A 
BRANCH   9  12
ATOM     12  N   UNL     1      -1.735  -3.024  -0.980  1.00  0.00    -0.308 N 
ATOM     13  C   UNL     1      -1.377  -4.215  -0.414  1.00  0.00     0.319 C 
ATOM     14  H   UNL     1      -2.690  -2.947  -1.204  1.00  0.00     0.171 HD
ATOM     15  O   UNL     1      -2.185  -5.148  -0.440  1.00  0.00    -0.248 OA
ATOM     16  N   UNL     1      -0.217  -4.392   0.277  1.00  0.00    -0.333 N 
ATOM     17  H   UNL     1      -0.093  -5.280   0.684  1.00  0.00     0.165 HD
BRANCH  16  18
ATOM     18  C   UNL     1       0.852  -3.453   0.492  1.00  0.00     0.165 C 
BRANCH  18  19
ATOM     19  C   UNL     1       1.712  -3.560   1.705  1.00  0.00     0.027 A 
ATOM     20  S   UNL     1       1.963  -2.074   2.558  1.00  0.00    -0.147 S 
ATOM     21  C   UNL     1       2.535  -4.567   2.185  1.00  0.00    -0.035 A 
ATOM     22  C   UNL     1       3.293  -2.702   3.395  1.00  0.00     0.065 A 
ATOM     23  C   UNL     1       3.470  -4.040   3.144  1.00  0.00     0.015 A 
ATOM     24  C   UNL     1       2.555  -5.988   1.741  1.00  0.00     0.045 C 
ENDBRANCH  18  19
ENDBRANCH  16  18
ENDBRANCH   9  12
ENDBRANCH   3   5
ENDBRANCH   2   3
ENDBRANCH   1   2
BRANCH   1  25
ATOM     25  C   UNL     1       3.367   3.847  -2.679  1.00  0.00     0.275 C 
BRANCH  25  26
ATOM     26  O   UNL     1       2.248   4.766  -2.620  1.00  0.00    -0.458 OA
BRANCH  26  27
ATOM     27  C   UNL     1       1.073   4.306  -2.115  1.00  0.00     0.338 C 
ATOM     28  O   UNL     1       0.285   3.623  -2.758  1.00  0.00    -0.246 OA
BRANCH  27  29
ATOM     29  C   UNL     1       1.088   4.486  -0.640  1.00  0.00     0.060 A 
ATOM     30  C   UNL     1       0.223   3.719   0.149  1.00  0.00     0.016 A 
ATOM     31  C   UNL     1       2.207   5.104  -0.076  1.00  0.00     0.016 A 
ATOM     32  C   UNL     1       0.570   3.416   1.462  1.00  0.00     0.010 A 
ATOM     33  C   UNL     1       2.634   4.685   1.154  1.00  0.00     0.010 A 
ATOM     34  C   UNL     1       1.809   3.857   1.926  1.00  0.00    -0.014 A 
BRANCH  34  35
ATOM     35  C   UNL     1       2.195   3.856   3.325  1.00  0.00     0.031 A 
ATOM     36  C   UNL     1       2.902   2.716   3.932  1.00  0.00     0.074 A 
ATOM     37  C   UNL     1       1.954   5.075   3.856  1.00  0.00     0.049 A 
ATOM     38  N   UNL     1       2.757   2.333   5.152  1.00  0.00    -0.248 NA
ATOM     39  C   UNL     1       3.840   1.874   3.188  1.00  0.00     0.031 C 
ATOM     40  C   UNL     1       2.347   5.709   5.093  1.00  0.00     0.029 A 
ATOM     41  N   UNL     1       1.075   6.004   3.276  1.00  0.00    -0.354 N 
ATOM     42  C   UNL     1       3.787   1.448   5.429  1.00  0.00     0.074 A 
ATOM     43  C   UNL     1       4.333   1.079   4.149  1.00  0.00     0.031 C 
ATOM     44  C   UNL     1       1.489   6.727   5.330  1.00  0.00     0.029 A 
ATOM     45  C   UNL     1       0.450   6.693   4.296  1.00  0.00     0.049 A 
ATOM     46  H   UNL     1       0.930   6.140   2.312  1.00  0.00     0.167 HD
ATOM     47  C   UNL     1       4.236   1.319   6.714  1.00  0.00     0.037 A 
ATOM     48  C   UNL     1      -0.874   6.408   4.483  1.00  0.00     0.037 A 
ATOM     49  C   UNL     1       3.576   2.336   7.527  1.00  0.00     0.049 A 
ATOM     50  C   UNL     1      -1.017   5.646   5.777  1.00  0.00     0.074 A 
ATOM     51  C   UNL     1       3.957   3.647   7.766  1.00  0.00     0.029 A 
ATOM     52  N   UNL     1       2.215   2.257   7.791  1.00  0.00    -0.354 N 
ATOM     53  N   UNL     1      -0.180   4.736   6.208  1.00  0.00    -0.248 NA
ATOM     54  C   UNL     1      -2.020   6.027   6.761  1.00  0.00     0.031 C 
ATOM     55  C   UNL     1       2.789   4.385   8.074  1.00  0.00     0.029 A 
ATOM     56  C   UNL     1       1.704   3.523   8.025  1.00  0.00     0.049 A 
ATOM     57  H   UNL     1       1.691   1.424   7.810  1.00  0.00     0.167 HD
ATOM     58  C   UNL     1      -0.453   4.489   7.531  1.00  0.00     0.074 A 
ATOM     59  C   UNL     1      -1.623   5.306   7.820  1.00  0.00     0.031 C 
ATOM     60  C   UNL     1       0.306   3.711   8.361  1.00  0.00     0.037 A 
BRANCH  47  61
ATOM     61  C   UNL     1       5.506   0.606   7.148  1.00  0.00     0.058 A 
ATOM     62  C   UNL     1       6.241   1.055   8.270  1.00  0.00     0.135 A 
ATOM     63  C   UNL     1       6.051  -0.527   6.511  1.00  0.00     0.135 A 
ATOM     64  F   UNL     1       5.809   2.071   9.030  1.00  0.00    -0.206 F 
ATOM     65  C   UNL     1       7.458   0.493   8.667  1.00  0.00     0.059 A 
ATOM     66  C   UNL     1       7.283  -1.094   6.873  1.00  0.00     0.059 A 
ATOM     67  F   UNL     1       5.388  -1.147   5.525  1.00  0.00    -0.206 F 
ATOM     68  C   UNL     1       7.989  -0.566   7.947  1.00  0.00     0.060 A 
BRANCH  68  69
ATOM     69  S   UNL     1       9.590  -1.232   8.448  1.00  0.00     0.124 S 
ATOM     70  O   UNL     1      10.458  -0.064   8.327  1.00  0.00    -0.237 OA
ATOM     71  O   UNL     1       9.325  -1.685   9.809  1.00  0.00    -0.237 OA
ATOM     72  O   UNL     1       9.839  -2.292   7.475  1.00  0.00    -0.744 OA
ENDBRANCH  68  69
ENDBRANCH  47  61
BRANCH  48  73
ATOM     73  C   UNL     1      -1.677   6.206   3.216  1.00  0.00     0.058 A 
ATOM     74  C   UNL     1      -1.571   7.181   2.192  1.00  0.00     0.135 A 
ATOM     75  C   UNL     1      -2.363   5.032   2.870  1.00  0.00     0.135 A 
ATOM     76  F   UNL     1      -0.955   8.350   2.441  1.00  0.00    -0.206 F 
ATOM     77  C   UNL     1      -2.002   6.964   0.884  1.00  0.00     0.059 A 
ATOM     78  C   UNL     1      -2.829   4.799   1.560  1.00  0.00     0.059 A 
ATOM     79  F   UNL     1      -2.538   4.057   3.773  1.00  0.00    -0.206 F 
ATOM     80  C   UNL     1      -2.612   5.757   0.567  1.00  0.00     0.060 A 
BRANCH  80  81
ATOM     81  S   UNL     1      -2.928   5.391  -1.184  1.00  0.00     0.124 S 
ATOM     82  O   UNL     1      -4.189   6.086  -1.416  1.00  0.00    -0.237 OA
ATOM     83  O   UNL     1      -1.756   5.981  -1.829  1.00  0.00    -0.237 OA
ATOM     84  O   UNL     1      -2.993   3.933  -1.205  1.00  0.00    -0.744 OA
ENDBRANCH  80  81
ENDBRANCH  48  73
BRANCH  60  85
ATOM     85  C   UNL     1      -0.180   3.168   9.679  1.00  0.00     0.058 A 
ATOM     86  C   UNL     1      -1.535   2.914   9.941  1.00  0.00     0.135 A 
ATOM     87  C   UNL     1       0.733   2.728  10.669  1.00  0.00     0.135 A 
ATOM     88  F   UNL     1      -2.485   3.150   9.024  1.00  0.00    -0.206 F 
ATOM     89  C   UNL     1      -1.968   2.373  11.145  1.00  0.00     0.059 A 
ATOM     90  C   UNL     1       0.326   2.110  11.843  1.00  0.00     0.059 A 
ATOM     91  F   UNL     1       2.059   2.868  10.527  1.00  0.00    -0.206 F 
ATOM     92  C   UNL     1      -1.030   1.979  12.092  1.00  0.00     0.060 A 
BRANCH  92  93
ATOM     93  S   UNL     1      -1.591   1.268  13.642  1.00  0.00     0.124 S 
ATOM     94  O   UNL     1      -1.787   2.468  14.449  1.00  0.00    -0.237 OA
ATOM     95  O   UNL     1      -2.808   0.564  13.251  1.00  0.00    -0.237 OA
ATOM     96  O   UNL     1      -0.479   0.411  14.039  1.00  0.00    -0.744 OA
ENDBRANCH  92  93
ENDBRANCH  60  85
ENDBRANCH  34  35
ENDBRANCH  27  29
ENDBRANCH  26  27
ENDBRANCH  25  26
ENDBRANCH   1  25
TORSDOF 17
