REMARK SMILES CC[C@](C)(O)C[NH2+]CC(C)(C)C(=O)OCCOC(=O)c1ccc(-c2c3nc(c(-c4c(F)cc(S(=O)(=O)[O-])cc4F)c4ccc([nH]4)c(-c4c(F)cc(S(=O)(=O)[O-])cc4F)c4nc(c(-c5c(F)cc(S(=O)(=O)[O-])cc5F)c5ccc2[nH]5)C=C4)C=C3)cc1
REMARK SMILES IDX 15 1 14 2 12 3 13 4 9 5 10 6 11 7 8 8 7 9 6 12 3 13 4 14
REMARK SMILES IDX 2 15 1 16 5 17 16 19 17 20 18 21 19 22 20 23 21 24 85 25
REMARK SMILES IDX 22 26 84 27 23 28 24 29 25 30 78 31 26 32 83 33 77 34 79 35
REMARK SMILES IDX 27 36 82 37 76 38 75 39 28 41 62 42 41 43 61 44 42 45 45 46
REMARK SMILES IDX 60 47 80 48 43 49 44 50 59 52 81 53 46 54 29 55 30 56 39 57
REMARK SMILES IDX 31 58 32 59 38 60 40 61 33 62 34 63 35 64 36 65 37 66 63 67
REMARK SMILES IDX 64 68 73 69 65 70 66 71 72 72 74 73 67 74 68 75 69 76 70 77
REMARK SMILES IDX 71 78 47 79 48 80 57 81 49 82 50 83 56 84 58 85 51 86 52 87
REMARK SMILES IDX 53 88 54 89 55 90
REMARK H PARENT 7 10 7 11 5 18 79 40 45 51
REMARK Flexibility Score: inf
ROOT
ATOM      1  C   UNL     1       4.831  -4.999  -1.888  1.00  0.00     0.274 C 
ENDROOT
BRANCH   1   2
ATOM      2  O   UNL     1       5.274  -4.021  -2.861  1.00  0.00    -0.461 OA
BRANCH   2   3
ATOM      3  C   UNL     1       4.605  -2.840  -2.777  1.00  0.00     0.317 C 
ATOM      4  O   UNL     1       3.878  -2.605  -1.823  1.00  0.00    -0.251 OA
BRANCH   3   5
ATOM      5  C   UNL     1       4.848  -1.867  -3.941  1.00  0.00     0.111 C 
ATOM      6  C   UNL     1       4.488  -2.504  -5.288  1.00  0.00     0.029 C 
ATOM      7  C   UNL     1       6.363  -1.559  -3.921  1.00  0.00     0.029 C 
BRANCH   5   8
ATOM      8  C   UNL     1       4.058  -0.505  -3.795  1.00  0.00     0.278 C 
BRANCH   8   9
ATOM      9  N   UNL     1       2.579  -0.411  -3.834  1.00  0.00    -0.343 N 
ATOM     10  H   UNL     1       2.309   0.564  -3.703  1.00  0.00     0.346 HD
ATOM     11  H   UNL     1       2.269  -0.768  -4.738  1.00  0.00     0.346 HD
BRANCH   9  12
ATOM     12  C   UNL     1       1.935  -1.222  -2.790  1.00  0.00     0.295 C 
BRANCH  12  13
ATOM     13  C   UNL     1       0.398  -1.246  -2.619  1.00  0.00     0.110 C 
ATOM     14  C   UNL     1      -0.183   0.109  -2.230  1.00  0.00     0.048 C 
BRANCH  13  15
ATOM     15  C   UNL     1       0.036  -2.368  -1.597  1.00  0.00     0.037 C 
ATOM     16  C   UNL     1       0.400  -2.121  -0.133  1.00  0.00     0.007 C 
ENDBRANCH  13  15
BRANCH  13  17
ATOM     17  O   UNL     1      -0.158  -1.644  -3.887  1.00  0.00    -0.384 OA
ATOM     18  H   UNL     1       0.046  -0.970  -4.555  1.00  0.00     0.211 HD
ENDBRANCH  13  17
ENDBRANCH  12  13
ENDBRANCH   9  12
ENDBRANCH   8   9
ENDBRANCH   5   8
ENDBRANCH   3   5
ENDBRANCH   2   3
ENDBRANCH   1   2
BRANCH   1  19
ATOM     19  C   UNL     1       5.369  -4.832  -0.445  1.00  0.00     0.275 C 
BRANCH  19  20
ATOM     20  O   UNL     1       4.838  -3.695   0.282  1.00  0.00    -0.458 OA
BRANCH  20  21
ATOM     21  C   UNL     1       5.664  -2.617   0.365  1.00  0.00     0.338 C 
ATOM     22  O   UNL     1       6.833  -2.591   0.005  1.00  0.00    -0.246 OA
BRANCH  21  23
ATOM     23  C   UNL     1       4.942  -1.370   0.740  1.00  0.00     0.060 A 
ATOM     24  C   UNL     1       4.972  -0.337  -0.202  1.00  0.00     0.016 A 
ATOM     25  C   UNL     1       4.336  -1.139   1.974  1.00  0.00     0.016 A 
ATOM     26  C   UNL     1       4.365   0.895   0.040  1.00  0.00     0.010 A 
ATOM     27  C   UNL     1       3.768   0.128   2.246  1.00  0.00     0.010 A 
ATOM     28  C   UNL     1       3.778   1.156   1.280  1.00  0.00    -0.014 A 
BRANCH  28  29
ATOM     29  C   UNL     1       3.299   2.542   1.559  1.00  0.00     0.031 A 
ATOM     30  C   UNL     1       4.196   3.506   2.281  1.00  0.00     0.074 A 
ATOM     31  C   UNL     1       2.124   2.991   1.075  1.00  0.00     0.049 A 
ATOM     32  N   UNL     1       3.978   4.754   2.607  1.00  0.00    -0.248 NA
ATOM     33  C   UNL     1       5.518   2.999   2.676  1.00  0.00     0.031 C 
ATOM     34  C   UNL     1       1.204   2.192   0.279  1.00  0.00     0.029 A 
ATOM     35  N   UNL     1       1.509   4.219   1.158  1.00  0.00    -0.354 N 
ATOM     36  C   UNL     1       5.126   5.182   3.259  1.00  0.00     0.074 A 
ATOM     37  C   UNL     1       6.034   4.053   3.292  1.00  0.00     0.031 C 
ATOM     38  C   UNL     1       0.143   2.944  -0.061  1.00  0.00     0.029 A 
ATOM     39  C   UNL     1       0.285   4.272   0.527  1.00  0.00     0.049 A 
ATOM     40  H   UNL     1       1.906   4.989   1.625  1.00  0.00     0.167 HD
ATOM     41  C   UNL     1       5.397   6.401   3.785  1.00  0.00     0.037 A 
ATOM     42  C   UNL     1      -0.630   5.262   0.446  1.00  0.00     0.037 A 
ATOM     43  C   UNL     1       4.491   7.523   3.756  1.00  0.00     0.049 A 
ATOM     44  C   UNL     1      -0.341   6.582   1.114  1.00  0.00     0.074 A 
ATOM     45  C   UNL     1       4.676   8.789   4.286  1.00  0.00     0.029 A 
ATOM     46  N   UNL     1       3.231   7.518   3.175  1.00  0.00    -0.354 N 
ATOM     47  N   UNL     1       0.739   6.961   1.755  1.00  0.00    -0.248 NA
ATOM     48  C   UNL     1      -1.396   7.605   1.059  1.00  0.00     0.031 C 
ATOM     49  C   UNL     1       3.508   9.530   4.076  1.00  0.00     0.029 A 
ATOM     50  C   UNL     1       2.617   8.748   3.359  1.00  0.00     0.049 A 
ATOM     51  H   UNL     1       2.831   6.753   2.702  1.00  0.00     0.167 HD
ATOM     52  C   UNL     1       0.501   8.270   2.162  1.00  0.00     0.074 A 
ATOM     53  C   UNL     1      -0.816   8.626   1.676  1.00  0.00     0.031 C 
ATOM     54  C   UNL     1       1.302   9.099   2.877  1.00  0.00     0.037 A 
BRANCH  41  55
ATOM     55  C   UNL     1       6.712   6.564   4.495  1.00  0.00     0.058 A 
ATOM     56  C   UNL     1       7.933   6.605   3.804  1.00  0.00     0.135 A 
ATOM     57  C   UNL     1       6.746   6.690   5.893  1.00  0.00     0.135 A 
ATOM     58  F   UNL     1       7.961   6.468   2.469  1.00  0.00    -0.206 F 
ATOM     59  C   UNL     1       9.144   6.734   4.478  1.00  0.00     0.059 A 
ATOM     60  C   UNL     1       7.942   6.850   6.585  1.00  0.00     0.059 A 
ATOM     61  F   UNL     1       5.607   6.655   6.603  1.00  0.00    -0.206 F 
ATOM     62  C   UNL     1       9.138   6.853   5.869  1.00  0.00     0.060 A 
BRANCH  62  63
ATOM     63  S   UNL     1      10.716   7.009   6.730  1.00  0.00     0.124 S 
ATOM     64  O   UNL     1      11.259   5.661   6.588  1.00  0.00    -0.237 OA
ATOM     65  O   UNL     1      11.390   8.048   5.959  1.00  0.00    -0.237 OA
ATOM     66  O   UNL     1      10.329   7.389   8.085  1.00  0.00    -0.744 OA
ENDBRANCH  62  63
ENDBRANCH  41  55
BRANCH  42  67
ATOM     67  C   UNL     1      -1.929   5.040  -0.258  1.00  0.00     0.058 A 
ATOM     68  C   UNL     1      -2.268   5.753  -1.418  1.00  0.00     0.135 A 
ATOM     69  C   UNL     1      -2.873   4.125   0.237  1.00  0.00     0.135 A 
ATOM     70  F   UNL     1      -1.415   6.657  -1.924  1.00  0.00    -0.206 F 
ATOM     71  C   UNL     1      -3.497   5.579  -2.054  1.00  0.00     0.059 A 
ATOM     72  C   UNL     1      -4.093   3.910  -0.397  1.00  0.00     0.059 A 
ATOM     73  F   UNL     1      -2.606   3.414   1.343  1.00  0.00    -0.206 F 
ATOM     74  C   UNL     1      -4.402   4.650  -1.537  1.00  0.00     0.060 A 
BRANCH  74  75
ATOM     75  S   UNL     1      -5.973   4.394  -2.392  1.00  0.00     0.124 S 
ATOM     76  O   UNL     1      -6.689   5.623  -2.070  1.00  0.00    -0.237 OA
ATOM     77  O   UNL     1      -5.547   4.247  -3.780  1.00  0.00    -0.237 OA
ATOM     78  O   UNL     1      -6.497   3.179  -1.774  1.00  0.00    -0.744 OA
ENDBRANCH  74  75
ENDBRANCH  42  67
BRANCH  54  79
ATOM     79  C   UNL     1       0.790  10.488   3.158  1.00  0.00     0.058 A 
ATOM     80  C   UNL     1      -0.266  10.723   4.052  1.00  0.00     0.135 A 
ATOM     81  C   UNL     1       1.387  11.604   2.547  1.00  0.00     0.135 A 
ATOM     82  F   UNL     1      -0.878   9.695   4.661  1.00  0.00    -0.206 F 
ATOM     83  C   UNL     1      -0.734  12.010   4.306  1.00  0.00     0.059 A 
ATOM     84  C   UNL     1       0.957  12.901   2.809  1.00  0.00     0.059 A 
ATOM     85  F   UNL     1       2.409  11.441   1.691  1.00  0.00    -0.206 F 
ATOM     86  C   UNL     1      -0.116  13.093   3.679  1.00  0.00     0.060 A 
BRANCH  86  87
ATOM     87  S   UNL     1      -0.721  14.758   4.028  1.00  0.00     0.124 S 
ATOM     88  O   UNL     1      -1.987  14.770   3.302  1.00  0.00    -0.237 OA
ATOM     89  O   UNL     1      -0.827  14.754   5.484  1.00  0.00    -0.237 OA
ATOM     90  O   UNL     1       0.323  15.622   3.484  1.00  0.00    -0.744 OA
ENDBRANCH  86  87
ENDBRANCH  54  79
ENDBRANCH  28  29
ENDBRANCH  21  23
ENDBRANCH  20  21
ENDBRANCH  19  20
ENDBRANCH   1  19
TORSDOF 20
