REMARK SMILES C[C@@H](C(=O)OCCOC(=O)c1ccc(-c2c3nc(c(-c4c(F)cc(S(=O)(=O)[O-])cc4F)c4ccc([nH]4)c(-c4c(F)cc(S(=O)(=O)[O-])cc4F)c4nc(c(-c5c(F)cc(S(=O)(=O)[O-])cc5F)c5ccc2[nH]5)C=C4)C=C3)cc1)c1ccc(-c2cccc(OC(=O)NC3CC3)c2)c(F)c1
REMARK SMILES IDX 6 1 5 2 3 3 4 4 2 5 1 6 77 7 78 8 96 9 79 10 94 11 80 12
REMARK SMILES IDX 95 13 81 14 82 15 93 16 83 17 85 18 84 19 86 20 87 21 88 22
REMARK SMILES IDX 89 23 90 25 91 26 92 27 7 28 8 29 9 30 10 31 11 32 12 33
REMARK SMILES IDX 76 34 13 35 75 36 14 37 15 38 16 39 69 40 17 41 74 42 68 43
REMARK SMILES IDX 70 44 18 45 73 46 67 47 66 48 19 50 53 51 32 52 52 53 33 54
REMARK SMILES IDX 36 55 51 56 71 57 34 58 35 59 50 61 72 62 37 63 20 64 21 65
REMARK SMILES IDX 30 66 22 67 23 68 29 69 31 70 24 71 25 72 26 73 27 74 28 75
REMARK SMILES IDX 54 76 55 77 64 78 56 79 57 80 63 81 65 82 58 83 59 84 60 85
REMARK SMILES IDX 61 86 62 87 38 88 39 89 48 90 40 91 41 92 47 93 49 94 42 95
REMARK SMILES IDX 43 96 44 97 45 98 46 99
REMARK H PARENT 89 24 70 49 36 60
REMARK Flexibility Score: inf
ROOT
ATOM      1  C   UNL     1       2.782   2.192  -3.091  1.00  0.00     0.274 C 
ENDROOT
BRANCH   1   2
ATOM      2  O   UNL     1       2.346   1.595  -1.854  1.00  0.00    -0.462 OA
BRANCH   2   3
ATOM      3  C   UNL     1       1.317   2.209  -1.206  1.00  0.00     0.313 C 
ATOM      4  O   UNL     1       0.809   3.260  -1.582  1.00  0.00    -0.252 OA
BRANCH   3   5
ATOM      5  C   UNL     1       0.908   1.478   0.084  1.00  0.00     0.126 C 
ATOM      6  C   UNL     1       1.598   0.117   0.240  1.00  0.00     0.025 C 
BRANCH   5   7
ATOM      7  C   UNL     1      -0.611   1.421   0.251  1.00  0.00    -0.031 A 
ATOM      8  C   UNL     1      -1.320   2.603   0.527  1.00  0.00     0.005 A 
ATOM      9  C   UNL     1      -1.355   0.241   0.115  1.00  0.00     0.044 A 
ATOM     10  C   UNL     1      -2.717   2.606   0.646  1.00  0.00     0.012 A 
ATOM     11  C   UNL     1      -2.749   0.250   0.246  1.00  0.00     0.131 A 
ATOM     12  C   UNL     1      -3.464   1.427   0.507  1.00  0.00     0.018 A 
ATOM     13  F   UNL     1      -3.395  -0.914   0.075  1.00  0.00    -0.206 F 
BRANCH  12  14
ATOM     14  C   UNL     1      -4.936   1.446   0.614  1.00  0.00    -0.012 A 
ATOM     15  C   UNL     1      -5.705   2.383  -0.101  1.00  0.00     0.009 A 
ATOM     16  C   UNL     1      -5.611   0.547   1.457  1.00  0.00     0.056 A 
ATOM     17  C   UNL     1      -7.098   2.406  -0.004  1.00  0.00     0.004 A 
ATOM     18  C   UNL     1      -6.997   0.613   1.588  1.00  0.00     0.133 A 
ATOM     19  C   UNL     1      -7.747   1.514   0.837  1.00  0.00     0.047 A 
BRANCH  18  20
ATOM     20  O   UNL     1      -7.757  -0.165   2.491  1.00  0.00    -0.410 OA
BRANCH  20  21
ATOM     21  C   UNL     1      -7.272  -0.912   3.553  1.00  0.00     0.412 C 
ATOM     22  O   UNL     1      -6.094  -1.113   3.826  1.00  0.00    -0.224 OA
ATOM     23  N   UNL     1      -8.260  -1.429   4.354  1.00  0.00    -0.318 N 
ATOM     24  H   UNL     1      -7.955  -2.077   5.030  1.00  0.00     0.167 HD
BRANCH  23  25
ATOM     25  C   UNL     1      -9.663  -1.168   4.352  1.00  0.00     0.085 C 
ATOM     26  C   UNL     1     -10.510  -0.714   3.198  1.00  0.00     0.027 C 
ATOM     27  C   UNL     1     -10.583  -2.137   3.658  1.00  0.00     0.027 C 
ENDBRANCH  23  25
ENDBRANCH  20  21
ENDBRANCH  18  20
ENDBRANCH  12  14
ENDBRANCH   5   7
ENDBRANCH   3   5
ENDBRANCH   2   3
ENDBRANCH   1   2
BRANCH   1  28
ATOM     28  C   UNL     1       2.307   1.359  -4.278  1.00  0.00     0.275 C 
BRANCH  28  29
ATOM     29  O   UNL     1       0.875   1.429  -4.380  1.00  0.00    -0.458 OA
BRANCH  29  30
ATOM     30  C   UNL     1       0.208   0.284  -4.100  1.00  0.00     0.338 C 
ATOM     31  O   UNL     1       0.684  -0.801  -3.820  1.00  0.00    -0.246 OA
BRANCH  30  32
ATOM     32  C   UNL     1      -1.239   0.542  -4.161  1.00  0.00     0.060 A 
ATOM     33  C   UNL     1      -1.817   1.378  -3.212  1.00  0.00     0.016 A 
ATOM     34  C   UNL     1      -2.038  -0.138  -5.080  1.00  0.00     0.016 A 
ATOM     35  C   UNL     1      -3.204   1.460  -3.122  1.00  0.00     0.010 A 
ATOM     36  C   UNL     1      -3.431   0.015  -5.035  1.00  0.00     0.010 A 
ATOM     37  C   UNL     1      -4.037   0.780  -4.023  1.00  0.00    -0.014 A 
BRANCH  37  38
ATOM     38  C   UNL     1      -5.521   0.823  -3.850  1.00  0.00     0.031 A 
ATOM     39  C   UNL     1      -6.301  -0.453  -3.634  1.00  0.00     0.074 A 
ATOM     40  C   UNL     1      -6.175   2.003  -3.817  1.00  0.00     0.049 A 
ATOM     41  N   UNL     1      -7.598  -0.634  -3.594  1.00  0.00    -0.248 NA
ATOM     42  C   UNL     1      -5.523  -1.690  -3.464  1.00  0.00     0.031 C 
ATOM     43  C   UNL     1      -5.552   3.322  -3.941  1.00  0.00     0.029 A 
ATOM     44  N   UNL     1      -7.504   2.289  -3.610  1.00  0.00    -0.354 N 
ATOM     45  C   UNL     1      -7.789  -2.008  -3.485  1.00  0.00     0.074 A 
ATOM     46  C   UNL     1      -6.476  -2.613  -3.441  1.00  0.00     0.031 C 
ATOM     47  C   UNL     1      -6.471   4.269  -3.695  1.00  0.00     0.029 A 
ATOM     48  C   UNL     1      -7.769   3.635  -3.494  1.00  0.00     0.049 A 
ATOM     49  H   UNL     1      -8.201   1.597  -3.551  1.00  0.00     0.167 HD
ATOM     50  C   UNL     1      -8.954  -2.700  -3.442  1.00  0.00     0.037 A 
ATOM     51  C   UNL     1      -8.924   4.285  -3.245  1.00  0.00     0.037 A 
ATOM     52  C   UNL     1     -10.257  -2.088  -3.386  1.00  0.00     0.049 A 
ATOM     53  C   UNL     1     -10.200   3.497  -3.131  1.00  0.00     0.074 A 
ATOM     54  C   UNL     1     -11.499  -2.701  -3.377  1.00  0.00     0.029 A 
ATOM     55  N   UNL     1     -10.485  -0.724  -3.289  1.00  0.00    -0.354 N 
ATOM     56  N   UNL     1     -10.371   2.198  -3.141  1.00  0.00    -0.248 NA
ATOM     57  C   UNL     1     -11.446   4.268  -3.008  1.00  0.00     0.031 C 
ATOM     58  C   UNL     1     -12.479  -1.704  -3.300  1.00  0.00     0.029 A 
ATOM     59  C   UNL     1     -11.846  -0.474  -3.224  1.00  0.00     0.049 A 
ATOM     60  H   UNL     1      -9.783  -0.034  -3.268  1.00  0.00     0.167 HD
ATOM     61  C   UNL     1     -11.744   1.996  -3.051  1.00  0.00     0.074 A 
ATOM     62  C   UNL     1     -12.353   3.304  -2.929  1.00  0.00     0.031 C 
ATOM     63  C   UNL     1     -12.439   0.833  -3.098  1.00  0.00     0.037 A 
BRANCH  50  64
ATOM     64  C   UNL     1      -8.880  -4.201  -3.522  1.00  0.00     0.058 A 
ATOM     65  C   UNL     1      -8.482  -4.998  -2.440  1.00  0.00     0.135 A 
ATOM     66  C   UNL     1      -9.252  -4.851  -4.712  1.00  0.00     0.135 A 
ATOM     67  F   UNL     1      -8.103  -4.430  -1.285  1.00  0.00    -0.206 F 
ATOM     68  C   UNL     1      -8.430  -6.387  -2.541  1.00  0.00     0.059 A 
ATOM     69  C   UNL     1      -9.232  -6.238  -4.828  1.00  0.00     0.059 A 
ATOM     70  F   UNL     1      -9.645  -4.137  -5.779  1.00  0.00    -0.206 F 
ATOM     71  C   UNL     1      -8.804  -6.997  -3.741  1.00  0.00     0.060 A 
BRANCH  71  72
ATOM     72  S   UNL     1      -8.738  -8.798  -3.862  1.00  0.00     0.124 S 
ATOM     73  O   UNL     1      -7.303  -9.028  -4.004  1.00  0.00    -0.237 OA
ATOM     74  O   UNL     1      -9.325  -9.222  -2.595  1.00  0.00    -0.237 OA
ATOM     75  O   UNL     1      -9.539  -9.089  -5.047  1.00  0.00    -0.744 OA
ENDBRANCH  71  72
ENDBRANCH  50  64
BRANCH  51  76
ATOM     76  C   UNL     1      -8.929   5.763  -3.072  1.00  0.00     0.058 A 
ATOM     77  C   UNL     1      -9.222   6.332  -1.823  1.00  0.00     0.135 A 
ATOM     78  C   UNL     1      -8.632   6.634  -4.131  1.00  0.00     0.135 A 
ATOM     79  F   UNL     1      -9.522   5.540  -0.781  1.00  0.00    -0.206 F 
ATOM     80  C   UNL     1      -9.227   7.709  -1.630  1.00  0.00     0.059 A 
ATOM     81  C   UNL     1      -8.600   8.014  -3.956  1.00  0.00     0.059 A 
ATOM     82  F   UNL     1      -8.336   6.143  -5.344  1.00  0.00    -0.206 F 
ATOM     83  C   UNL     1      -8.910   8.543  -2.703  1.00  0.00     0.060 A 
BRANCH  83  84
ATOM     84  S   UNL     1      -8.848  10.328  -2.438  1.00  0.00     0.124 S 
ATOM     85  O   UNL     1     -10.258  10.686  -2.532  1.00  0.00    -0.237 OA
ATOM     86  O   UNL     1      -8.251  10.428  -1.110  1.00  0.00    -0.237 OA
ATOM     87  O   UNL     1      -8.001  10.795  -3.532  1.00  0.00    -0.744 OA
ENDBRANCH  83  84
ENDBRANCH  51  76
BRANCH  63  88
ATOM     88  C   UNL     1     -13.938   0.920  -3.030  1.00  0.00     0.058 A 
ATOM     89  C   UNL     1     -14.690   1.366  -4.129  1.00  0.00     0.135 A 
ATOM     90  C   UNL     1     -14.633   0.504  -1.884  1.00  0.00     0.135 A 
ATOM     91  F   UNL     1     -14.072   1.779  -5.247  1.00  0.00    -0.206 F 
ATOM     92  C   UNL     1     -16.079   1.418  -4.086  1.00  0.00     0.059 A 
ATOM     93  C   UNL     1     -16.023   0.526  -1.827  1.00  0.00     0.059 A 
ATOM     94  F   UNL     1     -13.961   0.060  -0.810  1.00  0.00    -0.206 F 
ATOM     95  C   UNL     1     -16.737   0.995  -2.930  1.00  0.00     0.060 A 
BRANCH  95  96
ATOM     96  S   UNL     1     -18.542   1.036  -2.898  1.00  0.00     0.124 S 
ATOM     97  O   UNL     1     -18.801   2.460  -2.717  1.00  0.00    -0.237 OA
ATOM     98  O   UNL     1     -18.893   0.489  -4.206  1.00  0.00    -0.237 OA
ATOM     99  O   UNL     1     -18.880   0.185  -1.760  1.00  0.00    -0.744 OA
ENDBRANCH  95  96
ENDBRANCH  63  88
ENDBRANCH  37  38
ENDBRANCH  30  32
ENDBRANCH  29  30
ENDBRANCH  28  29
ENDBRANCH   1  28
TORSDOF 19
