REMARK SMILES COc1cccc(-c2nn(-c3cc4c(cc3C(N)=O)OCO4)cc2C(=O)OCCOC(=O)c2ccc(-c3c4nc(c(-c5c(F)cc(S(=O)(=O)[O-])cc5F)c5ccc([nH]5)c(-c5c(F)cc(S(=O)(=O)[O-])cc5F)c5nc(c(-c6c(F)cc(S(=O)(=O)[O-])cc6F)c6ccc3[nH]6)C=C5)C=C4)cc2)c1
REMARK SMILES IDX 29 1 28 2 27 3 25 4 26 5 24 6 8 7 9 8 10 9 23 10 7 11 3 12
REMARK SMILES IDX 4 13 99 14 5 15 6 16 2 17 1 18 11 19 12 20 16 21 13 22 15 23
REMARK SMILES IDX 14 24 22 25 20 26 21 27 17 28 18 29 19 30 30 33 31 34 32 35
REMARK SMILES IDX 33 36 34 37 98 38 35 39 97 40 36 41 37 42 38 43 91 44 39 45
REMARK SMILES IDX 96 46 90 47 92 48 40 49 95 50 89 51 88 52 41 54 75 55 54 56
REMARK SMILES IDX 74 57 55 58 58 59 73 60 93 61 56 62 57 63 72 65 94 66 59 67
REMARK SMILES IDX 42 68 43 69 52 70 44 71 45 72 51 73 53 74 46 75 47 76 48 77
REMARK SMILES IDX 49 78 50 79 76 80 77 81 86 82 78 83 79 84 85 85 87 86 80 87
REMARK SMILES IDX 81 88 82 89 83 90 84 91 60 92 61 93 70 94 62 95 63 96 69 97
REMARK SMILES IDX 71 98 64 99 65 100 66 101 67 102 68 103
REMARK H PARENT 18 31 18 32 92 53 58 64
REMARK Flexibility Score: inf
ROOT
ATOM      1  C   UNL     1       3.162   7.162   5.102  1.00  0.00     0.275 C 
ENDROOT
BRANCH   1   2
ATOM      2  C   UNL     1       3.768   5.761   5.123  1.00  0.00     0.275 C 
BRANCH   2   3
ATOM      3  O   UNL     1       4.429   5.425   3.891  1.00  0.00    -0.458 OA
BRANCH   3   4
ATOM      4  C   UNL     1       3.705   4.760   2.935  1.00  0.00     0.342 C 
ATOM      5  O   UNL     1       2.547   4.377   3.094  1.00  0.00    -0.246 OA
BRANCH   4   6
ATOM      6  C   UNL     1       4.473   4.532   1.727  1.00  0.00     0.106 A 
ATOM      7  C   UNL     1       4.101   3.996   0.457  1.00  0.00     0.107 A 
ATOM      8  N   UNL     1       5.171   3.878  -0.356  1.00  0.00    -0.167 NA
ATOM      9  N   UNL     1       6.219   4.165   0.448  1.00  0.00    -0.239 N 
ATOM     10  C   UNL     1       5.817   4.811   1.583  1.00  0.00     0.131 A 
BRANCH   7  11
ATOM     11  C   UNL     1       2.767   3.641  -0.013  1.00  0.00     0.007 A 
ATOM     12  C   UNL     1       0.928   2.069  -0.196  1.00  0.00     0.119 A 
ATOM     13  C   UNL     1       0.153   3.066  -0.797  1.00  0.00     0.046 A 
ATOM     14  C   UNL     1       2.230   2.366   0.222  1.00  0.00     0.056 A 
ATOM     15  C   UNL     1       0.690   4.325  -1.057  1.00  0.00     0.005 A 
ATOM     16  C   UNL     1       2.007   4.598  -0.694  1.00  0.00     0.011 A 
BRANCH  12  17
ATOM     17  O   UNL     1       0.291   0.864  -0.080  1.00  0.00    -0.497 OA
ATOM     18  C   UNL     1       1.072  -0.256   0.307  1.00  0.00     0.278 C 
ENDBRANCH  12  17
ENDBRANCH   7  11
BRANCH   9  19
ATOM     19  C   UNL     1       7.553   3.860   0.087  1.00  0.00     0.081 A 
ATOM     20  C   UNL     1       7.930   4.071  -1.255  1.00  0.00     0.079 A 
ATOM     21  C   UNL     1       8.493   3.365   1.042  1.00  0.00     0.069 A 
ATOM     22  C   UNL     1       9.246   3.840  -1.591  1.00  0.00     0.167 A 
ATOM     23  C   UNL     1       9.845   3.265   0.671  1.00  0.00     0.066 A 
ATOM     24  C   UNL     1      10.176   3.476  -0.648  1.00  0.00     0.166 A 
ATOM     25  O   UNL     1       9.791   3.917  -2.835  1.00  0.00    -0.454 OA
ATOM     26  O   UNL     1      11.413   3.277  -1.182  1.00  0.00    -0.454 OA
ATOM     27  C   UNL     1      11.093   3.349  -2.587  1.00  0.00     0.468 C 
BRANCH  21  28
ATOM     28  C   UNL     1       8.063   2.713   2.336  1.00  0.00     0.251 C 
ATOM     29  N   UNL     1       8.974   1.954   3.020  1.00  0.00    -0.366 N 
ATOM     30  O   UNL     1       6.926   2.731   2.782  1.00  0.00    -0.269 OA
ATOM     31  H   UNL     1       9.906   1.902   2.707  1.00  0.00     0.159 HD
ATOM     32  H   UNL     1       8.697   1.460   3.825  1.00  0.00     0.159 HD
ENDBRANCH  21  28
ENDBRANCH   9  19
ENDBRANCH   4   6
ENDBRANCH   3   4
ENDBRANCH   2   3
ENDBRANCH   1   2
BRANCH   1  33
ATOM     33  O   UNL     1       2.025   7.229   4.246  1.00  0.00    -0.458 OA
BRANCH  33  34
ATOM     34  C   UNL     1       2.338   7.508   2.963  1.00  0.00     0.338 C 
ATOM     35  O   UNL     1       3.455   7.572   2.474  1.00  0.00    -0.246 OA
BRANCH  34  36
ATOM     36  C   UNL     1       1.136   7.846   2.211  1.00  0.00     0.060 A 
ATOM     37  C   UNL     1       1.249   7.815   0.818  1.00  0.00     0.016 A 
ATOM     38  C   UNL     1       0.030   8.405   2.860  1.00  0.00     0.016 A 
ATOM     39  C   UNL     1       0.306   8.464   0.061  1.00  0.00     0.010 A 
ATOM     40  C   UNL     1      -0.908   9.067   2.104  1.00  0.00     0.010 A 
ATOM     41  C   UNL     1      -0.717   9.144   0.723  1.00  0.00    -0.014 A 
BRANCH  41  42
ATOM     42  C   UNL     1      -1.636   9.913  -0.088  1.00  0.00     0.031 A 
ATOM     43  C   UNL     1      -2.559   9.044  -0.863  1.00  0.00     0.074 A 
ATOM     44  C   UNL     1      -1.634  11.260  -0.007  1.00  0.00     0.049 A 
ATOM     45  N   UNL     1      -2.669   8.944  -2.145  1.00  0.00    -0.248 NA
ATOM     46  C   UNL     1      -3.316   8.011  -0.128  1.00  0.00     0.031 C 
ATOM     47  C   UNL     1      -0.874  12.080   0.950  1.00  0.00     0.029 A 
ATOM     48  N   UNL     1      -2.397  12.184  -0.655  1.00  0.00    -0.354 N 
ATOM     49  C   UNL     1      -3.721   8.052  -2.357  1.00  0.00     0.074 A 
ATOM     50  C   UNL     1      -3.918   7.354  -1.120  1.00  0.00     0.031 C 
ATOM     51  C   UNL     1      -1.403  13.321   1.000  1.00  0.00     0.029 A 
ATOM     52  C   UNL     1      -2.428  13.429  -0.019  1.00  0.00     0.049 A 
ATOM     53  H   UNL     1      -2.881  11.994  -1.491  1.00  0.00     0.167 HD
ATOM     54  C   UNL     1      -4.553   8.222  -3.421  1.00  0.00     0.037 A 
ATOM     55  C   UNL     1      -3.308  14.429  -0.277  1.00  0.00     0.037 A 
ATOM     56  C   UNL     1      -3.934   9.066  -4.408  1.00  0.00     0.049 A 
ATOM     57  C   UNL     1      -3.844  14.181  -1.639  1.00  0.00     0.074 A 
ATOM     58  C   UNL     1      -2.960   8.926  -5.370  1.00  0.00     0.029 A 
ATOM     59  N   UNL     1      -4.074  10.404  -4.148  1.00  0.00    -0.354 N 
ATOM     60  N   UNL     1      -3.102  14.211  -2.715  1.00  0.00    -0.248 NA
ATOM     61  C   UNL     1      -5.126  13.502  -1.783  1.00  0.00     0.031 C 
ATOM     62  C   UNL     1      -2.408  10.226  -5.564  1.00  0.00     0.029 A 
ATOM     63  C   UNL     1      -3.099  11.136  -4.766  1.00  0.00     0.049 A 
ATOM     64  H   UNL     1      -4.786  10.789  -3.588  1.00  0.00     0.167 HD
ATOM     65  C   UNL     1      -3.627  13.221  -3.525  1.00  0.00     0.074 A 
ATOM     66  C   UNL     1      -4.949  12.934  -2.979  1.00  0.00     0.031 C 
ATOM     67  C   UNL     1      -2.826  12.498  -4.359  1.00  0.00     0.037 A 
BRANCH  54  68
ATOM     68  C   UNL     1      -6.065   8.094  -3.345  1.00  0.00     0.058 A 
ATOM     69  C   UNL     1      -6.827   8.248  -4.523  1.00  0.00     0.135 A 
ATOM     70  C   UNL     1      -6.807   8.137  -2.142  1.00  0.00     0.135 A 
ATOM     71  F   UNL     1      -6.233   8.237  -5.728  1.00  0.00    -0.206 F 
ATOM     72  C   UNL     1      -8.205   8.485  -4.503  1.00  0.00     0.059 A 
ATOM     73  C   UNL     1      -8.184   8.326  -2.101  1.00  0.00     0.059 A 
ATOM     74  F   UNL     1      -6.230   8.092  -0.936  1.00  0.00    -0.206 F 
ATOM     75  C   UNL     1      -8.873   8.532  -3.284  1.00  0.00     0.060 A 
BRANCH  75  76
ATOM     76  S   UNL     1     -10.636   8.897  -3.244  1.00  0.00     0.124 S 
ATOM     77  O   UNL     1     -10.661  10.285  -3.688  1.00  0.00    -0.237 OA
ATOM     78  O   UNL     1     -11.167   7.914  -4.183  1.00  0.00    -0.237 OA
ATOM     79  O   UNL     1     -10.995   8.673  -1.846  1.00  0.00    -0.744 OA
ENDBRANCH  75  76
ENDBRANCH  54  68
BRANCH  55  80
ATOM     80  C   UNL     1      -3.986  15.319   0.706  1.00  0.00     0.058 A 
ATOM     81  C   UNL     1      -4.662  16.483   0.299  1.00  0.00     0.135 A 
ATOM     82  C   UNL     1      -4.232  14.890   2.026  1.00  0.00     0.135 A 
ATOM     83  F   UNL     1      -4.499  16.955  -0.947  1.00  0.00    -0.206 F 
ATOM     84  C   UNL     1      -5.568  17.152   1.132  1.00  0.00     0.059 A 
ATOM     85  C   UNL     1      -5.126  15.542   2.876  1.00  0.00     0.059 A 
ATOM     86  F   UNL     1      -3.678  13.764   2.501  1.00  0.00    -0.206 F 
ATOM     87  C   UNL     1      -5.811  16.659   2.414  1.00  0.00     0.060 A 
BRANCH  87  88
ATOM     88  S   UNL     1      -7.105  17.411   3.432  1.00  0.00     0.124 S 
ATOM     89  O   UNL     1      -6.525  18.713   3.743  1.00  0.00    -0.237 OA
ATOM     90  O   UNL     1      -8.246  17.422   2.524  1.00  0.00    -0.237 OA
ATOM     91  O   UNL     1      -7.221  16.495   4.565  1.00  0.00    -0.744 OA
ENDBRANCH  87  88
ENDBRANCH  55  80
BRANCH  67  92
ATOM     92  C   UNL     1      -1.525  13.102  -4.794  1.00  0.00     0.058 A 
ATOM     93  C   UNL     1      -0.398  13.286  -3.977  1.00  0.00     0.135 A 
ATOM     94  C   UNL     1      -1.391  13.393  -6.159  1.00  0.00     0.135 A 
ATOM     95  F   UNL     1      -0.431  12.961  -2.676  1.00  0.00    -0.206 F 
ATOM     96  C   UNL     1       0.809  13.759  -4.500  1.00  0.00     0.059 A 
ATOM     97  C   UNL     1      -0.195  13.835  -6.706  1.00  0.00     0.059 A 
ATOM     98  F   UNL     1      -2.425  13.191  -6.993  1.00  0.00    -0.206 F 
ATOM     99  C   UNL     1       0.901  14.026  -5.869  1.00  0.00     0.060 A 
BRANCH  99 100
ATOM    100  S   UNL     1       2.474  14.570  -6.569  1.00  0.00     0.124 S 
ATOM    101  O   UNL     1       2.603  15.917  -6.024  1.00  0.00    -0.237 OA
ATOM    102  O   UNL     1       3.412  13.581  -6.047  1.00  0.00    -0.237 OA
ATOM    103  O   UNL     1       2.249  14.501  -8.011  1.00  0.00    -0.744 OA
ENDBRANCH  99 100
ENDBRANCH  67  92
ENDBRANCH  41  42
ENDBRANCH  34  36
ENDBRANCH  33  34
ENDBRANCH   1  33
TORSDOF 18
