REMARK SMILES C#CC[N@@H+](CC(=O)OCCOC(=O)c1ccc(-c2c3nc(c(-c4c(F)cc(S(=O)(=O)[O-])cc4F)c4ccc([nH]4)c(-c4c(F)cc(S(=O)(=O)[O-])cc4F)c4nc(c(-c5c(F)cc(S(=O)(=O)[O-])cc5F)c5ccc2[nH]5)C=C4)C=C3)cc1)Cc1cn(CC)c2ccccc12
REMARK SMILES IDX 9 1 8 2 6 3 7 4 5 5 4 6 3 8 2 9 1 10 80 11 81 12 82 13 91 14
REMARK SMILES IDX 83 15 86 16 90 17 87 18 89 19 88 20 84 21 85 22 10 23 11 24
REMARK SMILES IDX 12 25 13 26 14 27 15 28 79 29 16 30 78 31 17 32 18 33 19 34
REMARK SMILES IDX 72 35 20 36 77 37 71 38 73 39 21 40 76 41 70 42 69 43 22 45
REMARK SMILES IDX 56 46 35 47 55 48 36 49 39 50 54 51 74 52 37 53 38 54 53 56
REMARK SMILES IDX 75 57 40 58 23 59 24 60 33 61 25 62 26 63 32 64 34 65 27 66
REMARK SMILES IDX 28 67 29 68 30 69 31 70 57 71 58 72 67 73 59 74 60 75 66 76
REMARK SMILES IDX 68 77 61 78 62 79 63 80 64 81 65 82 41 83 42 84 51 85 43 86
REMARK SMILES IDX 44 87 50 88 52 89 45 90 46 91 47 92 48 93 49 94
REMARK H PARENT 4 7 73 44 39 55
REMARK Flexibility Score: inf
ROOT
ATOM      1  C   UNL     1      -4.704   1.189   2.684  1.00  0.00     0.274 C 
ENDROOT
BRANCH   1   2
ATOM      2  O   UNL     1      -4.133   0.939   1.373  1.00  0.00    -0.458 OA
BRANCH   2   3
ATOM      3  C   UNL     1      -4.667  -0.044   0.588  1.00  0.00     0.361 C 
ATOM      4  O   UNL     1      -5.600  -0.750   0.961  1.00  0.00    -0.245 OA
BRANCH   3   5
ATOM      5  C   UNL     1      -4.016  -0.203  -0.833  1.00  0.00     0.387 C 
BRANCH   5   6
ATOM      6  N   UNL     1      -2.638   0.358  -1.086  1.00  0.00    -0.312 N 
ATOM      7  H   UNL     1      -2.344  -0.019  -1.987  1.00  0.00     0.349 HD
BRANCH   6   8
ATOM      8  C   UNL     1      -1.898  -0.018   0.065  1.00  0.00     0.354 C 
BRANCH   8   9
ATOM      9  C   UNL     1      -0.378  -0.018   0.065  1.00  0.00    -0.047 C 
ATOM     10  C   UNL     1       0.926  -0.018   0.065  1.00  0.00     0.010 C 
ENDBRANCH   8   9
ENDBRANCH   6   8
BRANCH   6  11
ATOM     11  C   UNL     1      -2.452   1.809  -1.322  1.00  0.00     0.302 C 
BRANCH  11  12
ATOM     12  C   UNL     1      -3.735   2.393  -1.744  1.00  0.00     0.032 A 
ATOM     13  C   UNL     1      -4.734   2.693  -0.859  1.00  0.00     0.096 A 
ATOM     14  C   UNL     1      -4.295   2.497  -3.033  1.00  0.00     0.008 A 
ATOM     15  N   UNL     1      -5.925   2.498  -1.498  1.00  0.00    -0.347 N 
ATOM     16  C   UNL     1      -5.689   2.508  -2.857  1.00  0.00     0.048 A 
ATOM     17  C   UNL     1      -3.750   2.421  -4.323  1.00  0.00     0.011 A 
ATOM     18  C   UNL     1      -6.561   2.425  -3.942  1.00  0.00     0.027 A 
ATOM     19  C   UNL     1      -4.614   2.369  -5.413  1.00  0.00     0.001 A 
ATOM     20  C   UNL     1      -5.995   2.361  -5.221  1.00  0.00     0.002 A 
BRANCH  15  21
ATOM     21  C   UNL     1      -7.086   1.953  -0.807  1.00  0.00     0.119 C 
ATOM     22  C   UNL     1      -8.236   2.904  -0.579  1.00  0.00     0.027 C 
ENDBRANCH  15  21
ENDBRANCH  11  12
ENDBRANCH   6  11
ENDBRANCH   5   6
ENDBRANCH   3   5
ENDBRANCH   2   3
ENDBRANCH   1   2
BRANCH   1  23
ATOM     23  C   UNL     1      -4.161   2.522   3.264  1.00  0.00     0.275 C 
BRANCH  23  24
ATOM     24  O   UNL     1      -4.774   3.628   2.570  1.00  0.00    -0.458 OA
BRANCH  24  25
ATOM     25  C   UNL     1      -4.276   4.894   2.726  1.00  0.00     0.338 C 
ATOM     26  O   UNL     1      -3.442   5.234   3.544  1.00  0.00    -0.246 OA
BRANCH  25  27
ATOM     27  C   UNL     1      -4.851   5.777   1.653  1.00  0.00     0.060 A 
ATOM     28  C   UNL     1      -5.545   5.162   0.627  1.00  0.00     0.016 A 
ATOM     29  C   UNL     1      -4.671   7.158   1.551  1.00  0.00     0.016 A 
ATOM     30  C   UNL     1      -5.862   5.803  -0.555  1.00  0.00     0.010 A 
ATOM     31  C   UNL     1      -5.221   7.865   0.447  1.00  0.00     0.010 A 
ATOM     32  C   UNL     1      -5.837   7.183  -0.619  1.00  0.00    -0.014 A 
BRANCH  32  33
ATOM     33  C   UNL     1      -6.537   7.814  -1.776  1.00  0.00     0.031 A 
ATOM     34  C   UNL     1      -5.804   8.743  -2.688  1.00  0.00     0.074 A 
ATOM     35  C   UNL     1      -7.811   7.465  -2.083  1.00  0.00     0.049 A 
ATOM     36  N   UNL     1      -6.290   9.606  -3.538  1.00  0.00    -0.248 NA
ATOM     37  C   UNL     1      -4.335   8.689  -2.650  1.00  0.00     0.031 C 
ATOM     38  C   UNL     1      -8.597   6.433  -1.397  1.00  0.00     0.029 A 
ATOM     39  N   UNL     1      -8.670   7.903  -3.063  1.00  0.00    -0.354 N 
ATOM     40  C   UNL     1      -5.193  10.266  -4.072  1.00  0.00     0.074 A 
ATOM     41  C   UNL     1      -4.011   9.659  -3.496  1.00  0.00     0.031 C 
ATOM     42  C   UNL     1      -9.769   6.260  -2.018  1.00  0.00     0.029 A 
ATOM     43  C   UNL     1      -9.916   7.312  -3.006  1.00  0.00     0.049 A 
ATOM     44  H   UNL     1      -8.421   8.573  -3.740  1.00  0.00     0.167 HD
ATOM     45  C   UNL     1      -5.202  11.316  -4.927  1.00  0.00     0.037 A 
ATOM     46  C   UNL     1     -11.088   7.653  -3.577  1.00  0.00     0.037 A 
ATOM     47  C   UNL     1      -6.411  11.861  -5.491  1.00  0.00     0.049 A 
ATOM     48  C   UNL     1     -11.108   8.905  -4.404  1.00  0.00     0.074 A 
ATOM     49  C   UNL     1      -6.570  12.980  -6.289  1.00  0.00     0.029 A 
ATOM     50  N   UNL     1      -7.675  11.310  -5.320  1.00  0.00    -0.354 N 
ATOM     51  N   UNL     1     -10.100   9.666  -4.761  1.00  0.00    -0.248 NA
ATOM     52  C   UNL     1     -12.420   9.389  -4.849  1.00  0.00     0.031 C 
ATOM     53  C   UNL     1      -7.936  13.130  -6.559  1.00  0.00     0.029 A 
ATOM     54  C   UNL     1      -8.624  12.077  -5.973  1.00  0.00     0.049 A 
ATOM     55  H   UNL     1      -7.868  10.491  -4.809  1.00  0.00     0.167 HD
ATOM     56  C   UNL     1     -10.655  10.726  -5.462  1.00  0.00     0.074 A 
ATOM     57  C   UNL     1     -12.085  10.489  -5.508  1.00  0.00     0.031 C 
ATOM     58  C   UNL     1     -10.041  11.808  -6.001  1.00  0.00     0.037 A 
BRANCH  45  59
ATOM     59  C   UNL     1      -3.894  12.010  -5.180  1.00  0.00     0.058 A 
ATOM     60  C   UNL     1      -2.886  11.466  -5.989  1.00  0.00     0.135 A 
ATOM     61  C   UNL     1      -3.642  13.250  -4.568  1.00  0.00     0.135 A 
ATOM     62  F   UNL     1      -3.061  10.273  -6.578  1.00  0.00    -0.206 F 
ATOM     63  C   UNL     1      -1.664  12.114  -6.161  1.00  0.00     0.059 A 
ATOM     64  C   UNL     1      -2.439  13.926  -4.743  1.00  0.00     0.059 A 
ATOM     65  F   UNL     1      -4.568  13.812  -3.775  1.00  0.00    -0.206 F 
ATOM     66  C   UNL     1      -1.448  13.341  -5.528  1.00  0.00     0.060 A 
BRANCH  66  67
ATOM     67  S   UNL     1       0.149  14.159  -5.734  1.00  0.00     0.124 S 
ATOM     68  O   UNL     1       1.016  13.314  -4.920  1.00  0.00    -0.237 OA
ATOM     69  O   UNL     1       0.358  14.078  -7.176  1.00  0.00    -0.237 OA
ATOM     70  O   UNL     1      -0.086  15.502  -5.213  1.00  0.00    -0.744 OA
ENDBRANCH  66  67
ENDBRANCH  45  59
BRANCH  46  71
ATOM     71  C   UNL     1     -12.345   6.917  -3.244  1.00  0.00     0.058 A 
ATOM     72  C   UNL     1     -13.080   6.240  -4.227  1.00  0.00     0.135 A 
ATOM     73  C   UNL     1     -12.841   6.873  -1.927  1.00  0.00     0.135 A 
ATOM     74  F   UNL     1     -12.672   6.264  -5.505  1.00  0.00    -0.206 F 
ATOM     75  C   UNL     1     -14.252   5.549  -3.921  1.00  0.00     0.059 A 
ATOM     76  C   UNL     1     -13.985   6.158  -1.589  1.00  0.00     0.059 A 
ATOM     77  F   UNL     1     -12.188   7.504  -0.938  1.00  0.00    -0.206 F 
ATOM     78  C   UNL     1     -14.693   5.508  -2.596  1.00  0.00     0.060 A 
BRANCH  78  79
ATOM     79  S   UNL     1     -16.183   4.568  -2.196  1.00  0.00     0.124 S 
ATOM     80  O   UNL     1     -17.228   5.433  -2.729  1.00  0.00    -0.237 OA
ATOM     81  O   UNL     1     -15.959   3.317  -2.914  1.00  0.00    -0.237 OA
ATOM     82  O   UNL     1     -16.131   4.462  -0.740  1.00  0.00    -0.744 OA
ENDBRANCH  78  79
ENDBRANCH  46  71
BRANCH  58  83
ATOM     83  C   UNL     1     -10.918  12.801  -6.701  1.00  0.00     0.058 A 
ATOM     84  C   UNL     1     -11.724  13.698  -5.984  1.00  0.00     0.135 A 
ATOM     85  C   UNL     1     -10.905  12.894  -8.101  1.00  0.00     0.135 A 
ATOM     86  F   UNL     1     -11.782  13.634  -4.645  1.00  0.00    -0.206 F 
ATOM     87  C   UNL     1     -12.494  14.655  -6.635  1.00  0.00     0.059 A 
ATOM     88  C   UNL     1     -11.647  13.859  -8.771  1.00  0.00     0.059 A 
ATOM     89  F   UNL     1     -10.148  12.056  -8.827  1.00  0.00    -0.206 F 
ATOM     90  C   UNL     1     -12.442  14.732  -8.028  1.00  0.00     0.060 A 
BRANCH  90  91
ATOM     91  S   UNL     1     -13.396  16.019  -8.857  1.00  0.00     0.124 S 
ATOM     92  O   UNL     1     -14.755  15.503  -8.734  1.00  0.00    -0.237 OA
ATOM     93  O   UNL     1     -13.090  17.200  -8.055  1.00  0.00    -0.237 OA
ATOM     94  O   UNL     1     -12.848  16.030 -10.210  1.00  0.00    -0.744 OA
ENDBRANCH  90  91
ENDBRANCH  58  83
ENDBRANCH  32  33
ENDBRANCH  25  27
ENDBRANCH  24  25
ENDBRANCH  23  24
ENDBRANCH   1  23
TORSDOF 20
