REMARK SMILES C[C@@H](CC(=O)OCCOC(=O)c1ccc(-c2c3nc(c(-c4c(F)cc(S(=O)(=O)[O-])cc4F)c4ccc([nH]4)c(-c4c(F)cc(S(=O)(=O)[O-])cc4F)c4nc(c(-c5c(F)cc(S(=O)(=O)[O-])cc5F)c5ccc2[nH]5)C=C4)C=C3)cc1)NC(=O)CCn1cccn1
REMARK SMILES IDX 7 1 6 2 4 3 5 4 3 5 2 6 1 7 78 8 79 9 80 11 81 12 82 13
REMARK SMILES IDX 83 14 84 15 87 16 85 17 86 18 8 19 9 20 10 21 11 22 12 23
REMARK SMILES IDX 13 24 77 25 14 26 76 27 15 28 16 29 17 30 70 31 18 32 75 33
REMARK SMILES IDX 69 34 71 35 19 36 74 37 68 38 67 39 20 41 54 42 33 43 53 44
REMARK SMILES IDX 34 45 37 46 52 47 72 48 35 49 36 50 51 52 73 53 38 54 21 55
REMARK SMILES IDX 22 56 31 57 23 58 24 59 30 60 32 61 25 62 26 63 27 64 28 65
REMARK SMILES IDX 29 66 55 67 56 68 65 69 57 70 58 71 64 72 66 73 59 74 60 75
REMARK SMILES IDX 61 76 62 77 63 78 39 79 40 80 49 81 41 82 42 83 48 84 50 85
REMARK SMILES IDX 43 86 44 87 45 88 46 89 47 90
REMARK H PARENT 78 10 71 40 37 51
REMARK Flexibility Score: inf
ROOT
ATOM      1  C   UNL     1       0.190   3.343  -2.951  1.00  0.00     0.274 C 
ENDROOT
BRANCH   1   2
ATOM      2  O   UNL     1       0.582   2.401  -1.938  1.00  0.00    -0.462 OA
BRANCH   2   3
ATOM      3  C   UNL     1       0.948   2.923  -0.745  1.00  0.00     0.307 C 
ATOM      4  O   UNL     1       1.069   4.121  -0.518  1.00  0.00    -0.252 OA
BRANCH   3   5
ATOM      5  C   UNL     1       1.309   1.873   0.270  1.00  0.00     0.147 C 
BRANCH   5   6
ATOM      6  C   UNL     1       0.468   0.600   0.361  1.00  0.00     0.090 C 
ATOM      7  C   UNL     1       0.373  -0.240  -0.907  1.00  0.00     0.031 C 
BRANCH   6   8
ATOM      8  N   UNL     1      -0.849   0.741   0.964  1.00  0.00    -0.353 N 
ATOM      9  C   UNL     1      -1.303   0.268   2.161  1.00  0.00     0.222 C 
ATOM     10  H   UNL     1      -1.504   1.250   0.434  1.00  0.00     0.163 HD
ATOM     11  O   UNL     1      -2.518   0.165   2.339  1.00  0.00    -0.275 OA
BRANCH   9  12
ATOM     12  C   UNL     1      -0.337  -0.051   3.285  1.00  0.00     0.123 C 
BRANCH  12  13
ATOM     13  C   UNL     1       0.265  -1.454   3.234  1.00  0.00     0.154 C 
BRANCH  13  14
ATOM     14  N   UNL     1       1.638  -1.493   2.747  1.00  0.00    -0.272 N 
ATOM     15  C   UNL     1       2.676  -0.688   3.138  1.00  0.00     0.108 A 
ATOM     16  N   UNL     1       1.959  -2.281   1.697  1.00  0.00    -0.182 NA
ATOM     17  C   UNL     1       3.688  -0.897   2.231  1.00  0.00     0.042 A 
ATOM     18  C   UNL     1       3.198  -1.899   1.377  1.00  0.00     0.135 A 
ENDBRANCH  13  14
ENDBRANCH  12  13
ENDBRANCH   9  12
ENDBRANCH   6   8
ENDBRANCH   5   6
ENDBRANCH   3   5
ENDBRANCH   2   3
ENDBRANCH   1   2
BRANCH   1  19
ATOM     19  C   UNL     1      -1.328   3.530  -2.972  1.00  0.00     0.275 C 
BRANCH  19  20
ATOM     20  O   UNL     1      -1.801   4.205  -1.789  1.00  0.00    -0.458 OA
BRANCH  20  21
ATOM     21  C   UNL     1      -2.280   3.395  -0.816  1.00  0.00     0.338 C 
ATOM     22  O   UNL     1      -2.372   2.179  -0.856  1.00  0.00    -0.246 OA
BRANCH  21  23
ATOM     23  C   UNL     1      -2.559   4.170   0.403  1.00  0.00     0.060 A 
ATOM     24  C   UNL     1      -1.653   4.083   1.462  1.00  0.00     0.016 A 
ATOM     25  C   UNL     1      -3.756   4.869   0.556  1.00  0.00     0.016 A 
ATOM     26  C   UNL     1      -1.946   4.672   2.687  1.00  0.00     0.010 A 
ATOM     27  C   UNL     1      -4.037   5.487   1.782  1.00  0.00     0.010 A 
ATOM     28  C   UNL     1      -3.142   5.380   2.862  1.00  0.00    -0.014 A 
BRANCH  28  29
ATOM     29  C   UNL     1      -3.451   5.966   4.191  1.00  0.00     0.031 A 
ATOM     30  C   UNL     1      -4.566   5.402   5.029  1.00  0.00     0.074 A 
ATOM     31  C   UNL     1      -2.700   6.979   4.667  1.00  0.00     0.049 A 
ATOM     32  N   UNL     1      -5.029   5.822   6.179  1.00  0.00    -0.248 NA
ATOM     33  C   UNL     1      -5.254   4.214   4.501  1.00  0.00     0.031 C 
ATOM     34  C   UNL     1      -1.568   7.591   3.968  1.00  0.00     0.029 A 
ATOM     35  N   UNL     1      -2.768   7.665   5.853  1.00  0.00    -0.354 N 
ATOM     36  C   UNL     1      -6.084   4.975   6.497  1.00  0.00     0.074 A 
ATOM     37  C   UNL     1      -6.199   4.022   5.412  1.00  0.00     0.031 C 
ATOM     38  C   UNL     1      -1.036   8.547   4.747  1.00  0.00     0.029 A 
ATOM     39  C   UNL     1      -1.818   8.651   5.975  1.00  0.00     0.049 A 
ATOM     40  H   UNL     1      -3.435   7.471   6.551  1.00  0.00     0.167 HD
ATOM     41  C   UNL     1      -6.882   4.990   7.592  1.00  0.00     0.037 A 
ATOM     42  C   UNL     1      -1.611   9.551   6.955  1.00  0.00     0.037 A 
ATOM     43  C   UNL     1      -6.740   5.916   8.688  1.00  0.00     0.049 A 
ATOM     44  C   UNL     1      -2.510   9.549   8.159  1.00  0.00     0.074 A 
ATOM     45  C   UNL     1      -7.495   6.005   9.845  1.00  0.00     0.029 A 
ATOM     46  N   UNL     1      -5.771   6.906   8.770  1.00  0.00    -0.354 N 
ATOM     47  N   UNL     1      -3.526   8.763   8.427  1.00  0.00    -0.248 NA
ATOM     48  C   UNL     1      -2.238  10.557   9.192  1.00  0.00     0.031 C 
ATOM     49  C   UNL     1      -6.999   7.064  10.615  1.00  0.00     0.029 A 
ATOM     50  C   UNL     1      -5.911   7.612   9.954  1.00  0.00     0.049 A 
ATOM     51  H   UNL     1      -5.084   7.081   8.086  1.00  0.00     0.167 HD
ATOM     52  C   UNL     1      -4.007   9.175   9.665  1.00  0.00     0.074 A 
ATOM     53  C   UNL     1      -3.158  10.264  10.101  1.00  0.00     0.031 C 
ATOM     54  C   UNL     1      -5.059   8.696  10.374  1.00  0.00     0.037 A 
BRANCH  41  55
ATOM     55  C   UNL     1      -8.003   3.989   7.648  1.00  0.00     0.058 A 
ATOM     56  C   UNL     1      -7.771   2.629   7.903  1.00  0.00     0.135 A 
ATOM     57  C   UNL     1      -9.332   4.405   7.470  1.00  0.00     0.135 A 
ATOM     58  F   UNL     1      -6.518   2.176   8.066  1.00  0.00    -0.206 F 
ATOM     59  C   UNL     1      -8.817   1.711   7.955  1.00  0.00     0.059 A 
ATOM     60  C   UNL     1     -10.395   3.509   7.541  1.00  0.00     0.059 A 
ATOM     61  F   UNL     1      -9.610   5.696   7.224  1.00  0.00    -0.206 F 
ATOM     62  C   UNL     1     -10.126   2.161   7.769  1.00  0.00     0.060 A 
BRANCH  62  63
ATOM     63  S   UNL     1     -11.475   0.964   7.844  1.00  0.00     0.124 S 
ATOM     64  O   UNL     1     -11.356   0.309   6.545  1.00  0.00    -0.237 OA
ATOM     65  O   UNL     1     -11.112   0.149   8.999  1.00  0.00    -0.237 OA
ATOM     66  O   UNL     1     -12.660   1.798   8.020  1.00  0.00    -0.744 OA
ENDBRANCH  62  63
ENDBRANCH  41  55
BRANCH  42  67
ATOM     67  C   UNL     1      -0.508  10.540   6.829  1.00  0.00     0.058 A 
ATOM     68  C   UNL     1       0.638  10.451   7.631  1.00  0.00     0.135 A 
ATOM     69  C   UNL     1      -0.574  11.583   5.892  1.00  0.00     0.135 A 
ATOM     70  F   UNL     1       0.742   9.477   8.548  1.00  0.00    -0.206 F 
ATOM     71  C   UNL     1       1.680  11.366   7.516  1.00  0.00     0.059 A 
ATOM     72  C   UNL     1       0.465  12.495   5.741  1.00  0.00     0.059 A 
ATOM     73  F   UNL     1      -1.645  11.703   5.093  1.00  0.00    -0.206 F 
ATOM     74  C   UNL     1       1.585  12.383   6.565  1.00  0.00     0.060 A 
BRANCH  74  75
ATOM     75  S   UNL     1       2.967  13.531   6.375  1.00  0.00     0.124 S 
ATOM     76  O   UNL     1       2.768  14.419   7.514  1.00  0.00    -0.237 OA
ATOM     77  O   UNL     1       4.122  12.641   6.452  1.00  0.00    -0.237 OA
ATOM     78  O   UNL     1       2.730  14.123   5.062  1.00  0.00    -0.744 OA
ENDBRANCH  74  75
ENDBRANCH  42  67
BRANCH  54  79
ATOM     79  C   UNL     1      -5.327   9.335  11.707  1.00  0.00     0.058 A 
ATOM     80  C   UNL     1      -5.892  10.616  11.810  1.00  0.00     0.135 A 
ATOM     81  C   UNL     1      -5.017   8.657  12.897  1.00  0.00     0.135 A 
ATOM     82  F   UNL     1      -6.201  11.308  10.702  1.00  0.00    -0.206 F 
ATOM     83  C   UNL     1      -6.104  11.219  13.045  1.00  0.00     0.059 A 
ATOM     84  C   UNL     1      -5.242   9.232  14.143  1.00  0.00     0.059 A 
ATOM     85  F   UNL     1      -4.485   7.425  12.854  1.00  0.00    -0.206 F 
ATOM     86  C   UNL     1      -5.767  10.522  14.207  1.00  0.00     0.060 A 
BRANCH  86  87
ATOM     87  S   UNL     1      -6.037  11.313  15.807  1.00  0.00     0.124 S 
ATOM     88  O   UNL     1      -4.888  12.208  15.889  1.00  0.00    -0.237 OA
ATOM     89  O   UNL     1      -7.333  11.960  15.627  1.00  0.00    -0.237 OA
ATOM     90  O   UNL     1      -6.030  10.192  16.743  1.00  0.00    -0.744 OA
ENDBRANCH  86  87
ENDBRANCH  54  79
ENDBRANCH  28  29
ENDBRANCH  21  23
ENDBRANCH  20  21
ENDBRANCH  19  20
ENDBRANCH   1  19
TORSDOF 19
