REMARK SMILES Cc1c(CC(=O)N[C@@H](CCO)C(=O)OCCOC(=O)c2ccc(-c3c4nc(c(-c5c(F)cc(S(=O)(=O)[O-])cc5F)c5ccc([nH]5)c(-c5c(F)cc(S(=O)(=O)[O-])cc5F)c5nc(c(-c6c(F)cc(S(=O)(=O)[O-])cc6F)c6ccc3[nH]6)C=C5)C=C4)cc2)cc(-c2ccc(S(C)(=O)=O)cc2)n1-c1ccc(F)cc1
REMARK SMILES IDX 15 1 14 2 12 3 13 4 8 5 7 6 5 7 6 8 4 10 3 11 1 12 2 13
REMARK SMILES IDX 98 14 86 15 87 16 99 17 100 18 105 19 101 20 104 21 102 22
REMARK SMILES IDX 103 23 88 24 89 25 97 26 90 27 96 28 91 29 92 30 93 31 94 32
REMARK SMILES IDX 95 33 9 34 10 35 11 36 16 38 17 39 18 40 19 41 20 42 21 43
REMARK SMILES IDX 85 44 22 45 84 46 23 47 24 48 25 49 78 50 26 51 83 52 77 53
REMARK SMILES IDX 79 54 27 55 82 56 76 57 75 58 28 60 62 61 41 62 61 63 42 64
REMARK SMILES IDX 45 65 60 66 80 67 43 68 44 69 59 71 81 72 46 73 29 74 30 75
REMARK SMILES IDX 39 76 31 77 32 78 38 79 40 80 33 81 34 82 35 83 36 84 37 85
REMARK SMILES IDX 63 86 64 87 73 88 65 89 66 90 72 91 74 92 67 93 68 94 69 95
REMARK SMILES IDX 70 96 71 97 47 98 48 99 57 100 49 101 50 102 56 103 58 104
REMARK SMILES IDX 51 105 52 106 53 107 54 108 55 109
REMARK H PARENT 7 9 11 37 79 59 45 70
REMARK Flexibility Score: inf
ROOT
ATOM      1  C   UNL     1       5.931  -6.190  -2.009  1.00  0.00     0.274 C 
ENDROOT
BRANCH   1   2
ATOM      2  O   UNL     1       5.113  -4.999  -1.864  1.00  0.00    -0.461 OA
BRANCH   2   3
ATOM      3  C   UNL     1       3.880  -5.022  -2.449  1.00  0.00     0.328 C 
ATOM      4  O   UNL     1       3.432  -5.966  -3.089  1.00  0.00    -0.250 OA
BRANCH   3   5
ATOM      5  C   UNL     1       3.066  -3.745  -2.141  1.00  0.00     0.194 C 
BRANCH   5   6
ATOM      6  N   UNL     1       3.797  -2.665  -1.473  1.00  0.00    -0.342 N 
ATOM      7  C   UNL     1       3.551  -2.067  -0.271  1.00  0.00     0.225 C 
ATOM      8  O   UNL     1       4.254  -1.097   0.026  1.00  0.00    -0.275 OA
ATOM      9  H   UNL     1       4.580  -2.322  -1.962  1.00  0.00     0.164 HD
BRANCH   7  10
ATOM     10  C   UNL     1       2.465  -2.591   0.661  1.00  0.00     0.137 C 
BRANCH  10  11
ATOM     11  C   UNL     1       1.075  -2.460   0.099  1.00  0.00    -0.017 A 
ATOM     12  C   UNL     1       0.817   0.112  -0.016  1.00  0.00     0.065 C 
ATOM     13  C   UNL     1       0.399  -1.303  -0.269  1.00  0.00     0.024 A 
ATOM     14  N   UNL     1      -0.835  -1.670  -0.804  1.00  0.00    -0.314 N 
ATOM     15  C   UNL     1       0.179  -3.540  -0.119  1.00  0.00     0.033 A 
ATOM     16  C   UNL     1      -0.958  -3.059  -0.739  1.00  0.00     0.053 A 
BRANCH  14  17
ATOM     17  C   UNL     1      -1.822  -0.788  -1.322  1.00  0.00     0.046 A 
ATOM     18  C   UNL     1      -3.147  -0.899  -0.878  1.00  0.00     0.029 A 
ATOM     19  C   UNL     1      -1.480   0.137  -2.316  1.00  0.00     0.029 A 
ATOM     20  C   UNL     1      -4.127  -0.070  -1.421  1.00  0.00     0.041 A 
ATOM     21  C   UNL     1      -2.469   0.958  -2.860  1.00  0.00     0.041 A 
ATOM     22  C   UNL     1      -3.780   0.848  -2.406  1.00  0.00     0.123 A 
ATOM     23  F   UNL     1      -4.727   1.634  -2.936  1.00  0.00    -0.207 F 
ENDBRANCH  14  17
BRANCH  16  24
ATOM     24  C   UNL     1      -2.049  -3.854  -1.320  1.00  0.00    -0.001 A 
ATOM     25  C   UNL     1      -2.384  -3.735  -2.679  1.00  0.00     0.011 A 
ATOM     26  C   UNL     1      -2.744  -4.778  -0.528  1.00  0.00     0.011 A 
ATOM     27  C   UNL     1      -3.422  -4.493  -3.227  1.00  0.00     0.021 A 
ATOM     28  C   UNL     1      -3.785  -5.540  -1.068  1.00  0.00     0.021 A 
ATOM     29  C   UNL     1      -4.128  -5.381  -2.413  1.00  0.00     0.067 A 
BRANCH  29  30
ATOM     30  S   UNL     1      -5.450  -6.340  -3.111  1.00  0.00     0.175 S 
ATOM     31  C   UNL     1      -6.683  -5.135  -3.526  1.00  0.00     0.163 C 
ATOM     32  O   UNL     1      -4.952  -6.916  -4.353  1.00  0.00    -0.224 OA
ATOM     33  O   UNL     1      -5.999  -7.179  -2.070  1.00  0.00    -0.224 OA
ENDBRANCH  29  30
ENDBRANCH  16  24
ENDBRANCH  10  11
ENDBRANCH   7  10
ENDBRANCH   5   6
BRANCH   5  34
ATOM     34  C   UNL     1       2.288  -3.194  -3.352  1.00  0.00     0.065 C 
BRANCH  34  35
ATOM     35  C   UNL     1       3.129  -2.496  -4.417  1.00  0.00     0.159 C 
BRANCH  35  36
ATOM     36  O   UNL     1       4.014  -3.398  -5.057  1.00  0.00    -0.396 OA
ATOM     37  H   UNL     1       4.624  -3.772  -4.402  1.00  0.00     0.210 HD
ENDBRANCH  35  36
ENDBRANCH  34  35
ENDBRANCH   5  34
ENDBRANCH   3   5
ENDBRANCH   2   3
ENDBRANCH   1   2
BRANCH   1  38
ATOM     38  C   UNL     1       6.905  -6.340  -0.814  1.00  0.00     0.275 C 
BRANCH  38  39
ATOM     39  O   UNL     1       6.740  -7.501   0.065  1.00  0.00    -0.458 OA
BRANCH  39  40
ATOM     40  C   UNL     1       6.078  -7.298   1.244  1.00  0.00     0.338 C 
ATOM     41  O   UNL     1       5.322  -6.355   1.433  1.00  0.00    -0.246 OA
BRANCH  40  42
ATOM     42  C   UNL     1       6.288  -8.411   2.265  1.00  0.00     0.060 A 
ATOM     43  C   UNL     1       5.168  -9.060   2.758  1.00  0.00     0.016 A 
ATOM     44  C   UNL     1       7.508  -8.749   2.892  1.00  0.00     0.016 A 
ATOM     45  C   UNL     1       5.281 -10.035   3.794  1.00  0.00     0.010 A 
ATOM     46  C   UNL     1       7.601  -9.689   4.017  1.00  0.00     0.010 A 
ATOM     47  C   UNL     1       6.482 -10.369   4.525  1.00  0.00    -0.014 A 
BRANCH  47  48
ATOM     48  C   UNL     1       6.285 -11.098   5.958  1.00  0.00     0.031 A 
ATOM     49  C   UNL     1       5.045 -10.458   6.499  1.00  0.00     0.074 A 
ATOM     50  C   UNL     1       6.873 -12.000   6.851  1.00  0.00     0.049 A 
ATOM     51  N   UNL     1       4.960  -9.160   6.616  1.00  0.00    -0.248 NA
ATOM     52  C   UNL     1       3.757 -11.159   6.522  1.00  0.00     0.031 C 
ATOM     53  C   UNL     1       8.181 -12.667   6.745  1.00  0.00     0.029 A 
ATOM     54  N   UNL     1       6.430 -12.556   8.100  1.00  0.00    -0.354 N 
ATOM     55  C   UNL     1       3.678  -8.901   7.026  1.00  0.00     0.074 A 
ATOM     56  C   UNL     1       2.941 -10.117   6.710  1.00  0.00     0.031 C 
ATOM     57  C   UNL     1       8.366 -13.593   7.735  1.00  0.00     0.029 A 
ATOM     58  C   UNL     1       7.237 -13.618   8.665  1.00  0.00     0.049 A 
ATOM     59  H   UNL     1       5.617 -12.231   8.551  1.00  0.00     0.167 HD
ATOM     60  C   UNL     1       3.531  -8.096   8.116  1.00  0.00     0.037 A 
ATOM     61  C   UNL     1       7.064 -14.406   9.806  1.00  0.00     0.037 A 
ATOM     62  C   UNL     1       3.185  -8.847   9.292  1.00  0.00     0.049 A 
ATOM     63  C   UNL     1       6.172 -13.648  10.696  1.00  0.00     0.074 A 
ATOM     64  C   UNL     1       2.275  -9.856   9.540  1.00  0.00     0.029 A 
ATOM     65  N   UNL     1       4.155  -8.941  10.268  1.00  0.00    -0.354 N 
ATOM     66  N   UNL     1       6.584 -12.627  11.380  1.00  0.00    -0.248 NA
ATOM     67  C   UNL     1       4.791 -14.057  10.935  1.00  0.00     0.031 C 
ATOM     68  C   UNL     1       3.001 -10.813  10.286  1.00  0.00     0.029 A 
ATOM     69  C   UNL     1       4.157 -10.222  10.778  1.00  0.00     0.049 A 
ATOM     70  H   UNL     1       4.750  -8.210  10.555  1.00  0.00     0.167 HD
ATOM     71  C   UNL     1       5.431 -12.000  11.732  1.00  0.00     0.074 A 
ATOM     72  C   UNL     1       4.401 -13.019  11.676  1.00  0.00     0.031 C 
ATOM     73  C   UNL     1       5.347 -10.678  11.458  1.00  0.00     0.037 A 
BRANCH  60  74
ATOM     74  C   UNL     1       4.402  -6.872   8.136  1.00  0.00     0.058 A 
ATOM     75  C   UNL     1       3.806  -5.615   7.989  1.00  0.00     0.135 A 
ATOM     76  C   UNL     1       5.810  -6.918   8.212  1.00  0.00     0.135 A 
ATOM     77  F   UNL     1       2.467  -5.503   7.959  1.00  0.00    -0.206 F 
ATOM     78  C   UNL     1       4.571  -4.459   7.861  1.00  0.00     0.059 A 
ATOM     79  C   UNL     1       6.596  -5.784   8.036  1.00  0.00     0.059 A 
ATOM     80  F   UNL     1       6.439  -8.075   8.473  1.00  0.00    -0.206 F 
ATOM     81  C   UNL     1       5.965  -4.558   7.855  1.00  0.00     0.060 A 
BRANCH  81  82
ATOM     82  S   UNL     1       6.932  -3.063   7.554  1.00  0.00     0.124 S 
ATOM     83  O   UNL     1       6.213  -2.450   6.439  1.00  0.00    -0.237 OA
ATOM     84  O   UNL     1       6.812  -2.369   8.831  1.00  0.00    -0.237 OA
ATOM     85  O   UNL     1       8.258  -3.571   7.219  1.00  0.00    -0.744 OA
ENDBRANCH  81  82
ENDBRANCH  60  74
BRANCH  61  86
ATOM     86  C   UNL     1       7.547 -15.695  10.554  1.00  0.00     0.058 A 
ATOM     87  C   UNL     1       7.413 -15.820  11.984  1.00  0.00     0.135 A 
ATOM     88  C   UNL     1       7.739 -16.930   9.917  1.00  0.00     0.135 A 
ATOM     89  F   UNL     1       7.275 -14.739  12.765  1.00  0.00    -0.206 F 
ATOM     90  C   UNL     1       7.322 -17.040  12.682  1.00  0.00     0.059 A 
ATOM     91  C   UNL     1       7.684 -18.177  10.608  1.00  0.00     0.059 A 
ATOM     92  F   UNL     1       7.893 -16.975   8.586  1.00  0.00    -0.206 F 
ATOM     93  C   UNL     1       7.418 -18.226  11.980  1.00  0.00     0.060 A 
BRANCH  93  94
ATOM     94  S   UNL     1       7.044 -19.786  12.848  1.00  0.00     0.124 S 
ATOM     95  O   UNL     1       8.144 -19.897  13.799  1.00  0.00    -0.237 OA
ATOM     96  O   UNL     1       5.732 -19.512  13.431  1.00  0.00    -0.237 OA
ATOM     97  O   UNL     1       7.041 -20.777  11.776  1.00  0.00    -0.744 OA
ENDBRANCH  93  94
ENDBRANCH  61  86
BRANCH  73  98
ATOM     98  C   UNL     1       6.568  -9.824  11.760  1.00  0.00     0.058 A 
ATOM     99  C   UNL     1       7.905 -10.068  11.368  1.00  0.00     0.135 A 
ATOM    100  C   UNL     1       6.363  -8.704  12.582  1.00  0.00     0.135 A 
ATOM    101  F   UNL     1       8.224 -11.030  10.489  1.00  0.00    -0.206 F 
ATOM    102  C   UNL     1       8.973  -9.309  11.857  1.00  0.00     0.059 A 
ATOM    103  C   UNL     1       7.406  -7.899  13.034  1.00  0.00     0.059 A 
ATOM    104  F   UNL     1       5.118  -8.376  12.966  1.00  0.00    -0.206 F 
ATOM    105  C   UNL     1       8.714  -8.236  12.705  1.00  0.00     0.060 A 
BRANCH 105 106
ATOM    106  S   UNL     1      10.094  -7.284  13.377  1.00  0.00     0.124 S 
ATOM    107  O   UNL     1      10.640  -8.208  14.368  1.00  0.00    -0.237 OA
ATOM    108  O   UNL     1      10.930  -7.054  12.205  1.00  0.00    -0.237 OA
ATOM    109  O   UNL     1       9.447  -6.098  13.932  1.00  0.00    -0.744 OA
ENDBRANCH 105 106
ENDBRANCH  73  98
ENDBRANCH  47  48
ENDBRANCH  40  42
ENDBRANCH  39  40
ENDBRANCH  38  39
ENDBRANCH   1  38
TORSDOF 23
