REMARK SMILES CC[C@H](C)N1C(=O)c2ccccc2[C@@H](C(=O)OCCOC(=O)c2ccc(-c3c4nc(c(-c5c(F)cc(S(=O)(=O)[O-])cc5F)c5ccc([nH]5)c(-c5c(F)cc(S(=O)(=O)[O-])cc5F)c5nc(c(-c6c(F)cc(S(=O)(=O)[O-])cc6F)c6ccc3[nH]6)C=C5)C=C4)cc2)C12CCCCC2
REMARK SMILES IDX 19 1 18 2 17 3 15 4 16 5 14 6 5 7 6 8 89 9 7 10 8 11 90 12
REMARK SMILES IDX 94 13 9 14 13 15 91 16 93 17 10 18 12 19 92 20 11 21 3 22
REMARK SMILES IDX 4 23 2 24 1 25 20 26 21 27 22 28 23 29 24 30 88 31 25 32
REMARK SMILES IDX 87 33 26 34 27 35 28 36 81 37 29 38 86 39 80 40 82 41 30 42
REMARK SMILES IDX 85 43 79 44 78 45 31 47 65 48 44 49 64 50 45 51 48 52 63 53
REMARK SMILES IDX 83 54 46 55 47 56 62 58 84 59 49 60 32 61 33 62 42 63 34 64
REMARK SMILES IDX 35 65 41 66 43 67 36 68 37 69 38 70 39 71 40 72 66 73 67 74
REMARK SMILES IDX 76 75 68 76 69 77 75 78 77 79 70 80 71 81 72 82 73 83 74 84
REMARK SMILES IDX 50 85 51 86 60 87 52 88 53 89 59 90 61 91 54 92 55 93 56 94
REMARK SMILES IDX 57 95 58 96
REMARK H PARENT 82 46 48 57
REMARK Flexibility Score: inf
ROOT
ATOM      1  C   UNL     1       0.087  -4.392   7.964  1.00  0.00     0.275 C 
ENDROOT
BRANCH   1   2
ATOM      2  C   UNL     1      -0.310  -2.930   8.244  1.00  0.00     0.274 C 
BRANCH   2   3
ATOM      3  O   UNL     1      -0.311  -2.055   7.084  1.00  0.00    -0.462 OA
BRANCH   3   4
ATOM      4  C   UNL     1       0.885  -1.523   6.747  1.00  0.00     0.315 C 
ATOM      5  O   UNL     1       1.912  -1.788   7.371  1.00  0.00    -0.251 OA
BRANCH   4   6
ATOM      6  C   UNL     1       0.863  -0.370   5.719  1.00  0.00     0.156 C 
ATOM      7  N   UNL     1       0.105   0.937   3.621  1.00  0.00    -0.329 N 
ATOM      8  C   UNL     1      -0.295   2.030   4.439  1.00  0.00     0.254 C 
ATOM      9  C   UNL     1       0.070  -0.504   4.328  1.00  0.00     0.061 C 
ATOM     10  O   UNL     1      -0.809   3.067   4.026  1.00  0.00    -0.269 OA
ATOM     11  C   UNL     1       0.016   2.011   5.885  1.00  0.00     0.044 A 
ATOM     12  C   UNL     1      -1.444  -0.825   4.510  1.00  0.00     0.030 C 
ATOM     13  C   UNL     1       0.744  -1.597   3.459  1.00  0.00     0.030 C 
ATOM     14  C   UNL     1      -0.183   3.206   6.612  1.00  0.00     0.014 A 
ATOM     15  C   UNL     1       0.647   0.932   6.484  1.00  0.00    -0.019 A 
ATOM     16  C   UNL     1      -1.862  -2.296   4.531  1.00  0.00     0.002 C 
ATOM     17  C   UNL     1       0.108  -2.927   3.075  1.00  0.00     0.002 C 
ATOM     18  C   UNL     1       0.291   3.354   7.913  1.00  0.00     0.001 A 
ATOM     19  C   UNL     1       1.171   1.124   7.788  1.00  0.00     0.005 A 
ATOM     20  C   UNL     1      -1.373  -3.076   3.332  1.00  0.00     0.000 C 
ATOM     21  C   UNL     1       0.992   2.314   8.495  1.00  0.00     0.000 A 
BRANCH   7  22
ATOM     22  C   UNL     1       0.600   1.342   2.187  1.00  0.00     0.082 C 
ATOM     23  C   UNL     1       0.819   0.307   1.067  1.00  0.00     0.031 C 
BRANCH  22  24
ATOM     24  C   UNL     1      -0.214   2.536   1.571  1.00  0.00     0.021 C 
ATOM     25  C   UNL     1      -0.154   2.789   0.066  1.00  0.00     0.006 C 
ENDBRANCH  22  24
ENDBRANCH   7  22
ENDBRANCH   4   6
ENDBRANCH   3   4
ENDBRANCH   2   3
ENDBRANCH   1   2
BRANCH   1  26
ATOM     26  O   UNL     1       1.481  -4.541   7.617  1.00  0.00    -0.458 OA
BRANCH  26  27
ATOM     27  C   UNL     1       1.704  -4.489   6.286  1.00  0.00     0.338 C 
ATOM     28  O   UNL     1       0.820  -4.416   5.443  1.00  0.00    -0.246 OA
BRANCH  27  29
ATOM     29  C   UNL     1       3.129  -4.420   5.930  1.00  0.00     0.060 A 
ATOM     30  C   UNL     1       3.895  -5.582   5.891  1.00  0.00     0.016 A 
ATOM     31  C   UNL     1       3.686  -3.204   5.513  1.00  0.00     0.016 A 
ATOM     32  C   UNL     1       5.239  -5.499   5.517  1.00  0.00     0.010 A 
ATOM     33  C   UNL     1       5.022  -3.115   5.147  1.00  0.00     0.010 A 
ATOM     34  C   UNL     1       5.816  -4.260   5.185  1.00  0.00    -0.014 A 
BRANCH  34  35
ATOM     35  C   UNL     1       7.271  -4.143   4.967  1.00  0.00     0.031 A 
ATOM     36  C   UNL     1       8.135  -3.635   6.087  1.00  0.00     0.074 A 
ATOM     37  C   UNL     1       7.803  -4.490   3.783  1.00  0.00     0.049 A 
ATOM     38  N   UNL     1       9.438  -3.610   6.173  1.00  0.00    -0.248 NA
ATOM     39  C   UNL     1       7.443  -3.072   7.260  1.00  0.00     0.031 C 
ATOM     40  C   UNL     1       7.042  -4.908   2.605  1.00  0.00     0.029 A 
ATOM     41  N   UNL     1       9.111  -4.559   3.381  1.00  0.00    -0.354 N 
ATOM     42  C   UNL     1       9.721  -3.069   7.420  1.00  0.00     0.074 A 
ATOM     43  C   UNL     1       8.460  -2.705   8.026  1.00  0.00     0.031 C 
ATOM     44  C   UNL     1       7.901  -5.227   1.621  1.00  0.00     0.029 A 
ATOM     45  C   UNL     1       9.267  -5.046   2.106  1.00  0.00     0.049 A 
ATOM     46  H   UNL     1       9.866  -4.285   3.951  1.00  0.00     0.167 HD
ATOM     47  C   UNL     1      10.925  -2.930   8.021  1.00  0.00     0.037 A 
ATOM     48  C   UNL     1      10.391  -5.348   1.428  1.00  0.00     0.037 A 
ATOM     49  C   UNL     1      12.170  -3.297   7.402  1.00  0.00     0.049 A 
ATOM     50  C   UNL     1      11.720  -5.193   2.119  1.00  0.00     0.074 A 
ATOM     51  C   UNL     1      13.446  -3.243   7.932  1.00  0.00     0.029 A 
ATOM     52  N   UNL     1      12.291  -3.784   6.109  1.00  0.00    -0.354 N 
ATOM     53  N   UNL     1      11.971  -4.780   3.339  1.00  0.00    -0.248 NA
ATOM     54  C   UNL     1      12.916  -5.564   1.351  1.00  0.00     0.031 C 
ATOM     55  C   UNL     1      14.342  -3.672   6.948  1.00  0.00     0.029 A 
ATOM     56  C   UNL     1      13.621  -4.024   5.818  1.00  0.00     0.049 A 
ATOM     57  H   UNL     1      11.540  -3.937   5.490  1.00  0.00     0.167 HD
ATOM     58  C   UNL     1      13.351  -4.861   3.492  1.00  0.00     0.074 A 
ATOM     59  C   UNL     1      13.878  -5.375   2.244  1.00  0.00     0.031 C 
ATOM     60  C   UNL     1      14.114  -4.540   4.566  1.00  0.00     0.037 A 
BRANCH  47  61
ATOM     61  C   UNL     1      10.947  -2.406   9.428  1.00  0.00     0.058 A 
ATOM     62  C   UNL     1      10.513  -3.201  10.501  1.00  0.00     0.135 A 
ATOM     63  C   UNL     1      11.450  -1.129   9.719  1.00  0.00     0.135 A 
ATOM     64  F   UNL     1      10.005  -4.424  10.274  1.00  0.00    -0.206 F 
ATOM     65  C   UNL     1      10.566  -2.746  11.813  1.00  0.00     0.059 A 
ATOM     66  C   UNL     1      11.532  -0.660  11.028  1.00  0.00     0.059 A 
ATOM     67  F   UNL     1      11.871  -0.326   8.730  1.00  0.00    -0.206 F 
ATOM     68  C   UNL     1      11.081  -1.474  12.067  1.00  0.00     0.060 A 
BRANCH  68  69
ATOM     69  S   UNL     1      11.171  -0.913  13.781  1.00  0.00     0.124 S 
ATOM     70  O   UNL     1       9.762  -0.680  14.086  1.00  0.00    -0.237 OA
ATOM     71  O   UNL     1      11.782  -2.057  14.451  1.00  0.00    -0.237 OA
ATOM     72  O   UNL     1      12.002   0.283  13.705  1.00  0.00    -0.744 OA
ENDBRANCH  68  69
ENDBRANCH  47  61
BRANCH  48  73
ATOM     73  C   UNL     1      10.303  -5.899   0.052  1.00  0.00     0.058 A 
ATOM     74  C   UNL     1      10.567  -7.254  -0.198  1.00  0.00     0.135 A 
ATOM     75  C   UNL     1       9.938  -5.092  -1.035  1.00  0.00     0.135 A 
ATOM     76  F   UNL     1      10.921  -8.065   0.811  1.00  0.00    -0.206 F 
ATOM     77  C   UNL     1      10.490  -7.787  -1.480  1.00  0.00     0.059 A 
ATOM     78  C   UNL     1       9.835  -5.606  -2.325  1.00  0.00     0.059 A 
ATOM     79  F   UNL     1       9.657  -3.793  -0.845  1.00  0.00    -0.206 F 
ATOM     80  C   UNL     1      10.123  -6.954  -2.538  1.00  0.00     0.060 A 
BRANCH  80  81
ATOM     81  S   UNL     1       9.985  -7.667  -4.192  1.00  0.00     0.124 S 
ATOM     82  O   UNL     1      11.387  -7.852  -4.549  1.00  0.00    -0.237 OA
ATOM     83  O   UNL     1       9.224  -8.886  -3.938  1.00  0.00    -0.237 OA
ATOM     84  O   UNL     1       9.273  -6.637  -4.942  1.00  0.00    -0.744 OA
ENDBRANCH  80  81
ENDBRANCH  48  73
BRANCH  60  85
ATOM     85  C   UNL     1      15.597  -4.738   4.444  1.00  0.00     0.058 A 
ATOM     86  C   UNL     1      16.392  -3.844   3.712  1.00  0.00     0.135 A 
ATOM     87  C   UNL     1      16.236  -5.780   5.133  1.00  0.00     0.135 A 
ATOM     88  F   UNL     1      15.824  -2.834   3.033  1.00  0.00    -0.206 F 
ATOM     89  C   UNL     1      17.773  -3.982   3.658  1.00  0.00     0.059 A 
ATOM     90  C   UNL     1      17.619  -5.925   5.111  1.00  0.00     0.059 A 
ATOM     91  F   UNL     1      15.518  -6.654   5.856  1.00  0.00    -0.206 F 
ATOM     92  C   UNL     1      18.379  -5.024   4.365  1.00  0.00     0.060 A 
BRANCH  92  93
ATOM     93  S   UNL     1      20.178  -5.158   4.330  1.00  0.00     0.124 S 
ATOM     94  O   UNL     1      20.407  -5.680   2.987  1.00  0.00    -0.237 OA
ATOM     95  O   UNL     1      20.600  -3.779   4.555  1.00  0.00    -0.237 OA
ATOM     96  O   UNL     1      20.471  -6.082   5.422  1.00  0.00    -0.744 OA
ENDBRANCH  92  93
ENDBRANCH  60  85
ENDBRANCH  34  35
ENDBRANCH  27  29
ENDBRANCH  26  27
ENDBRANCH   1  26
TORSDOF 16
