REMARK SMILES CNC(=O)c1cc(S(=O)(=O)N2CCC(C(=O)OCCOC(=O)c3ccc(-c4c5nc(c(-c6c(F)cc(S(=O)(=O)[O-])cc6F)c6ccc([nH]6)c(-c6c(F)cc(S(=O)(=O)[O-])cc6F)c6nc(c(-c7c(F)cc(S(=O)(=O)[O-])cc7F)c7ccc4[nH]7)C=C6)C=C5)cc3)CC2)ccc1OC
REMARK SMILES IDX 18 1 17 2 15 3 16 4 14 5 11 6 12 7 90 8 13 9 89 10 8 11 9 12
REMARK SMILES IDX 10 13 7 14 5 15 6 16 93 17 92 18 91 19 3 20 1 21 2 22 4 24
REMARK SMILES IDX 94 25 95 26 19 27 20 28 21 29 22 30 23 31 24 32 88 33 25 34
REMARK SMILES IDX 87 35 26 36 27 37 28 38 81 39 29 40 86 41 80 42 82 43 30 44
REMARK SMILES IDX 85 45 79 46 78 47 31 49 65 50 44 51 64 52 45 53 48 54 63 55
REMARK SMILES IDX 83 56 46 57 47 58 62 60 84 61 49 62 32 63 33 64 42 65 34 66
REMARK SMILES IDX 35 67 41 68 43 69 36 70 37 71 38 72 39 73 40 74 66 75 67 76
REMARK SMILES IDX 76 77 68 78 69 79 75 80 77 81 70 82 71 83 72 84 73 85 74 86
REMARK SMILES IDX 50 87 51 88 60 89 52 90 53 91 59 92 61 93 54 94 55 95 56 96
REMARK SMILES IDX 57 97 58 98
REMARK H PARENT 2 23 82 48 48 59
REMARK Flexibility Score: inf
ROOT
ATOM      1  C   UNL     1      -4.179  -1.737 -11.211  1.00  0.00     0.274 C 
ENDROOT
BRANCH   1   2
ATOM      2  O   UNL     1      -3.552  -0.876 -10.240  1.00  0.00    -0.462 OA
BRANCH   2   3
ATOM      3  C   UNL     1      -3.999  -1.000  -8.967  1.00  0.00     0.309 C 
ATOM      4  O   UNL     1      -4.930  -1.717  -8.617  1.00  0.00    -0.252 OA
BRANCH   3   5
ATOM      5  C   UNL     1      -3.239  -0.147  -7.976  1.00  0.00     0.102 C 
ATOM      6  N   UNL     1      -1.948   1.969  -6.539  1.00  0.00    -0.198 NA
ATOM      7  C   UNL     1      -1.125   0.948  -7.235  1.00  0.00     0.103 C 
ATOM      8  C   UNL     1      -3.404   1.737  -6.363  1.00  0.00     0.103 C 
ATOM      9  C   UNL     1      -1.854   0.312  -8.411  1.00  0.00     0.032 C 
ATOM     10  C   UNL     1      -4.043   1.081  -7.578  1.00  0.00     0.032 C 
BRANCH   6  11
ATOM     11  S   UNL     1      -1.168   2.810  -5.267  1.00  0.00     0.243 S 
ATOM     12  O   UNL     1      -2.037   3.913  -4.896  1.00  0.00    -0.207 OA
ATOM     13  O   UNL     1       0.202   3.037  -5.663  1.00  0.00    -0.207 OA
BRANCH  11  14
ATOM     14  C   UNL     1      -1.105   1.734  -3.841  1.00  0.00     0.083 A 
ATOM     15  C   UNL     1      -0.506   1.515  -1.493  1.00  0.00     0.083 A 
ATOM     16  C   UNL     1      -0.586   2.287  -2.663  1.00  0.00     0.039 A 
ATOM     17  C   UNL     1      -1.012   0.211  -1.481  1.00  0.00     0.131 A 
ATOM     18  C   UNL     1      -1.490  -0.347  -2.669  1.00  0.00     0.048 A 
ATOM     19  C   UNL     1      -1.536   0.407  -3.846  1.00  0.00     0.025 A 
BRANCH  15  20
ATOM     20  C   UNL     1       0.132   2.154  -0.325  1.00  0.00     0.254 C 
ATOM     21  C   UNL     1       1.928   0.371  -0.124  1.00  0.00     0.143 C 
ATOM     22  N   UNL     1       1.230   1.578   0.262  1.00  0.00    -0.355 N 
ATOM     23  H   UNL     1       1.590   2.048   1.048  1.00  0.00     0.163 HD
ATOM     24  O   UNL     1      -0.308   3.223   0.089  1.00  0.00    -0.269 OA
ENDBRANCH  15  20
BRANCH  17  25
ATOM     25  O   UNL     1      -1.033  -0.627  -0.401  1.00  0.00    -0.496 OA
ATOM     26  C   UNL     1      -1.707  -0.088   0.738  1.00  0.00     0.278 C 
ENDBRANCH  17  25
ENDBRANCH  11  14
ENDBRANCH   6  11
ENDBRANCH   3   5
ENDBRANCH   2   3
ENDBRANCH   1   2
BRANCH   1  27
ATOM     27  C   UNL     1      -3.296  -2.943 -11.546  1.00  0.00     0.275 C 
BRANCH  27  28
ATOM     28  O   UNL     1      -3.142  -3.830 -10.421  1.00  0.00    -0.458 OA
BRANCH  28  29
ATOM     29  C   UNL     1      -2.034  -3.615  -9.674  1.00  0.00     0.338 C 
ATOM     30  O   UNL     1      -1.173  -2.773  -9.863  1.00  0.00    -0.246 OA
BRANCH  29  31
ATOM     31  C   UNL     1      -2.045  -4.471  -8.478  1.00  0.00     0.060 A 
ATOM     32  C   UNL     1      -2.099  -3.845  -7.231  1.00  0.00     0.016 A 
ATOM     33  C   UNL     1      -1.881  -5.854  -8.570  1.00  0.00     0.016 A 
ATOM     34  C   UNL     1      -1.971  -4.595  -6.066  1.00  0.00     0.010 A 
ATOM     35  C   UNL     1      -1.758  -6.609  -7.396  1.00  0.00     0.010 A 
ATOM     36  C   UNL     1      -1.783  -5.982  -6.137  1.00  0.00    -0.014 A 
BRANCH  36  37
ATOM     37  C   UNL     1      -1.560  -6.749  -4.886  1.00  0.00     0.031 A 
ATOM     38  C   UNL     1      -0.186  -7.263  -4.550  1.00  0.00     0.074 A 
ATOM     39  C   UNL     1      -2.580  -6.938  -4.028  1.00  0.00     0.049 A 
ATOM     40  N   UNL     1       0.207  -7.952  -3.510  1.00  0.00    -0.248 NA
ATOM     41  C   UNL     1       0.885  -6.963  -5.512  1.00  0.00     0.031 C 
ATOM     42  C   UNL     1      -3.950  -6.465  -4.231  1.00  0.00     0.029 A 
ATOM     43  N   UNL     1      -2.622  -7.571  -2.812  1.00  0.00    -0.354 N 
ATOM     44  C   UNL     1       1.565  -8.184  -3.696  1.00  0.00     0.074 A 
ATOM     45  C   UNL     1       1.923  -7.579  -4.963  1.00  0.00     0.031 C 
ATOM     46  C   UNL     1      -4.696  -6.816  -3.171  1.00  0.00     0.029 A 
ATOM     47  C   UNL     1      -3.868  -7.568  -2.232  1.00  0.00     0.049 A 
ATOM     48  H   UNL     1      -1.834  -7.988  -2.394  1.00  0.00     0.167 HD
ATOM     49  C   UNL     1       2.433  -8.834  -2.884  1.00  0.00     0.037 A 
ATOM     50  C   UNL     1      -4.298  -8.120  -1.081  1.00  0.00     0.037 A 
ATOM     51  C   UNL     1       2.074  -9.424  -1.619  1.00  0.00     0.049 A 
ATOM     52  C   UNL     1      -3.318  -8.855  -0.207  1.00  0.00     0.074 A 
ATOM     53  C   UNL     1       2.885 -10.097  -0.721  1.00  0.00     0.029 A 
ATOM     54  N   UNL     1       0.800  -9.411  -1.072  1.00  0.00    -0.354 N 
ATOM     55  N   UNL     1      -2.037  -9.062  -0.398  1.00  0.00    -0.248 NA
ATOM     56  C   UNL     1      -3.841  -9.425   1.042  1.00  0.00     0.031 C 
ATOM     57  C   UNL     1       2.093 -10.520   0.353  1.00  0.00     0.029 A 
ATOM     58  C   UNL     1       0.799 -10.072   0.146  1.00  0.00     0.049 A 
ATOM     59  H   UNL     1       0.011  -8.993  -1.487  1.00  0.00     0.167 HD
ATOM     60  C   UNL     1      -1.596  -9.766   0.718  1.00  0.00     0.074 A 
ATOM     61  C   UNL     1      -2.744  -9.935   1.585  1.00  0.00     0.031 C 
ATOM     62  C   UNL     1      -0.352 -10.229   1.000  1.00  0.00     0.037 A 
BRANCH  49  63
ATOM     63  C   UNL     1       3.858  -8.962  -3.352  1.00  0.00     0.058 A 
ATOM     64  C   UNL     1       4.734  -7.866  -3.364  1.00  0.00     0.135 A 
ATOM     65  C   UNL     1       4.361 -10.206  -3.767  1.00  0.00     0.135 A 
ATOM     66  F   UNL     1       4.301  -6.650  -2.994  1.00  0.00    -0.206 F 
ATOM     67  C   UNL     1       6.050  -7.991  -3.798  1.00  0.00     0.059 A 
ATOM     68  C   UNL     1       5.681 -10.361  -4.181  1.00  0.00     0.059 A 
ATOM     69  F   UNL     1       3.566 -11.288  -3.775  1.00  0.00    -0.206 F 
ATOM     70  C   UNL     1       6.514  -9.243  -4.207  1.00  0.00     0.060 A 
BRANCH  70  71
ATOM     71  S   UNL     1       8.223  -9.392  -4.771  1.00  0.00     0.124 S 
ATOM     72  O   UNL     1       8.148  -8.768  -6.088  1.00  0.00    -0.237 OA
ATOM     73  O   UNL     1       8.954  -8.641  -3.755  1.00  0.00    -0.237 OA
ATOM     74  O   UNL     1       8.456 -10.832  -4.771  1.00  0.00    -0.744 OA
ENDBRANCH  70  71
ENDBRANCH  49  63
BRANCH  50  75
ATOM     75  C   UNL     1      -5.726  -7.997  -0.689  1.00  0.00     0.058 A 
ATOM     76  C   UNL     1      -6.115  -7.186   0.388  1.00  0.00     0.135 A 
ATOM     77  C   UNL     1      -6.731  -8.679  -1.391  1.00  0.00     0.135 A 
ATOM     78  F   UNL     1      -5.189  -6.520   1.095  1.00  0.00    -0.206 F 
ATOM     79  C   UNL     1      -7.449  -7.066   0.763  1.00  0.00     0.059 A 
ATOM     80  C   UNL     1      -8.074  -8.555  -1.051  1.00  0.00     0.059 A 
ATOM     81  F   UNL     1      -6.410  -9.457  -2.438  1.00  0.00    -0.206 F 
ATOM     82  C   UNL     1      -8.422  -7.753   0.035  1.00  0.00     0.060 A 
BRANCH  82  83
ATOM     83  S   UNL     1     -10.157  -7.548   0.492  1.00  0.00     0.124 S 
ATOM     84  O   UNL     1     -10.243  -8.372   1.692  1.00  0.00    -0.237 OA
ATOM     85  O   UNL     1     -10.252  -6.106   0.699  1.00  0.00    -0.237 OA
ATOM     86  O   UNL     1     -10.872  -8.053  -0.676  1.00  0.00    -0.744 OA
ENDBRANCH  82  83
ENDBRANCH  50  75
BRANCH  62  87
ATOM     87  C   UNL     1      -0.166 -10.928   2.318  1.00  0.00     0.058 A 
ATOM     88  C   UNL     1      -0.675 -12.215   2.553  1.00  0.00     0.135 A 
ATOM     89  C   UNL     1       0.541 -10.303   3.358  1.00  0.00     0.135 A 
ATOM     90  F   UNL     1      -1.361 -12.855   1.593  1.00  0.00    -0.206 F 
ATOM     91  C   UNL     1      -0.525 -12.842   3.786  1.00  0.00     0.059 A 
ATOM     92  C   UNL     1       0.725 -10.921   4.591  1.00  0.00     0.059 A 
ATOM     93  F   UNL     1       1.059  -9.077   3.182  1.00  0.00    -0.206 F 
ATOM     94  C   UNL     1       0.171 -12.183   4.801  1.00  0.00     0.060 A 
BRANCH  94  95
ATOM     95  S   UNL     1       0.356 -13.000   6.401  1.00  0.00     0.124 S 
ATOM     96  O   UNL     1      -0.964 -12.795   6.988  1.00  0.00    -0.237 OA
ATOM     97  O   UNL     1       0.674 -14.373   6.019  1.00  0.00    -0.237 OA
ATOM     98  O   UNL     1       1.447 -12.264   7.032  1.00  0.00    -0.744 OA
ENDBRANCH  94  95
ENDBRANCH  62  87
ENDBRANCH  36  37
ENDBRANCH  29  31
ENDBRANCH  28  29
ENDBRANCH  27  28
ENDBRANCH   1  27
TORSDOF 18
