REMARK SMILES C[C@H]1C[C@H]1C(=O)N[C@@H]1CCCCC[C@@H]1C(=O)OCCOC(=O)c1ccc(-c2c3nc(c(-c4c(F)cc(S(=O)(=O)[O-])cc4F)c4ccc([nH]4)c(-c4c(F)cc(S(=O)(=O)[O-])cc4F)c4nc(c(-c5c(F)cc(S(=O)(=O)[O-])cc5F)c5ccc2[nH]5)C=C4)C=C3)cc1
REMARK SMILES IDX 18 1 17 2 15 3 16 4 14 5 8 6 7 7 5 8 6 9 4 11 1 12 2 13 3 14
REMARK SMILES IDX 9 15 10 16 11 17 13 19 12 20 19 22 20 23 21 24 22 25 23 26
REMARK SMILES IDX 24 27 88 28 25 29 87 30 26 31 27 32 28 33 81 34 29 35 86 36
REMARK SMILES IDX 80 37 82 38 30 39 85 40 79 41 78 42 31 44 65 45 44 46 64 47
REMARK SMILES IDX 45 48 48 49 63 50 83 51 46 52 47 53 62 55 84 56 49 57 32 58
REMARK SMILES IDX 33 59 42 60 34 61 35 62 41 63 43 64 36 65 37 66 38 67 39 68
REMARK SMILES IDX 40 69 66 70 67 71 76 72 68 73 69 74 75 75 77 76 70 77 71 78
REMARK SMILES IDX 72 79 73 80 74 81 50 82 51 83 60 84 52 85 53 86 59 87 61 88
REMARK SMILES IDX 54 89 55 90 56 91 57 92 58 93
REMARK H PARENT 7 10 82 43 48 54
REMARK Flexibility Score: 90.00
ROOT
ATOM      1  C   UNL     1      -1.486  -6.397  -1.700  1.00  0.00     0.274 C 
ENDROOT
BRANCH   1   2
ATOM      2  O   UNL     1      -1.309  -5.215  -0.896  1.00  0.00    -0.462 OA
BRANCH   2   3
ATOM      3  C   UNL     1      -2.413  -4.441  -0.742  1.00  0.00     0.311 C 
ATOM      4  O   UNL     1      -3.480  -4.618  -1.321  1.00  0.00    -0.252 OA
BRANCH   3   5
ATOM      5  C   UNL     1      -2.216  -3.311   0.256  1.00  0.00     0.121 C 
BRANCH   5   6
ATOM      6  C   UNL     1      -2.254  -1.967  -0.481  1.00  0.00     0.096 C 
BRANCH   6   7
ATOM      7  N   UNL     1      -1.481  -1.779  -1.718  1.00  0.00    -0.352 N 
ATOM      8  C   UNL     1      -0.202  -1.609  -2.145  1.00  0.00     0.223 C 
ATOM      9  O   UNL     1      -0.067  -1.212  -3.304  1.00  0.00    -0.275 OA
ATOM     10  H   UNL     1      -2.091  -1.774  -2.491  1.00  0.00     0.163 HD
BRANCH   8  11
ATOM     11  C   UNL     1       1.034  -1.971  -1.424  1.00  0.00     0.081 C 
ATOM     12  C   UNL     1       1.465   0.539  -0.557  1.00  0.00     0.008 C 
ATOM     13  C   UNL     1       1.926  -0.839  -0.897  1.00  0.00    -0.001 C 
ATOM     14  C   UNL     1       1.451  -1.925   0.007  1.00  0.00     0.018 C 
ENDBRANCH   8  11
ENDBRANCH   6   7
BRANCH   6  15
ATOM     15  C   UNL     1      -2.325  -0.672   0.336  1.00  0.00     0.026 C 
BRANCH  15  16
ATOM     16  C   UNL     1      -2.591  -0.790   1.829  1.00  0.00     0.002 C 
BRANCH  16  17
ATOM     17  C   UNL     1      -1.395  -1.332   2.599  1.00  0.00     0.000 CG0
ATOM     18  G   UNL     1      -1.307  -2.852   2.636  1.00  0.00     0.000 G0
ENDBRANCH  16  17
ENDBRANCH  15  16
ENDBRANCH   6  15
ENDBRANCH   5   6
BRANCH   5  19
ATOM     19  C   UNL     1      -1.152  -3.598   1.309  1.00  0.00     0.017 C 
BRANCH  19  20
ATOM     20  C   UNL     1      -1.307  -2.852   2.636  1.00  0.00     0.001 CG0
ATOM     21  G   UNL     1      -1.395  -1.332   2.599  1.00  0.00     0.000 G0
ENDBRANCH  19  20
ENDBRANCH   5  19
ENDBRANCH   3   5
ENDBRANCH   2   3
ENDBRANCH   1   2
BRANCH   1  22
ATOM     22  C   UNL     1      -1.706  -7.622  -0.813  1.00  0.00     0.275 C 
BRANCH  22  23
ATOM     23  O   UNL     1      -2.913  -7.478  -0.042  1.00  0.00    -0.458 OA
BRANCH  23  24
ATOM     24  C   UNL     1      -2.741  -7.331   1.292  1.00  0.00     0.338 C 
ATOM     25  O   UNL     1      -1.694  -7.341   1.913  1.00  0.00    -0.246 OA
BRANCH  24  26
ATOM     26  C   UNL     1      -4.045  -7.105   1.932  1.00  0.00     0.060 A 
ATOM     27  C   UNL     1      -4.601  -5.826   1.911  1.00  0.00     0.016 A 
ATOM     28  C   UNL     1      -4.650  -8.126   2.659  1.00  0.00     0.016 A 
ATOM     29  C   UNL     1      -5.741  -5.541   2.657  1.00  0.00     0.010 A 
ATOM     30  C   UNL     1      -5.826  -7.855   3.363  1.00  0.00     0.010 A 
ATOM     31  C   UNL     1      -6.367  -6.555   3.388  1.00  0.00    -0.014 A 
BRANCH  31  32
ATOM     32  C   UNL     1      -7.552  -6.266   4.233  1.00  0.00     0.031 A 
ATOM     33  C   UNL     1      -7.441  -6.425   5.723  1.00  0.00     0.074 A 
ATOM     34  C   UNL     1      -8.717  -5.886   3.675  1.00  0.00     0.049 A 
ATOM     35  N   UNL     1      -8.388  -6.509   6.619  1.00  0.00    -0.248 NA
ATOM     36  C   UNL     1      -6.079  -6.511   6.275  1.00  0.00     0.031 C 
ATOM     37  C   UNL     1      -8.929  -5.612   2.252  1.00  0.00     0.029 A 
ATOM     38  N   UNL     1      -9.952  -5.683   4.239  1.00  0.00    -0.354 N 
ATOM     39  C   UNL     1      -7.741  -6.708   7.833  1.00  0.00     0.074 A 
ATOM     40  C   UNL     1      -6.320  -6.724   7.562  1.00  0.00     0.031 C 
ATOM     41  C   UNL     1     -10.217  -5.285   2.054  1.00  0.00     0.029 A 
ATOM     42  C   UNL     1     -10.935  -5.404   3.318  1.00  0.00     0.049 A 
ATOM     43  H   UNL     1     -10.117  -5.732   5.208  1.00  0.00     0.167 HD
ATOM     44  C   UNL     1      -8.292  -6.873   9.059  1.00  0.00     0.037 A 
ATOM     45  C   UNL     1     -12.271  -5.316   3.468  1.00  0.00     0.037 A 
ATOM     46  C   UNL     1      -9.709  -6.825   9.310  1.00  0.00     0.049 A 
ATOM     47  C   UNL     1     -12.867  -5.557   4.829  1.00  0.00     0.074 A 
ATOM     48  C   UNL     1     -10.383  -7.026  10.501  1.00  0.00     0.029 A 
ATOM     49  N   UNL     1     -10.667  -6.532   8.351  1.00  0.00    -0.354 N 
ATOM     50  N   UNL     1     -12.258  -5.844   5.955  1.00  0.00    -0.248 NA
ATOM     51  C   UNL     1     -14.331  -5.485   4.938  1.00  0.00     0.031 C 
ATOM     52  C   UNL     1     -11.752  -6.871  10.259  1.00  0.00     0.029 A 
ATOM     53  C   UNL     1     -11.926  -6.537   8.925  1.00  0.00     0.049 A 
ATOM     54  H   UNL     1     -10.479  -6.347   7.402  1.00  0.00     0.167 HD
ATOM     55  C   UNL     1     -13.260  -5.958   6.911  1.00  0.00     0.074 A 
ATOM     56  C   UNL     1     -14.515  -5.708   6.233  1.00  0.00     0.031 C 
ATOM     57  C   UNL     1     -13.154  -6.246   8.230  1.00  0.00     0.037 A 
BRANCH  44  58
ATOM     58  C   UNL     1      -7.371  -7.153  10.211  1.00  0.00     0.058 A 
ATOM     59  C   UNL     1      -6.582  -6.147  10.789  1.00  0.00     0.135 A 
ATOM     60  C   UNL     1      -7.308  -8.440  10.772  1.00  0.00     0.135 A 
ATOM     61  F   UNL     1      -6.588  -4.907  10.277  1.00  0.00    -0.206 F 
ATOM     62  C   UNL     1      -5.751  -6.410  11.874  1.00  0.00     0.059 A 
ATOM     63  C   UNL     1      -6.500  -8.720  11.871  1.00  0.00     0.059 A 
ATOM     64  F   UNL     1      -8.038  -9.439  10.253  1.00  0.00    -0.206 F 
ATOM     65  C   UNL     1      -5.718  -7.699  12.409  1.00  0.00     0.060 A 
BRANCH  65  66
ATOM     66  S   UNL     1      -4.647  -8.023  13.827  1.00  0.00     0.124 S 
ATOM     67  O   UNL     1      -3.331  -8.047  13.197  1.00  0.00    -0.237 OA
ATOM     68  O   UNL     1      -4.914  -6.876  14.690  1.00  0.00    -0.237 OA
ATOM     69  O   UNL     1      -5.127  -9.306  14.329  1.00  0.00    -0.744 OA
ENDBRANCH  65  66
ENDBRANCH  44  58
BRANCH  45  70
ATOM     70  C   UNL     1     -13.141  -5.042   2.293  1.00  0.00     0.058 A 
ATOM     71  C   UNL     1     -13.832  -3.828   2.173  1.00  0.00     0.135 A 
ATOM     72  C   UNL     1     -13.307  -5.992   1.272  1.00  0.00     0.135 A 
ATOM     73  F   UNL     1     -13.713  -2.892   3.127  1.00  0.00    -0.206 F 
ATOM     74  C   UNL     1     -14.672  -3.571   1.094  1.00  0.00     0.059 A 
ATOM     75  C   UNL     1     -14.120  -5.748   0.171  1.00  0.00     0.059 A 
ATOM     76  F   UNL     1     -12.658  -7.165   1.333  1.00  0.00    -0.206 F 
ATOM     77  C   UNL     1     -14.812  -4.540   0.098  1.00  0.00     0.060 A 
BRANCH  77  78
ATOM     78  S   UNL     1     -15.882  -4.192  -1.315  1.00  0.00     0.124 S 
ATOM     79  O   UNL     1     -17.203  -4.429  -0.746  1.00  0.00    -0.237 OA
ATOM     80  O   UNL     1     -15.556  -2.801  -1.616  1.00  0.00    -0.237 OA
ATOM     81  O   UNL     1     -15.439  -5.160  -2.313  1.00  0.00    -0.744 OA
ENDBRANCH  77  78
ENDBRANCH  45  70
BRANCH  57  82
ATOM     82  C   UNL     1     -14.414  -6.237   9.044  1.00  0.00     0.058 A 
ATOM     83  C   UNL     1     -15.314  -7.311   9.020  1.00  0.00     0.135 A 
ATOM     84  C   UNL     1     -14.677  -5.171   9.919  1.00  0.00     0.135 A 
ATOM     85  F   UNL     1     -15.107  -8.349   8.194  1.00  0.00    -0.206 F 
ATOM     86  C   UNL     1     -16.439  -7.328   9.837  1.00  0.00     0.059 A 
ATOM     87  C   UNL     1     -15.786  -5.176  10.757  1.00  0.00     0.059 A 
ATOM     88  F   UNL     1     -13.839  -4.124   9.979  1.00  0.00    -0.206 F 
ATOM     89  C   UNL     1     -16.664  -6.257  10.706  1.00  0.00     0.060 A 
BRANCH  89  90
ATOM     90  S   UNL     1     -18.092  -6.318  11.808  1.00  0.00     0.124 S 
ATOM     91  O   UNL     1     -19.181  -5.981  10.897  1.00  0.00    -0.237 OA
ATOM     92  O   UNL     1     -18.066  -7.699  12.281  1.00  0.00    -0.237 OA
ATOM     93  O   UNL     1     -17.783  -5.311  12.819  1.00  0.00    -0.744 OA
ENDBRANCH  89  90
ENDBRANCH  57  82
ENDBRANCH  31  32
ENDBRANCH  24  26
ENDBRANCH  23  24
ENDBRANCH  22  23
ENDBRANCH   1  22
TORSDOF 16
