REMARK SMILES COc1cc(C[N@@H+]2CCO[C@@H](CC(=O)OCCOC(=O)c3ccc(-c4c5nc(c(-c6c(F)cc(S(=O)(=O)[O-])cc6F)c6ccc([nH]6)c(-c6c(F)cc(S(=O)(=O)[O-])cc6F)c6nc(c(-c7c(F)cc(S(=O)(=O)[O-])cc7F)c7ccc4[nH]7)C=C6)C=C5)cc3)C2)ccc1O
REMARK SMILES IDX 16 1 15 2 13 3 14 4 12 5 11 6 7 7 8 8 87 9 9 11 10 12 6 13
REMARK SMILES IDX 5 14 3 15 4 16 90 17 89 18 88 19 2 20 1 21 91 22 17 24 18 25
REMARK SMILES IDX 19 26 20 27 21 28 22 29 86 30 23 31 85 32 24 33 25 34 26 35
REMARK SMILES IDX 79 36 27 37 84 38 78 39 80 40 28 41 83 42 77 43 76 44 29 46
REMARK SMILES IDX 63 47 42 48 62 49 43 50 46 51 61 52 81 53 44 54 45 55 60 57
REMARK SMILES IDX 82 58 47 59 30 60 31 61 40 62 32 63 33 64 39 65 41 66 34 67
REMARK SMILES IDX 35 68 36 69 37 70 38 71 64 72 65 73 74 74 66 75 67 76 73 77
REMARK SMILES IDX 75 78 68 79 69 80 70 81 71 82 72 83 48 84 49 85 58 86 50 87
REMARK SMILES IDX 51 88 57 89 59 90 52 91 53 92 54 93 55 94 56 95
REMARK H PARENT 7 10 91 23 80 45 46 56
REMARK Flexibility Score: inf
ROOT
ATOM      1  C   UNL     1      -2.787  -8.360  -2.665  1.00  0.00     0.274 C 
ENDROOT
BRANCH   1   2
ATOM      2  O   UNL     1      -3.070  -6.991  -3.028  1.00  0.00    -0.462 OA
BRANCH   2   3
ATOM      3  C   UNL     1      -3.611  -6.214  -2.051  1.00  0.00     0.308 C 
ATOM      4  O   UNL     1      -3.875  -6.607  -0.921  1.00  0.00    -0.252 OA
BRANCH   3   5
ATOM      5  C   UNL     1      -3.948  -4.831  -2.536  1.00  0.00     0.160 C 
BRANCH   5   6
ATOM      6  C   UNL     1      -2.788  -3.911  -2.926  1.00  0.00     0.184 C 
ATOM      7  N   UNL     1      -1.240  -3.307  -4.889  1.00  0.00    -0.327 N 
ATOM      8  C   UNL     1      -1.828  -1.970  -4.813  1.00  0.00     0.291 C 
ATOM      9  C   UNL     1      -2.085  -4.328  -4.245  1.00  0.00     0.295 C 
ATOM     10  H   UNL     1      -1.260  -3.556  -5.878  1.00  0.00     0.348 HD
ATOM     11  C   UNL     1      -2.444  -1.625  -3.453  1.00  0.00     0.222 C 
ATOM     12  O   UNL     1      -3.407  -2.609  -3.077  1.00  0.00    -0.366 OA
BRANCH   7  13
ATOM     13  C   UNL     1       0.206  -3.396  -4.676  1.00  0.00     0.299 C 
BRANCH  13  14
ATOM     14  C   UNL     1       0.761  -3.064  -3.311  1.00  0.00     0.010 A 
ATOM     15  C   UNL     1       1.399  -1.454  -1.587  1.00  0.00     0.160 A 
ATOM     16  C   UNL     1       0.929  -1.740  -2.875  1.00  0.00     0.060 A 
ATOM     17  C   UNL     1       1.776  -2.503  -0.748  1.00  0.00     0.157 A 
ATOM     18  C   UNL     1       1.662  -3.818  -1.177  1.00  0.00     0.051 A 
ATOM     19  C   UNL     1       1.178  -4.092  -2.458  1.00  0.00     0.013 A 
BRANCH  15  20
ATOM     20  O   UNL     1       1.515  -0.127  -1.275  1.00  0.00    -0.493 OA
ATOM     21  C   UNL     1       0.920   0.248  -0.032  1.00  0.00     0.278 C 
ENDBRANCH  15  20
BRANCH  17  22
ATOM     22  O   UNL     1       2.321  -2.314   0.488  1.00  0.00    -0.504 OA
ATOM     23  H   UNL     1       2.421  -1.447   0.829  1.00  0.00     0.293 HD
ENDBRANCH  17  22
ENDBRANCH  13  14
ENDBRANCH   7  13
ENDBRANCH   5   6
ENDBRANCH   3   5
ENDBRANCH   2   3
ENDBRANCH   1   2
BRANCH   1  24
ATOM     24  C   UNL     1      -1.339  -8.581  -2.200  1.00  0.00     0.275 C 
BRANCH  24  25
ATOM     25  O   UNL     1      -1.093  -8.110  -0.858  1.00  0.00    -0.458 OA
BRANCH  25  26
ATOM     26  C   UNL     1      -0.841  -6.785  -0.793  1.00  0.00     0.338 C 
ATOM     27  O   UNL     1      -0.799  -6.033  -1.758  1.00  0.00    -0.246 OA
BRANCH  26  28
ATOM     28  C   UNL     1      -0.718  -6.280   0.582  1.00  0.00     0.060 A 
ATOM     29  C   UNL     1      -1.379  -5.085   0.888  1.00  0.00     0.016 A 
ATOM     30  C   UNL     1       0.110  -6.891   1.527  1.00  0.00     0.016 A 
ATOM     31  C   UNL     1      -1.212  -4.491   2.134  1.00  0.00     0.010 A 
ATOM     32  C   UNL     1       0.271  -6.295   2.784  1.00  0.00     0.010 A 
ATOM     33  C   UNL     1      -0.383  -5.089   3.092  1.00  0.00    -0.014 A 
BRANCH  33  34
ATOM     34  C   UNL     1      -0.230  -4.437   4.414  1.00  0.00     0.031 A 
ATOM     35  C   UNL     1       1.009  -3.655   4.743  1.00  0.00     0.074 A 
ATOM     36  C   UNL     1      -1.240  -4.513   5.301  1.00  0.00     0.049 A 
ATOM     37  N   UNL     1       1.294  -2.984   5.830  1.00  0.00    -0.248 NA
ATOM     38  C   UNL     1       2.063  -3.622   3.719  1.00  0.00     0.031 C 
ATOM     39  C   UNL     1      -2.497  -5.231   5.083  1.00  0.00     0.029 A 
ATOM     40  N   UNL     1      -1.374  -3.975   6.555  1.00  0.00    -0.354 N 
ATOM     41  C   UNL     1       2.559  -2.447   5.624  1.00  0.00     0.074 A 
ATOM     42  C   UNL     1       2.998  -2.896   4.319  1.00  0.00     0.031 C 
ATOM     43  C   UNL     1      -3.278  -5.083   6.165  1.00  0.00     0.029 A 
ATOM     44  C   UNL     1      -2.568  -4.283   7.160  1.00  0.00     0.049 A 
ATOM     45  H   UNL     1      -0.680  -3.422   6.981  1.00  0.00     0.167 HD
ATOM     46  C   UNL     1       3.280  -1.645   6.444  1.00  0.00     0.037 A 
ATOM     47  C   UNL     1      -3.036  -3.965   8.382  1.00  0.00     0.037 A 
ATOM     48  C   UNL     1       2.839  -1.204   7.744  1.00  0.00     0.049 A 
ATOM     49  C   UNL     1      -2.198  -3.106   9.288  1.00  0.00     0.074 A 
ATOM     50  C   UNL     1       3.493  -0.377   8.642  1.00  0.00     0.029 A 
ATOM     51  N   UNL     1       1.637  -1.561   8.338  1.00  0.00    -0.354 N 
ATOM     52  N   UNL     1      -1.017  -2.581   9.066  1.00  0.00    -0.248 NA
ATOM     53  C   UNL     1      -2.760  -2.793  10.609  1.00  0.00     0.031 C 
ATOM     54  C   UNL     1       2.703  -0.265   9.793  1.00  0.00     0.029 A 
ATOM     55  C   UNL     1       1.539  -0.989   9.597  1.00  0.00     0.049 A 
ATOM     56  H   UNL     1       0.953  -2.136   7.925  1.00  0.00     0.167 HD
ATOM     57  C   UNL     1      -0.700  -1.863  10.214  1.00  0.00     0.074 A 
ATOM     58  C   UNL     1      -1.821  -2.007  11.120  1.00  0.00     0.031 C 
ATOM     59  C   UNL     1       0.420  -1.149  10.492  1.00  0.00     0.037 A 
BRANCH  46  60
ATOM     60  C   UNL     1       4.634  -1.204   5.965  1.00  0.00     0.058 A 
ATOM     61  C   UNL     1       4.780  -0.231   4.964  1.00  0.00     0.135 A 
ATOM     62  C   UNL     1       5.801  -1.736   6.537  1.00  0.00     0.135 A 
ATOM     63  F   UNL     1       3.698   0.298   4.371  1.00  0.00    -0.206 F 
ATOM     64  C   UNL     1       6.036   0.183   4.531  1.00  0.00     0.059 A 
ATOM     65  C   UNL     1       7.067  -1.323   6.133  1.00  0.00     0.059 A 
ATOM     66  F   UNL     1       5.717  -2.671   7.497  1.00  0.00    -0.206 F 
ATOM     67  C   UNL     1       7.174  -0.372   5.119  1.00  0.00     0.060 A 
BRANCH  67  68
ATOM     68  S   UNL     1       8.797   0.172   4.543  1.00  0.00     0.124 S 
ATOM     69  O   UNL     1       8.889  -0.507   3.254  1.00  0.00    -0.237 OA
ATOM     70  O   UNL     1       8.639   1.621   4.484  1.00  0.00    -0.237 OA
ATOM     71  O   UNL     1       9.705  -0.316   5.575  1.00  0.00    -0.744 OA
ENDBRANCH  67  68
ENDBRANCH  46  60
BRANCH  47  72
ATOM     72  C   UNL     1      -4.364  -4.466   8.816  1.00  0.00     0.058 A 
ATOM     73  C   UNL     1      -5.462  -3.602   8.938  1.00  0.00     0.135 A 
ATOM     74  C   UNL     1      -4.563  -5.825   9.105  1.00  0.00     0.135 A 
ATOM     75  F   UNL     1      -5.317  -2.293   8.681  1.00  0.00    -0.206 F 
ATOM     76  C   UNL     1      -6.710  -4.065   9.343  1.00  0.00     0.059 A 
ATOM     77  C   UNL     1      -5.806  -6.315   9.489  1.00  0.00     0.059 A 
ATOM     78  F   UNL     1      -3.546  -6.693   8.990  1.00  0.00    -0.206 F 
ATOM     79  C   UNL     1      -6.872  -5.425   9.616  1.00  0.00     0.060 A 
BRANCH  79  80
ATOM     80  S   UNL     1      -8.505  -6.029  10.093  1.00  0.00     0.124 S 
ATOM     81  O   UNL     1      -8.576  -5.610  11.488  1.00  0.00    -0.237 OA
ATOM     82  O   UNL     1      -9.382  -5.318   9.167  1.00  0.00    -0.237 OA
ATOM     83  O   UNL     1      -8.407  -7.469   9.869  1.00  0.00    -0.744 OA
ENDBRANCH  79  80
ENDBRANCH  47  72
BRANCH  59  84
ATOM     84  C   UNL     1       0.473  -0.460  11.827  1.00  0.00     0.058 A 
ATOM     85  C   UNL     1       0.677  -1.177  13.016  1.00  0.00     0.135 A 
ATOM     86  C   UNL     1       0.331   0.934  11.916  1.00  0.00     0.135 A 
ATOM     87  F   UNL     1       0.813  -2.512  12.985  1.00  0.00    -0.206 F 
ATOM     88  C   UNL     1       0.704  -0.540  14.253  1.00  0.00     0.059 A 
ATOM     89  C   UNL     1       0.377   1.594  13.140  1.00  0.00     0.059 A 
ATOM     90  F   UNL     1       0.144   1.668  10.808  1.00  0.00    -0.206 F 
ATOM     91  C   UNL     1       0.547   0.846  14.305  1.00  0.00     0.060 A 
BRANCH  91  92
ATOM     92  S   UNL     1       0.587   1.667  15.913  1.00  0.00     0.124 S 
ATOM     93  O   UNL     1      -0.754   1.390  16.417  1.00  0.00    -0.237 OA
ATOM     94  O   UNL     1       1.676   0.975  16.595  1.00  0.00    -0.237 OA
ATOM     95  O   UNL     1       0.856   3.061  15.573  1.00  0.00    -0.744 OA
ENDBRANCH  91  92
ENDBRANCH  59  84
ENDBRANCH  33  34
ENDBRANCH  26  28
ENDBRANCH  25  26
ENDBRANCH  24  25
ENDBRANCH   1  24
TORSDOF 19
