REMARK SMILES Cc1cc(I)ccc1[C@H]([NH3+])C(=O)OCCOC(=O)c1ccc(-c2c3nc(c(-c4c(F)cc(S(=O)(=O)[O-])cc4F)c4ccc([nH]4)c(-c4c(F)cc(S(=O)(=O)[O-])cc4F)c4nc(c(-c5c(F)cc(S(=O)(=O)[O-])cc5F)c5ccc2[nH]5)C=C4)C=C3)cc1
REMARK SMILES IDX 15 1 14 2 13 3 11 4 12 5 9 6 8 7 1 8 2 9 3 10 4 11 7 12 5 13
REMARK SMILES IDX 6 14 10 15 16 19 17 20 18 21 19 22 20 23 84 24 21 25 83 26
REMARK SMILES IDX 22 27 23 28 24 29 77 30 25 31 82 32 76 33 78 34 26 35 81 36
REMARK SMILES IDX 75 37 74 38 27 40 61 41 40 42 60 43 41 44 44 45 59 46 79 47
REMARK SMILES IDX 42 48 43 49 58 51 80 52 45 53 28 54 29 55 38 56 30 57 31 58
REMARK SMILES IDX 37 59 39 60 32 61 33 62 34 63 35 64 36 65 62 66 63 67 72 68
REMARK SMILES IDX 64 69 65 70 71 71 73 72 66 73 67 74 68 75 69 76 70 77 46 78
REMARK SMILES IDX 47 79 56 80 48 81 49 82 55 83 57 84 50 85 51 86 52 87 53 88
REMARK SMILES IDX 54 89
REMARK H PARENT 10 16 10 17 10 18 78 39 44 50
REMARK Flexibility Score: inf
ROOT
ATOM      1  C   UNL     1       4.835  -2.611  -4.058  1.00  0.00     0.275 C 
ENDROOT
BRANCH   1   2
ATOM      2  C   UNL     1       5.246  -3.407  -2.817  1.00  0.00     0.274 C 
BRANCH   2   3
ATOM      3  O   UNL     1       4.633  -2.856  -1.641  1.00  0.00    -0.457 OA
BRANCH   3   4
ATOM      4  C   UNL     1       5.443  -2.217  -0.747  1.00  0.00     0.369 C 
ATOM      5  O   UNL     1       6.662  -2.133  -0.860  1.00  0.00    -0.245 OA
BRANCH   4   6
ATOM      6  C   UNL     1       4.650  -1.583   0.418  1.00  0.00     0.323 C 
BRANCH   6   7
ATOM      7  C   UNL     1       4.935  -2.225   1.769  1.00  0.00     0.024 A 
ATOM      8  C   UNL     1       4.365  -4.590   0.967  1.00  0.00     0.045 C 
ATOM      9  C   UNL     1       4.791  -3.607   2.024  1.00  0.00    -0.040 A 
ATOM     10  C   UNL     1       5.093  -4.108   3.304  1.00  0.00     0.018 A 
ATOM     11  C   UNL     1       5.497  -3.254   4.329  1.00  0.00     0.013 A 
ATOM     12  C   UNL     1       5.339  -1.381   2.827  1.00  0.00     0.012 A 
ATOM     13  I   UNL     1       5.914  -4.027   6.213  1.00  0.00    -0.044 I 
ATOM     14  C   UNL     1       5.617  -1.890   4.097  1.00  0.00     0.015 A 
ENDBRANCH   6   7
BRANCH   6  15
ATOM     15  N   UNL     1       3.194  -1.500   0.164  1.00  0.00    -0.342 N 
ATOM     16  H   UNL     1       2.805  -2.441   0.110  1.00  0.00     0.345 HD
ATOM     17  H   UNL     1       3.030  -1.012  -0.716  1.00  0.00     0.345 HD
ATOM     18  H   UNL     1       2.745  -0.989   0.924  1.00  0.00     0.345 HD
ENDBRANCH   6  15
ENDBRANCH   4   6
ENDBRANCH   3   4
ENDBRANCH   2   3
ENDBRANCH   1   2
BRANCH   1  19
ATOM     19  O   UNL     1       5.466  -1.318  -4.089  1.00  0.00    -0.458 OA
BRANCH  19  20
ATOM     20  C   UNL     1       4.833  -0.348  -3.391  1.00  0.00     0.338 C 
ATOM     21  O   UNL     1       3.768  -0.434  -2.793  1.00  0.00    -0.246 OA
BRANCH  20  22
ATOM     22  C   UNL     1       5.706   0.830  -3.290  1.00  0.00     0.060 A 
ATOM     23  C   UNL     1       5.952   1.340  -2.012  1.00  0.00     0.016 A 
ATOM     24  C   UNL     1       6.233   1.457  -4.420  1.00  0.00     0.016 A 
ATOM     25  C   UNL     1       6.716   2.488  -1.853  1.00  0.00     0.010 A 
ATOM     26  C   UNL     1       7.001   2.613  -4.261  1.00  0.00     0.010 A 
ATOM     27  C   UNL     1       7.233   3.140  -2.978  1.00  0.00    -0.014 A 
BRANCH  27  28
ATOM     28  C   UNL     1       7.957   4.419  -2.807  1.00  0.00     0.031 A 
ATOM     29  C   UNL     1       7.267   5.705  -3.157  1.00  0.00     0.074 A 
ATOM     30  C   UNL     1       9.208   4.419  -2.312  1.00  0.00     0.049 A 
ATOM     31  N   UNL     1       7.743   6.921  -3.169  1.00  0.00    -0.248 NA
ATOM     32  C   UNL     1       5.851   5.607  -3.547  1.00  0.00     0.031 C 
ATOM     33  C   UNL     1       9.947   3.230  -1.886  1.00  0.00     0.029 A 
ATOM     34  N   UNL     1      10.078   5.454  -2.086  1.00  0.00    -0.354 N 
ATOM     35  C   UNL     1       6.695   7.733  -3.585  1.00  0.00     0.074 A 
ATOM     36  C   UNL     1       5.561   6.869  -3.831  1.00  0.00     0.031 C 
ATOM     37  C   UNL     1      11.164   3.603  -1.455  1.00  0.00     0.029 A 
ATOM     38  C   UNL     1      11.304   5.047  -1.618  1.00  0.00     0.049 A 
ATOM     39  H   UNL     1       9.847   6.398  -2.245  1.00  0.00     0.167 HD
ATOM     40  C   UNL     1       6.684   9.078  -3.744  1.00  0.00     0.037 A 
ATOM     41  C   UNL     1      12.422   5.759  -1.379  1.00  0.00     0.037 A 
ATOM     42  C   UNL     1       7.820   9.924  -3.485  1.00  0.00     0.049 A 
ATOM     43  C   UNL     1      12.404   7.244  -1.623  1.00  0.00     0.074 A 
ATOM     44  C   UNL     1       7.920  11.297  -3.618  1.00  0.00     0.029 A 
ATOM     45  N   UNL     1       9.055   9.474  -3.039  1.00  0.00    -0.354 N 
ATOM     46  N   UNL     1      11.413   7.999  -2.038  1.00  0.00    -0.248 NA
ATOM     47  C   UNL     1      13.654   7.973  -1.375  1.00  0.00     0.031 C 
ATOM     48  C   UNL     1       9.226  11.673  -3.285  1.00  0.00     0.029 A 
ATOM     49  C   UNL     1       9.928  10.540  -2.905  1.00  0.00     0.049 A 
ATOM     50  H   UNL     1       9.277   8.534  -2.846  1.00  0.00     0.167 HD
ATOM     51  C   UNL     1      11.915   9.294  -2.082  1.00  0.00     0.074 A 
ATOM     52  C   UNL     1      13.293   9.222  -1.640  1.00  0.00     0.031 C 
ATOM     53  C   UNL     1      11.294  10.441  -2.456  1.00  0.00     0.037 A 
BRANCH  40  54
ATOM     54  C   UNL     1       5.416   9.707  -4.247  1.00  0.00     0.058 A 
ATOM     55  C   UNL     1       4.279   9.832  -3.434  1.00  0.00     0.135 A 
ATOM     56  C   UNL     1       5.344  10.210  -5.556  1.00  0.00     0.135 A 
ATOM     57  F   UNL     1       4.287   9.348  -2.182  1.00  0.00    -0.206 F 
ATOM     58  C   UNL     1       3.106  10.410  -3.909  1.00  0.00     0.059 A 
ATOM     59  C   UNL     1       4.189  10.814  -6.045  1.00  0.00     0.059 A 
ATOM     60  F   UNL     1       6.401  10.112  -6.377  1.00  0.00    -0.206 F 
ATOM     61  C   UNL     1       3.070  10.896  -5.218  1.00  0.00     0.060 A 
BRANCH  61  62
ATOM     62  S   UNL     1       1.540  11.641  -5.822  1.00  0.00     0.124 S 
ATOM     63  O   UNL     1       0.703  10.463  -6.022  1.00  0.00    -0.237 OA
ATOM     64  O   UNL     1       1.156  12.511  -4.715  1.00  0.00    -0.237 OA
ATOM     65  O   UNL     1       1.956  12.329  -7.040  1.00  0.00    -0.744 OA
ENDBRANCH  61  62
ENDBRANCH  40  54
BRANCH  41  66
ATOM     66  C   UNL     1      13.654   5.074  -0.908  1.00  0.00     0.058 A 
ATOM     67  C   UNL     1      14.136   5.263   0.394  1.00  0.00     0.135 A 
ATOM     68  C   UNL     1      14.371   4.210  -1.752  1.00  0.00     0.135 A 
ATOM     69  F   UNL     1      13.491   6.087   1.235  1.00  0.00    -0.206 F 
ATOM     70  C   UNL     1      15.293   4.633   0.842  1.00  0.00     0.059 A 
ATOM     71  C   UNL     1      15.516   3.549  -1.320  1.00  0.00     0.059 A 
ATOM     72  F   UNL     1      13.945   3.986  -3.005  1.00  0.00    -0.206 F 
ATOM     73  C   UNL     1      15.975   3.776  -0.023  1.00  0.00     0.060 A 
BRANCH  73  74
ATOM     74  S   UNL     1      17.451   2.927   0.580  1.00  0.00     0.124 S 
ATOM     75  O   UNL     1      18.436   4.002   0.561  1.00  0.00    -0.237 OA
ATOM     76  O   UNL     1      17.028   2.471   1.900  1.00  0.00    -0.237 OA
ATOM     77  O   UNL     1      17.653   1.868  -0.405  1.00  0.00    -0.744 OA
ENDBRANCH  73  74
ENDBRANCH  41  66
BRANCH  53  78
ATOM     78  C   UNL     1      12.092  11.711  -2.372  1.00  0.00     0.058 A 
ATOM     79  C   UNL     1      13.088  12.017  -3.312  1.00  0.00     0.135 A 
ATOM     80  C   UNL     1      11.822  12.653  -1.366  1.00  0.00     0.135 A 
ATOM     81  F   UNL     1      13.387  11.145  -4.287  1.00  0.00    -0.206 F 
ATOM     82  C   UNL     1      13.804  13.207  -3.245  1.00  0.00     0.059 A 
ATOM     83  C   UNL     1      12.510  13.859  -1.296  1.00  0.00     0.059 A 
ATOM     84  F   UNL     1      10.872  12.410  -0.450  1.00  0.00    -0.206 F 
ATOM     85  C   UNL     1      13.507  14.123  -2.234  1.00  0.00     0.060 A 
BRANCH  85  86
ATOM     86  S   UNL     1      14.420  15.679  -2.177  1.00  0.00     0.124 S 
ATOM     87  O   UNL     1      15.700  15.249  -1.626  1.00  0.00    -0.237 OA
ATOM     88  O   UNL     1      14.437  16.084  -3.580  1.00  0.00    -0.237 OA
ATOM     89  O   UNL     1      13.607  16.517  -1.300  1.00  0.00    -0.744 OA
ENDBRANCH  85  86
ENDBRANCH  53  78
ENDBRANCH  27  28
ENDBRANCH  20  22
ENDBRANCH  19  20
ENDBRANCH   1  19
TORSDOF 16
