REMARK SMILES COc1ccc(Br)c([C@H]2[NH2+][C@H](C(=O)OCCOC(=O)c3ccc(-c4c5nc(c(-c6c(F)cc(S(=O)(=O)[O-])cc6F)c6ccc([nH]6)c(-c6c(F)cc(S(=O)(=O)[O-])cc6F)c6nc(c(-c7c(F)cc(S(=O)(=O)[O-])cc7F)c7ccc4[nH]7)C=C6)C=C5)cc3)CS2)c1O
REMARK SMILES IDX 16 1 15 2 14 3 12 4 13 5 11 6 9 7 10 8 87 9 86 12 8 13 3 14
REMARK SMILES IDX 4 15 88 16 5 17 6 18 7 19 2 20 1 21 89 22 17 24 18 25 19 26
REMARK SMILES IDX 20 27 21 28 85 29 22 30 84 31 23 32 24 33 25 34 78 35 26 36
REMARK SMILES IDX 83 37 77 38 79 39 27 40 82 41 76 42 75 43 28 45 62 46 41 47
REMARK SMILES IDX 61 48 42 49 45 50 60 51 80 52 43 53 44 54 59 56 81 57 46 58
REMARK SMILES IDX 29 59 30 60 39 61 31 62 32 63 38 64 40 65 33 66 34 67 35 68
REMARK SMILES IDX 36 69 37 70 63 71 64 72 73 73 65 74 66 75 72 76 74 77 67 78
REMARK SMILES IDX 68 79 69 80 70 81 71 82 47 83 48 84 57 85 49 86 50 87 56 88
REMARK SMILES IDX 58 89 51 90 52 91 53 92 54 93 55 94
REMARK H PARENT 10 10 10 11 89 23 79 44 45 55
REMARK Flexibility Score: inf
ROOT
ATOM      1  C   UNL     1       2.658  -4.707   1.030  1.00  0.00     0.275 C 
ENDROOT
BRANCH   1   2
ATOM      2  C   UNL     1       2.371  -3.282   0.560  1.00  0.00     0.274 C 
BRANCH   2   3
ATOM      3  O   UNL     1       3.086  -2.980  -0.653  1.00  0.00    -0.458 OA
BRANCH   3   4
ATOM      4  C   UNL     1       4.137  -2.126  -0.541  1.00  0.00     0.365 C 
ATOM      5  O   UNL     1       4.474  -1.583   0.508  1.00  0.00    -0.245 OA
BRANCH   4   6
ATOM      6  C   UNL     1       4.852  -1.823  -1.863  1.00  0.00     0.304 C 
ATOM      7  C   UNL     1       3.481  -2.664  -3.640  1.00  0.00     0.279 C 
ATOM      8  N   UNL     1       4.744  -2.865  -2.913  1.00  0.00    -0.319 N 
ATOM      9  S   UNL     1       3.033  -0.902  -3.547  1.00  0.00    -0.087 SA
ATOM     10  H   UNL     1       5.530  -2.785  -3.559  1.00  0.00     0.348 HD
ATOM     11  H   UNL     1       4.760  -3.792  -2.489  1.00  0.00     0.348 HD
ATOM     12  C   UNL     1       4.397  -0.490  -2.432  1.00  0.00     0.153 C 
BRANCH   7  13
ATOM     13  C   UNL     1       3.543  -3.298  -5.023  1.00  0.00     0.080 A 
ATOM     14  C   UNL     1       4.183  -3.285  -7.398  1.00  0.00     0.161 A 
ATOM     15  C   UNL     1       3.719  -4.580  -7.574  1.00  0.00     0.051 A 
ATOM     16  C   UNL     1       4.098  -2.654  -6.146  1.00  0.00     0.169 A 
ATOM     17  C   UNL     1       3.198  -5.259  -6.479  1.00  0.00     0.020 A 
ATOM     18  C   UNL     1       3.111  -4.632  -5.223  1.00  0.00     0.032 A 
ATOM     19  Br  UNL     1       2.383  -5.712  -3.828  1.00  0.00    -0.050 Br
BRANCH  14  20
ATOM     20  O   UNL     1       4.661  -2.598  -8.486  1.00  0.00    -0.493 OA
ATOM     21  C   UNL     1       6.083  -2.720  -8.578  1.00  0.00     0.278 C 
ENDBRANCH  14  20
BRANCH  16  22
ATOM     22  O   UNL     1       4.597  -1.381  -6.052  1.00  0.00    -0.504 OA
ATOM     23  H   UNL     1       4.964  -0.965  -6.807  1.00  0.00     0.293 HD
ENDBRANCH  16  22
ENDBRANCH   7  13
ENDBRANCH   4   6
ENDBRANCH   3   4
ENDBRANCH   2   3
ENDBRANCH   1   2
BRANCH   1  24
ATOM     24  O   UNL     1       4.053  -4.875   1.333  1.00  0.00    -0.458 OA
BRANCH  24  25
ATOM     25  C   UNL     1       4.778  -5.472   0.356  1.00  0.00     0.338 C 
ATOM     26  O   UNL     1       4.374  -5.928  -0.697  1.00  0.00    -0.246 OA
BRANCH  25  27
ATOM     27  C   UNL     1       6.201  -5.431   0.720  1.00  0.00     0.060 A 
ATOM     28  C   UNL     1       7.049  -4.596  -0.011  1.00  0.00     0.016 A 
ATOM     29  C   UNL     1       6.706  -6.280   1.706  1.00  0.00     0.016 A 
ATOM     30  C   UNL     1       8.420  -4.613   0.239  1.00  0.00     0.010 A 
ATOM     31  C   UNL     1       8.082  -6.297   1.953  1.00  0.00     0.010 A 
ATOM     32  C   UNL     1       8.949  -5.476   1.211  1.00  0.00    -0.014 A 
BRANCH  32  33
ATOM     33  C   UNL     1      10.416  -5.566   1.404  1.00  0.00     0.031 A 
ATOM     34  C   UNL     1      11.169  -6.749   0.860  1.00  0.00     0.074 A 
ATOM     35  C   UNL     1      11.072  -4.587   2.054  1.00  0.00     0.049 A 
ATOM     36  N   UNL     1      12.435  -7.051   0.982  1.00  0.00    -0.248 NA
ATOM     37  C   UNL     1      10.391  -7.721   0.075  1.00  0.00     0.031 C 
ATOM     38  C   UNL     1      10.454  -3.377   2.598  1.00  0.00     0.029 A 
ATOM     39  N   UNL     1      12.400  -4.459   2.372  1.00  0.00    -0.354 N 
ATOM     40  C   UNL     1      12.606  -8.254   0.307  1.00  0.00     0.074 A 
ATOM     41  C   UNL     1      11.309  -8.634  -0.211  1.00  0.00     0.031 C 
ATOM     42  C   UNL     1      11.404  -2.629   3.184  1.00  0.00     0.029 A 
ATOM     43  C   UNL     1      12.686  -3.324   3.092  1.00  0.00     0.049 A 
ATOM     44  H   UNL     1      13.083  -5.117   2.110  1.00  0.00     0.167 HD
ATOM     45  C   UNL     1      13.741  -8.972   0.134  1.00  0.00     0.037 A 
ATOM     46  C   UNL     1      13.845  -2.904   3.636  1.00  0.00     0.037 A 
ATOM     47  C   UNL     1      15.031  -8.583   0.642  1.00  0.00     0.049 A 
ATOM     48  C   UNL     1      15.084  -3.741   3.466  1.00  0.00     0.074 A 
ATOM     49  C   UNL     1      16.244  -9.237   0.508  1.00  0.00     0.029 A 
ATOM     50  N   UNL     1      15.277  -7.436   1.382  1.00  0.00    -0.354 N 
ATOM     51  N   UNL     1      15.229  -4.877   2.827  1.00  0.00    -0.248 NA
ATOM     52  C   UNL     1      16.315  -3.242   4.096  1.00  0.00     0.031 C 
ATOM     53  C   UNL     1      17.217  -8.502   1.196  1.00  0.00     0.029 A 
ATOM     54  C   UNL     1      16.618  -7.371   1.725  1.00  0.00     0.049 A 
ATOM     55  H   UNL     1      14.599  -6.766   1.627  1.00  0.00     0.167 HD
ATOM     56  C   UNL     1      16.570  -5.221   2.963  1.00  0.00     0.074 A 
ATOM     57  C   UNL     1      17.195  -4.166   3.735  1.00  0.00     0.031 C 
ATOM     58  C   UNL     1      17.224  -6.311   2.492  1.00  0.00     0.037 A 
BRANCH  45  59
ATOM     59  C   UNL     1      13.633 -10.269  -0.618  1.00  0.00     0.058 A 
ATOM     60  C   UNL     1      13.466 -10.303  -2.011  1.00  0.00     0.135 A 
ATOM     61  C   UNL     1      13.722 -11.494   0.062  1.00  0.00     0.135 A 
ATOM     62  F   UNL     1      13.359  -9.160  -2.707  1.00  0.00    -0.206 F 
ATOM     63  C   UNL     1      13.367 -11.507  -2.701  1.00  0.00     0.059 A 
ATOM     64  C   UNL     1      13.646 -12.710  -0.611  1.00  0.00     0.059 A 
ATOM     65  F   UNL     1      13.880 -11.517   1.395  1.00  0.00    -0.206 F 
ATOM     66  C   UNL     1      13.453 -12.706  -1.992  1.00  0.00     0.060 A 
BRANCH  66  67
ATOM     67  S   UNL     1      13.319 -14.261  -2.898  1.00  0.00     0.124 S 
ATOM     68  O   UNL     1      11.884 -14.323  -3.158  1.00  0.00    -0.237 OA
ATOM     69  O   UNL     1      14.163 -14.021  -4.064  1.00  0.00    -0.237 OA
ATOM     70  O   UNL     1      13.829 -15.250  -1.953  1.00  0.00    -0.744 OA
ENDBRANCH  66  67
ENDBRANCH  45  59
BRANCH  46  71
ATOM     71  C   UNL     1      13.882  -1.635   4.409  1.00  0.00     0.058 A 
ATOM     72  C   UNL     1      14.518  -0.496   3.897  1.00  0.00     0.135 A 
ATOM     73  C   UNL     1      13.267  -1.534   5.666  1.00  0.00     0.135 A 
ATOM     74  F   UNL     1      15.129  -0.547   2.704  1.00  0.00    -0.206 F 
ATOM     75  C   UNL     1      14.552   0.700   4.609  1.00  0.00     0.059 A 
ATOM     76  C   UNL     1      13.267  -0.344   6.386  1.00  0.00     0.059 A 
ATOM     77  F   UNL     1      12.636  -2.595   6.194  1.00  0.00    -0.206 F 
ATOM     78  C   UNL     1      13.921   0.766   5.852  1.00  0.00     0.060 A 
BRANCH  78  79
ATOM     79  S   UNL     1      13.917   2.337   6.744  1.00  0.00     0.124 S 
ATOM     80  O   UNL     1      15.272   2.372   7.281  1.00  0.00    -0.237 OA
ATOM     81  O   UNL     1      13.626   3.295   5.681  1.00  0.00    -0.237 OA
ATOM     82  O   UNL     1      12.851   2.160   7.725  1.00  0.00    -0.744 OA
ENDBRANCH  78  79
ENDBRANCH  46  71
BRANCH  58  83
ATOM     83  C   UNL     1      18.696  -6.407   2.776  1.00  0.00     0.058 A 
ATOM     84  C   UNL     1      19.177  -6.763   4.045  1.00  0.00     0.135 A 
ATOM     85  C   UNL     1      19.634  -6.186   1.755  1.00  0.00     0.135 A 
ATOM     86  F   UNL     1      18.321  -6.978   5.056  1.00  0.00    -0.206 F 
ATOM     87  C   UNL     1      20.540  -6.878   4.298  1.00  0.00     0.059 A 
ATOM     88  C   UNL     1      21.000  -6.317   1.980  1.00  0.00     0.059 A 
ATOM     89  F   UNL     1      19.223  -5.852   0.521  1.00  0.00    -0.206 F 
ATOM     90  C   UNL     1      21.445  -6.652   3.258  1.00  0.00     0.060 A 
BRANCH  90  91
ATOM     91  S   UNL     1      23.211  -6.836   3.586  1.00  0.00     0.124 S 
ATOM     92  O   UNL     1      23.510  -5.592   4.287  1.00  0.00    -0.237 OA
ATOM     93  O   UNL     1      23.257  -8.049   4.398  1.00  0.00    -0.237 OA
ATOM     94  O   UNL     1      23.791  -6.962   2.252  1.00  0.00    -0.744 OA
ENDBRANCH  90  91
ENDBRANCH  58  83
ENDBRANCH  32  33
ENDBRANCH  25  27
ENDBRANCH  24  25
ENDBRANCH   1  24
TORSDOF 17
