REMARK SMILES Cc1nccn1C1(C(=O)OCCOC(=O)c2ccc(-c3c4nc(c(-c5c(F)cc(S(=O)(=O)[O-])cc5F)c5ccc([nH]5)c(-c5c(F)cc(S(=O)(=O)[O-])cc5F)c5nc(c(-c6c(F)cc(S(=O)(=O)[O-])cc6F)c6ccc3[nH]6)C=C5)C=C4)cc2)CCN(c2nccc3occc23)CC1
REMARK SMILES IDX 12 1 11 2 10 3 8 4 9 5 7 6 82 7 95 8 83 9 94 10 84 11 6 12
REMARK SMILES IDX 1 13 2 14 3 15 4 16 5 17 85 18 86 19 93 20 87 21 89 22 92 23
REMARK SMILES IDX 88 24 90 25 91 26 13 27 14 28 15 29 16 30 17 31 81 32 18 33
REMARK SMILES IDX 80 34 19 35 20 36 21 37 74 38 22 39 79 40 73 41 75 42 23 43
REMARK SMILES IDX 78 44 72 45 71 46 24 48 58 49 37 50 57 51 38 52 41 53 56 54
REMARK SMILES IDX 76 55 39 56 40 57 55 59 77 60 42 61 25 62 26 63 35 64 27 65
REMARK SMILES IDX 28 66 34 67 36 68 29 69 30 70 31 71 32 72 33 73 59 74 60 75
REMARK SMILES IDX 69 76 61 77 62 78 68 79 70 80 63 81 64 82 65 83 66 84 67 85
REMARK SMILES IDX 43 86 44 87 53 88 45 89 46 90 52 91 54 92 47 93 48 94 49 95
REMARK SMILES IDX 50 96 51 97
REMARK H PARENT 75 47 41 58
REMARK Flexibility Score: inf
ROOT
ATOM      1  C   UNL     1      -1.323   5.402   3.671  1.00  0.00     0.275 C 
ENDROOT
BRANCH   1   2
ATOM      2  C   UNL     1       0.057   5.502   3.030  1.00  0.00     0.274 C 
BRANCH   2   3
ATOM      3  O   UNL     1       0.223   4.574   1.934  1.00  0.00    -0.460 OA
BRANCH   3   4
ATOM      4  C   UNL     1       0.958   3.451   2.187  1.00  0.00     0.332 C 
ATOM      5  O   UNL     1       1.578   3.308   3.241  1.00  0.00    -0.249 OA
BRANCH   4   6
ATOM      6  C   UNL     1       1.080   2.441   0.972  1.00  0.00     0.146 C 
ATOM      7  C   UNL     1       0.085   2.772  -0.167  1.00  0.00     0.062 C 
ATOM      8  C   UNL     1       2.529   2.779   0.550  1.00  0.00     0.062 C 
ATOM      9  C   UNL     1       0.539   2.523  -1.612  1.00  0.00     0.121 C 
ATOM     10  C   UNL     1       2.958   2.374  -0.840  1.00  0.00     0.121 C 
ATOM     11  N   UNL     1       1.981   2.688  -1.867  1.00  0.00    -0.356 N 
BRANCH   6  12
ATOM     12  N   UNL     1       0.899   1.038   1.478  1.00  0.00    -0.318 N 
ATOM     13  C   UNL     1       1.546  -0.555  -0.485  1.00  0.00     0.087 C 
ATOM     14  C   UNL     1       1.112  -0.207   0.885  1.00  0.00     0.106 A 
ATOM     15  N   UNL     1       0.874  -1.194   1.732  1.00  0.00    -0.242 NA
ATOM     16  C   UNL     1       0.423  -0.630   2.873  1.00  0.00     0.131 A 
ATOM     17  C   UNL     1       0.405   0.729   2.739  1.00  0.00     0.108 A 
ENDBRANCH   6  12
BRANCH  11  18
ATOM     18  C   UNL     1       2.244   3.818  -2.639  1.00  0.00     0.139 A 
ATOM     19  N   UNL     1       2.464   4.987  -1.984  1.00  0.00    -0.238 NA
ATOM     20  C   UNL     1       2.049   3.884  -4.039  1.00  0.00     0.063 A 
ATOM     21  C   UNL     1       2.118   6.149  -2.574  1.00  0.00     0.117 A 
ATOM     22  C   UNL     1       1.615   5.101  -4.549  1.00  0.00     0.139 A 
ATOM     23  C   UNL     1       2.142   3.020  -5.171  1.00  0.00     0.054 A 
ATOM     24  C   UNL     1       1.495   6.255  -3.801  1.00  0.00     0.068 A 
ATOM     25  O   UNL     1       1.362   5.005  -5.882  1.00  0.00    -0.464 OA
ATOM     26  C   UNL     1       1.756   3.764  -6.266  1.00  0.00     0.196 A 
ENDBRANCH  11  18
ENDBRANCH   4   6
ENDBRANCH   3   4
ENDBRANCH   2   3
ENDBRANCH   1   2
BRANCH   1  27
ATOM     27  O   UNL     1      -1.516   4.181   4.389  1.00  0.00    -0.458 OA
BRANCH  27  28
ATOM     28  C   UNL     1      -2.002   3.186   3.632  1.00  0.00     0.338 C 
ATOM     29  O   UNL     1      -1.868   3.060   2.404  1.00  0.00    -0.246 OA
BRANCH  28  30
ATOM     30  C   UNL     1      -2.915   2.344   4.390  1.00  0.00     0.060 A 
ATOM     31  C   UNL     1      -3.357   1.175   3.765  1.00  0.00     0.016 A 
ATOM     32  C   UNL     1      -3.529   2.839   5.551  1.00  0.00     0.016 A 
ATOM     33  C   UNL     1      -4.517   0.588   4.211  1.00  0.00     0.010 A 
ATOM     34  C   UNL     1      -4.682   2.235   6.007  1.00  0.00     0.010 A 
ATOM     35  C   UNL     1      -5.205   1.162   5.287  1.00  0.00    -0.014 A 
BRANCH  35  36
ATOM     36  C   UNL     1      -6.448   0.521   5.684  1.00  0.00     0.031 A 
ATOM     37  C   UNL     1      -6.250  -0.868   6.163  1.00  0.00     0.074 A 
ATOM     38  C   UNL     1      -7.630   1.166   5.706  1.00  0.00     0.049 A 
ATOM     39  N   UNL     1      -6.720  -1.962   5.666  1.00  0.00    -0.248 NA
ATOM     40  C   UNL     1      -5.266  -1.072   7.242  1.00  0.00     0.031 C 
ATOM     41  C   UNL     1      -7.844   2.609   5.546  1.00  0.00     0.029 A 
ATOM     42  N   UNL     1      -8.877   0.699   6.004  1.00  0.00    -0.354 N 
ATOM     43  C   UNL     1      -6.293  -2.967   6.530  1.00  0.00     0.074 A 
ATOM     44  C   UNL     1      -5.251  -2.401   7.340  1.00  0.00     0.031 C 
ATOM     45  C   UNL     1      -9.075   2.926   6.000  1.00  0.00     0.029 A 
ATOM     46  C   UNL     1      -9.780   1.699   6.335  1.00  0.00     0.049 A 
ATOM     47  H   UNL     1      -9.113  -0.257   5.987  1.00  0.00     0.167 HD
ATOM     48  C   UNL     1      -7.056  -4.074   6.730  1.00  0.00     0.037 A 
ATOM     49  C   UNL     1     -10.993   1.543   6.917  1.00  0.00     0.037 A 
ATOM     50  C   UNL     1      -8.016  -4.247   5.672  1.00  0.00     0.049 A 
ATOM     51  C   UNL     1     -11.453   0.155   6.670  1.00  0.00     0.074 A 
ATOM     52  C   UNL     1      -8.017  -4.737   4.386  1.00  0.00     0.029 A 
ATOM     53  N   UNL     1      -9.168  -3.527   5.838  1.00  0.00    -0.354 N 
ATOM     54  N   UNL     1     -11.704  -0.323   5.480  1.00  0.00    -0.248 NA
ATOM     55  C   UNL     1     -11.331  -0.846   7.727  1.00  0.00     0.031 C 
ATOM     56  C   UNL     1      -9.157  -4.173   3.739  1.00  0.00     0.029 A 
ATOM     57  C   UNL     1      -9.832  -3.365   4.650  1.00  0.00     0.049 A 
ATOM     58  H   UNL     1      -9.481  -3.171   6.701  1.00  0.00     0.167 HD
ATOM     59  C   UNL     1     -11.363  -1.657   5.565  1.00  0.00     0.074 A 
ATOM     60  C   UNL     1     -11.312  -1.958   6.988  1.00  0.00     0.031 C 
ATOM     61  C   UNL     1     -10.820  -2.318   4.504  1.00  0.00     0.037 A 
BRANCH  48  62
ATOM     62  C   UNL     1      -7.290  -4.689   8.097  1.00  0.00     0.058 A 
ATOM     63  C   UNL     1      -8.023  -5.891   8.188  1.00  0.00     0.135 A 
ATOM     64  C   UNL     1      -7.115  -3.993   9.316  1.00  0.00     0.135 A 
ATOM     65  F   UNL     1      -8.250  -6.637   7.095  1.00  0.00    -0.206 F 
ATOM     66  C   UNL     1      -8.608  -6.321   9.381  1.00  0.00     0.059 A 
ATOM     67  C   UNL     1      -7.645  -4.431  10.523  1.00  0.00     0.059 A 
ATOM     68  F   UNL     1      -6.513  -2.801   9.387  1.00  0.00    -0.206 F 
ATOM     69  C   UNL     1      -8.430  -5.570  10.539  1.00  0.00     0.060 A 
BRANCH  69  70
ATOM     70  S   UNL     1      -9.283  -6.043  12.052  1.00  0.00     0.124 S 
ATOM     71  O   UNL     1     -10.667  -5.736  11.712  1.00  0.00    -0.237 OA
ATOM     72  O   UNL     1      -8.947  -7.459  12.159  1.00  0.00    -0.237 OA
ATOM     73  O   UNL     1      -8.674  -5.184  13.063  1.00  0.00    -0.744 OA
ENDBRANCH  69  70
ENDBRANCH  48  62
BRANCH  49  74
ATOM     74  C   UNL     1     -11.610   2.436   7.928  1.00  0.00     0.058 A 
ATOM     75  C   UNL     1     -12.985   2.394   8.205  1.00  0.00     0.135 A 
ATOM     76  C   UNL     1     -10.812   3.173   8.830  1.00  0.00     0.135 A 
ATOM     77  F   UNL     1     -13.810   1.694   7.412  1.00  0.00    -0.206 F 
ATOM     78  C   UNL     1     -13.536   3.018   9.329  1.00  0.00     0.059 A 
ATOM     79  C   UNL     1     -11.339   3.812   9.949  1.00  0.00     0.059 A 
ATOM     80  F   UNL     1      -9.478   3.221   8.694  1.00  0.00    -0.206 F 
ATOM     81  C   UNL     1     -12.700   3.712  10.205  1.00  0.00     0.060 A 
BRANCH  81  82
ATOM     82  S   UNL     1     -13.381   4.387  11.738  1.00  0.00     0.124 S 
ATOM     83  O   UNL     1     -14.220   5.472  11.240  1.00  0.00    -0.237 OA
ATOM     84  O   UNL     1     -14.086   3.237  12.293  1.00  0.00    -0.237 OA
ATOM     85  O   UNL     1     -12.195   4.807  12.480  1.00  0.00    -0.744 OA
ENDBRANCH  81  82
ENDBRANCH  49  74
BRANCH  61  86
ATOM     86  C   UNL     1     -11.143  -1.821   3.128  1.00  0.00     0.058 A 
ATOM     87  C   UNL     1     -10.686  -0.610   2.584  1.00  0.00     0.135 A 
ATOM     88  C   UNL     1     -11.898  -2.660   2.294  1.00  0.00     0.135 A 
ATOM     89  F   UNL     1      -9.896   0.208   3.294  1.00  0.00    -0.206 F 
ATOM     90  C   UNL     1     -10.997  -0.235   1.275  1.00  0.00     0.059 A 
ATOM     91  C   UNL     1     -12.196  -2.320   0.980  1.00  0.00     0.059 A 
ATOM     92  F   UNL     1     -12.325  -3.851   2.747  1.00  0.00    -0.206 F 
ATOM     93  C   UNL     1     -11.753  -1.099   0.480  1.00  0.00     0.060 A 
BRANCH  93  94
ATOM     94  S   UNL     1     -12.100  -0.645  -1.233  1.00  0.00     0.124 S 
ATOM     95  O   UNL     1     -13.070   0.433  -1.076  1.00  0.00    -0.237 OA
ATOM     96  O   UNL     1     -10.785  -0.249  -1.730  1.00  0.00    -0.237 OA
ATOM     97  O   UNL     1     -12.628  -1.878  -1.813  1.00  0.00    -0.744 OA
ENDBRANCH  93  94
ENDBRANCH  61  86
ENDBRANCH  35  36
ENDBRANCH  28  30
ENDBRANCH  27  28
ENDBRANCH   1  27
TORSDOF 16
