REMARK SMILES CCn1ncc(NC(=O)[C@@H]2CCCC[C@@H]2C(=O)OCCOC(=O)c2ccc(-c3c4nc(c(-c5c(F)cc(S(=O)(=O)[O-])cc5F)c5ccc([nH]5)c(-c5c(F)cc(S(=O)(=O)[O-])cc5F)c5nc(c(-c6c(F)cc(S(=O)(=O)[O-])cc6F)c6ccc3[nH]6)C=C5)C=C4)cc2)c1C(=O)Nc1cnn(C)c1C
REMARK SMILES IDX 19 1 18 2 16 3 17 4 15 5 10 6 11 7 12 8 14 9 13 10 8 11 7 12
REMARK SMILES IDX 9 14 6 15 3 16 4 17 90 18 5 19 2 20 1 21 91 22 92 23 93 24
REMARK SMILES IDX 94 26 95 27 99 28 96 29 97 30 100 31 98 32 20 33 21 34 22 35
REMARK SMILES IDX 23 36 24 37 25 38 89 39 26 40 88 41 27 42 28 43 29 44 82 45
REMARK SMILES IDX 30 46 87 47 81 48 83 49 31 50 86 51 80 52 79 53 32 55 66 56
REMARK SMILES IDX 45 57 65 58 46 59 49 60 64 61 84 62 47 63 48 64 63 66 85 67
REMARK SMILES IDX 50 68 33 69 34 70 43 71 35 72 36 73 42 74 44 75 37 76 38 77
REMARK SMILES IDX 39 78 40 79 41 80 67 81 68 82 77 83 69 84 70 85 76 86 78 87
REMARK SMILES IDX 71 88 72 89 73 90 74 91 75 92 51 93 52 94 61 95 53 96 54 97
REMARK SMILES IDX 60 98 62 99 55 100 56 101 57 102 58 103 59 104
REMARK H PARENT 7 13 93 25 83 54 49 65
REMARK Flexibility Score: inf
ROOT
ATOM      1  C   UNL     1      -5.152  -5.740   1.068  1.00  0.00     0.274 C 
ENDROOT
BRANCH   1   2
ATOM      2  O   UNL     1      -4.410  -6.215  -0.074  1.00  0.00    -0.462 OA
BRANCH   2   3
ATOM      3  C   UNL     1      -3.187  -5.646  -0.311  1.00  0.00     0.309 C 
ATOM      4  O   UNL     1      -2.659  -4.816   0.419  1.00  0.00    -0.252 OA
BRANCH   3   5
ATOM      5  C   UNL     1      -2.641  -6.097  -1.668  1.00  0.00     0.111 C 
ATOM      6  C   UNL     1      -1.289  -5.440  -2.068  1.00  0.00     0.093 C 
ATOM      7  C   UNL     1      -1.420  -3.940  -2.053  1.00  0.00     0.014 C 
ATOM      8  C   UNL     1      -2.613  -3.374  -2.810  1.00  0.00     0.001 C 
ATOM      9  C   UNL     1      -3.677  -5.679  -2.735  1.00  0.00     0.016 C 
ATOM     10  C   UNL     1      -3.903  -4.167  -2.721  1.00  0.00     0.001 C 
BRANCH   6  11
ATOM     11  C   UNL     1      -0.043  -6.116  -1.476  1.00  0.00     0.228 C 
ATOM     12  N   UNL     1       1.107  -5.548  -1.013  1.00  0.00    -0.322 N 
ATOM     13  H   UNL     1       1.842  -6.197  -0.924  1.00  0.00     0.170 HD
ATOM     14  O   UNL     1      -0.046  -7.359  -1.446  1.00  0.00    -0.274 OA
BRANCH  12  15
ATOM     15  C   UNL     1       1.479  -4.265  -0.640  1.00  0.00     0.092 A 
ATOM     16  N   UNL     1       1.531  -2.158  -0.194  1.00  0.00    -0.258 N 
ATOM     17  N   UNL     1       2.274  -2.689   0.805  1.00  0.00    -0.178 NA
ATOM     18  C   UNL     1       1.471  -3.020  -1.280  1.00  0.00     0.150 A 
ATOM     19  C   UNL     1       2.181  -3.997   0.565  1.00  0.00     0.162 A 
BRANCH  16  20
ATOM     20  C   UNL     1       0.501  -1.214   0.222  1.00  0.00     0.142 C 
ATOM     21  C   UNL     1       1.061   0.087   0.765  1.00  0.00     0.029 C 
ENDBRANCH  16  20
BRANCH  18  22
ATOM     22  C   UNL     1       1.450  -2.727  -2.710  1.00  0.00     0.276 C 
ATOM     23  O   UNL     1       1.865  -3.544  -3.538  1.00  0.00    -0.267 OA
ATOM     24  N   UNL     1       0.675  -1.701  -3.214  1.00  0.00    -0.318 N 
ATOM     25  H   UNL     1       0.037  -1.972  -3.913  1.00  0.00     0.170 HD
BRANCH  24  26
ATOM     26  C   UNL     1       0.647  -0.367  -2.901  1.00  0.00     0.082 A 
ATOM     27  C   UNL     1       1.680   0.485  -2.482  1.00  0.00     0.161 A 
ATOM     28  C   UNL     1      -0.476   0.437  -2.997  1.00  0.00     0.059 A 
ATOM     29  N   UNL     1       1.245   1.729  -2.267  1.00  0.00    -0.179 NA
ATOM     30  N   UNL     1      -0.076   1.660  -2.518  1.00  0.00    -0.271 N 
ATOM     31  C   UNL     1      -1.885   0.129  -3.351  1.00  0.00     0.068 C 
ATOM     32  C   UNL     1      -0.899   2.796  -2.170  1.00  0.00     0.174 C 
ENDBRANCH  24  26
ENDBRANCH  18  22
ENDBRANCH  12  15
ENDBRANCH   6  11
ENDBRANCH   3   5
ENDBRANCH   2   3
ENDBRANCH   1   2
BRANCH   1  33
ATOM     33  C   UNL     1      -4.885  -6.535   2.346  1.00  0.00     0.275 C 
BRANCH  33  34
ATOM     34  O   UNL     1      -3.582  -6.272   2.865  1.00  0.00    -0.458 OA
BRANCH  34  35
ATOM     35  C   UNL     1      -2.626  -7.047   2.303  1.00  0.00     0.338 C 
ATOM     36  O   UNL     1      -2.786  -7.882   1.428  1.00  0.00    -0.246 OA
BRANCH  35  37
ATOM     37  C   UNL     1      -1.316  -6.767   2.890  1.00  0.00     0.060 A 
ATOM     38  C   UNL     1      -0.205  -7.104   2.110  1.00  0.00     0.016 A 
ATOM     39  C   UNL     1      -1.200  -6.425   4.239  1.00  0.00     0.016 A 
ATOM     40  C   UNL     1       1.018  -7.264   2.717  1.00  0.00     0.010 A 
ATOM     41  C   UNL     1       0.027  -6.589   4.851  1.00  0.00     0.010 A 
ATOM     42  C   UNL     1       1.095  -7.095   4.098  1.00  0.00    -0.014 A 
BRANCH  42  43
ATOM     43  C   UNL     1       2.292  -7.601   4.750  1.00  0.00     0.031 A 
ATOM     44  C   UNL     1       3.518  -6.769   4.620  1.00  0.00     0.074 A 
ATOM     45  C   UNL     1       2.191  -8.713   5.507  1.00  0.00     0.049 A 
ATOM     46  N   UNL     1       4.731  -7.139   4.358  1.00  0.00    -0.248 NA
ATOM     47  C   UNL     1       3.350  -5.308   4.720  1.00  0.00     0.031 C 
ATOM     48  C   UNL     1       0.957  -9.432   5.862  1.00  0.00     0.029 A 
ATOM     49  N   UNL     1       3.134  -9.339   6.260  1.00  0.00    -0.354 N 
ATOM     50  C   UNL     1       5.511  -5.987   4.463  1.00  0.00     0.074 A 
ATOM     51  C   UNL     1       4.598  -4.880   4.547  1.00  0.00     0.031 C 
ATOM     52  C   UNL     1       1.189 -10.183   6.957  1.00  0.00     0.029 A 
ATOM     53  C   UNL     1       2.592 -10.066   7.311  1.00  0.00     0.049 A 
ATOM     54  H   UNL     1       4.100  -9.283   6.078  1.00  0.00     0.167 HD
ATOM     55  C   UNL     1       6.851  -6.036   4.697  1.00  0.00     0.037 A 
ATOM     56  C   UNL     1       3.216 -10.386   8.471  1.00  0.00     0.037 A 
ATOM     57  C   UNL     1       7.422  -7.281   4.254  1.00  0.00     0.049 A 
ATOM     58  C   UNL     1       4.681 -10.276   8.236  1.00  0.00     0.074 A 
ATOM     59  C   UNL     1       7.482  -7.934   3.037  1.00  0.00     0.029 A 
ATOM     60  N   UNL     1       7.800  -8.213   5.189  1.00  0.00    -0.354 N 
ATOM     61  N   UNL     1       5.359 -11.047   7.428  1.00  0.00    -0.248 NA
ATOM     62  C   UNL     1       5.330  -9.019   8.579  1.00  0.00     0.031 C 
ATOM     63  C   UNL     1       7.419  -9.321   3.351  1.00  0.00     0.029 A 
ATOM     64  C   UNL     1       7.347  -9.428   4.740  1.00  0.00     0.049 A 
ATOM     65  H   UNL     1       8.300  -8.043   6.020  1.00  0.00     0.167 HD
ATOM     66  C   UNL     1       6.310 -10.217   6.849  1.00  0.00     0.074 A 
ATOM     67  C   UNL     1       6.308  -9.010   7.670  1.00  0.00     0.031 C 
ATOM     68  C   UNL     1       6.811 -10.460   5.601  1.00  0.00     0.037 A 
BRANCH  55  69
ATOM     69  C   UNL     1       7.563  -5.092   5.644  1.00  0.00     0.058 A 
ATOM     70  C   UNL     1       8.966  -5.163   5.769  1.00  0.00     0.135 A 
ATOM     71  C   UNL     1       6.904  -4.340   6.646  1.00  0.00     0.135 A 
ATOM     72  F   UNL     1       9.701  -5.835   4.868  1.00  0.00    -0.206 F 
ATOM     73  C   UNL     1       9.647  -4.634   6.867  1.00  0.00     0.059 A 
ATOM     74  C   UNL     1       7.569  -3.760   7.719  1.00  0.00     0.059 A 
ATOM     75  F   UNL     1       5.573  -4.217   6.697  1.00  0.00    -0.206 F 
ATOM     76  C   UNL     1       8.931  -3.964   7.854  1.00  0.00     0.060 A 
BRANCH  76  77
ATOM     77  S   UNL     1       9.764  -3.450   9.366  1.00  0.00     0.124 S 
ATOM     78  O   UNL     1       9.991  -4.735  10.017  1.00  0.00    -0.237 OA
ATOM     79  O   UNL     1      10.951  -2.776   8.848  1.00  0.00    -0.237 OA
ATOM     80  O   UNL     1       8.786  -2.578  10.008  1.00  0.00    -0.744 OA
ENDBRANCH  76  77
ENDBRANCH  55  69
BRANCH  56  81
ATOM     81  C   UNL     1       2.586 -10.348   9.820  1.00  0.00     0.058 A 
ATOM     82  C   UNL     1       3.186 -10.961  10.931  1.00  0.00     0.135 A 
ATOM     83  C   UNL     1       1.473  -9.522  10.099  1.00  0.00     0.135 A 
ATOM     84  F   UNL     1       4.281 -11.720  10.771  1.00  0.00    -0.206 F 
ATOM     85  C   UNL     1       2.710 -10.770  12.236  1.00  0.00     0.059 A 
ATOM     86  C   UNL     1       0.964  -9.341  11.381  1.00  0.00     0.059 A 
ATOM     87  F   UNL     1       0.887  -8.790   9.141  1.00  0.00    -0.206 F 
ATOM     88  C   UNL     1       1.597  -9.955  12.450  1.00  0.00     0.060 A 
BRANCH  88  89
ATOM     89  S   UNL     1       1.035  -9.618  14.134  1.00  0.00     0.124 S 
ATOM     90  O   UNL     1       0.546 -10.926  14.557  1.00  0.00    -0.237 OA
ATOM     91  O   UNL     1       2.258  -9.154  14.780  1.00  0.00    -0.237 OA
ATOM     92  O   UNL     1       0.004  -8.599  13.952  1.00  0.00    -0.744 OA
ENDBRANCH  88  89
ENDBRANCH  56  81
BRANCH  68  93
ATOM     93  C   UNL     1       6.522 -11.790   4.954  1.00  0.00     0.058 A 
ATOM     94  C   UNL     1       5.231 -12.202   4.580  1.00  0.00     0.135 A 
ATOM     95  C   UNL     1       7.595 -12.588   4.531  1.00  0.00     0.135 A 
ATOM     96  F   UNL     1       4.164 -11.436   4.838  1.00  0.00    -0.206 F 
ATOM     97  C   UNL     1       5.011 -13.374   3.858  1.00  0.00     0.059 A 
ATOM     98  C   UNL     1       7.401 -13.749   3.782  1.00  0.00     0.059 A 
ATOM     99  F   UNL     1       8.858 -12.212   4.791  1.00  0.00    -0.206 F 
ATOM    100  C   UNL     1       6.103 -14.142   3.460  1.00  0.00     0.060 A 
BRANCH 100 101
ATOM    101  S   UNL     1       5.818 -15.603   2.437  1.00  0.00     0.124 S 
ATOM    102  O   UNL     1       5.299 -16.561   3.408  1.00  0.00    -0.237 OA
ATOM    103  O   UNL     1       4.858 -15.121   1.448  1.00  0.00    -0.237 OA
ATOM    104  O   UNL     1       7.143 -15.911   1.904  1.00  0.00    -0.744 OA
ENDBRANCH 100 101
ENDBRANCH  68  93
ENDBRANCH  42  43
ENDBRANCH  35  37
ENDBRANCH  34  35
ENDBRANCH  33  34
ENDBRANCH   1  33
TORSDOF 19
