REMARK SMILES Cc1nc2cc(C(=O)OCCOC(=O)c3ccc(-c4c5nc(c(-c6c(F)cc(S(=O)(=O)[O-])cc6F)c6ccc([nH]6)c(-c6c(F)cc(S(=O)(=O)[O-])cc6F)c6nc(c(-c7c(F)cc(S(=O)(=O)[O-])cc7F)c7ccc4[nH]7)C=C6)C=C5)cc3)ccc2n1CCC[NH+]1CCOCC1
REMARK SMILES IDX 10 1 9 2 7 3 8 4 6 5 1 6 2 7 3 8 84 9 4 10 83 11 5 12 82 13
REMARK SMILES IDX 81 14 85 15 86 16 87 17 88 18 89 19 93 20 90 22 92 23 91 24
REMARK SMILES IDX 11 25 12 26 13 27 14 28 15 29 16 30 80 31 17 32 79 33 18 34
REMARK SMILES IDX 19 35 20 36 73 37 21 38 78 39 72 40 74 41 22 42 77 43 71 44
REMARK SMILES IDX 70 45 23 47 57 48 36 49 56 50 37 51 40 52 55 53 75 54 38 55
REMARK SMILES IDX 39 56 54 58 76 59 41 60 24 61 25 62 34 63 26 64 27 65 33 66
REMARK SMILES IDX 35 67 28 68 29 69 30 70 31 71 32 72 58 73 59 74 68 75 60 76
REMARK SMILES IDX 61 77 67 78 69 79 62 80 63 81 64 82 65 83 66 84 42 85 43 86
REMARK SMILES IDX 52 87 44 88 45 89 51 90 53 91 46 92 47 93 48 94 49 95 50 96
REMARK H PARENT 88 21 74 46 40 57
REMARK Flexibility Score: inf
ROOT
ATOM      1  C   UNL     1      -1.935  -0.972  -9.359  1.00  0.00     0.275 C 
ENDROOT
BRANCH   1   2
ATOM      2  O   UNL     1      -1.336  -0.253  -8.252  1.00  0.00    -0.458 OA
BRANCH   2   3
ATOM      3  C   UNL     1      -2.219   0.283  -7.370  1.00  0.00     0.338 C 
ATOM      4  O   UNL     1      -3.436   0.253  -7.451  1.00  0.00    -0.246 OA
BRANCH   3   5
ATOM      5  C   UNL     1      -1.521   0.799  -6.172  1.00  0.00     0.062 A 
ATOM      6  C   UNL     1      -0.713  -0.058  -0.336  1.00  0.00     0.088 C 
ATOM      7  C   UNL     1      -0.714   0.437  -1.736  1.00  0.00     0.106 A 
ATOM      8  N   UNL     1      -0.815  -0.418  -2.733  1.00  0.00    -0.233 NA
ATOM      9  N   UNL     1      -0.653   1.734  -2.216  1.00  0.00    -0.328 N 
ATOM     10  C   UNL     1      -0.985   0.315  -3.862  1.00  0.00     0.090 A 
ATOM     11  C   UNL     1      -0.781   1.659  -3.614  1.00  0.00     0.068 A 
ATOM     12  C   UNL     1      -1.376  -0.108  -5.137  1.00  0.00     0.046 A 
ATOM     13  C   UNL     1      -0.821   2.596  -4.669  1.00  0.00     0.029 A 
ATOM     14  C   UNL     1      -1.207   2.138  -5.956  1.00  0.00     0.018 A 
BRANCH   9  15
ATOM     15  C   UNL     1      -0.604   3.013  -1.527  1.00  0.00     0.130 C 
BRANCH  15  16
ATOM     16  C   UNL     1      -0.773   3.166  -0.002  1.00  0.00     0.083 C 
BRANCH  16  17
ATOM     17  C   UNL     1       0.420   2.850   0.932  1.00  0.00     0.264 C 
BRANCH  17  18
ATOM     18  N   UNL     1       1.536   2.247   0.225  1.00  0.00    -0.331 N 
ATOM     19  C   UNL     1       2.514   3.232  -0.265  1.00  0.00     0.291 C 
ATOM     20  C   UNL     1       2.276   1.226   0.988  1.00  0.00     0.291 C 
ATOM     21  H   UNL     1       1.072   1.790  -0.560  1.00  0.00     0.348 HD
ATOM     22  C   UNL     1       3.443   2.508  -1.246  1.00  0.00     0.221 C 
ATOM     23  C   UNL     1       3.260   0.527   0.028  1.00  0.00     0.221 C 
ATOM     24  O   UNL     1       4.170   1.463  -0.581  1.00  0.00    -0.370 OA
ENDBRANCH  17  18
ENDBRANCH  16  17
ENDBRANCH  15  16
ENDBRANCH   9  15
ENDBRANCH   3   5
ENDBRANCH   2   3
ENDBRANCH   1   2
BRANCH   1  25
ATOM     25  C   UNL     1      -1.079  -2.195  -9.709  1.00  0.00     0.275 C 
BRANCH  25  26
ATOM     26  O   UNL     1      -1.336  -3.203  -8.720  1.00  0.00    -0.458 OA
BRANCH  26  27
ATOM     27  C   UNL     1      -0.275  -3.608  -7.978  1.00  0.00     0.338 C 
ATOM     28  O   UNL     1       0.896  -3.543  -8.278  1.00  0.00    -0.246 OA
BRANCH  27  29
ATOM     29  C   UNL     1      -0.803  -3.827  -6.611  1.00  0.00     0.060 A 
ATOM     30  C   UNL     1      -2.110  -4.279  -6.371  1.00  0.00     0.016 A 
ATOM     31  C   UNL     1      -0.040  -3.311  -5.573  1.00  0.00     0.016 A 
ATOM     32  C   UNL     1      -2.715  -4.055  -5.129  1.00  0.00     0.010 A 
ATOM     33  C   UNL     1      -0.647  -3.106  -4.340  1.00  0.00     0.010 A 
ATOM     34  C   UNL     1      -2.013  -3.385  -4.127  1.00  0.00    -0.014 A 
BRANCH  34  35
ATOM     35  C   UNL     1      -2.664  -3.000  -2.853  1.00  0.00     0.031 A 
ATOM     36  C   UNL     1      -2.148  -3.732  -1.670  1.00  0.00     0.074 A 
ATOM     37  C   UNL     1      -3.548  -1.988  -2.628  1.00  0.00     0.049 A 
ATOM     38  N   UNL     1      -2.774  -4.659  -1.018  1.00  0.00    -0.248 NA
ATOM     39  C   UNL     1      -0.771  -3.507  -1.205  1.00  0.00     0.031 C 
ATOM     40  C   UNL     1      -4.017  -0.957  -3.560  1.00  0.00     0.029 A 
ATOM     41  N   UNL     1      -4.138  -1.587  -1.445  1.00  0.00    -0.354 N 
ATOM     42  C   UNL     1      -1.950  -4.977   0.050  1.00  0.00     0.074 A 
ATOM     43  C   UNL     1      -0.662  -4.401  -0.224  1.00  0.00     0.031 C 
ATOM     44  C   UNL     1      -4.577   0.071  -2.874  1.00  0.00     0.029 A 
ATOM     45  C   UNL     1      -4.722  -0.317  -1.482  1.00  0.00     0.049 A 
ATOM     46  H   UNL     1      -4.146  -2.151  -0.638  1.00  0.00     0.167 HD
ATOM     47  C   UNL     1      -2.452  -5.440   1.223  1.00  0.00     0.037 A 
ATOM     48  C   UNL     1      -5.339   0.353  -0.470  1.00  0.00     0.037 A 
ATOM     49  C   UNL     1      -3.844  -5.778   1.125  1.00  0.00     0.049 A 
ATOM     50  C   UNL     1      -5.860  -0.667   0.465  1.00  0.00     0.074 A 
ATOM     51  C   UNL     1      -4.588  -6.800   0.580  1.00  0.00     0.029 A 
ATOM     52  N   UNL     1      -4.697  -4.734   1.360  1.00  0.00    -0.354 N 
ATOM     53  N   UNL     1      -6.833  -1.481   0.172  1.00  0.00    -0.248 NA
ATOM     54  C   UNL     1      -5.173  -0.934   1.724  1.00  0.00     0.031 C 
ATOM     55  C   UNL     1      -5.893  -6.273   0.347  1.00  0.00     0.029 A 
ATOM     56  C   UNL     1      -5.914  -4.945   0.761  1.00  0.00     0.049 A 
ATOM     57  H   UNL     1      -4.468  -3.936   1.889  1.00  0.00     0.167 HD
ATOM     58  C   UNL     1      -6.583  -2.585   0.950  1.00  0.00     0.074 A 
ATOM     59  C   UNL     1      -5.710  -2.121   2.016  1.00  0.00     0.031 C 
ATOM     60  C   UNL     1      -6.791  -3.835   0.456  1.00  0.00     0.037 A 
BRANCH  47  61
ATOM     61  C   UNL     1      -1.793  -5.191   2.549  1.00  0.00     0.058 A 
ATOM     62  C   UNL     1      -2.060  -6.042   3.633  1.00  0.00     0.135 A 
ATOM     63  C   UNL     1      -1.090  -4.001   2.847  1.00  0.00     0.135 A 
ATOM     64  F   UNL     1      -2.764  -7.171   3.454  1.00  0.00    -0.206 F 
ATOM     65  C   UNL     1      -1.655  -5.732   4.932  1.00  0.00     0.059 A 
ATOM     66  C   UNL     1      -0.626  -3.701   4.120  1.00  0.00     0.059 A 
ATOM     67  F   UNL     1      -0.904  -3.044   1.926  1.00  0.00    -0.206 F 
ATOM     68  C   UNL     1      -0.939  -4.559   5.164  1.00  0.00     0.060 A 
BRANCH  68  69
ATOM     69  S   UNL     1      -0.460  -4.133   6.847  1.00  0.00     0.124 S 
ATOM     70  O   UNL     1      -1.744  -3.761   7.430  1.00  0.00    -0.237 OA
ATOM     71  O   UNL     1       0.123  -5.383   7.325  1.00  0.00    -0.237 OA
ATOM     72  O   UNL     1       0.489  -3.040   6.658  1.00  0.00    -0.744 OA
ENDBRANCH  68  69
ENDBRANCH  47  61
BRANCH  48  73
ATOM     73  C   UNL     1      -5.562   1.795  -0.160  1.00  0.00     0.058 A 
ATOM     74  C   UNL     1      -6.529   2.184   0.794  1.00  0.00     0.135 A 
ATOM     75  C   UNL     1      -4.610   2.768  -0.500  1.00  0.00     0.135 A 
ATOM     76  F   UNL     1      -7.496   1.334   1.169  1.00  0.00    -0.206 F 
ATOM     77  C   UNL     1      -6.476   3.408   1.464  1.00  0.00     0.059 A 
ATOM     78  C   UNL     1      -4.544   4.007   0.149  1.00  0.00     0.059 A 
ATOM     79  F   UNL     1      -3.647   2.497  -1.391  1.00  0.00    -0.206 F 
ATOM     80  C   UNL     1      -5.450   4.297   1.167  1.00  0.00     0.060 A 
BRANCH  80  81
ATOM     81  S   UNL     1      -5.208   5.741   2.233  1.00  0.00     0.124 S 
ATOM     82  O   UNL     1      -6.361   6.568   1.895  1.00  0.00    -0.237 OA
ATOM     83  O   UNL     1      -5.219   5.144   3.564  1.00  0.00    -0.237 OA
ATOM     84  O   UNL     1      -3.913   6.261   1.801  1.00  0.00    -0.744 OA
ENDBRANCH  80  81
ENDBRANCH  48  73
BRANCH  60  85
ATOM     85  C   UNL     1      -7.854  -4.000  -0.592  1.00  0.00     0.058 A 
ATOM     86  C   UNL     1      -7.807  -3.458  -1.888  1.00  0.00     0.135 A 
ATOM     87  C   UNL     1      -8.965  -4.795  -0.271  1.00  0.00     0.135 A 
ATOM     88  F   UNL     1      -6.751  -2.743  -2.300  1.00  0.00    -0.206 F 
ATOM     89  C   UNL     1      -8.832  -3.673  -2.812  1.00  0.00     0.059 A 
ATOM     90  C   UNL     1      -9.983  -5.050  -1.186  1.00  0.00     0.059 A 
ATOM     91  F   UNL     1      -9.056  -5.366   0.942  1.00  0.00    -0.206 F 
ATOM     92  C   UNL     1      -9.915  -4.476  -2.453  1.00  0.00     0.060 A 
BRANCH  92  93
ATOM     93  S   UNL     1     -11.197  -4.828  -3.675  1.00  0.00     0.124 S 
ATOM     94  O   UNL     1     -11.907  -3.557  -3.755  1.00  0.00    -0.237 OA
ATOM     95  O   UNL     1     -10.419  -5.196  -4.855  1.00  0.00    -0.237 OA
ATOM     96  O   UNL     1     -11.950  -5.926  -3.072  1.00  0.00    -0.744 OA
ENDBRANCH  92  93
ENDBRANCH  60  85
ENDBRANCH  34  35
ENDBRANCH  27  29
ENDBRANCH  26  27
ENDBRANCH  25  26
ENDBRANCH   1  25
TORSDOF 18
