REMARK SMILES O=C(OCCOC(=O)c1nn(Cc2ccc(F)cc2)c2c1CN(C(=O)[C@H]1CC1(F)F)CC2)c1ccc(-c2c3nc(c(-c4c(F)cc(S(=O)(=O)[O-])cc4F)c4ccc([nH]4)c(-c4c(F)cc(S(=O)(=O)[O-])cc4F)c4nc(c(-c5c(F)cc(S(=O)(=O)[O-])cc5F)c5ccc2[nH]5)C=C4)C=C3)cc1
REMARK SMILES IDX 4 1 3 2 2 3 1 4 33 5 34 6 98 7 35 8 97 9 36 10 37 11 38 12
REMARK SMILES IDX 91 13 39 14 96 15 90 16 92 17 40 18 95 19 89 20 88 21 41 23
REMARK SMILES IDX 75 24 54 25 74 26 55 27 58 28 73 29 93 30 56 31 57 32 72 34
REMARK SMILES IDX 94 35 59 36 42 37 43 38 52 39 44 40 45 41 51 42 53 43 46 44
REMARK SMILES IDX 47 45 48 46 49 47 50 48 76 49 77 50 86 51 78 52 79 53 85 54
REMARK SMILES IDX 87 55 80 56 81 57 82 58 83 59 84 60 60 61 61 62 70 63 62 64
REMARK SMILES IDX 63 65 69 66 71 67 64 68 65 69 66 70 67 71 68 72 5 73 6 74
REMARK SMILES IDX 7 75 8 76 9 77 10 78 21 79 11 80 20 81 22 82 32 83 23 84
REMARK SMILES IDX 31 85 12 86 13 87 14 88 19 89 15 90 18 91 16 92 17 93 24 94
REMARK SMILES IDX 25 95 26 96 27 97 28 98 29 99 30 100
REMARK H PARENT 92 22 58 33
REMARK Flexibility Score: inf
ROOT
ATOM      1  C   UNL     1      -9.095   3.486  -2.453  1.00  0.00     0.275 C 
ENDROOT
BRANCH   1   2
ATOM      2  O   UNL     1      -7.822   3.620  -3.111  1.00  0.00    -0.458 OA
BRANCH   2   3
ATOM      3  C   UNL     1      -7.220   2.506  -3.570  1.00  0.00     0.338 C 
ATOM      4  O   UNL     1      -7.564   1.874  -4.551  1.00  0.00    -0.246 OA
BRANCH   3   5
ATOM      5  C   UNL     1      -6.051   2.171  -2.729  1.00  0.00     0.060 A 
ATOM      6  C   UNL     1      -5.986   2.528  -1.378  1.00  0.00     0.016 A 
ATOM      7  C   UNL     1      -5.044   1.393  -3.292  1.00  0.00     0.016 A 
ATOM      8  C   UNL     1      -4.898   2.135  -0.605  1.00  0.00     0.010 A 
ATOM      9  C   UNL     1      -3.995   0.945  -2.496  1.00  0.00     0.010 A 
ATOM     10  C   UNL     1      -3.884   1.345  -1.159  1.00  0.00    -0.014 A 
BRANCH  10  11
ATOM     11  C   UNL     1      -2.751   0.951  -0.302  1.00  0.00     0.031 A 
ATOM     12  C   UNL     1      -3.044   0.490   1.107  1.00  0.00     0.074 A 
ATOM     13  C   UNL     1      -1.472   0.894  -0.741  1.00  0.00     0.049 A 
ATOM     14  N   UNL     1      -2.499   0.880   2.218  1.00  0.00    -0.248 NA
ATOM     15  C   UNL     1      -4.082  -0.532   1.314  1.00  0.00     0.031 C 
ATOM     16  C   UNL     1      -0.933   1.079  -2.095  1.00  0.00     0.029 A 
ATOM     17  N   UNL     1      -0.357   0.584  -0.019  1.00  0.00    -0.354 N 
ATOM     18  C   UNL     1      -3.011   0.068   3.233  1.00  0.00     0.074 A 
ATOM     19  C   UNL     1      -3.973  -0.805   2.615  1.00  0.00     0.031 C 
ATOM     20  C   UNL     1       0.354   0.669  -2.135  1.00  0.00     0.029 A 
ATOM     21  C   UNL     1       0.783   0.384  -0.781  1.00  0.00     0.049 A 
ATOM     22  H   UNL     1      -0.362   0.507   0.962  1.00  0.00     0.167 HD
ATOM     23  C   UNL     1      -2.603   0.133   4.531  1.00  0.00     0.037 A 
ATOM     24  C   UNL     1       2.014   0.036  -0.344  1.00  0.00     0.037 A 
ATOM     25  C   UNL     1      -2.029   1.410   4.840  1.00  0.00     0.049 A 
ATOM     26  C   UNL     1       2.100   0.439   1.079  1.00  0.00     0.074 A 
ATOM     27  C   UNL     1      -2.531   2.698   4.847  1.00  0.00     0.029 A 
ATOM     28  N   UNL     1      -0.666   1.551   4.863  1.00  0.00    -0.354 N 
ATOM     29  N   UNL     1       2.084   1.678   1.490  1.00  0.00    -0.248 NA
ATOM     30  C   UNL     1       1.799  -0.561   2.089  1.00  0.00     0.031 C 
ATOM     31  C   UNL     1      -1.476   3.499   4.325  1.00  0.00     0.029 A 
ATOM     32  C   UNL     1      -0.390   2.652   4.090  1.00  0.00     0.049 A 
ATOM     33  H   UNL     1      -0.018   0.981   5.336  1.00  0.00     0.167 HD
ATOM     34  C   UNL     1       1.389   1.647   2.688  1.00  0.00     0.074 A 
ATOM     35  C   UNL     1       1.319   0.233   3.047  1.00  0.00     0.031 C 
ATOM     36  C   UNL     1       0.713   2.737   3.157  1.00  0.00     0.037 A 
BRANCH  23  37
ATOM     37  C   UNL     1      -2.586  -1.025   5.491  1.00  0.00     0.058 A 
ATOM     38  C   UNL     1      -2.424  -2.356   5.054  1.00  0.00     0.135 A 
ATOM     39  C   UNL     1      -2.451  -0.810   6.878  1.00  0.00     0.135 A 
ATOM     40  F   UNL     1      -2.473  -2.675   3.752  1.00  0.00    -0.206 F 
ATOM     41  C   UNL     1      -2.124  -3.399   5.926  1.00  0.00     0.059 A 
ATOM     42  C   UNL     1      -2.122  -1.837   7.768  1.00  0.00     0.059 A 
ATOM     43  F   UNL     1      -2.580   0.422   7.395  1.00  0.00    -0.206 F 
ATOM     44  C   UNL     1      -1.947  -3.127   7.278  1.00  0.00     0.060 A 
BRANCH  44  45
ATOM     45  S   UNL     1      -1.389  -4.468   8.348  1.00  0.00     0.124 S 
ATOM     46  O   UNL     1      -2.553  -5.349   8.340  1.00  0.00    -0.237 OA
ATOM     47  O   UNL     1      -0.217  -4.957   7.630  1.00  0.00    -0.237 OA
ATOM     48  O   UNL     1      -1.114  -3.799   9.615  1.00  0.00    -0.744 OA
ENDBRANCH  44  45
ENDBRANCH  23  37
BRANCH  24  49
ATOM     49  C   UNL     1       2.962  -0.909  -0.980  1.00  0.00     0.058 A 
ATOM     50  C   UNL     1       2.502  -1.958  -1.803  1.00  0.00     0.135 A 
ATOM     51  C   UNL     1       4.301  -0.983  -0.559  1.00  0.00     0.135 A 
ATOM     52  F   UNL     1       1.226  -2.003  -2.218  1.00  0.00    -0.206 F 
ATOM     53  C   UNL     1       3.303  -3.045  -2.139  1.00  0.00     0.059 A 
ATOM     54  C   UNL     1       5.122  -2.069  -0.879  1.00  0.00     0.059 A 
ATOM     55  F   UNL     1       4.809  -0.032   0.238  1.00  0.00    -0.206 F 
ATOM     56  C   UNL     1       4.601  -3.111  -1.642  1.00  0.00     0.060 A 
BRANCH  56  57
ATOM     57  S   UNL     1       5.537  -4.631  -1.918  1.00  0.00     0.124 S 
ATOM     58  O   UNL     1       4.704  -5.618  -1.238  1.00  0.00    -0.237 OA
ATOM     59  O   UNL     1       5.556  -4.716  -3.375  1.00  0.00    -0.237 OA
ATOM     60  O   UNL     1       6.825  -4.358  -1.289  1.00  0.00    -0.744 OA
ENDBRANCH  56  57
ENDBRANCH  24  49
BRANCH  36  61
ATOM     61  C   UNL     1       0.910   4.074   2.485  1.00  0.00     0.058 A 
ATOM     62  C   UNL     1       1.284   5.169   3.280  1.00  0.00     0.135 A 
ATOM     63  C   UNL     1       0.539   4.349   1.156  1.00  0.00     0.135 A 
ATOM     64  F   UNL     1       1.597   4.985   4.574  1.00  0.00    -0.206 F 
ATOM     65  C   UNL     1       1.269   6.474   2.795  1.00  0.00     0.059 A 
ATOM     66  C   UNL     1       0.549   5.647   0.637  1.00  0.00     0.059 A 
ATOM     67  F   UNL     1       0.079   3.380   0.354  1.00  0.00    -0.206 F 
ATOM     68  C   UNL     1       0.893   6.706   1.473  1.00  0.00     0.060 A 
BRANCH  68  69
ATOM     69  S   UNL     1       0.817   8.414   0.891  1.00  0.00     0.124 S 
ATOM     70  O   UNL     1      -0.318   8.939   1.645  1.00  0.00    -0.237 OA
ATOM     71  O   UNL     1       2.124   8.935   1.279  1.00  0.00    -0.237 OA
ATOM     72  O   UNL     1       0.602   8.284  -0.547  1.00  0.00    -0.744 OA
ENDBRANCH  68  69
ENDBRANCH  36  61
ENDBRANCH  10  11
ENDBRANCH   3   5
ENDBRANCH   2   3
ENDBRANCH   1   2
BRANCH   1  73
ATOM     73  C   UNL     1      -9.826   2.141  -2.538  1.00  0.00     0.275 C 
BRANCH  73  74
ATOM     74  O   UNL     1      -9.108   1.110  -1.836  1.00  0.00    -0.457 OA
BRANCH  74  75
ATOM     75  C   UNL     1      -9.006  -0.113  -2.455  1.00  0.00     0.359 C 
ATOM     76  O   UNL     1      -9.421  -0.370  -3.577  1.00  0.00    -0.244 OA
BRANCH  75  77
ATOM     77  C   UNL     1      -8.377  -1.116  -1.588  1.00  0.00     0.175 A 
ATOM     78  N   UNL     1      -8.954  -1.449  -0.413  1.00  0.00    -0.165 NA
ATOM     79  C   UNL     1      -7.209  -1.902  -1.814  1.00  0.00     0.028 A 
ATOM     80  N   UNL     1      -8.163  -2.412   0.107  1.00  0.00    -0.264 N 
ATOM     81  C   UNL     1      -7.054  -2.629  -0.653  1.00  0.00     0.046 A 
ATOM     82  C   UNL     1      -6.260  -1.978  -2.962  1.00  0.00     0.159 C 
ATOM     83  C   UNL     1      -5.909  -3.519  -0.362  1.00  0.00     0.078 C 
ATOM     84  N   UNL     1      -5.119  -2.879  -2.663  1.00  0.00    -0.337 N 
ATOM     85  C   UNL     1      -4.732  -3.094  -1.256  1.00  0.00     0.126 C 
BRANCH  80  86
ATOM     86  C   UNL     1      -8.654  -3.245   1.200  1.00  0.00     0.180 C 
BRANCH  86  87
ATOM     87  C   UNL     1      -8.837  -2.497   2.495  1.00  0.00    -0.026 A 
ATOM     88  C   UNL     1      -9.904  -1.595   2.649  1.00  0.00     0.008 A 
ATOM     89  C   UNL     1      -7.976  -2.727   3.580  1.00  0.00     0.008 A 
ATOM     90  C   UNL     1     -10.112  -0.944   3.863  1.00  0.00     0.039 A 
ATOM     91  C   UNL     1      -8.191  -2.077   4.797  1.00  0.00     0.039 A 
ATOM     92  C   UNL     1      -9.258  -1.196   4.928  1.00  0.00     0.123 A 
ATOM     93  F   UNL     1      -9.474  -0.587   6.101  1.00  0.00    -0.207 F 
ENDBRANCH  86  87
ENDBRANCH  80  86
BRANCH  84  94
ATOM     94  C   UNL     1      -4.271  -3.204  -3.720  1.00  0.00     0.232 C 
ATOM     95  O   UNL     1      -4.445  -2.801  -4.864  1.00  0.00    -0.274 OA
BRANCH  94  96
ATOM     96  C   UNL     1      -3.092  -4.043  -3.409  1.00  0.00     0.154 C 
ATOM     97  C   UNL     1      -3.282  -5.484  -2.950  1.00  0.00     0.097 C 
ATOM     98  C   UNL     1      -2.731  -5.177  -4.290  1.00  0.00     0.260 C 
ATOM     99  F   UNL     1      -3.462  -5.534  -5.398  1.00  0.00    -0.206 F 
ATOM    100  F   UNL     1      -1.418  -5.495  -4.547  1.00  0.00    -0.206 F 
ENDBRANCH  94  96
ENDBRANCH  84  94
ENDBRANCH  75  77
ENDBRANCH  74  75
ENDBRANCH  73  74
ENDBRANCH   1  73
TORSDOF 18
