REMARK SMILES CCOc1ccc(CNC(=O)Cc2c(C(=O)OCCOC(=O)c3ccc(-c4c5nc(c(-c6c(F)cc(S(=O)(=O)[O-])cc6F)c6ccc([nH]6)c(-c6c(F)cc(S(=O)(=O)[O-])cc6F)c6nc(c(-c7c(F)cc(S(=O)(=O)[O-])cc7F)c7ccc4[nH]7)C=C6)C=C5)cc3)c(C)cn2C)cc1
REMARK SMILES IDX 17 1 15 2 16 3 14 4 13 5 92 6 89 7 91 8 93 9 90 10 12 11
REMARK SMILES IDX 10 12 9 13 11 15 8 16 7 17 4 18 5 19 95 20 6 21 94 22 3 23
REMARK SMILES IDX 2 24 1 25 18 26 19 27 20 28 21 29 22 30 23 31 24 32 88 33
REMARK SMILES IDX 25 34 87 35 26 36 27 37 28 38 81 39 29 40 86 41 80 42 82 43
REMARK SMILES IDX 30 44 85 45 79 46 78 47 31 49 65 50 44 51 64 52 45 53 48 54
REMARK SMILES IDX 63 55 83 56 46 57 47 58 62 60 84 61 49 62 32 63 33 64 42 65
REMARK SMILES IDX 34 66 35 67 41 68 43 69 36 70 37 71 38 72 39 73 40 74 66 75
REMARK SMILES IDX 67 76 76 77 68 78 69 79 75 80 77 81 70 82 71 83 72 84 73 85
REMARK SMILES IDX 74 86 50 87 51 88 60 89 52 90 53 91 59 92 61 93 54 94 55 95
REMARK SMILES IDX 56 96 57 97 58 98
REMARK H PARENT 9 14 82 48 48 59
REMARK Flexibility Score: inf
ROOT
ATOM      1  O   UNL     1       3.488  -1.804  -6.367  1.00  0.00    -0.458 OA
ENDROOT
BRANCH   1   2
ATOM      2  C   UNL     1       4.811  -1.719  -6.003  1.00  0.00     0.340 C 
ATOM      3  O   UNL     1       5.436  -2.683  -5.602  1.00  0.00    -0.246 OA
BRANCH   2   4
ATOM      4  C   UNL     1       5.383  -0.359  -6.133  1.00  0.00     0.084 A 
ATOM      5  C   UNL     1       6.681   0.051  -5.766  1.00  0.00     0.041 A 
ATOM      6  N   UNL     1       6.756   1.414  -6.003  1.00  0.00    -0.353 N 
ATOM      7  C   UNL     1       4.678   0.835  -6.551  1.00  0.00    -0.019 A 
ATOM      8  C   UNL     1       5.554   1.889  -6.436  1.00  0.00     0.089 A 
ATOM      9  C   UNL     1       7.914   2.265  -5.806  1.00  0.00     0.149 C 
ATOM     10  C   UNL     1       3.253   0.957  -6.970  1.00  0.00     0.047 C 
BRANCH   5  11
ATOM     11  C   UNL     1       7.899  -0.685  -5.238  1.00  0.00     0.154 C 
BRANCH  11  12
ATOM     12  C   UNL     1       7.652  -1.927  -4.403  1.00  0.00     0.226 C 
ATOM     13  N   UNL     1       6.895  -1.877  -3.266  1.00  0.00    -0.352 N 
ATOM     14  H   UNL     1       6.623  -2.752  -2.905  1.00  0.00     0.163 HD
ATOM     15  O   UNL     1       8.209  -2.994  -4.680  1.00  0.00    -0.275 OA
BRANCH  13  16
ATOM     16  C   UNL     1       6.435  -0.732  -2.514  1.00  0.00     0.151 C 
BRANCH  16  17
ATOM     17  C   UNL     1       4.954  -0.767  -2.217  1.00  0.00    -0.029 A 
ATOM     18  C   UNL     1       2.184  -0.797  -1.747  1.00  0.00     0.119 A 
ATOM     19  C   UNL     1       2.663  -0.319  -2.952  1.00  0.00     0.047 A 
ATOM     20  C   UNL     1       3.064  -1.287  -0.783  1.00  0.00     0.047 A 
ATOM     21  C   UNL     1       4.039  -0.262  -3.147  1.00  0.00     0.009 A 
ATOM     22  C   UNL     1       4.445  -1.282  -1.021  1.00  0.00     0.009 A 
BRANCH  18  23
ATOM     23  O   UNL     1       0.838  -0.821  -1.521  1.00  0.00    -0.494 OA
BRANCH  23  24
ATOM     24  C   UNL     1       0.382   0.429  -0.988  1.00  0.00     0.226 C 
ATOM     25  C   UNL     1       0.461   0.403   0.529  1.00  0.00     0.049 C 
ENDBRANCH  23  24
ENDBRANCH  18  23
ENDBRANCH  16  17
ENDBRANCH  13  16
ENDBRANCH  11  12
ENDBRANCH   5  11
ENDBRANCH   2   4
ENDBRANCH   1   2
BRANCH   1  26
ATOM     26  C   UNL     1       2.908  -3.123  -6.320  1.00  0.00     0.275 C 
BRANCH  26  27
ATOM     27  C   UNL     1       3.109  -3.907  -7.617  1.00  0.00     0.275 C 
BRANCH  27  28
ATOM     28  O   UNL     1       4.490  -4.158  -7.838  1.00  0.00    -0.458 OA
BRANCH  28  29
ATOM     29  C   UNL     1       5.160  -3.146  -8.434  1.00  0.00     0.338 C 
ATOM     30  O   UNL     1       4.677  -2.117  -8.883  1.00  0.00    -0.246 OA
BRANCH  29  31
ATOM     31  C   UNL     1       6.585  -3.480  -8.499  1.00  0.00     0.060 A 
ATOM     32  C   UNL     1       7.410  -2.550  -9.136  1.00  0.00     0.016 A 
ATOM     33  C   UNL     1       6.979  -4.803  -8.269  1.00  0.00     0.016 A 
ATOM     34  C   UNL     1       8.456  -3.040  -9.876  1.00  0.00     0.010 A 
ATOM     35  C   UNL     1       8.026  -5.289  -8.998  1.00  0.00     0.010 A 
ATOM     36  C   UNL     1       8.631  -4.425  -9.903  1.00  0.00    -0.014 A 
BRANCH  36  37
ATOM     37  C   UNL     1       9.398  -5.001 -10.977  1.00  0.00     0.031 A 
ATOM     38  C   UNL     1      10.838  -5.033 -10.687  1.00  0.00     0.074 A 
ATOM     39  C   UNL     1       8.793  -5.524 -12.061  1.00  0.00     0.049 A 
ATOM     40  N   UNL     1      11.740  -4.227 -11.135  1.00  0.00    -0.248 NA
ATOM     41  C   UNL     1      11.288  -5.896  -9.585  1.00  0.00     0.031 C 
ATOM     42  C   UNL     1       7.367  -5.745 -12.322  1.00  0.00     0.029 A 
ATOM     43  N   UNL     1       9.386  -6.035 -13.171  1.00  0.00    -0.354 N 
ATOM     44  C   UNL     1      12.922  -4.654 -10.549  1.00  0.00     0.074 A 
ATOM     45  C   UNL     1      12.543  -5.475  -9.431  1.00  0.00     0.031 C 
ATOM     46  C   UNL     1       7.226  -6.539 -13.412  1.00  0.00     0.029 A 
ATOM     47  C   UNL     1       8.535  -6.766 -13.996  1.00  0.00     0.049 A 
ATOM     48  H   UNL     1      10.340  -5.900 -13.375  1.00  0.00     0.167 HD
ATOM     49  C   UNL     1      14.108  -4.549 -11.205  1.00  0.00     0.037 A 
ATOM     50  C   UNL     1       8.949  -7.560 -15.021  1.00  0.00     0.037 A 
ATOM     51  C   UNL     1      14.008  -3.638 -12.321  1.00  0.00     0.049 A 
ATOM     52  C   UNL     1      10.302  -7.054 -15.410  1.00  0.00     0.074 A 
ATOM     53  C   UNL     1      13.709  -2.294 -12.441  1.00  0.00     0.029 A 
ATOM     54  N   UNL     1      13.810  -4.179 -13.571  1.00  0.00    -0.354 N 
ATOM     55  N   UNL     1      10.496  -5.861 -15.915  1.00  0.00    -0.248 NA
ATOM     56  C   UNL     1      11.459  -7.638 -14.741  1.00  0.00     0.031 C 
ATOM     57  C   UNL     1      12.896  -2.197 -13.610  1.00  0.00     0.029 A 
ATOM     58  C   UNL     1      12.801  -3.469 -14.178  1.00  0.00     0.049 A 
ATOM     59  H   UNL     1      14.302  -4.938 -13.960  1.00  0.00     0.167 HD
ATOM     60  C   UNL     1      11.642  -5.380 -15.289  1.00  0.00     0.074 A 
ATOM     61  C   UNL     1      12.214  -6.542 -14.607  1.00  0.00     0.031 C 
ATOM     62  C   UNL     1      11.862  -4.040 -15.123  1.00  0.00     0.037 A 
BRANCH  49  63
ATOM     63  C   UNL     1      15.221  -5.555 -11.066  1.00  0.00     0.058 A 
ATOM     64  C   UNL     1      16.481  -5.259 -11.617  1.00  0.00     0.135 A 
ATOM     65  C   UNL     1      15.035  -6.894 -10.648  1.00  0.00     0.135 A 
ATOM     66  F   UNL     1      16.764  -4.020 -12.049  1.00  0.00    -0.206 F 
ATOM     67  C   UNL     1      17.456  -6.238 -11.806  1.00  0.00     0.059 A 
ATOM     68  C   UNL     1      16.014  -7.869 -10.771  1.00  0.00     0.059 A 
ATOM     69  F   UNL     1      13.865  -7.356 -10.193  1.00  0.00    -0.206 F 
ATOM     70  C   UNL     1      17.204  -7.544 -11.393  1.00  0.00     0.060 A 
BRANCH  70  71
ATOM     71  S   UNL     1      18.408  -8.833 -11.743  1.00  0.00     0.124 S 
ATOM     72  O   UNL     1      18.335  -8.911 -13.197  1.00  0.00    -0.237 OA
ATOM     73  O   UNL     1      19.631  -8.259 -11.192  1.00  0.00    -0.237 OA
ATOM     74  O   UNL     1      17.884  -9.989 -11.022  1.00  0.00    -0.744 OA
ENDBRANCH  70  71
ENDBRANCH  49  63
BRANCH  50  75
ATOM     75  C   UNL     1       8.464  -8.939 -15.321  1.00  0.00     0.058 A 
ATOM     76  C   UNL     1       8.789  -9.606 -16.516  1.00  0.00     0.135 A 
ATOM     77  C   UNL     1       7.876  -9.737 -14.316  1.00  0.00     0.135 A 
ATOM     78  F   UNL     1       9.379  -8.938 -17.520  1.00  0.00    -0.206 F 
ATOM     79  C   UNL     1       8.571 -10.982 -16.692  1.00  0.00     0.059 A 
ATOM     80  C   UNL     1       7.645 -11.103 -14.469  1.00  0.00     0.059 A 
ATOM     81  F   UNL     1       7.585  -9.227 -13.110  1.00  0.00    -0.206 F 
ATOM     82  C   UNL     1       8.012 -11.727 -15.653  1.00  0.00     0.060 A 
BRANCH  82  83
ATOM     83  S   UNL     1       7.863 -13.526 -15.805  1.00  0.00     0.124 S 
ATOM     84  O   UNL     1       6.833 -13.659 -16.829  1.00  0.00    -0.237 OA
ATOM     85  O   UNL     1       9.211 -13.916 -16.203  1.00  0.00    -0.237 OA
ATOM     86  O   UNL     1       7.466 -13.949 -14.465  1.00  0.00    -0.744 OA
ENDBRANCH  82  83
ENDBRANCH  50  75
BRANCH  62  87
ATOM     87  C   UNL     1      10.912  -3.074 -15.794  1.00  0.00     0.058 A 
ATOM     88  C   UNL     1       9.569  -2.900 -15.410  1.00  0.00     0.135 A 
ATOM     89  C   UNL     1      11.425  -2.163 -16.727  1.00  0.00     0.135 A 
ATOM     90  F   UNL     1       9.031  -3.656 -14.445  1.00  0.00    -0.206 F 
ATOM     91  C   UNL     1       8.763  -1.895 -15.952  1.00  0.00     0.059 A 
ATOM     92  C   UNL     1      10.649  -1.136 -17.263  1.00  0.00     0.059 A 
ATOM     93  F   UNL     1      12.718  -2.226 -17.084  1.00  0.00    -0.206 F 
ATOM     94  C   UNL     1       9.314  -1.013 -16.879  1.00  0.00     0.060 A 
BRANCH  94  95
ATOM     95  S   UNL     1       8.302   0.340 -17.521  1.00  0.00     0.124 S 
ATOM     96  O   UNL     1       7.369  -0.361 -18.396  1.00  0.00    -0.237 OA
ATOM     97  O   UNL     1       7.724   0.911 -16.307  1.00  0.00    -0.237 OA
ATOM     98  O   UNL     1       9.270   1.198 -18.200  1.00  0.00    -0.744 OA
ENDBRANCH  94  95
ENDBRANCH  62  87
ENDBRANCH  36  37
ENDBRANCH  29  31
ENDBRANCH  28  29
ENDBRANCH  27  28
ENDBRANCH  26  27
ENDBRANCH   1  26
TORSDOF 20
