REMARK SMILES Cc1ccc(C[C@H](C(=O)OCCOC(=O)c2ccc(-c3c4nc(c(-c5c(F)cc(S(=O)(=O)[O-])cc5F)c5ccc([nH]5)c(-c5c(F)cc(S(=O)(=O)[O-])cc5F)c5nc(c(-c6c(F)cc(S(=O)(=O)[O-])cc6F)c6ccc3[nH]6)C=C5)C=C4)cc2)[C@@H]2CCCC[C@@H]2O)cc1
REMARK SMILES IDX 12 1 11 2 10 3 8 4 9 5 7 6 6 7 5 8 1 9 2 10 3 11 90 12 4 13
REMARK SMILES IDX 89 14 82 15 83 16 87 17 84 18 86 19 85 20 88 21 13 23 14 24
REMARK SMILES IDX 15 25 16 26 17 27 81 28 18 29 80 30 19 31 20 32 21 33 74 34
REMARK SMILES IDX 22 35 79 36 73 37 75 38 23 39 78 40 72 41 71 42 24 44 58 45
REMARK SMILES IDX 37 46 57 47 38 48 41 49 56 50 76 51 39 52 40 53 55 55 77 56
REMARK SMILES IDX 42 57 25 58 26 59 35 60 27 61 28 62 34 63 36 64 29 65 30 66
REMARK SMILES IDX 31 67 32 68 33 69 59 70 60 71 69 72 61 73 62 74 68 75 70 76
REMARK SMILES IDX 63 77 64 78 65 79 66 80 67 81 43 82 44 83 53 84 45 85 46 86
REMARK SMILES IDX 52 87 54 88 47 89 48 90 49 91 50 92 51 93
REMARK H PARENT 88 22 75 43 41 54
REMARK Flexibility Score: inf
ROOT
ATOM      1  C   UNL     1      -4.522  -3.895   3.861  1.00  0.00     0.275 C 
ENDROOT
BRANCH   1   2
ATOM      2  C   UNL     1      -3.325  -2.931   3.742  1.00  0.00     0.274 C 
BRANCH   2   3
ATOM      3  O   UNL     1      -3.697  -1.702   3.087  1.00  0.00    -0.462 OA
BRANCH   3   4
ATOM      4  C   UNL     1      -3.940  -1.758   1.629  1.00  0.00     0.309 C 
ATOM      5  O   UNL     1      -3.118  -2.655   1.264  1.00  0.00    -0.252 OA
BRANCH   4   6
ATOM      6  C   UNL     1      -5.442  -0.570   0.545  1.00  0.00     0.109 C 
BRANCH   6   7
ATOM      7  C   UNL     1      -6.466   0.895   1.074  1.00  0.00     0.051 C 
BRANCH   7   8
ATOM      8  C   UNL     1      -6.896   1.337   2.507  1.00  0.00    -0.047 A 
ATOM      9  C   UNL     1      -5.964   0.783   6.598  1.00  0.00     0.044 C 
ATOM     10  C   UNL     1      -6.537   1.199   5.272  1.00  0.00    -0.051 A 
ATOM     11  C   UNL     1      -7.546   0.446   4.658  1.00  0.00     0.004 A 
ATOM     12  C   UNL     1      -5.961   2.244   4.552  1.00  0.00     0.004 A 
ATOM     13  C   UNL     1      -7.756   0.539   3.271  1.00  0.00     0.004 A 
ATOM     14  C   UNL     1      -6.194   2.351   3.178  1.00  0.00     0.004 A 
ENDBRANCH   7   8
ENDBRANCH   6   7
BRANCH   6  15
ATOM     15  C   UNL     1      -5.565  -0.227  -1.343  1.00  0.00     0.032 C 
ATOM     16  C   UNL     1      -6.301   1.050  -1.886  1.00  0.00     0.007 C 
ATOM     17  C   UNL     1      -6.064  -1.346  -2.396  1.00  0.00     0.118 C 
ATOM     18  C   UNL     1      -7.805   0.938  -2.179  1.00  0.00     0.001 C 
ATOM     19  C   UNL     1      -7.577  -1.563  -2.405  1.00  0.00     0.032 C 
ATOM     20  C   UNL     1      -8.220  -0.302  -2.970  1.00  0.00     0.003 C 
BRANCH  17  21
ATOM     21  O   UNL     1      -5.332  -2.535  -2.558  1.00  0.00    -0.393 OA
ATOM     22  H   UNL     1      -5.481  -3.113  -1.793  1.00  0.00     0.210 HD
ENDBRANCH  17  21
ENDBRANCH   6  15
ENDBRANCH   4   6
ENDBRANCH   3   4
ENDBRANCH   2   3
ENDBRANCH   1   2
BRANCH   1  23
ATOM     23  O   UNL     1      -5.098  -4.349   2.617  1.00  0.00    -0.458 OA
BRANCH  23  24
ATOM     24  C   UNL     1      -6.227  -3.744   2.180  1.00  0.00     0.338 C 
ATOM     25  O   UNL     1      -7.380  -4.075   2.385  1.00  0.00    -0.246 OA
BRANCH  24  26
ATOM     26  C   UNL     1      -5.866  -2.502   1.512  1.00  0.00     0.060 A 
ATOM     27  C   UNL     1      -4.920  -2.543   0.011  1.00  0.00     0.016 A 
ATOM     28  C   UNL     1      -5.673  -1.115   2.580  1.00  0.00     0.016 A 
ATOM     29  C   UNL     1      -3.661  -1.278  -0.347  1.00  0.00     0.010 A 
ATOM     30  C   UNL     1      -4.419   0.157   2.233  1.00  0.00     0.010 A 
ATOM     31  C   UNL     1      -3.401   0.047   0.786  1.00  0.00    -0.014 A 
BRANCH  31  32
ATOM     32  C   UNL     1      -2.106   0.693   1.012  1.00  0.00     0.031 A 
ATOM     33  C   UNL     1      -2.179   2.148   1.172  1.00  0.00     0.074 A 
ATOM     34  C   UNL     1      -1.048  -0.084   1.364  1.00  0.00     0.049 A 
ATOM     35  N   UNL     1      -1.189   2.943   1.247  1.00  0.00    -0.248 NA
ATOM     36  C   UNL     1      -3.432   2.882   1.228  1.00  0.00     0.031 C 
ATOM     37  C   UNL     1       0.218   0.220   2.035  1.00  0.00     0.029 A 
ATOM     38  N   UNL     1      -0.841  -1.391   0.932  1.00  0.00    -0.354 N 
ATOM     39  C   UNL     1      -1.649   4.136   1.778  1.00  0.00     0.074 A 
ATOM     40  C   UNL     1      -3.069   4.096   1.635  1.00  0.00     0.031 C 
ATOM     41  C   UNL     1       1.145  -0.693   1.671  1.00  0.00     0.029 A 
ATOM     42  C   UNL     1       0.527  -1.588   0.710  1.00  0.00     0.049 A 
ATOM     43  H   UNL     1      -1.544  -2.068   0.804  1.00  0.00     0.167 HD
ATOM     44  C   UNL     1      -0.733   4.907   2.418  1.00  0.00     0.037 A 
ATOM     45  C   UNL     1       0.909  -1.761  -0.590  1.00  0.00     0.037 A 
ATOM     46  C   UNL     1       0.592   4.316   2.179  1.00  0.00     0.049 A 
ATOM     47  C   UNL     1       1.490  -0.457  -1.154  1.00  0.00     0.074 A 
ATOM     48  C   UNL     1       1.416   3.457   2.883  1.00  0.00     0.029 A 
ATOM     49  N   UNL     1       0.972   4.175   0.858  1.00  0.00    -0.354 N 
ATOM     50  N   UNL     1       1.471   0.693  -0.517  1.00  0.00    -0.248 NA
ATOM     51  C   UNL     1       2.182  -0.333  -2.432  1.00  0.00     0.031 C 
ATOM     52  C   UNL     1       2.262   2.782   1.934  1.00  0.00     0.029 A 
ATOM     53  C   UNL     1       1.942   3.221   0.659  1.00  0.00     0.049 A 
ATOM     54  H   UNL     1       0.584   4.709   0.127  1.00  0.00     0.167 HD
ATOM     55  C   UNL     1       2.133   1.670  -1.217  1.00  0.00     0.074 A 
ATOM     56  C   UNL     1       2.488   0.981  -2.455  1.00  0.00     0.031 C 
ATOM     57  C   UNL     1       2.348   2.942  -0.724  1.00  0.00     0.037 A 
BRANCH  44  58
ATOM     58  C   UNL     1      -1.016   6.025   3.396  1.00  0.00     0.058 A 
ATOM     59  C   UNL     1       0.026   6.437   4.253  1.00  0.00     0.135 A 
ATOM     60  C   UNL     1      -2.237   6.713   3.590  1.00  0.00     0.135 A 
ATOM     61  F   UNL     1       1.243   5.882   4.193  1.00  0.00    -0.206 F 
ATOM     62  C   UNL     1      -0.124   7.427   5.220  1.00  0.00     0.059 A 
ATOM     63  C   UNL     1      -2.416   7.703   4.569  1.00  0.00     0.059 A 
ATOM     64  F   UNL     1      -3.313   6.487   2.830  1.00  0.00    -0.206 F 
ATOM     65  C   UNL     1      -1.346   8.060   5.373  1.00  0.00     0.060 A 
BRANCH  65  66
ATOM     66  S   UNL     1      -1.475   9.364   6.607  1.00  0.00     0.124 S 
ATOM     67  O   UNL     1      -1.080   8.668   7.828  1.00  0.00    -0.237 OA
ATOM     68  O   UNL     1      -0.524  10.349   6.103  1.00  0.00    -0.237 OA
ATOM     69  O   UNL     1      -2.879   9.759   6.544  1.00  0.00    -0.744 OA
ENDBRANCH  65  66
ENDBRANCH  44  58
BRANCH  45  70
ATOM     70  C   UNL     1       0.062  -2.861  -1.208  1.00  0.00     0.058 A 
ATOM     71  C   UNL     1       0.081  -4.103  -0.522  1.00  0.00     0.135 A 
ATOM     72  C   UNL     1      -1.044  -2.663  -2.045  1.00  0.00     0.135 A 
ATOM     73  F   UNL     1       1.133  -4.414   0.255  1.00  0.00    -0.206 F 
ATOM     74  C   UNL     1      -1.008  -4.980  -0.494  1.00  0.00     0.059 A 
ATOM     75  C   UNL     1      -2.136  -3.578  -2.082  1.00  0.00     0.059 A 
ATOM     76  F   UNL     1      -1.163  -1.511  -2.725  1.00  0.00    -0.206 F 
ATOM     77  C   UNL     1      -2.135  -4.708  -1.260  1.00  0.00     0.060 A 
BRANCH  77  78
ATOM     78  S   UNL     1      -3.551  -5.853  -1.081  1.00  0.00     0.124 S 
ATOM     79  O   UNL     1      -3.078  -7.020  -1.817  1.00  0.00    -0.237 OA
ATOM     80  O   UNL     1      -3.643  -6.026   0.366  1.00  0.00    -0.237 OA
ATOM     81  O   UNL     1      -4.694  -5.181  -1.696  1.00  0.00    -0.744 OA
ENDBRANCH  77  78
ENDBRANCH  45  70
BRANCH  57  82
ATOM     82  C   UNL     1       2.947   4.100  -1.523  1.00  0.00     0.058 A 
ATOM     83  C   UNL     1       3.938   3.923  -2.495  1.00  0.00     0.135 A 
ATOM     84  C   UNL     1       2.593   5.463  -1.298  1.00  0.00     0.135 A 
ATOM     85  F   UNL     1       4.547   2.740  -2.656  1.00  0.00    -0.206 F 
ATOM     86  C   UNL     1       4.401   4.972  -3.293  1.00  0.00     0.059 A 
ATOM     87  C   UNL     1       3.098   6.530  -2.021  1.00  0.00     0.059 A 
ATOM     88  F   UNL     1       1.724   5.865  -0.365  1.00  0.00    -0.206 F 
ATOM     89  C   UNL     1       3.971   6.273  -3.051  1.00  0.00     0.060 A 
BRANCH  89  90
ATOM     90  S   UNL     1       4.628   7.631  -4.019  1.00  0.00     0.124 S 
ATOM     91  O   UNL     1       6.064   7.381  -3.948  1.00  0.00    -0.237 OA
ATOM     92  O   UNL     1       4.002   7.396  -5.316  1.00  0.00    -0.237 OA
ATOM     93  O   UNL     1       4.166   8.819  -3.307  1.00  0.00    -0.744 OA
ENDBRANCH  89  90
ENDBRANCH  57  82
ENDBRANCH  31  32
ENDBRANCH  24  26
ENDBRANCH  23  24
ENDBRANCH   1  23
TORSDOF 18
