REMARK SMILES COc1cccc(OC)c1[C@@H](C(=O)OCCOC(=O)c1ccc(-c2c3nc(c(-c4c(F)cc(S(=O)(=O)[O-])cc4F)c4ccc([nH]4)c(-c4c(F)cc(S(=O)(=O)[O-])cc4F)c4nc(c(-c5c(F)cc(S(=O)(=O)[O-])cc5F)c5ccc2[nH]5)C=C4)C=C3)cc1)[N@@H+](C)Cc1c(C)n[nH]c1C
REMARK SMILES IDX 15 1 14 2 12 3 13 4 11 5 10 6 3 7 4 8 5 9 7 10 6 11 2 12
REMARK SMILES IDX 1 13 8 14 9 15 86 16 87 17 88 19 89 20 90 21 94 22 91 23
REMARK SMILES IDX 92 24 93 25 95 26 16 28 17 29 18 30 19 31 20 32 21 33 85 34
REMARK SMILES IDX 22 35 84 36 23 37 24 38 25 39 78 40 26 41 83 42 77 43 79 44
REMARK SMILES IDX 27 45 82 46 76 47 75 48 28 50 62 51 41 52 61 53 42 54 45 55
REMARK SMILES IDX 60 56 80 57 43 58 44 59 59 61 81 62 46 63 29 64 30 65 39 66
REMARK SMILES IDX 31 67 32 68 38 69 40 70 33 71 34 72 35 73 36 74 37 75 63 76
REMARK SMILES IDX 64 77 73 78 65 79 66 80 72 81 74 82 67 83 68 84 69 85 70 86
REMARK SMILES IDX 71 87 47 88 48 89 57 90 49 91 50 92 56 93 58 94 51 95 52 96
REMARK SMILES IDX 53 97 54 98 55 99
REMARK H PARENT 86 18 93 27 79 49 45 60
REMARK Flexibility Score: inf
ROOT
ATOM      1  C   UNL     1       4.745   1.972  -2.876  1.00  0.00     0.274 C 
ENDROOT
BRANCH   1   2
ATOM      2  O   UNL     1       3.843   2.291  -1.782  1.00  0.00    -0.457 OA
BRANCH   2   3
ATOM      3  C   UNL     1       3.489   1.244  -0.993  1.00  0.00     0.370 C 
ATOM      4  O   UNL     1       3.825   0.081  -1.237  1.00  0.00    -0.245 OA
BRANCH   3   5
ATOM      5  C   UNL     1       2.642   1.564   0.252  1.00  0.00     0.334 C 
BRANCH   5   6
ATOM      6  C   UNL     1       1.422   2.502   0.151  1.00  0.00     0.105 A 
ATOM      7  C   UNL     1       0.260   2.100  -0.554  1.00  0.00     0.132 A 
ATOM      8  C   UNL     1      -0.837   2.971  -0.740  1.00  0.00     0.047 A 
ATOM      9  C   UNL     1      -0.834   4.259  -0.222  1.00  0.00     0.008 A 
ATOM     10  C   UNL     1       1.326   3.781   0.729  1.00  0.00     0.132 A 
ATOM     11  C   UNL     1       0.243   4.654   0.535  1.00  0.00     0.047 A 
BRANCH   7  12
ATOM     12  O   UNL     1       0.122   0.893  -1.199  1.00  0.00    -0.496 OA
ATOM     13  C   UNL     1       0.088  -0.255  -0.345  1.00  0.00     0.278 C 
ENDBRANCH   7  12
BRANCH  10  14
ATOM     14  O   UNL     1       2.227   4.263   1.622  1.00  0.00    -0.496 OA
ATOM     15  C   UNL     1       3.168   5.056   0.925  1.00  0.00     0.278 C 
ENDBRANCH  10  14
ENDBRANCH   5   6
BRANCH   5  16
ATOM     16  N   UNL     1       3.349   1.385   1.542  1.00  0.00    -0.318 N 
ATOM     17  C   UNL     1       3.668  -0.007   1.872  1.00  0.00     0.334 C 
ATOM     18  H   UNL     1       2.585   1.697   2.142  1.00  0.00     0.349 HD
BRANCH  16  19
ATOM     19  C   UNL     1       4.366   2.325   1.974  1.00  0.00     0.303 C 
BRANCH  19  20
ATOM     20  C   UNL     1       5.567   2.612   1.058  1.00  0.00     0.050 A 
ATOM     21  C   UNL     1       6.500   4.372   0.998  1.00  0.00     0.068 A 
ATOM     22  C   UNL     1       6.715   1.412   0.273  1.00  0.00     0.041 A 
ATOM     23  C   UNL     1       6.204   5.738   1.494  1.00  0.00     0.069 C 
ATOM     24  N   UNL     1       7.994   4.166   0.093  1.00  0.00    -0.180 NA
ATOM     25  N   UNL     1       8.265   2.343  -0.176  1.00  0.00    -0.282 N 
ATOM     26  C   UNL     1       6.808  -0.081   0.101  1.00  0.00     0.066 C 
ATOM     27  H   UNL     1       9.099   1.935  -0.504  1.00  0.00     0.190 HD
ENDBRANCH  19  20
ENDBRANCH  16  19
ENDBRANCH   5  16
ENDBRANCH   3   5
ENDBRANCH   2   3
ENDBRANCH   1   2
BRANCH   1  28
ATOM     28  C   UNL     1       6.053   2.785  -2.888  1.00  0.00     0.275 C 
BRANCH  28  29
ATOM     29  O   UNL     1       6.920   2.455  -1.771  1.00  0.00    -0.458 OA
BRANCH  29  30
ATOM     30  C   UNL     1       6.566   3.163  -0.474  1.00  0.00     0.338 C 
ATOM     31  O   UNL     1       5.620   3.939  -0.830  1.00  0.00    -0.246 OA
BRANCH  30  32
ATOM     32  C   UNL     1       7.520   2.810   1.504  1.00  0.00     0.060 A 
ATOM     33  C   UNL     1       7.132   1.810   2.553  1.00  0.00     0.016 A 
ATOM     34  C   UNL     1       8.525   3.678   2.283  1.00  0.00     0.016 A 
ATOM     35  C   UNL     1       7.033   2.058   3.901  1.00  0.00     0.010 A 
ATOM     36  C   UNL     1       8.717   3.711   3.684  1.00  0.00     0.010 A 
ATOM     37  C   UNL     1       7.923   2.915   4.480  1.00  0.00    -0.014 A 
BRANCH  37  38
ATOM     38  C   UNL     1       8.070   2.714   5.914  1.00  0.00     0.031 A 
ATOM     39  C   UNL     1       7.664   3.787   6.848  1.00  0.00     0.074 A 
ATOM     40  C   UNL     1       8.421   1.466   6.289  1.00  0.00     0.049 A 
ATOM     41  N   UNL     1       7.896   3.860   8.122  1.00  0.00    -0.248 NA
ATOM     42  C   UNL     1       6.922   4.931   6.290  1.00  0.00     0.031 C 
ATOM     43  C   UNL     1       8.651   0.332   5.365  1.00  0.00     0.029 A 
ATOM     44  N   UNL     1       8.586   0.904   7.514  1.00  0.00    -0.354 N 
ATOM     45  C   UNL     1       7.415   5.097   8.514  1.00  0.00     0.074 A 
ATOM     46  C   UNL     1       6.839   5.729   7.347  1.00  0.00     0.031 C 
ATOM     47  C   UNL     1       8.838  -0.790   6.059  1.00  0.00     0.029 A 
ATOM     48  C   UNL     1       8.982  -0.411   7.444  1.00  0.00     0.049 A 
ATOM     49  H   UNL     1       8.438   1.385   8.361  1.00  0.00     0.167 HD
ATOM     50  C   UNL     1       7.516   5.631   9.750  1.00  0.00     0.037 A 
ATOM     51  C   UNL     1       9.546  -1.183   8.380  1.00  0.00     0.037 A 
ATOM     52  C   UNL     1       8.124   4.901  10.835  1.00  0.00     0.049 A 
ATOM     53  C   UNL     1       9.757  -0.525   9.700  1.00  0.00     0.074 A 
ATOM     54  C   UNL     1       8.358   5.304  12.133  1.00  0.00     0.029 A 
ATOM     55  N   UNL     1       8.603   3.594  10.728  1.00  0.00    -0.354 N 
ATOM     56  N   UNL     1       9.422   0.693  10.064  1.00  0.00    -0.248 NA
ATOM     57  C   UNL     1      10.434  -1.312  10.723  1.00  0.00     0.031 C 
ATOM     58  C   UNL     1       9.036   4.269  12.787  1.00  0.00     0.029 A 
ATOM     59  C   UNL     1       9.152   3.183  11.927  1.00  0.00     0.049 A 
ATOM     60  H   UNL     1       8.556   3.043   9.913  1.00  0.00     0.167 HD
ATOM     61  C   UNL     1       9.821   0.817  11.379  1.00  0.00     0.074 A 
ATOM     62  C   UNL     1      10.406  -0.466  11.743  1.00  0.00     0.031 C 
ATOM     63  C   UNL     1       9.716   1.881  12.213  1.00  0.00     0.037 A 
BRANCH  50  64
ATOM     64  C   UNL     1       7.076   7.056   9.932  1.00  0.00     0.058 A 
ATOM     65  C   UNL     1       5.736   7.457   9.809  1.00  0.00     0.135 A 
ATOM     66  C   UNL     1       8.028   8.053  10.204  1.00  0.00     0.135 A 
ATOM     67  F   UNL     1       4.784   6.557   9.515  1.00  0.00    -0.206 F 
ATOM     68  C   UNL     1       5.361   8.793   9.922  1.00  0.00     0.059 A 
ATOM     69  C   UNL     1       7.672   9.390  10.356  1.00  0.00     0.059 A 
ATOM     70  F   UNL     1       9.329   7.737  10.308  1.00  0.00    -0.206 F 
ATOM     71  C   UNL     1       6.336   9.752  10.202  1.00  0.00     0.060 A 
BRANCH  71  72
ATOM     72  S   UNL     1       5.828  11.476  10.365  1.00  0.00     0.124 S 
ATOM     73  O   UNL     1       5.450  11.802   8.993  1.00  0.00    -0.237 OA
ATOM     74  O   UNL     1       4.728  11.383  11.320  1.00  0.00    -0.237 OA
ATOM     75  O   UNL     1       7.029  12.141  10.859  1.00  0.00    -0.744 OA
ENDBRANCH  71  72
ENDBRANCH  50  64
BRANCH  51  76
ATOM     76  C   UNL     1      10.004  -2.555   8.048  1.00  0.00     0.058 A 
ATOM     77  C   UNL     1       9.401  -3.665   8.649  1.00  0.00     0.135 A 
ATOM     78  C   UNL     1      10.995  -2.796   7.076  1.00  0.00     0.135 A 
ATOM     79  F   UNL     1       8.438  -3.488   9.566  1.00  0.00    -0.206 F 
ATOM     80  C   UNL     1       9.776  -4.962   8.320  1.00  0.00     0.059 A 
ATOM     81  C   UNL     1      11.358  -4.085   6.700  1.00  0.00     0.059 A 
ATOM     82  F   UNL     1      11.582  -1.771   6.437  1.00  0.00    -0.206 F 
ATOM     83  C   UNL     1      10.753  -5.162   7.342  1.00  0.00     0.060 A 
BRANCH  83  84
ATOM     84  S   UNL     1      11.209  -6.854   6.916  1.00  0.00     0.124 S 
ATOM     85  O   UNL     1      11.874  -7.293   8.138  1.00  0.00    -0.237 OA
ATOM     86  O   UNL     1       9.909  -7.458   6.642  1.00  0.00    -0.237 OA
ATOM     87  O   UNL     1      12.074  -6.688   5.752  1.00  0.00    -0.744 OA
ENDBRANCH  83  84
ENDBRANCH  51  76
BRANCH  63  88
ATOM     88  C   UNL     1      10.193   1.646  13.610  1.00  0.00     0.058 A 
ATOM     89  C   UNL     1      11.553   1.491  13.912  1.00  0.00     0.135 A 
ATOM     90  C   UNL     1       9.262   1.595  14.658  1.00  0.00     0.135 A 
ATOM     91  F   UNL     1      12.473   1.510  12.933  1.00  0.00    -0.206 F 
ATOM     92  C   UNL     1      11.973   1.258  15.211  1.00  0.00     0.059 A 
ATOM     93  C   UNL     1       9.665   1.412  15.970  1.00  0.00     0.059 A 
ATOM     94  F   UNL     1       7.950   1.741  14.409  1.00  0.00    -0.206 F 
ATOM     95  C   UNL     1      11.021   1.230  16.233  1.00  0.00     0.060 A 
BRANCH  95  96
ATOM     96  S   UNL     1      11.590   0.973  17.922  1.00  0.00     0.124 S 
ATOM     97  O   UNL     1      12.002  -0.426  17.881  1.00  0.00    -0.237 OA
ATOM     98  O   UNL     1      12.667   1.951  18.034  1.00  0.00    -0.237 OA
ATOM     99  O   UNL     1      10.405   1.256  18.726  1.00  0.00    -0.744 OA
ENDBRANCH  95  96
ENDBRANCH  63  88
ENDBRANCH  37  38
ENDBRANCH  30  32
ENDBRANCH  29  30
ENDBRANCH  28  29
ENDBRANCH   1  28
TORSDOF 20
