REMARK SMILES Cc1ccc2nc(C(=O)OCCOC(=O)c3ccc(-c4c5nc(c(-c6c(F)cc(S(=O)(=O)[O-])cc6F)c6ccc([nH]6)c(-c6c(F)cc(S(=O)(=O)[O-])cc6F)c6nc(c(-c7c(F)cc(S(=O)(=O)[O-])cc7F)c7ccc4[nH]7)C=C6)C=C5)cc3)cc(N3CCOCC3)c2c1
REMARK SMILES IDX 12 1 11 2 10 3 8 4 9 5 7 6 1 7 2 8 3 9 91 10 4 11 90 12 5 13
REMARK SMILES IDX 83 14 6 15 82 16 84 17 85 18 89 19 86 20 88 21 87 22 13 23
REMARK SMILES IDX 14 24 15 25 16 26 17 27 81 28 18 29 80 30 19 31 20 32 21 33
REMARK SMILES IDX 74 34 22 35 79 36 73 37 75 38 23 39 78 40 72 41 71 42 24 44
REMARK SMILES IDX 58 45 37 46 57 47 38 48 41 49 56 50 76 51 39 52 40 53 55 55
REMARK SMILES IDX 77 56 42 57 25 58 26 59 35 60 27 61 28 62 34 63 36 64 29 65
REMARK SMILES IDX 30 66 31 67 32 68 33 69 59 70 60 71 69 72 61 73 62 74 68 75
REMARK SMILES IDX 70 76 63 77 64 78 65 79 66 80 67 81 43 82 44 83 53 84 45 85
REMARK SMILES IDX 46 86 52 87 54 88 47 89 48 90 49 91 50 92 51 93
REMARK H PARENT 75 43 41 54
REMARK Flexibility Score: inf
ROOT
ATOM      1  C   UNL     1      -6.582   1.420   1.034  1.00  0.00     0.275 C 
ENDROOT
BRANCH   1   2
ATOM      2  C   UNL     1      -6.315   0.477  -0.143  1.00  0.00     0.275 C 
BRANCH   2   3
ATOM      3  O   UNL     1      -5.009  -0.131  -0.061  1.00  0.00    -0.457 OA
BRANCH   3   4
ATOM      4  C   UNL     1      -4.059   0.447  -0.845  1.00  0.00     0.357 C 
ATOM      5  O   UNL     1      -4.255   1.360  -1.634  1.00  0.00    -0.244 OA
BRANCH   4   6
ATOM      6  C   UNL     1      -2.704  -0.120  -0.569  1.00  0.00     0.151 A 
ATOM      7  C   UNL     1       3.711  -0.694   0.015  1.00  0.00     0.044 C 
ATOM      8  C   UNL     1       2.269  -0.306  -0.113  1.00  0.00    -0.050 A 
ATOM      9  C   UNL     1       1.898   1.019  -0.309  1.00  0.00     0.005 A 
ATOM     10  C   UNL     1       1.265  -1.283  -0.068  1.00  0.00     0.016 A 
ATOM     11  C   UNL     1       0.554   1.340  -0.488  1.00  0.00     0.029 A 
ATOM     12  C   UNL     1      -0.113  -0.962  -0.180  1.00  0.00     0.024 A 
ATOM     13  C   UNL     1      -0.445   0.378  -0.444  1.00  0.00     0.073 A 
ATOM     14  C   UNL     1      -1.184  -1.907  -0.085  1.00  0.00     0.049 A 
ATOM     15  N   UNL     1      -1.696   0.776  -0.671  1.00  0.00    -0.241 NA
ATOM     16  C   UNL     1      -2.498  -1.455  -0.273  1.00  0.00     0.062 A 
BRANCH  14  17
ATOM     17  N   UNL     1      -0.930  -3.252   0.165  1.00  0.00    -0.366 N 
ATOM     18  C   UNL     1      -0.367  -3.651   1.467  1.00  0.00     0.145 C 
ATOM     19  C   UNL     1      -1.707  -4.309  -0.492  1.00  0.00     0.145 C 
ATOM     20  C   UNL     1       0.463  -4.931   1.269  1.00  0.00     0.181 C 
ATOM     21  C   UNL     1      -0.828  -5.566  -0.608  1.00  0.00     0.181 C 
ATOM     22  O   UNL     1      -0.321  -5.983   0.673  1.00  0.00    -0.378 OA
ENDBRANCH  14  17
ENDBRANCH   4   6
ENDBRANCH   3   4
ENDBRANCH   2   3
ENDBRANCH   1   2
BRANCH   1  23
ATOM     23  O   UNL     1      -5.731   2.580   0.994  1.00  0.00    -0.458 OA
BRANCH  23  24
ATOM     24  C   UNL     1      -4.669   2.543   1.832  1.00  0.00     0.338 C 
ATOM     25  O   UNL     1      -4.382   1.656   2.618  1.00  0.00    -0.246 OA
BRANCH  24  26
ATOM     26  C   UNL     1      -3.815   3.722   1.613  1.00  0.00     0.060 A 
ATOM     27  C   UNL     1      -2.717   3.575   0.774  1.00  0.00     0.016 A 
ATOM     28  C   UNL     1      -3.999   4.908   2.321  1.00  0.00     0.016 A 
ATOM     29  C   UNL     1      -1.759   4.577   0.678  1.00  0.00     0.010 A 
ATOM     30  C   UNL     1      -3.063   5.945   2.180  1.00  0.00     0.010 A 
ATOM     31  C   UNL     1      -1.918   5.777   1.378  1.00  0.00    -0.014 A 
BRANCH  31  32
ATOM     32  C   UNL     1      -0.853   6.812   1.294  1.00  0.00     0.031 A 
ATOM     33  C   UNL     1      -0.052   7.174   2.516  1.00  0.00     0.074 A 
ATOM     34  C   UNL     1      -0.556   7.383   0.109  1.00  0.00     0.049 A 
ATOM     35  N   UNL     1       0.852   8.108   2.667  1.00  0.00    -0.248 NA
ATOM     36  C   UNL     1      -0.301   6.381   3.730  1.00  0.00     0.031 C 
ATOM     37  C   UNL     1      -1.212   7.075  -1.165  1.00  0.00     0.029 A 
ATOM     38  N   UNL     1       0.383   8.328  -0.223  1.00  0.00    -0.354 N 
ATOM     39  C   UNL     1       1.246   8.047   3.998  1.00  0.00     0.074 A 
ATOM     40  C   UNL     1       0.480   6.984   4.615  1.00  0.00     0.031 C 
ATOM     41  C   UNL     1      -0.635   7.793  -2.141  1.00  0.00     0.029 A 
ATOM     42  C   UNL     1       0.380   8.663  -1.557  1.00  0.00     0.049 A 
ATOM     43  H   UNL     1       1.000   8.728   0.431  1.00  0.00     0.167 HD
ATOM     44  C   UNL     1       2.161   8.807   4.646  1.00  0.00     0.037 A 
ATOM     45  C   UNL     1       1.089   9.589  -2.231  1.00  0.00     0.037 A 
ATOM     46  C   UNL     1       2.952   9.835   4.018  1.00  0.00     0.049 A 
ATOM     47  C   UNL     1       2.072  10.447  -1.484  1.00  0.00     0.074 A 
ATOM     48  C   UNL     1       3.908  10.657   4.589  1.00  0.00     0.029 A 
ATOM     49  N   UNL     1       2.887  10.173   2.674  1.00  0.00    -0.354 N 
ATOM     50  N   UNL     1       2.395  10.412  -0.213  1.00  0.00    -0.248 NA
ATOM     51  C   UNL     1       2.775  11.480  -2.257  1.00  0.00     0.031 C 
ATOM     52  C   UNL     1       4.398  11.514   3.596  1.00  0.00     0.029 A 
ATOM     53  C   UNL     1       3.775  11.200   2.399  1.00  0.00     0.049 A 
ATOM     54  H   UNL     1       2.296   9.746   2.012  1.00  0.00     0.167 HD
ATOM     55  C   UNL     1       3.342  11.414  -0.035  1.00  0.00     0.074 A 
ATOM     56  C   UNL     1       3.555  12.024  -1.332  1.00  0.00     0.031 C 
ATOM     57  C   UNL     1       3.973  11.797   1.102  1.00  0.00     0.037 A 
BRANCH  44  58
ATOM     58  C   UNL     1       2.328   8.583   6.124  1.00  0.00     0.058 A 
ATOM     59  C   UNL     1       2.987   7.456   6.637  1.00  0.00     0.135 A 
ATOM     60  C   UNL     1       1.830   9.524   7.040  1.00  0.00     0.135 A 
ATOM     61  F   UNL     1       3.467   6.517   5.807  1.00  0.00    -0.206 F 
ATOM     62  C   UNL     1       3.120   7.254   8.008  1.00  0.00     0.059 A 
ATOM     63  C   UNL     1       1.972   9.354   8.414  1.00  0.00     0.059 A 
ATOM     64  F   UNL     1       1.191  10.621   6.603  1.00  0.00    -0.206 F 
ATOM     65  C   UNL     1       2.603   8.206   8.889  1.00  0.00     0.060 A 
BRANCH  65  66
ATOM     66  S   UNL     1       2.770   7.928  10.665  1.00  0.00     0.124 S 
ATOM     67  O   UNL     1       1.746   6.913  10.897  1.00  0.00    -0.237 OA
ATOM     68  O   UNL     1       4.151   7.471  10.785  1.00  0.00    -0.237 OA
ATOM     69  O   UNL     1       2.495   9.240  11.242  1.00  0.00    -0.744 OA
ENDBRANCH  65  66
ENDBRANCH  44  58
BRANCH  45  70
ATOM     70  C   UNL     1       0.864   9.775  -3.689  1.00  0.00     0.058 A 
ATOM     71  C   UNL     1       1.834   9.397  -4.628  1.00  0.00     0.135 A 
ATOM     72  C   UNL     1      -0.340  10.312  -4.173  1.00  0.00     0.135 A 
ATOM     73  F   UNL     1       3.007   8.892  -4.214  1.00  0.00    -0.206 F 
ATOM     74  C   UNL     1       1.622   9.545  -5.995  1.00  0.00     0.059 A 
ATOM     75  C   UNL     1      -0.586  10.446  -5.536  1.00  0.00     0.059 A 
ATOM     76  F   UNL     1      -1.304  10.682  -3.316  1.00  0.00    -0.206 F 
ATOM     77  C   UNL     1       0.405  10.067  -6.439  1.00  0.00     0.060 A 
BRANCH  77  78
ATOM     78  S   UNL     1       0.109  10.197  -8.216  1.00  0.00     0.124 S 
ATOM     79  O   UNL     1       0.892  11.379  -8.558  1.00  0.00    -0.237 OA
ATOM     80  O   UNL     1       0.625   8.925  -8.711  1.00  0.00    -0.237 OA
ATOM     81  O   UNL     1      -1.340  10.352  -8.303  1.00  0.00    -0.744 OA
ENDBRANCH  77  78
ENDBRANCH  45  70
BRANCH  57  82
ATOM     82  C   UNL     1       4.968  12.918   0.990  1.00  0.00     0.058 A 
ATOM     83  C   UNL     1       4.556  14.252   0.851  1.00  0.00     0.135 A 
ATOM     84  C   UNL     1       6.345  12.658   1.065  1.00  0.00     0.135 A 
ATOM     85  F   UNL     1       3.250  14.551   0.767  1.00  0.00    -0.206 F 
ATOM     86  C   UNL     1       5.477  15.291   0.770  1.00  0.00     0.059 A 
ATOM     87  C   UNL     1       7.284  13.684   1.007  1.00  0.00     0.059 A 
ATOM     88  F   UNL     1       6.789  11.399   1.206  1.00  0.00    -0.206 F 
ATOM     89  C   UNL     1       6.840  14.996   0.848  1.00  0.00     0.060 A 
BRANCH  89  90
ATOM     90  S   UNL     1       8.028  16.354   0.773  1.00  0.00     0.124 S 
ATOM     91  O   UNL     1       8.033  16.662  -0.653  1.00  0.00    -0.237 OA
ATOM     92  O   UNL     1       7.413  17.359   1.636  1.00  0.00    -0.237 OA
ATOM     93  O   UNL     1       9.256  15.759   1.292  1.00  0.00    -0.744 OA
ENDBRANCH  89  90
ENDBRANCH  57  82
ENDBRANCH  31  32
ENDBRANCH  24  26
ENDBRANCH  23  24
ENDBRANCH   1  23
TORSDOF 15
