REMARK SMILES C[C@@H](C(=O)[C@H](C)[C@@H](C)C(=O)OCCOC(=O)c1ccc(-c2c3nc(c(-c4c(F)cc(S(=O)(=O)[O-])cc4F)c4ccc([nH]4)c(-c4c(F)cc(S(=O)(=O)[O-])cc4F)c4nc(c(-c5c(F)cc(S(=O)(=O)[O-])cc5F)c5ccc2[nH]5)C=C4)C=C3)cc1)c1ccccc1
REMARK SMILES IDX 12 1 11 2 9 3 10 4 7 5 8 6 5 7 6 8 3 9 4 10 2 11 1 12 83 13
REMARK SMILES IDX 84 14 88 15 85 16 87 17 86 18 13 19 14 20 15 21 16 22 17 23
REMARK SMILES IDX 18 24 82 25 19 26 81 27 20 28 21 29 22 30 75 31 23 32 80 33
REMARK SMILES IDX 74 34 76 35 24 36 79 37 73 38 72 39 25 41 59 42 38 43 58 44
REMARK SMILES IDX 39 45 42 46 57 47 77 48 40 49 41 50 56 52 78 53 43 54 26 55
REMARK SMILES IDX 27 56 36 57 28 58 29 59 35 60 37 61 30 62 31 63 32 64 33 65
REMARK SMILES IDX 34 66 60 67 61 68 70 69 62 70 63 71 69 72 71 73 64 74 65 75
REMARK SMILES IDX 66 76 67 77 68 78 44 79 45 80 54 81 46 82 47 83 53 84 55 85
REMARK SMILES IDX 48 86 49 87 50 88 51 89 52 90
REMARK H PARENT 76 40 42 51
REMARK Flexibility Score: inf
ROOT
ATOM      1  C   UNL     1       6.483   1.418   3.497  1.00  0.00     0.274 C 
ENDROOT
BRANCH   1   2
ATOM      2  O   UNL     1       5.138   0.943   3.325  1.00  0.00    -0.462 OA
BRANCH   2   3
ATOM      3  C   UNL     1       4.244   1.896   2.952  1.00  0.00     0.309 C 
ATOM      4  O   UNL     1       4.441   3.101   3.029  1.00  0.00    -0.252 OA
BRANCH   3   5
ATOM      5  C   UNL     1       3.014   1.243   2.320  1.00  0.00     0.106 C 
ATOM      6  C   UNL     1       2.040   2.373   1.939  1.00  0.00     0.021 C 
BRANCH   5   7
ATOM      7  C   UNL     1       2.366   0.189   3.253  1.00  0.00     0.067 C 
ATOM      8  C   UNL     1       0.897  -0.112   2.932  1.00  0.00     0.017 C 
BRANCH   7   9
ATOM      9  C   UNL     1       3.089  -1.171   3.414  1.00  0.00     0.143 C 
ATOM     10  O   UNL     1       3.154  -1.649   4.554  1.00  0.00    -0.299 OA
BRANCH   9  11
ATOM     11  C   UNL     1       3.694  -1.902   2.201  1.00  0.00     0.083 C 
ATOM     12  C   UNL     1       2.752  -1.984   0.997  1.00  0.00     0.021 C 
BRANCH  11  13
ATOM     13  C   UNL     1       4.271  -3.287   2.532  1.00  0.00    -0.038 A 
ATOM     14  C   UNL     1       3.568  -4.479   2.283  1.00  0.00     0.004 A 
ATOM     15  C   UNL     1       5.571  -3.395   3.055  1.00  0.00     0.004 A 
ATOM     16  C   UNL     1       4.164  -5.727   2.487  1.00  0.00     0.000 A 
ATOM     17  C   UNL     1       6.165  -4.644   3.267  1.00  0.00     0.000 A 
ATOM     18  C   UNL     1       5.466  -5.810   2.969  1.00  0.00     0.000 A 
ENDBRANCH  11  13
ENDBRANCH   9  11
ENDBRANCH   7   9
ENDBRANCH   5   7
ENDBRANCH   3   5
ENDBRANCH   2   3
ENDBRANCH   1   2
BRANCH   1  19
ATOM     19  C   UNL     1       7.438   0.257   3.204  1.00  0.00     0.275 C 
BRANCH  19  20
ATOM     20  O   UNL     1       7.240  -0.481   1.968  1.00  0.00    -0.458 OA
BRANCH  20  21
ATOM     21  C   UNL     1       6.704   0.124   0.887  1.00  0.00     0.338 C 
ATOM     22  O   UNL     1       6.413   1.304   0.773  1.00  0.00    -0.246 OA
BRANCH  21  23
ATOM     23  C   UNL     1       6.337  -0.863  -0.152  1.00  0.00     0.060 A 
ATOM     24  C   UNL     1       5.214  -0.559  -0.931  1.00  0.00     0.016 A 
ATOM     25  C   UNL     1       7.063  -2.033  -0.397  1.00  0.00     0.016 A 
ATOM     26  C   UNL     1       4.830  -1.402  -1.966  1.00  0.00     0.010 A 
ATOM     27  C   UNL     1       6.721  -2.840  -1.491  1.00  0.00     0.010 A 
ATOM     28  C   UNL     1       5.624  -2.507  -2.303  1.00  0.00    -0.014 A 
BRANCH  28  29
ATOM     29  C   UNL     1       5.388  -3.171  -3.610  1.00  0.00     0.031 A 
ATOM     30  C   UNL     1       4.909  -4.586  -3.702  1.00  0.00     0.074 A 
ATOM     31  C   UNL     1       5.607  -2.447  -4.727  1.00  0.00     0.049 A 
ATOM     32  N   UNL     1       4.734  -5.322  -4.768  1.00  0.00    -0.248 NA
ATOM     33  C   UNL     1       4.580  -5.261  -2.439  1.00  0.00     0.031 C 
ATOM     34  C   UNL     1       6.056  -1.050  -4.744  1.00  0.00     0.029 A 
ATOM     35  N   UNL     1       5.480  -2.766  -6.054  1.00  0.00    -0.354 N 
ATOM     36  C   UNL     1       4.305  -6.561  -4.311  1.00  0.00     0.074 A 
ATOM     37  C   UNL     1       4.238  -6.472  -2.865  1.00  0.00     0.031 C 
ATOM     38  C   UNL     1       6.143  -0.627  -6.011  1.00  0.00     0.029 A 
ATOM     39  C   UNL     1       5.851  -1.745  -6.898  1.00  0.00     0.049 A 
ATOM     40  H   UNL     1       5.155  -3.639  -6.372  1.00  0.00     0.167 HD
ATOM     41  C   UNL     1       4.011  -7.666  -5.038  1.00  0.00     0.037 A 
ATOM     42  C   UNL     1       6.003  -1.719  -8.235  1.00  0.00     0.037 A 
ATOM     43  C   UNL     1       4.079  -7.723  -6.479  1.00  0.00     0.049 A 
ATOM     44  C   UNL     1       5.707  -2.961  -9.013  1.00  0.00     0.074 A 
ATOM     45  C   UNL     1       3.776  -8.784  -7.315  1.00  0.00     0.029 A 
ATOM     46  N   UNL     1       4.489  -6.678  -7.298  1.00  0.00    -0.354 N 
ATOM     47  N   UNL     1       5.314  -4.130  -8.565  1.00  0.00    -0.248 NA
ATOM     48  C   UNL     1       5.882  -2.893 -10.467  1.00  0.00     0.031 C 
ATOM     49  C   UNL     1       4.046  -8.396  -8.633  1.00  0.00     0.029 A 
ATOM     50  C   UNL     1       4.472  -7.077  -8.626  1.00  0.00     0.049 A 
ATOM     51  H   UNL     1       4.753  -5.784  -6.981  1.00  0.00     0.167 HD
ATOM     52  C   UNL     1       5.196  -4.943  -9.682  1.00  0.00     0.074 A 
ATOM     53  C   UNL     1       5.539  -4.122 -10.830  1.00  0.00     0.031 C 
ATOM     54  C   UNL     1       4.838  -6.249  -9.751  1.00  0.00     0.037 A 
BRANCH  41  55
ATOM     55  C   UNL     1       3.647  -8.918  -4.288  1.00  0.00     0.058 A 
ATOM     56  C   UNL     1       2.412  -9.072  -3.638  1.00  0.00     0.135 A 
ATOM     57  C   UNL     1       4.548  -9.996  -4.240  1.00  0.00     0.135 A 
ATOM     58  F   UNL     1       1.519  -8.070  -3.639  1.00  0.00    -0.206 F 
ATOM     59  C   UNL     1       2.096 -10.236  -2.942  1.00  0.00     0.059 A 
ATOM     60  C   UNL     1       4.244 -11.177  -3.569  1.00  0.00     0.059 A 
ATOM     61  F   UNL     1       5.743  -9.905  -4.844  1.00  0.00    -0.206 F 
ATOM     62  C   UNL     1       3.021 -11.281  -2.908  1.00  0.00     0.060 A 
BRANCH  62  63
ATOM     63  S   UNL     1       2.608 -12.778  -1.986  1.00  0.00     0.124 S 
ATOM     64  O   UNL     1       2.782 -12.327  -0.609  1.00  0.00    -0.237 OA
ATOM     65  O   UNL     1       1.232 -13.033  -2.400  1.00  0.00    -0.237 OA
ATOM     66  O   UNL     1       3.591 -13.749  -2.456  1.00  0.00    -0.744 OA
ENDBRANCH  62  63
ENDBRANCH  41  55
BRANCH  42  67
ATOM     67  C   UNL     1       6.522  -0.482  -8.873  1.00  0.00     0.058 A 
ATOM     68  C   UNL     1       5.688   0.367  -9.610  1.00  0.00     0.135 A 
ATOM     69  C   UNL     1       7.848  -0.069  -8.650  1.00  0.00     0.135 A 
ATOM     70  F   UNL     1       4.417   0.014  -9.855  1.00  0.00    -0.206 F 
ATOM     71  C   UNL     1       6.141   1.595 -10.085  1.00  0.00     0.059 A 
ATOM     72  C   UNL     1       8.315   1.163  -9.091  1.00  0.00     0.059 A 
ATOM     73  F   UNL     1       8.680  -0.841  -7.932  1.00  0.00    -0.206 F 
ATOM     74  C   UNL     1       7.452   1.991  -9.806  1.00  0.00     0.060 A 
BRANCH  74  75
ATOM     75  S   UNL     1       7.994   3.638 -10.314  1.00  0.00     0.124 S 
ATOM     76  O   UNL     1       8.216   3.445 -11.742  1.00  0.00    -0.237 OA
ATOM     77  O   UNL     1       6.847   4.465  -9.951  1.00  0.00    -0.237 OA
ATOM     78  O   UNL     1       9.192   3.857  -9.510  1.00  0.00    -0.744 OA
ENDBRANCH  74  75
ENDBRANCH  42  67
BRANCH  54  79
ATOM     79  C   UNL     1       4.791  -6.861 -11.120  1.00  0.00     0.058 A 
ATOM     80  C   UNL     1       5.963  -7.197 -11.814  1.00  0.00     0.135 A 
ATOM     81  C   UNL     1       3.559  -7.131 -11.736  1.00  0.00     0.135 A 
ATOM     82  F   UNL     1       7.165  -6.945 -11.272  1.00  0.00    -0.206 F 
ATOM     83  C   UNL     1       5.916  -7.758 -13.085  1.00  0.00     0.059 A 
ATOM     84  C   UNL     1       3.488  -7.714 -12.996  1.00  0.00     0.059 A 
ATOM     85  F   UNL     1       2.410  -6.833 -11.109  1.00  0.00    -0.206 F 
ATOM     86  C   UNL     1       4.673  -8.010 -13.669  1.00  0.00     0.060 A 
BRANCH  86  87
ATOM     87  S   UNL     1       4.622  -8.755 -15.312  1.00  0.00     0.124 S 
ATOM     88  O   UNL     1       4.968  -7.618 -16.159  1.00  0.00    -0.237 OA
ATOM     89  O   UNL     1       5.632  -9.803 -15.214  1.00  0.00    -0.237 OA
ATOM     90  O   UNL     1       3.246  -9.228 -15.427  1.00  0.00    -0.744 OA
ENDBRANCH  86  87
ENDBRANCH  54  79
ENDBRANCH  28  29
ENDBRANCH  21  23
ENDBRANCH  20  21
ENDBRANCH  19  20
ENDBRANCH   1  19
TORSDOF 18
