REMARK SMILES CCOc1cc2c(cc1/C=C1/C(=O)N(c3cccc(C(=O)OCCOC(=O)c4ccc(-c5c6nc(c(-c7c(F)cc(S(=O)(=O)[O-])cc7F)c7ccc([nH]7)c(-c7c(F)cc(S(=O)(=O)[O-])cc7F)c7nc(c(-c8c(F)cc(S(=O)(=O)[O-])cc8F)c8ccc5[nH]8)C=C7)C=C6)cc4)c3)C(=S)N=C1O)OCO2
REMARK SMILES IDX 23 1 22 2 20 3 21 4 19 5 15 6 16 7 94 8 17 9 18 10 14 11
REMARK SMILES IDX 10 12 11 13 12 14 98 15 13 16 97 17 95 18 96 19 9 20 4 21
REMARK SMILES IDX 5 22 6 23 8 24 7 25 102 26 100 27 101 28 3 29 2 30 1 31
REMARK SMILES IDX 99 32 24 34 25 35 26 36 27 37 28 38 29 39 93 40 30 41 92 42
REMARK SMILES IDX 31 43 32 44 33 45 86 46 34 47 91 48 85 49 87 50 35 51 90 52
REMARK SMILES IDX 84 53 83 54 36 56 70 57 49 58 69 59 50 60 53 61 68 62 88 63
REMARK SMILES IDX 51 64 52 65 67 67 89 68 54 69 37 70 38 71 47 72 39 73 40 74
REMARK SMILES IDX 46 75 48 76 41 77 42 78 43 79 44 80 45 81 71 82 72 83 81 84
REMARK SMILES IDX 73 85 74 86 80 87 82 88 75 89 76 90 77 91 78 92 79 93 55 94
REMARK SMILES IDX 56 95 65 96 57 97 58 98 64 99 66 100 59 101 60 102 61 103
REMARK SMILES IDX 62 104 63 105
REMARK H PARENT 99 33 87 55 53 66
REMARK Flexibility Score: inf
ROOT
ATOM      1  C   UNL     1      -2.039 -10.652   1.890  1.00  0.00     0.275 C 
ENDROOT
BRANCH   1   2
ATOM      2  O   UNL     1      -1.160  -9.995   2.824  1.00  0.00    -0.458 OA
BRANCH   2   3
ATOM      3  C   UNL     1      -1.653  -9.796   4.077  1.00  0.00     0.338 C 
ATOM      4  O   UNL     1      -2.752 -10.106   4.480  1.00  0.00    -0.246 OA
BRANCH   3   5
ATOM      5  C   UNL     1      -0.594  -9.222   4.952  1.00  0.00     0.062 A 
ATOM      6  C   UNL     1       1.437  -7.927   5.261  1.00  0.00     0.052 A 
ATOM      7  C   UNL     1       1.417  -8.224   6.630  1.00  0.00     0.027 A 
ATOM      8  C   UNL     1       0.439  -8.449   4.424  1.00  0.00     0.042 A 
ATOM      9  C   UNL     1       0.383  -8.997   7.161  1.00  0.00     0.003 A 
ATOM     10  C   UNL     1      -0.638  -9.460   6.331  1.00  0.00     0.016 A 
BRANCH   6  11
ATOM     11  N   UNL     1       2.392  -7.022   4.694  1.00  0.00    -0.251 N 
ATOM     12  C   UNL     1       2.422  -3.667   3.279  1.00  0.00     0.031 C 
ATOM     13  C   UNL     1       2.820  -4.941   3.499  1.00  0.00     0.103 C 
ATOM     14  C   UNL     1       1.833  -5.876   4.096  1.00  0.00     0.270 C 
ATOM     15  C   UNL     1       4.125  -5.545   3.272  1.00  0.00     0.226 C 
ATOM     16  O   UNL     1       0.632  -5.603   4.069  1.00  0.00    -0.268 OA
ATOM     17  N   UNL     1       4.582  -6.604   3.817  1.00  0.00    -0.184 NA
ATOM     18  C   UNL     1       3.776  -7.320   4.676  1.00  0.00     0.210 C 
ATOM     19  S   UNL     1       4.528  -8.581   5.526  1.00  0.00    -0.038 S 
BRANCH  12  20
ATOM     20  C   UNL     1       3.218  -2.531   2.768  1.00  0.00     0.021 A 
ATOM     21  C   UNL     1       2.667  -1.593   1.849  1.00  0.00     0.130 A 
ATOM     22  C   UNL     1       3.475  -0.599   1.283  1.00  0.00     0.097 A 
ATOM     23  C   UNL     1       4.808  -0.576   1.626  1.00  0.00     0.169 A 
ATOM     24  C   UNL     1       4.545  -2.364   3.199  1.00  0.00     0.062 A 
ATOM     25  C   UNL     1       5.324  -1.422   2.573  1.00  0.00     0.166 A 
ATOM     26  O   UNL     1       5.751   0.263   1.118  1.00  0.00    -0.453 OA
ATOM     27  O   UNL     1       6.652  -1.228   2.780  1.00  0.00    -0.454 OA
ATOM     28  C   UNL     1       6.938  -0.266   1.746  1.00  0.00     0.468 C 
BRANCH  21  29
ATOM     29  O   UNL     1       1.309  -1.603   1.647  1.00  0.00    -0.493 OA
BRANCH  29  30
ATOM     30  C   UNL     1       0.860  -1.598   0.288  1.00  0.00     0.226 C 
ATOM     31  C   UNL     1       0.616  -0.197  -0.256  1.00  0.00     0.049 C 
ENDBRANCH  29  30
ENDBRANCH  21  29
ENDBRANCH  12  20
BRANCH  15  32
ATOM     32  O   UNL     1       4.903  -4.983   2.345  1.00  0.00    -0.493 OA
ATOM     33  H   UNL     1       4.623  -4.203   1.909  1.00  0.00     0.295 HD
ENDBRANCH  15  32
ENDBRANCH   6  11
ENDBRANCH   3   5
ENDBRANCH   2   3
ENDBRANCH   1   2
BRANCH   1  34
ATOM     34  C   UNL     1      -1.598 -12.095   1.647  1.00  0.00     0.275 C 
BRANCH  34  35
ATOM     35  O   UNL     1      -1.751 -12.868   2.851  1.00  0.00    -0.458 OA
BRANCH  35  36
ATOM     36  C   UNL     1      -0.601 -13.291   3.423  1.00  0.00     0.338 C 
ATOM     37  O   UNL     1       0.534 -13.163   2.995  1.00  0.00    -0.246 OA
BRANCH  36  38
ATOM     38  C   UNL     1      -0.895 -13.863   4.745  1.00  0.00     0.060 A 
ATOM     39  C   UNL     1      -1.086 -12.981   5.802  1.00  0.00     0.016 A 
ATOM     40  C   UNL     1      -0.832 -15.233   4.982  1.00  0.00     0.016 A 
ATOM     41  C   UNL     1      -1.138 -13.443   7.112  1.00  0.00     0.010 A 
ATOM     42  C   UNL     1      -0.967 -15.707   6.295  1.00  0.00     0.010 A 
ATOM     43  C   UNL     1      -1.084 -14.816   7.381  1.00  0.00    -0.014 A 
BRANCH  43  44
ATOM     44  C   UNL     1      -1.075 -15.296   8.794  1.00  0.00     0.031 A 
ATOM     45  C   UNL     1       0.096 -16.096   9.312  1.00  0.00     0.074 A 
ATOM     46  C   UNL     1      -2.084 -14.983   9.634  1.00  0.00     0.049 A 
ATOM     47  N   UNL     1       0.231 -16.725  10.452  1.00  0.00    -0.248 NA
ATOM     48  C   UNL     1       1.264 -16.212   8.425  1.00  0.00     0.031 C 
ATOM     49  C   UNL     1      -3.253 -14.170   9.291  1.00  0.00     0.029 A 
ATOM     50  N   UNL     1      -2.284 -15.302  10.956  1.00  0.00    -0.354 N 
ATOM     51  C   UNL     1       1.469 -17.357  10.395  1.00  0.00     0.074 A 
ATOM     52  C   UNL     1       2.043 -17.041   9.105  1.00  0.00     0.031 C 
ATOM     53  C   UNL     1      -4.024 -14.022  10.379  1.00  0.00     0.029 A 
ATOM     54  C   UNL     1      -3.457 -14.802  11.474  1.00  0.00     0.049 A 
ATOM     55  H   UNL     1      -1.649 -15.838  11.483  1.00  0.00     0.167 HD
ATOM     56  C   UNL     1       2.072 -18.128  11.333  1.00  0.00     0.037 A 
ATOM     57  C   UNL     1      -4.038 -14.982  12.677  1.00  0.00     0.037 A 
ATOM     58  C   UNL     1       1.523 -18.388  12.640  1.00  0.00     0.049 A 
ATOM     59  C   UNL     1      -3.367 -15.868  13.690  1.00  0.00     0.074 A 
ATOM     60  C   UNL     1       2.065 -19.144  13.665  1.00  0.00     0.029 A 
ATOM     61  N   UNL     1       0.317 -17.889  13.108  1.00  0.00    -0.354 N 
ATOM     62  N   UNL     1      -2.224 -16.505  13.599  1.00  0.00    -0.248 NA
ATOM     63  C   UNL     1      -4.073 -16.077  14.962  1.00  0.00     0.031 C 
ATOM     64  C   UNL     1       1.169 -19.133  14.740  1.00  0.00     0.029 A 
ATOM     65  C   UNL     1       0.090 -18.332  14.402  1.00  0.00     0.049 A 
ATOM     66  H   UNL     1      -0.290 -17.306  12.597  1.00  0.00     0.167 HD
ATOM     67  C   UNL     1      -2.068 -17.180  14.805  1.00  0.00     0.074 A 
ATOM     68  C   UNL     1      -3.224 -16.857  15.616  1.00  0.00     0.031 C 
ATOM     69  C   UNL     1      -1.062 -17.998  15.201  1.00  0.00     0.037 A 
BRANCH  56  70
ATOM     70  C   UNL     1       3.381 -18.777  10.970  1.00  0.00     0.058 A 
ATOM     71  C   UNL     1       4.572 -18.046  10.852  1.00  0.00     0.135 A 
ATOM     72  C   UNL     1       3.445 -20.167  10.771  1.00  0.00     0.135 A 
ATOM     73  F   UNL     1       4.567 -16.713  11.017  1.00  0.00    -0.206 F 
ATOM     74  C   UNL     1       5.776 -18.663  10.521  1.00  0.00     0.059 A 
ATOM     75  C   UNL     1       4.642 -20.809  10.466  1.00  0.00     0.059 A 
ATOM     76  F   UNL     1       2.337 -20.917  10.873  1.00  0.00    -0.206 F 
ATOM     77  C   UNL     1       5.800 -20.046  10.328  1.00  0.00     0.060 A 
BRANCH  77  78
ATOM     78  S   UNL     1       7.367 -20.834   9.899  1.00  0.00     0.124 S 
ATOM     79  O   UNL     1       7.531 -20.420   8.509  1.00  0.00    -0.237 OA
ATOM     80  O   UNL     1       8.292 -20.231  10.853  1.00  0.00    -0.237 OA
ATOM     81  O   UNL     1       7.100 -22.255  10.102  1.00  0.00    -0.744 OA
ENDBRANCH  77  78
ENDBRANCH  56  70
BRANCH  57  82
ATOM     82  C   UNL     1      -5.351 -14.344  12.972  1.00  0.00     0.058 A 
ATOM     83  C   UNL     1      -5.464 -13.321  13.924  1.00  0.00     0.135 A 
ATOM     84  C   UNL     1      -6.518 -14.741  12.298  1.00  0.00     0.135 A 
ATOM     85  F   UNL     1      -4.382 -12.916  14.606  1.00  0.00    -0.206 F 
ATOM     86  C   UNL     1      -6.687 -12.718  14.204  1.00  0.00     0.059 A 
ATOM     87  C   UNL     1      -7.745 -14.132  12.538  1.00  0.00     0.059 A 
ATOM     88  F   UNL     1      -6.463 -15.710  11.372  1.00  0.00    -0.206 F 
ATOM     89  C   UNL     1      -7.822 -13.128  13.501  1.00  0.00     0.060 A 
BRANCH  89  90
ATOM     90  S   UNL     1      -9.394 -12.303  13.830  1.00  0.00     0.124 S 
ATOM     91  O   UNL     1      -9.761 -12.875  15.120  1.00  0.00    -0.237 OA
ATOM     92  O   UNL     1      -9.007 -10.896  13.842  1.00  0.00    -0.237 OA
ATOM     93  O   UNL     1     -10.226 -12.706  12.700  1.00  0.00    -0.744 OA
ENDBRANCH  89  90
ENDBRANCH  57  82
BRANCH  69  94
ATOM     94  C   UNL     1      -1.148 -18.576  16.586  1.00  0.00     0.058 A 
ATOM     95  C   UNL     1      -2.053 -19.601  16.903  1.00  0.00     0.135 A 
ATOM     96  C   UNL     1      -0.285 -18.127  17.599  1.00  0.00     0.135 A 
ATOM     97  F   UNL     1      -2.906 -20.061  15.973  1.00  0.00    -0.206 F 
ATOM     98  C   UNL     1      -2.116 -20.144  18.182  1.00  0.00     0.059 A 
ATOM     99  C   UNL     1      -0.313 -18.674  18.878  1.00  0.00     0.059 A 
ATOM    100  F   UNL     1       0.606 -17.154  17.346  1.00  0.00    -0.206 F 
ATOM    101  C   UNL     1      -1.241 -19.674  19.163  1.00  0.00     0.060 A 
BRANCH 101 102
ATOM    102  S   UNL     1      -1.313 -20.407  20.811  1.00  0.00     0.124 S 
ATOM    103  O   UNL     1      -2.534 -19.813  21.344  1.00  0.00    -0.237 OA
ATOM    104  O   UNL     1      -1.378 -21.835  20.517  1.00  0.00    -0.237 OA
ATOM    105  O   UNL     1      -0.072 -19.959  21.437  1.00  0.00    -0.744 OA
ENDBRANCH 101 102
ENDBRANCH  69  94
ENDBRANCH  43  44
ENDBRANCH  36  38
ENDBRANCH  35  36
ENDBRANCH  34  35
ENDBRANCH   1  34
TORSDOF 19
