REMARK SMILES O=C(Cc1ccc(-c2cccc(F)c2F)cc1)OCCOC(=O)c1ccc(-c2c3nc(c(-c4c(F)cc(S(=O)(=O)[O-])cc4F)c4ccc([nH]4)c(-c4c(F)cc(S(=O)(=O)[O-])cc4F)c4nc(c(-c5c(F)cc(S(=O)(=O)[O-])cc5F)c5ccc2[nH]5)C=C4)C=C3)cc1
REMARK SMILES IDX 20 1 19 2 18 3 2 4 1 5 3 6 4 7 5 8 17 9 6 10 16 11 7 12 8 13
REMARK SMILES IDX 9 14 14 15 10 16 12 17 15 18 11 19 13 20 21 21 22 22 23 23
REMARK SMILES IDX 24 24 25 25 89 26 26 27 88 28 27 29 28 30 29 31 82 32 30 33
REMARK SMILES IDX 87 34 81 35 83 36 31 37 86 38 80 39 79 40 32 42 66 43 45 44
REMARK SMILES IDX 65 45 46 46 49 47 64 48 84 49 47 50 48 51 63 53 85 54 50 55
REMARK SMILES IDX 33 56 34 57 43 58 35 59 36 60 42 61 44 62 37 63 38 64 39 65
REMARK SMILES IDX 40 66 41 67 67 68 68 69 77 70 69 71 70 72 76 73 78 74 71 75
REMARK SMILES IDX 72 76 73 77 74 78 75 79 51 80 52 81 61 82 53 83 54 84 60 85
REMARK SMILES IDX 62 86 55 87 56 88 57 89 58 90 59 91
REMARK H PARENT 83 41 49 52
REMARK Flexibility Score: inf
ROOT
ATOM      1  C   UNL     1       4.180   2.148   0.556  1.00  0.00     0.275 C 
ENDROOT
BRANCH   1   2
ATOM      2  C   UNL     1       3.944   1.179  -0.606  1.00  0.00     0.274 C 
BRANCH   2   3
ATOM      3  O   UNL     1       2.583   0.718  -0.691  1.00  0.00    -0.462 OA
BRANCH   3   4
ATOM      4  C   UNL     1       2.262  -0.593  -0.515  1.00  0.00     0.310 C 
ATOM      5  O   UNL     1       1.389  -1.114  -1.205  1.00  0.00    -0.252 OA
BRANCH   4   6
ATOM      6  C   UNL     1       2.917  -1.326   0.638  1.00  0.00     0.158 C 
BRANCH   6   7
ATOM      7  C   UNL     1       3.814  -2.462   0.237  1.00  0.00    -0.037 A 
ATOM      8  C   UNL     1       3.294  -3.741   0.045  1.00  0.00     0.005 A 
ATOM      9  C   UNL     1       5.188  -2.256   0.068  1.00  0.00     0.005 A 
ATOM     10  C   UNL     1       4.131  -4.783  -0.357  1.00  0.00     0.009 A 
ATOM     11  C   UNL     1       6.013  -3.289  -0.369  1.00  0.00     0.009 A 
ATOM     12  C   UNL     1       5.498  -4.570  -0.609  1.00  0.00    -0.015 A 
BRANCH  12  13
ATOM     13  C   UNL     1       6.348  -5.641  -1.156  1.00  0.00     0.020 A 
ATOM     14  C   UNL     1       5.864  -6.462  -2.195  1.00  0.00     0.012 A 
ATOM     15  C   UNL     1       7.661  -5.866  -0.714  1.00  0.00     0.166 A 
ATOM     16  C   UNL     1       6.652  -7.469  -2.759  1.00  0.00     0.004 A 
ATOM     17  C   UNL     1       8.446  -6.866  -1.281  1.00  0.00     0.159 A 
ATOM     18  F   UNL     1       8.192  -5.111   0.263  1.00  0.00    -0.203 F 
ATOM     19  C   UNL     1       7.949  -7.671  -2.299  1.00  0.00     0.042 A 
ATOM     20  F   UNL     1       9.703  -7.054  -0.855  1.00  0.00    -0.204 F 
ENDBRANCH  12  13
ENDBRANCH   6   7
ENDBRANCH   4   6
ENDBRANCH   3   4
ENDBRANCH   2   3
ENDBRANCH   1   2
BRANCH   1  21
ATOM     21  O   UNL     1       3.829   1.552   1.816  1.00  0.00    -0.458 OA
BRANCH  21  22
ATOM     22  C   UNL     1       2.544   1.766   2.202  1.00  0.00     0.338 C 
ATOM     23  O   UNL     1       1.752   2.530   1.676  1.00  0.00    -0.246 OA
BRANCH  22  24
ATOM     24  C   UNL     1       2.157   0.786   3.246  1.00  0.00     0.060 A 
ATOM     25  C   UNL     1       0.850   0.285   3.205  1.00  0.00     0.016 A 
ATOM     26  C   UNL     1       3.044   0.346   4.236  1.00  0.00     0.016 A 
ATOM     27  C   UNL     1       0.406  -0.601   4.187  1.00  0.00     0.010 A 
ATOM     28  C   UNL     1       2.596  -0.542   5.223  1.00  0.00     0.010 A 
ATOM     29  C   UNL     1       1.261  -0.984   5.229  1.00  0.00    -0.014 A 
BRANCH  29  30
ATOM     30  C   UNL     1       0.684  -1.656   6.420  1.00  0.00     0.031 A 
ATOM     31  C   UNL     1       0.276  -0.801   7.592  1.00  0.00     0.074 A 
ATOM     32  C   UNL     1       0.467  -2.984   6.452  1.00  0.00     0.049 A 
ATOM     33  N   UNL     1      -0.342  -1.140   8.694  1.00  0.00    -0.248 NA
ATOM     34  C   UNL     1       0.610   0.630   7.506  1.00  0.00     0.031 C 
ATOM     35  C   UNL     1       0.804  -3.926   5.387  1.00  0.00     0.029 A 
ATOM     36  N   UNL     1      -0.101  -3.767   7.428  1.00  0.00    -0.354 N 
ATOM     37  C   UNL     1      -0.481   0.034   9.424  1.00  0.00     0.074 A 
ATOM     38  C   UNL     1       0.157   1.085   8.663  1.00  0.00     0.031 C 
ATOM     39  C   UNL     1       0.430  -5.162   5.766  1.00  0.00     0.029 A 
ATOM     40  C   UNL     1      -0.166  -5.101   7.100  1.00  0.00     0.049 A 
ATOM     41  H   UNL     1      -0.432  -3.406   8.282  1.00  0.00     0.167 HD
ATOM     42  C   UNL     1      -1.100   0.228  10.613  1.00  0.00     0.037 A 
ATOM     43  C   UNL     1      -0.657  -6.146   7.796  1.00  0.00     0.037 A 
ATOM     44  C   UNL     1      -1.730  -0.813  11.379  1.00  0.00     0.049 A 
ATOM     45  C   UNL     1      -1.297  -5.915   9.143  1.00  0.00     0.074 A 
ATOM     46  C   UNL     1      -2.409  -0.708  12.580  1.00  0.00     0.029 A 
ATOM     47  N   UNL     1      -1.747  -2.154  11.026  1.00  0.00    -0.354 N 
ATOM     48  N   UNL     1      -1.484  -4.788   9.789  1.00  0.00    -0.248 NA
ATOM     49  C   UNL     1      -1.805  -7.101   9.850  1.00  0.00     0.031 C 
ATOM     50  C   UNL     1      -2.797  -1.992  12.977  1.00  0.00     0.029 A 
ATOM     51  C   UNL     1      -2.402  -2.890  11.999  1.00  0.00     0.049 A 
ATOM     52  H   UNL     1      -1.351  -2.527  10.206  1.00  0.00     0.167 HD
ATOM     53  C   UNL     1      -2.167  -5.125  10.955  1.00  0.00     0.074 A 
ATOM     54  C   UNL     1      -2.361  -6.559  10.926  1.00  0.00     0.031 C 
ATOM     55  C   UNL     1      -2.603  -4.317  11.954  1.00  0.00     0.037 A 
BRANCH  42  56
ATOM     56  C   UNL     1      -1.105   1.626  11.162  1.00  0.00     0.058 A 
ATOM     57  C   UNL     1      -1.900   2.636  10.597  1.00  0.00     0.135 A 
ATOM     58  C   UNL     1      -0.309   1.958  12.269  1.00  0.00     0.135 A 
ATOM     59  F   UNL     1      -2.664   2.374   9.524  1.00  0.00    -0.206 F 
ATOM     60  C   UNL     1      -1.880   3.936  11.089  1.00  0.00     0.059 A 
ATOM     61  C   UNL     1      -0.292   3.246  12.794  1.00  0.00     0.059 A 
ATOM     62  F   UNL     1       0.472   1.030  12.843  1.00  0.00    -0.206 F 
ATOM     63  C   UNL     1      -1.068   4.233  12.186  1.00  0.00     0.060 A 
BRANCH  63  64
ATOM     64  S   UNL     1      -1.038   5.928  12.805  1.00  0.00     0.124 S 
ATOM     65  O   UNL     1      -0.234   6.595  11.785  1.00  0.00    -0.237 OA
ATOM     66  O   UNL     1      -2.454   6.279  12.826  1.00  0.00    -0.237 OA
ATOM     67  O   UNL     1      -0.408   5.799  14.116  1.00  0.00    -0.744 OA
ENDBRANCH  63  64
ENDBRANCH  42  56
BRANCH  43  68
ATOM     68  C   UNL     1      -0.596  -7.519   7.225  1.00  0.00     0.058 A 
ATOM     69  C   UNL     1      -1.758  -8.178   6.798  1.00  0.00     0.135 A 
ATOM     70  C   UNL     1       0.622  -8.209   7.121  1.00  0.00     0.135 A 
ATOM     71  F   UNL     1      -2.948  -7.565   6.891  1.00  0.00    -0.206 F 
ATOM     72  C   UNL     1      -1.721  -9.479   6.306  1.00  0.00     0.059 A 
ATOM     73  C   UNL     1       0.688  -9.502   6.612  1.00  0.00     0.059 A 
ATOM     74  F   UNL     1       1.763  -7.621   7.511  1.00  0.00    -0.206 F 
ATOM     75  C   UNL     1      -0.491 -10.133   6.217  1.00  0.00     0.060 A 
BRANCH  75  76
ATOM     76  S   UNL     1      -0.447 -11.809   5.542  1.00  0.00     0.124 S 
ATOM     77  O   UNL     1      -0.999 -12.585   6.646  1.00  0.00    -0.237 OA
ATOM     78  O   UNL     1      -1.296 -11.686   4.361  1.00  0.00    -0.237 OA
ATOM     79  O   UNL     1       0.971 -12.021   5.266  1.00  0.00    -0.744 OA
ENDBRANCH  75  76
ENDBRANCH  43  68
BRANCH  55  80
ATOM     80  C   UNL     1      -3.376  -4.951  13.079  1.00  0.00     0.058 A 
ATOM     81  C   UNL     1      -2.755  -5.752  14.049  1.00  0.00     0.135 A 
ATOM     82  C   UNL     1      -4.754  -4.712  13.213  1.00  0.00     0.135 A 
ATOM     83  F   UNL     1      -1.440  -6.014  13.968  1.00  0.00    -0.206 F 
ATOM     84  C   UNL     1      -3.476  -6.318  15.097  1.00  0.00     0.059 A 
ATOM     85  C   UNL     1      -5.490  -5.246  14.267  1.00  0.00     0.059 A 
ATOM     86  F   UNL     1      -5.397  -3.941  12.322  1.00  0.00    -0.206 F 
ATOM     87  C   UNL     1      -4.845  -6.060  15.196  1.00  0.00     0.060 A 
BRANCH  87  88
ATOM     88  S   UNL     1      -5.769  -6.779  16.572  1.00  0.00     0.124 S 
ATOM     89  O   UNL     1      -5.911  -8.165  16.137  1.00  0.00    -0.237 OA
ATOM     90  O   UNL     1      -4.872  -6.559  17.703  1.00  0.00    -0.237 OA
ATOM     91  O   UNL     1      -7.002  -5.998  16.597  1.00  0.00    -0.744 OA
ENDBRANCH  87  88
ENDBRANCH  55  80
ENDBRANCH  29  30
ENDBRANCH  22  24
ENDBRANCH  21  22
ENDBRANCH   1  21
TORSDOF 16
