REMARK SMILES O=C(OCCOC(=O)c1cc2sc(Cl)cc2s1)c1ccc(-c2c3nc(c(-c4c(F)cc(S(=O)(=O)[O-])cc4F)c4ccc([nH]4)c(-c4c(F)cc(S(=O)(=O)[O-])cc4F)c4nc(c(-c5c(F)cc(S(=O)(=O)[O-])cc5F)c5ccc2[nH]5)C=C4)C=C3)cc1
REMARK SMILES IDX 3 1 2 2 1 3 18 4 19 5 83 6 20 7 82 8 21 9 22 10 23 11 76 12
REMARK SMILES IDX 24 13 81 14 75 15 77 16 25 17 80 18 74 19 73 20 26 22 60 23
REMARK SMILES IDX 39 24 59 25 40 26 43 27 58 28 78 29 41 30 42 31 57 33 79 34
REMARK SMILES IDX 44 35 27 36 28 37 37 38 29 39 30 40 36 41 38 42 31 43 32 44
REMARK SMILES IDX 33 45 34 46 35 47 61 48 62 49 71 50 63 51 64 52 70 53 72 54
REMARK SMILES IDX 65 55 66 56 67 57 68 58 69 59 45 60 46 61 55 62 47 63 48 64
REMARK SMILES IDX 54 65 56 66 49 67 50 68 51 69 52 70 53 71 4 72 5 73 6 74
REMARK SMILES IDX 7 75 8 76 9 77 10 78 17 79 11 80 16 81 12 82 15 83 13 84
REMARK SMILES IDX 14 85
REMARK H PARENT 77 21 43 32
REMARK Flexibility Score: inf
ROOT
ATOM      1  O   UNL     1       3.410  -1.295  -0.657  1.00  0.00    -0.458 OA
ENDROOT
BRANCH   1   2
ATOM      2  C   UNL     1       2.326  -0.600  -0.254  1.00  0.00     0.338 C 
ATOM      3  O   UNL     1       1.477  -0.166  -1.016  1.00  0.00    -0.246 OA
BRANCH   2   4
ATOM      4  C   UNL     1       2.161  -0.615   1.218  1.00  0.00     0.060 A 
ATOM      5  C   UNL     1       3.233  -0.824   2.093  1.00  0.00     0.016 A 
ATOM      6  C   UNL     1       0.868  -0.429   1.724  1.00  0.00     0.016 A 
ATOM      7  C   UNL     1       3.000  -0.945   3.453  1.00  0.00     0.010 A 
ATOM      8  C   UNL     1       0.637  -0.528   3.086  1.00  0.00     0.010 A 
ATOM      9  C   UNL     1       1.694  -0.849   3.937  1.00  0.00    -0.014 A 
BRANCH   9  10
ATOM     10  C   UNL     1       1.475  -1.047   5.365  1.00  0.00     0.031 A 
ATOM     11  C   UNL     1       2.149  -0.050   6.244  1.00  0.00     0.074 A 
ATOM     12  C   UNL     1       0.629  -1.986   5.837  1.00  0.00     0.049 A 
ATOM     13  N   UNL     1       3.111  -0.241   7.087  1.00  0.00    -0.248 NA
ATOM     14  C   UNL     1       1.809   1.368   6.049  1.00  0.00     0.031 C 
ATOM     15  C   UNL     1      -0.289  -2.838   5.075  1.00  0.00     0.029 A 
ATOM     16  N   UNL     1       0.335  -2.309   7.125  1.00  0.00    -0.354 N 
ATOM     17  C   UNL     1       3.329   0.990   7.707  1.00  0.00     0.074 A 
ATOM     18  C   UNL     1       2.647   1.965   6.898  1.00  0.00     0.031 C 
ATOM     19  C   UNL     1      -1.196  -3.385   5.915  1.00  0.00     0.029 A 
ATOM     20  C   UNL     1      -0.833  -3.048   7.280  1.00  0.00     0.049 A 
ATOM     21  H   UNL     1       0.902  -2.043   7.884  1.00  0.00     0.167 HD
ATOM     22  C   UNL     1       3.839   1.068   8.970  1.00  0.00     0.037 A 
ATOM     23  C   UNL     1      -1.480  -3.309   8.446  1.00  0.00     0.037 A 
ATOM     24  C   UNL     1       4.489  -0.167   9.338  1.00  0.00     0.049 A 
ATOM     25  C   UNL     1      -0.494  -3.115   9.542  1.00  0.00     0.074 A 
ATOM     26  C   UNL     1       5.539  -0.907   8.827  1.00  0.00     0.029 A 
ATOM     27  N   UNL     1       3.821  -1.015  10.188  1.00  0.00    -0.354 N 
ATOM     28  N   UNL     1       0.557  -3.871   9.710  1.00  0.00    -0.248 NA
ATOM     29  C   UNL     1      -0.416  -1.796  10.153  1.00  0.00     0.031 C 
ATOM     30  C   UNL     1       5.145  -2.267   8.996  1.00  0.00     0.029 A 
ATOM     31  C   UNL     1       3.921  -2.277   9.665  1.00  0.00     0.049 A 
ATOM     32  H   UNL     1       3.357  -0.762  11.019  1.00  0.00     0.167 HD
ATOM     33  C   UNL     1       1.574  -2.995  10.062  1.00  0.00     0.074 A 
ATOM     34  C   UNL     1       0.897  -1.742  10.393  1.00  0.00     0.031 C 
ATOM     35  C   UNL     1       2.881  -3.276   9.779  1.00  0.00     0.037 A 
BRANCH  22  36
ATOM     36  C   UNL     1       3.401   2.079  10.017  1.00  0.00     0.058 A 
ATOM     37  C   UNL     1       4.010   2.042  11.293  1.00  0.00     0.135 A 
ATOM     38  C   UNL     1       2.219   2.848   9.940  1.00  0.00     0.135 A 
ATOM     39  F   UNL     1       5.159   1.374  11.485  1.00  0.00    -0.206 F 
ATOM     40  C   UNL     1       3.416   2.601  12.425  1.00  0.00     0.059 A 
ATOM     41  C   UNL     1       1.636   3.455  11.048  1.00  0.00     0.059 A 
ATOM     42  F   UNL     1       1.512   2.977   8.813  1.00  0.00    -0.206 F 
ATOM     43  C   UNL     1       2.210   3.279  12.294  1.00  0.00     0.060 A 
BRANCH  43  44
ATOM     44  S   UNL     1       1.362   3.868  13.769  1.00  0.00     0.124 S 
ATOM     45  O   UNL     1       0.967   2.612  14.395  1.00  0.00    -0.237 OA
ATOM     46  O   UNL     1       2.417   4.617  14.444  1.00  0.00    -0.237 OA
ATOM     47  O   UNL     1       0.273   4.676  13.229  1.00  0.00    -0.744 OA
ENDBRANCH  43  44
ENDBRANCH  22  36
BRANCH  23  48
ATOM     48  C   UNL     1      -2.952  -3.331   8.679  1.00  0.00     0.058 A 
ATOM     49  C   UNL     1      -3.501  -3.837   9.872  1.00  0.00     0.135 A 
ATOM     50  C   UNL     1      -3.834  -2.602   7.856  1.00  0.00     0.135 A 
ATOM     51  F   UNL     1      -2.730  -4.525  10.729  1.00  0.00    -0.206 F 
ATOM     52  C   UNL     1      -4.830  -3.596  10.246  1.00  0.00     0.059 A 
ATOM     53  C   UNL     1      -5.163  -2.357   8.203  1.00  0.00     0.059 A 
ATOM     54  F   UNL     1      -3.406  -2.021   6.725  1.00  0.00    -0.206 F 
ATOM     55  C   UNL     1      -5.649  -2.836   9.412  1.00  0.00     0.060 A 
BRANCH  55  56
ATOM     56  S   UNL     1      -7.311  -2.376   9.962  1.00  0.00     0.124 S 
ATOM     57  O   UNL     1      -8.010  -3.655   9.916  1.00  0.00    -0.237 OA
ATOM     58  O   UNL     1      -7.058  -1.836  11.294  1.00  0.00    -0.237 OA
ATOM     59  O   UNL     1      -7.739  -1.396   8.967  1.00  0.00    -0.744 OA
ENDBRANCH  55  56
ENDBRANCH  23  48
BRANCH  35  60
ATOM     60  C   UNL     1       3.239  -4.670   9.335  1.00  0.00     0.058 A 
ATOM     61  C   UNL     1       2.800  -5.264   8.139  1.00  0.00     0.135 A 
ATOM     62  C   UNL     1       4.205  -5.367  10.077  1.00  0.00     0.135 A 
ATOM     63  F   UNL     1       1.960  -4.621   7.316  1.00  0.00    -0.206 F 
ATOM     64  C   UNL     1       3.271  -6.511   7.720  1.00  0.00     0.059 A 
ATOM     65  C   UNL     1       4.712  -6.595   9.663  1.00  0.00     0.059 A 
ATOM     66  F   UNL     1       4.714  -4.823  11.195  1.00  0.00    -0.206 F 
ATOM     67  C   UNL     1       4.231  -7.168   8.489  1.00  0.00     0.060 A 
BRANCH  67  68
ATOM     68  S   UNL     1       4.899  -8.742   7.909  1.00  0.00     0.124 S 
ATOM     69  O   UNL     1       3.768  -9.644   8.095  1.00  0.00    -0.237 OA
ATOM     70  O   UNL     1       5.254  -8.446   6.524  1.00  0.00    -0.237 OA
ATOM     71  O   UNL     1       6.037  -8.978   8.795  1.00  0.00    -0.744 OA
ENDBRANCH  67  68
ENDBRANCH  35  60
ENDBRANCH   9  10
ENDBRANCH   2   4
ENDBRANCH   1   2
BRANCH   1  72
ATOM     72  C   UNL     1       4.637  -0.589  -0.925  1.00  0.00     0.275 C 
BRANCH  72  73
ATOM     73  C   UNL     1       4.523   0.833  -1.475  1.00  0.00     0.275 C 
BRANCH  73  74
ATOM     74  O   UNL     1       4.032   1.727  -0.462  1.00  0.00    -0.458 OA
BRANCH  74  75
ATOM     75  C   UNL     1       2.973   2.518  -0.797  1.00  0.00     0.348 C 
ATOM     76  O   UNL     1       2.461   2.587  -1.915  1.00  0.00    -0.245 OA
BRANCH  75  77
ATOM     77  C   UNL     1       2.582   3.279   0.362  1.00  0.00     0.114 A 
ATOM     78  C   UNL     1       3.344   4.202   1.047  1.00  0.00     0.047 A 
ATOM     79  S   UNL     1       1.012   3.071   1.013  1.00  0.00    -0.127 S 
ATOM     80  C   UNL     1       2.662   4.656   2.214  1.00  0.00     0.048 A 
ATOM     81  C   UNL     1       1.435   4.070   2.377  1.00  0.00     0.047 A 
ATOM     82  S   UNL     1       3.039   5.761   3.511  1.00  0.00    -0.122 S 
ATOM     83  C   UNL     1       0.820   4.412   3.620  1.00  0.00     0.052 A 
ATOM     84  C   UNL     1       1.609   5.306   4.295  1.00  0.00     0.095 A 
ATOM     85  Cl  UNL     1       1.256   5.996   5.832  1.00  0.00    -0.072 Cl
ENDBRANCH  75  77
ENDBRANCH  74  75
ENDBRANCH  73  74
ENDBRANCH  72  73
ENDBRANCH   1  72
TORSDOF 14
