REMARK SMILES Cc1cc(Oc2ccnc(C(=O)OCCOC(=O)c3ccc(-c4c5nc(c(-c6c(F)cc(S(=O)(=O)[O-])cc6F)c6ccc([nH]6)c(-c6c(F)cc(S(=O)(=O)[O-])cc6F)c6nc(c(-c7c(F)cc(S(=O)(=O)[O-])cc7F)c7ccc4[nH]7)C=C6)C=C5)cc3)c2)cc(C)c1Cl
REMARK SMILES IDX 15 1 14 2 13 3 11 4 12 5 10 6 6 7 7 8 85 9 8 10 9 11 5 12
REMARK SMILES IDX 4 13 1 14 2 15 3 16 89 17 87 18 90 19 86 20 88 21 16 22
REMARK SMILES IDX 17 23 18 24 19 25 20 26 84 27 21 28 83 29 22 30 23 31 24 32
REMARK SMILES IDX 77 33 25 34 82 35 76 36 78 37 26 38 81 39 75 40 74 41 27 43
REMARK SMILES IDX 61 44 40 45 60 46 41 47 44 48 59 49 79 50 42 51 43 52 58 54
REMARK SMILES IDX 80 55 45 56 28 57 29 58 38 59 30 60 31 61 37 62 39 63 32 64
REMARK SMILES IDX 33 65 34 66 35 67 36 68 62 69 63 70 72 71 64 72 65 73 71 74
REMARK SMILES IDX 73 75 66 76 67 77 68 78 69 79 70 80 46 81 47 82 56 83 48 84
REMARK SMILES IDX 49 85 55 86 57 87 50 88 51 89 52 90 53 91 54 92
REMARK H PARENT 78 42 44 53
REMARK Flexibility Score: inf
ROOT
ATOM      1  C   UNL     1       7.457   3.891  -4.777  1.00  0.00     0.275 C 
ENDROOT
BRANCH   1   2
ATOM      2  C   UNL     1       7.996   2.611  -4.129  1.00  0.00     0.275 C 
BRANCH   2   3
ATOM      3  O   UNL     1       7.131   2.136  -3.079  1.00  0.00    -0.457 OA
BRANCH   3   4
ATOM      4  C   UNL     1       7.529   2.424  -1.809  1.00  0.00     0.357 C 
ATOM      5  O   UNL     1       8.577   2.975  -1.509  1.00  0.00    -0.244 OA
BRANCH   4   6
ATOM      6  C   UNL     1       6.471   2.037  -0.821  1.00  0.00     0.152 A 
ATOM      7  C   UNL     1       4.549   0.813  -0.138  1.00  0.00     0.131 A 
ATOM      8  C   UNL     1       4.571   1.479   1.084  1.00  0.00     0.067 A 
ATOM      9  C   UNL     1       5.511   1.082  -1.108  1.00  0.00     0.083 A 
ATOM     10  C   UNL     1       5.566   2.415   1.284  1.00  0.00     0.116 A 
ATOM     11  N   UNL     1       6.521   2.691   0.372  1.00  0.00    -0.249 NA
BRANCH   7  12
ATOM     12  O   UNL     1       3.684  -0.217  -0.411  1.00  0.00    -0.457 OA
BRANCH  12  13
ATOM     13  C   UNL     1       2.332  -0.059  -0.219  1.00  0.00     0.128 A 
ATOM     14  C   UNL     1      -0.459   2.517  -0.105  1.00  0.00     0.046 C 
ATOM     15  C   UNL     1       0.246   1.186  -0.096  1.00  0.00    -0.028 A 
ATOM     16  C   UNL     1       1.646   1.155  -0.237  1.00  0.00     0.052 A 
ATOM     17  C   UNL     1      -0.460  -0.029   0.018  1.00  0.00     0.047 A 
ATOM     18  C   UNL     1       0.223  -1.259   0.017  1.00  0.00    -0.028 A 
ATOM     19  Cl  UNL     1      -2.192  -0.014   0.135  1.00  0.00    -0.084 Cl
ATOM     20  C   UNL     1       1.620  -1.254  -0.096  1.00  0.00     0.052 A 
ATOM     21  C   UNL     1      -0.495  -2.577   0.102  1.00  0.00     0.046 C 
ENDBRANCH  12  13
ENDBRANCH   7  12
ENDBRANCH   4   6
ENDBRANCH   3   4
ENDBRANCH   2   3
ENDBRANCH   1   2
BRANCH   1  22
ATOM     22  O   UNL     1       7.502   5.018  -3.883  1.00  0.00    -0.458 OA
BRANCH  22  23
ATOM     23  C   UNL     1       6.365   5.235  -3.179  1.00  0.00     0.338 C 
ATOM     24  O   UNL     1       5.325   4.600  -3.254  1.00  0.00    -0.246 OA
BRANCH  23  25
ATOM     25  C   UNL     1       6.582   6.293  -2.179  1.00  0.00     0.060 A 
ATOM     26  C   UNL     1       6.498   5.929  -0.837  1.00  0.00     0.016 A 
ATOM     27  C   UNL     1       6.768   7.631  -2.533  1.00  0.00     0.016 A 
ATOM     28  C   UNL     1       6.582   6.890   0.164  1.00  0.00     0.010 A 
ATOM     29  C   UNL     1       6.864   8.601  -1.523  1.00  0.00     0.010 A 
ATOM     30  C   UNL     1       6.759   8.238  -0.168  1.00  0.00    -0.014 A 
BRANCH  30  31
ATOM     31  C   UNL     1       6.780   9.251   0.920  1.00  0.00     0.031 A 
ATOM     32  C   UNL     1       5.619  10.189   1.099  1.00  0.00     0.074 A 
ATOM     33  C   UNL     1       7.811   9.282   1.786  1.00  0.00     0.049 A 
ATOM     34  N   UNL     1       5.468  11.162   1.960  1.00  0.00    -0.248 NA
ATOM     35  C   UNL     1       4.475  10.007   0.192  1.00  0.00     0.031 C 
ATOM     36  C   UNL     1       8.971   8.389   1.750  1.00  0.00     0.029 A 
ATOM     37  N   UNL     1       8.045  10.087   2.874  1.00  0.00    -0.354 N 
ATOM     38  C   UNL     1       4.227  11.726   1.685  1.00  0.00     0.074 A 
ATOM     39  C   UNL     1       3.671  10.993   0.567  1.00  0.00     0.031 C 
ATOM     40  C   UNL     1       9.784   8.683   2.778  1.00  0.00     0.029 A 
ATOM     41  C   UNL     1       9.231   9.816   3.515  1.00  0.00     0.049 A 
ATOM     42  H   UNL     1       7.423  10.791   3.166  1.00  0.00     0.167 HD
ATOM     43  C   UNL     1       3.608  12.756   2.311  1.00  0.00     0.037 A 
ATOM     44  C   UNL     1       9.818  10.425   4.563  1.00  0.00     0.037 A 
ATOM     45  C   UNL     1       4.155  13.465   3.439  1.00  0.00     0.049 A 
ATOM     46  C   UNL     1       9.132  11.596   5.212  1.00  0.00     0.074 A 
ATOM     47  C   UNL     1       3.602  14.522   4.142  1.00  0.00     0.029 A 
ATOM     48  N   UNL     1       5.377  13.187   4.034  1.00  0.00    -0.354 N 
ATOM     49  N   UNL     1       7.970  12.133   4.922  1.00  0.00    -0.248 NA
ATOM     50  C   UNL     1       9.838  12.250   6.322  1.00  0.00     0.031 C 
ATOM     51  C   UNL     1       4.504  14.904   5.141  1.00  0.00     0.029 A 
ATOM     52  C   UNL     1       5.602  14.061   5.086  1.00  0.00     0.049 A 
ATOM     53  H   UNL     1       5.993  12.474   3.750  1.00  0.00     0.167 HD
ATOM     54  C   UNL     1       7.801  13.180   5.822  1.00  0.00     0.074 A 
ATOM     55  C   UNL     1       8.971  13.189   6.676  1.00  0.00     0.031 C 
ATOM     56  C   UNL     1       6.772  14.055   5.928  1.00  0.00     0.037 A 
BRANCH  43  57
ATOM     57  C   UNL     1       2.279  13.200   1.767  1.00  0.00     0.058 A 
ATOM     58  C   UNL     1       1.109  12.451   1.968  1.00  0.00     0.135 A 
ATOM     59  C   UNL     1       2.170  14.408   1.059  1.00  0.00     0.135 A 
ATOM     60  F   UNL     1       1.160  11.280   2.623  1.00  0.00    -0.206 F 
ATOM     61  C   UNL     1      -0.118  12.871   1.463  1.00  0.00     0.059 A 
ATOM     62  C   UNL     1       0.950  14.859   0.565  1.00  0.00     0.059 A 
ATOM     63  F   UNL     1       3.258  15.162   0.839  1.00  0.00    -0.206 F 
ATOM     64  C   UNL     1      -0.187  14.075   0.759  1.00  0.00     0.060 A 
BRANCH  64  65
ATOM     65  S   UNL     1      -1.784  14.606   0.105  1.00  0.00     0.124 S 
ATOM     66  O   UNL     1      -1.939  13.714  -1.040  1.00  0.00    -0.237 OA
ATOM     67  O   UNL     1      -2.682  14.357   1.227  1.00  0.00    -0.237 OA
ATOM     68  O   UNL     1      -1.567  16.012  -0.220  1.00  0.00    -0.744 OA
ENDBRANCH  64  65
ENDBRANCH  43  57
BRANCH  44  69
ATOM     69  C   UNL     1      11.143   9.954   5.048  1.00  0.00     0.058 A 
ATOM     70  C   UNL     1      11.276   9.308   6.285  1.00  0.00     0.135 A 
ATOM     71  C   UNL     1      12.302  10.136   4.276  1.00  0.00     0.135 A 
ATOM     72  F   UNL     1      10.200   9.122   7.064  1.00  0.00    -0.206 F 
ATOM     73  C   UNL     1      12.512   8.866   6.746  1.00  0.00     0.059 A 
ATOM     74  C   UNL     1      13.544   9.681   4.705  1.00  0.00     0.059 A 
ATOM     75  F   UNL     1      12.226  10.742   3.081  1.00  0.00    -0.206 F 
ATOM     76  C   UNL     1      13.642   9.056   5.947  1.00  0.00     0.060 A 
BRANCH  76  77
ATOM     77  S   UNL     1      15.236   8.438   6.529  1.00  0.00     0.124 S 
ATOM     78  O   UNL     1      15.596   9.445   7.521  1.00  0.00    -0.237 OA
ATOM     79  O   UNL     1      14.885   7.122   7.054  1.00  0.00    -0.237 OA
ATOM     80  O   UNL     1      16.051   8.424   5.318  1.00  0.00    -0.744 OA
ENDBRANCH  76  77
ENDBRANCH  44  69
BRANCH  56  81
ATOM     81  C   UNL     1       6.853  15.083   7.021  1.00  0.00     0.058 A 
ATOM     82  C   UNL     1       7.703  16.195   6.921  1.00  0.00     0.135 A 
ATOM     83  C   UNL     1       6.040  14.977   8.161  1.00  0.00     0.135 A 
ATOM     84  F   UNL     1       8.506  16.338   5.855  1.00  0.00    -0.206 F 
ATOM     85  C   UNL     1       7.759  17.158   7.924  1.00  0.00     0.059 A 
ATOM     86  C   UNL     1       6.063  15.940   9.165  1.00  0.00     0.059 A 
ATOM     87  F   UNL     1       5.202  13.937   8.300  1.00  0.00    -0.206 F 
ATOM     88  C   UNL     1       6.935  17.021   9.043  1.00  0.00     0.060 A 
BRANCH  88  89
ATOM     89  S   UNL     1       6.992  18.293  10.324  1.00  0.00     0.124 S 
ATOM     90  O   UNL     1       8.231  17.956  11.017  1.00  0.00    -0.237 OA
ATOM     91  O   UNL     1       7.017  19.526   9.543  1.00  0.00    -0.237 OA
ATOM     92  O   UNL     1       5.765  18.064  11.082  1.00  0.00    -0.744 OA
ENDBRANCH  88  89
ENDBRANCH  56  81
ENDBRANCH  30  31
ENDBRANCH  23  25
ENDBRANCH  22  23
ENDBRANCH   1  22
TORSDOF 16
