REMARK SMILES Cc1nsc(NC(=O)CC2([NH3+])CCC2)c1C(=O)OCCOC(=O)c1ccc(-c2c3nc(c(-c4c(F)cc(S(=O)(=O)[O-])cc4F)c4ccc([nH]4)c(-c4c(F)cc(S(=O)(=O)[O-])cc4F)c4nc(c(-c5c(F)cc(S(=O)(=O)[O-])cc5F)c5ccc2[nH]5)C=C4)C=C3)cc1
REMARK SMILES IDX 19 1 18 2 16 3 17 4 15 5 1 6 2 7 3 8 4 9 5 10 6 11 7 12 8 14
REMARK SMILES IDX 9 15 10 16 12 17 14 18 13 19 11 20 20 24 21 25 22 26 23 27
REMARK SMILES IDX 24 28 25 29 89 30 26 31 88 32 27 33 28 34 29 35 82 36 30 37
REMARK SMILES IDX 87 38 81 39 83 40 31 41 86 42 80 43 79 44 32 46 66 47 45 48
REMARK SMILES IDX 65 49 46 50 49 51 64 52 84 53 47 54 48 55 63 57 85 58 50 59
REMARK SMILES IDX 33 60 34 61 43 62 35 63 36 64 42 65 44 66 37 67 38 68 39 69
REMARK SMILES IDX 40 70 41 71 67 72 68 73 77 74 69 75 70 76 76 77 78 78 71 79
REMARK SMILES IDX 72 80 73 81 74 82 75 83 51 84 52 85 61 86 53 87 54 88 60 89
REMARK SMILES IDX 62 90 55 91 56 92 57 93 58 94 59 95
REMARK H PARENT 6 13 11 21 11 22 11 23 83 45 49 56
REMARK Flexibility Score: inf
ROOT
ATOM      1  C   UNL     1      -2.440   1.492  -1.556  1.00  0.00     0.275 C 
ENDROOT
BRANCH   1   2
ATOM      2  O   UNL     1      -1.607   0.561  -0.842  1.00  0.00    -0.458 OA
BRANCH   2   3
ATOM      3  C   UNL     1      -2.047  -0.728  -0.770  1.00  0.00     0.343 C 
ATOM      4  O   UNL     1      -3.154  -1.100  -1.157  1.00  0.00    -0.246 OA
BRANCH   3   5
ATOM      5  C   UNL     1      -1.094  -1.639  -0.158  1.00  0.00     0.117 A 
ATOM      6  C   UNL     1       0.940  -0.059   0.372  1.00  0.00     0.069 C 
ATOM      7  C   UNL     1       0.174  -1.335   0.462  1.00  0.00     0.068 A 
ATOM      8  N   UNL     1       0.707  -2.320   1.192  1.00  0.00    -0.195 NA
ATOM      9  S   UNL     1      -0.219  -3.673   0.990  1.00  0.00    -0.017 S 
ATOM     10  C   UNL     1      -1.211  -3.023  -0.221  1.00  0.00     0.130 A 
BRANCH  10  11
ATOM     11  N   UNL     1      -2.048  -3.769  -1.022  1.00  0.00    -0.315 N 
ATOM     12  C   UNL     1      -1.977  -5.046  -1.490  1.00  0.00     0.231 C 
ATOM     13  H   UNL     1      -2.854  -3.284  -1.312  1.00  0.00     0.170 HD
ATOM     14  O   UNL     1      -2.893  -5.394  -2.250  1.00  0.00    -0.274 OA
BRANCH  12  15
ATOM     15  C   UNL     1      -0.859  -6.026  -1.192  1.00  0.00     0.168 C 
BRANCH  15  16
ATOM     16  C   UNL     1       0.398  -5.937  -2.056  1.00  0.00     0.103 C 
ATOM     17  C   UNL     1       1.499  -4.853  -1.868  1.00  0.00     0.069 C 
ATOM     18  C   UNL     1       1.489  -6.991  -1.692  1.00  0.00     0.069 C 
ATOM     19  C   UNL     1       2.576  -5.944  -2.003  1.00  0.00     0.013 C 
BRANCH  16  20
ATOM     20  N   UNL     1       0.139  -6.090  -3.497  1.00  0.00    -0.352 N 
ATOM     21  H   UNL     1      -0.573  -5.419  -3.788  1.00  0.00     0.344 HD
ATOM     22  H   UNL     1      -0.191  -7.037  -3.684  1.00  0.00     0.344 HD
ATOM     23  H   UNL     1       0.999  -5.920  -4.018  1.00  0.00     0.344 HD
ENDBRANCH  16  20
ENDBRANCH  15  16
ENDBRANCH  12  15
ENDBRANCH  10  11
ENDBRANCH   3   5
ENDBRANCH   2   3
ENDBRANCH   1   2
BRANCH   1  24
ATOM     24  C   UNL     1      -2.145   1.484  -3.048  1.00  0.00     0.275 C 
BRANCH  24  25
ATOM     25  O   UNL     1      -2.714   0.341  -3.680  1.00  0.00    -0.458 OA
BRANCH  25  26
ATOM     26  C   UNL     1      -1.875  -0.707  -3.835  1.00  0.00     0.338 C 
ATOM     27  O   UNL     1      -0.853  -0.930  -3.208  1.00  0.00    -0.246 OA
BRANCH  26  28
ATOM     28  C   UNL     1      -2.264  -1.448  -5.037  1.00  0.00     0.060 A 
ATOM     29  C   UNL     1      -1.539  -2.604  -5.335  1.00  0.00     0.016 A 
ATOM     30  C   UNL     1      -3.128  -0.850  -5.966  1.00  0.00     0.016 A 
ATOM     31  C   UNL     1      -1.556  -3.072  -6.630  1.00  0.00     0.010 A 
ATOM     32  C   UNL     1      -3.142  -1.317  -7.257  1.00  0.00     0.010 A 
ATOM     33  C   UNL     1      -2.296  -2.373  -7.589  1.00  0.00    -0.014 A 
BRANCH  33  34
ATOM     34  C   UNL     1      -2.224  -2.823  -8.964  1.00  0.00     0.031 A 
ATOM     35  C   UNL     1      -2.866  -4.142  -9.197  1.00  0.00     0.074 A 
ATOM     36  C   UNL     1      -1.766  -2.018  -9.941  1.00  0.00     0.049 A 
ATOM     37  N   UNL     1      -2.342  -5.216  -9.685  1.00  0.00    -0.248 NA
ATOM     38  C   UNL     1      -4.236  -4.321  -8.683  1.00  0.00     0.031 C 
ATOM     39  C   UNL     1      -1.416  -0.596  -9.853  1.00  0.00     0.029 A 
ATOM     40  N   UNL     1      -1.661  -2.271 -11.268  1.00  0.00    -0.354 N 
ATOM     41  C   UNL     1      -3.375  -6.149  -9.730  1.00  0.00     0.074 A 
ATOM     42  C   UNL     1      -4.456  -5.607  -8.950  1.00  0.00     0.031 C 
ATOM     43  C   UNL     1      -1.407  -0.069 -11.098  1.00  0.00     0.029 A 
ATOM     44  C   UNL     1      -1.636  -1.134 -12.060  1.00  0.00     0.049 A 
ATOM     45  H   UNL     1      -1.607  -3.182 -11.637  1.00  0.00     0.167 HD
ATOM     46  C   UNL     1      -3.358  -7.200 -10.592  1.00  0.00     0.037 A 
ATOM     47  C   UNL     1      -1.930  -1.084 -13.384  1.00  0.00     0.037 A 
ATOM     48  C   UNL     1      -2.028  -7.480 -11.063  1.00  0.00     0.049 A 
ATOM     49  C   UNL     1      -1.802  -2.476 -13.911  1.00  0.00     0.074 A 
ATOM     50  C   UNL     1      -0.837  -7.787 -10.430  1.00  0.00     0.029 A 
ATOM     51  N   UNL     1      -1.680  -7.079 -12.331  1.00  0.00    -0.354 N 
ATOM     52  N   UNL     1      -0.674  -3.137 -13.961  1.00  0.00    -0.248 NA
ATOM     53  C   UNL     1      -3.002  -3.302 -13.932  1.00  0.00     0.031 C 
ATOM     54  C   UNL     1       0.159  -7.073 -11.157  1.00  0.00     0.029 A 
ATOM     55  C   UNL     1      -0.475  -6.428 -12.220  1.00  0.00     0.049 A 
ATOM     56  H   UNL     1      -2.194  -7.229 -13.157  1.00  0.00     0.167 HD
ATOM     57  C   UNL     1      -1.002  -4.441 -13.609  1.00  0.00     0.074 A 
ATOM     58  C   UNL     1      -2.461  -4.496 -13.676  1.00  0.00     0.031 C 
ATOM     59  C   UNL     1      -0.098  -5.281 -13.019  1.00  0.00     0.037 A 
BRANCH  46  60
ATOM     60  C   UNL     1      -4.599  -7.742 -11.254  1.00  0.00     0.058 A 
ATOM     61  C   UNL     1      -4.543  -8.960 -11.956  1.00  0.00     0.135 A 
ATOM     62  C   UNL     1      -5.770  -6.974 -11.452  1.00  0.00     0.135 A 
ATOM     63  F   UNL     1      -3.467  -9.757 -11.856  1.00  0.00    -0.206 F 
ATOM     64  C   UNL     1      -5.549  -9.357 -12.838  1.00  0.00     0.059 A 
ATOM     65  C   UNL     1      -6.810  -7.378 -12.278  1.00  0.00     0.059 A 
ATOM     66  F   UNL     1      -5.918  -5.747 -10.936  1.00  0.00    -0.206 F 
ATOM     67  C   UNL     1      -6.671  -8.549 -13.003  1.00  0.00     0.060 A 
BRANCH  67  68
ATOM     68  S   UNL     1      -7.912  -8.990 -14.231  1.00  0.00     0.124 S 
ATOM     69  O   UNL     1      -7.192  -8.733 -15.473  1.00  0.00    -0.237 OA
ATOM     70  O   UNL     1      -8.166 -10.392 -13.916  1.00  0.00    -0.237 OA
ATOM     71  O   UNL     1      -9.013  -8.078 -13.937  1.00  0.00    -0.744 OA
ENDBRANCH  67  68
ENDBRANCH  46  60
BRANCH  47  72
ATOM     72  C   UNL     1      -2.712  -0.012 -14.065  1.00  0.00     0.058 A 
ATOM     73  C   UNL     1      -2.778   0.072 -15.466  1.00  0.00     0.135 A 
ATOM     74  C   UNL     1      -3.610   0.819 -13.358  1.00  0.00     0.135 A 
ATOM     75  F   UNL     1      -1.991  -0.706 -16.224  1.00  0.00    -0.206 F 
ATOM     76  C   UNL     1      -3.690   0.910 -16.124  1.00  0.00     0.059 A 
ATOM     77  C   UNL     1      -4.510   1.675 -13.988  1.00  0.00     0.059 A 
ATOM     78  F   UNL     1      -3.708   0.766 -12.022  1.00  0.00    -0.206 F 
ATOM     79  C   UNL     1      -4.561   1.701 -15.374  1.00  0.00     0.060 A 
BRANCH  79  80
ATOM     80  S   UNL     1      -5.834   2.680 -16.205  1.00  0.00     0.124 S 
ATOM     81  O   UNL     1      -5.037   3.696 -16.884  1.00  0.00    -0.237 OA
ATOM     82  O   UNL     1      -6.473   1.688 -17.063  1.00  0.00    -0.237 OA
ATOM     83  O   UNL     1      -6.659   3.170 -15.103  1.00  0.00    -0.744 OA
ENDBRANCH  79  80
ENDBRANCH  47  72
BRANCH  59  84
ATOM     84  C   UNL     1       1.353  -4.873 -12.955  1.00  0.00     0.058 A 
ATOM     85  C   UNL     1       1.824  -3.740 -12.267  1.00  0.00     0.135 A 
ATOM     86  C   UNL     1       2.321  -5.767 -13.441  1.00  0.00     0.135 A 
ATOM     87  F   UNL     1       0.976  -2.894 -11.670  1.00  0.00    -0.206 F 
ATOM     88  C   UNL     1       3.188  -3.488 -12.104  1.00  0.00     0.059 A 
ATOM     89  C   UNL     1       3.686  -5.553 -13.261  1.00  0.00     0.059 A 
ATOM     90  F   UNL     1       1.941  -6.904 -14.048  1.00  0.00    -0.206 F 
ATOM     91  C   UNL     1       4.113  -4.404 -12.600  1.00  0.00     0.060 A 
BRANCH  91  92
ATOM     92  S   UNL     1       5.872  -4.120 -12.305  1.00  0.00     0.124 S 
ATOM     93  O   UNL     1       6.155  -2.998 -13.194  1.00  0.00    -0.237 OA
ATOM     94  O   UNL     1       5.911  -3.822 -10.876  1.00  0.00    -0.237 OA
ATOM     95  O   UNL     1       6.491  -5.388 -12.684  1.00  0.00    -0.744 OA
ENDBRANCH  91  92
ENDBRANCH  59  84
ENDBRANCH  33  34
ENDBRANCH  26  28
ENDBRANCH  25  26
ENDBRANCH  24  25
ENDBRANCH   1  24
TORSDOF 18
