REMARK SMILES O=C(OCCOC(=O)c1cc(S(=O)(=O)Nc2cccc(Cl)c2)ccc1O)c1ccc(-c2c3nc(c(-c4c(F)cc(S(=O)(=O)[O-])cc4F)c4ccc([nH]4)c(-c4c(F)cc(S(=O)(=O)[O-])cc4F)c4nc(c(-c5c(F)cc(S(=O)(=O)[O-])cc5F)c5ccc2[nH]5)C=C4)C=C3)cc1
REMARK SMILES IDX 4 1 3 2 2 3 1 4 27 5 28 6 92 7 29 8 91 9 30 10 31 11 32 12
REMARK SMILES IDX 85 13 33 14 90 15 84 16 86 17 34 18 89 19 83 20 82 21 35 23
REMARK SMILES IDX 69 24 48 25 68 26 49 27 52 28 67 29 87 30 50 31 51 32 66 34
REMARK SMILES IDX 88 35 53 36 36 37 37 38 46 39 38 40 39 41 45 42 47 43 40 44
REMARK SMILES IDX 41 45 42 46 43 47 44 48 70 49 71 50 80 51 72 52 73 53 79 54
REMARK SMILES IDX 81 55 74 56 75 57 76 58 77 59 78 60 54 61 55 62 64 63 56 64
REMARK SMILES IDX 57 65 63 66 65 67 58 68 59 69 60 70 61 71 62 72 5 73 6 74
REMARK SMILES IDX 7 75 8 76 9 77 10 78 25 79 11 80 24 81 23 82 26 83 12 85
REMARK SMILES IDX 13 86 14 87 15 88 16 90 17 91 22 92 18 93 20 94 19 95 21 96
REMARK H PARENT 86 22 52 33 26 84 15 89
REMARK Flexibility Score: inf
ROOT
ATOM      1  C   UNL     1       3.953  -1.058  -1.242  1.00  0.00     0.275 C 
ENDROOT
BRANCH   1   2
ATOM      2  O   UNL     1       2.940  -1.168  -0.227  1.00  0.00    -0.458 OA
BRANCH   2   3
ATOM      3  C   UNL     1       2.724  -0.442   0.893  1.00  0.00     0.338 C 
ATOM      4  O   UNL     1       1.796  -0.781   1.629  1.00  0.00    -0.246 OA
BRANCH   3   5
ATOM      5  C   UNL     1       3.482   0.795   1.272  1.00  0.00     0.060 A 
ATOM      6  C   UNL     1       4.797   1.102   0.916  1.00  0.00     0.016 A 
ATOM      7  C   UNL     1       2.809   1.702   2.112  1.00  0.00     0.016 A 
ATOM      8  C   UNL     1       5.407   2.290   1.339  1.00  0.00     0.010 A 
ATOM      9  C   UNL     1       3.408   2.895   2.530  1.00  0.00     0.010 A 
ATOM     10  C   UNL     1       4.721   3.192   2.154  1.00  0.00    -0.014 A 
BRANCH  10  11
ATOM     11  C   UNL     1       5.433   4.351   2.740  1.00  0.00     0.031 A 
ATOM     12  C   UNL     1       5.858   4.277   4.177  1.00  0.00     0.074 A 
ATOM     13  C   UNL     1       5.734   5.432   1.995  1.00  0.00     0.049 A 
ATOM     14  N   UNL     1       6.574   5.123   4.867  1.00  0.00    -0.248 NA
ATOM     15  C   UNL     1       5.455   3.074   4.925  1.00  0.00     0.031 C 
ATOM     16  C   UNL     1       5.445   5.578   0.572  1.00  0.00     0.029 A 
ATOM     17  N   UNL     1       6.340   6.615   2.329  1.00  0.00    -0.354 N 
ATOM     18  C   UNL     1       6.744   4.536   6.114  1.00  0.00     0.074 A 
ATOM     19  C   UNL     1       5.993   3.300   6.112  1.00  0.00     0.031 C 
ATOM     20  C   UNL     1       5.805   6.808   0.167  1.00  0.00     0.029 A 
ATOM     21  C   UNL     1       6.391   7.522   1.296  1.00  0.00     0.049 A 
ATOM     22  H   UNL     1       6.706   6.799   3.224  1.00  0.00     0.167 HD
ATOM     23  C   UNL     1       7.494   4.968   7.154  1.00  0.00     0.037 A 
ATOM     24  C   UNL     1       6.878   8.777   1.261  1.00  0.00     0.037 A 
ATOM     25  C   UNL     1       8.210   6.213   7.156  1.00  0.00     0.049 A 
ATOM     26  C   UNL     1       7.604   9.296   2.471  1.00  0.00     0.074 A 
ATOM     27  C   UNL     1       8.999   6.757   8.151  1.00  0.00     0.029 A 
ATOM     28  N   UNL     1       8.200   7.123   6.107  1.00  0.00    -0.354 N 
ATOM     29  N   UNL     1       7.820   8.695   3.618  1.00  0.00    -0.248 NA
ATOM     30  C   UNL     1       8.199  10.635   2.369  1.00  0.00     0.031 C 
ATOM     31  C   UNL     1       9.435   8.015   7.719  1.00  0.00     0.029 A 
ATOM     32  C   UNL     1       8.952   8.236   6.438  1.00  0.00     0.049 A 
ATOM     33  H   UNL     1       7.728   6.995   5.252  1.00  0.00     0.167 HD
ATOM     34  C   UNL     1       8.628   9.555   4.351  1.00  0.00     0.074 A 
ATOM     35  C   UNL     1       8.845  10.726   3.525  1.00  0.00     0.031 C 
ATOM     36  C   UNL     1       9.163   9.380   5.585  1.00  0.00     0.037 A 
BRANCH  23  37
ATOM     37  C   UNL     1       7.547   4.075   8.359  1.00  0.00     0.058 A 
ATOM     38  C   UNL     1       8.245   2.855   8.335  1.00  0.00     0.135 A 
ATOM     39  C   UNL     1       6.844   4.405   9.527  1.00  0.00     0.135 A 
ATOM     40  F   UNL     1       8.914   2.481   7.232  1.00  0.00    -0.206 F 
ATOM     41  C   UNL     1       8.203   1.972   9.408  1.00  0.00     0.059 A 
ATOM     42  C   UNL     1       6.807   3.547  10.621  1.00  0.00     0.059 A 
ATOM     43  F   UNL     1       6.156   5.556   9.599  1.00  0.00    -0.206 F 
ATOM     44  C   UNL     1       7.469   2.322  10.543  1.00  0.00     0.060 A 
BRANCH  44  45
ATOM     45  S   UNL     1       7.376   1.145  11.909  1.00  0.00     0.124 S 
ATOM     46  O   UNL     1       6.433   0.163  11.382  1.00  0.00    -0.237 OA
ATOM     47  O   UNL     1       8.758   0.693  12.029  1.00  0.00    -0.237 OA
ATOM     48  O   UNL     1       6.886   1.954  13.020  1.00  0.00    -0.744 OA
ENDBRANCH  44  45
ENDBRANCH  23  37
BRANCH  24  49
ATOM     49  C   UNL     1       6.755   9.594   0.024  1.00  0.00     0.058 A 
ATOM     50  C   UNL     1       7.865   9.849  -0.794  1.00  0.00     0.135 A 
ATOM     51  C   UNL     1       5.516  10.124  -0.373  1.00  0.00     0.135 A 
ATOM     52  F   UNL     1       9.069   9.362  -0.458  1.00  0.00    -0.206 F 
ATOM     53  C   UNL     1       7.758  10.612  -1.953  1.00  0.00     0.059 A 
ATOM     54  C   UNL     1       5.381  10.878  -1.536  1.00  0.00     0.059 A 
ATOM     55  F   UNL     1       4.416   9.889   0.360  1.00  0.00    -0.206 F 
ATOM     56  C   UNL     1       6.511  11.121  -2.317  1.00  0.00     0.060 A 
BRANCH  56  57
ATOM     57  S   UNL     1       6.373  12.063  -3.853  1.00  0.00     0.124 S 
ATOM     58  O   UNL     1       7.058  13.301  -3.502  1.00  0.00    -0.237 OA
ATOM     59  O   UNL     1       7.063  11.194  -4.802  1.00  0.00    -0.237 OA
ATOM     60  O   UNL     1       4.931  12.170  -4.049  1.00  0.00    -0.744 OA
ENDBRANCH  56  57
ENDBRANCH  24  49
BRANCH  36  61
ATOM     61  C   UNL     1      10.083  10.454   6.090  1.00  0.00     0.058 A 
ATOM     62  C   UNL     1       9.599  11.688   6.545  1.00  0.00     0.135 A 
ATOM     63  C   UNL     1      11.464  10.216   6.167  1.00  0.00     0.135 A 
ATOM     64  F   UNL     1       8.287  11.965   6.482  1.00  0.00    -0.206 F 
ATOM     65  C   UNL     1      10.458  12.662   7.042  1.00  0.00     0.059 A 
ATOM     66  C   UNL     1      12.338  11.165   6.684  1.00  0.00     0.059 A 
ATOM     67  F   UNL     1      11.974   9.045   5.751  1.00  0.00    -0.206 F 
ATOM     68  C   UNL     1      11.826  12.390   7.109  1.00  0.00     0.060 A 
BRANCH  68  69
ATOM     69  S   UNL     1      12.929  13.644   7.791  1.00  0.00     0.124 S 
ATOM     70  O   UNL     1      13.047  14.571   6.670  1.00  0.00    -0.237 OA
ATOM     71  O   UNL     1      12.177  14.133   8.942  1.00  0.00    -0.237 OA
ATOM     72  O   UNL     1      14.137  12.891   8.115  1.00  0.00    -0.744 OA
ENDBRANCH  68  69
ENDBRANCH  36  61
ENDBRANCH  10  11
ENDBRANCH   3   5
ENDBRANCH   2   3
ENDBRANCH   1   2
BRANCH   1  73
ATOM     73  C   UNL     1       3.644  -0.029  -2.327  1.00  0.00     0.275 C 
BRANCH  73  74
ATOM     74  O   UNL     1       3.243   1.233  -1.784  1.00  0.00    -0.458 OA
BRANCH  74  75
ATOM     75  C   UNL     1       1.931   1.562  -1.919  1.00  0.00     0.342 C 
ATOM     76  O   UNL     1       1.049   0.881  -2.417  1.00  0.00    -0.246 OA
BRANCH  75  77
ATOM     77  C   UNL     1       1.685   2.830  -1.204  1.00  0.00     0.103 A 
ATOM     78  C   UNL     1       0.688   2.853  -0.214  1.00  0.00     0.041 A 
ATOM     79  C   UNL     1       2.475   3.961  -1.436  1.00  0.00     0.130 A 
ATOM     80  C   UNL     1       0.591   3.966   0.630  1.00  0.00     0.088 A 
ATOM     81  C   UNL     1       2.353   5.072  -0.609  1.00  0.00     0.048 A 
ATOM     82  C   UNL     1       1.480   5.033   0.475  1.00  0.00     0.026 A 
BRANCH  79  83
ATOM     83  O   UNL     1       3.381   3.982  -2.457  1.00  0.00    -0.507 OA
ATOM     84  H   UNL     1       3.470   3.238  -3.020  1.00  0.00     0.293 HD
ENDBRANCH  79  83
BRANCH  80  85
ATOM     85  S   UNL     1      -0.518   3.951   2.023  1.00  0.00     0.261 S 
ATOM     86  O   UNL     1      -1.364   2.781   1.902  1.00  0.00    -0.201 OA
ATOM     87  O   UNL     1       0.270   4.163   3.217  1.00  0.00    -0.201 OA
BRANCH  85  88
ATOM     88  N   UNL     1      -1.573   5.283   1.845  1.00  0.00    -0.280 N 
ATOM     89  H   UNL     1      -2.550   5.157   1.825  1.00  0.00     0.180 HD
BRANCH  88  90
ATOM     90  C   UNL     1      -0.996   6.587   1.728  1.00  0.00     0.050 A 
ATOM     91  C   UNL     1      -0.870   7.127   0.444  1.00  0.00     0.027 A 
ATOM     92  C   UNL     1      -0.481   7.269   2.831  1.00  0.00     0.047 A 
ATOM     93  C   UNL     1      -0.193   8.331   0.253  1.00  0.00     0.004 A 
ATOM     94  C   UNL     1       0.173   8.487   2.634  1.00  0.00     0.043 A 
ATOM     95  C   UNL     1       0.333   9.012   1.350  1.00  0.00     0.020 A 
ATOM     96  Cl  UNL     1       0.802   9.348   3.984  1.00  0.00    -0.084 Cl
ENDBRANCH  88  90
ENDBRANCH  85  88
ENDBRANCH  80  85
ENDBRANCH  75  77
ENDBRANCH  74  75
ENDBRANCH  73  74
ENDBRANCH   1  73
TORSDOF 18
