REMARK SMILES CC[C@H](NC(=O)Cc1c(C)c2cc(Cl)c(OC)cc2oc1=O)C(=O)OCCOC(=O)c1ccc(-c2c3nc(c(-c4c(F)cc(S(=O)(=O)[O-])cc4F)c4ccc([nH]4)c(-c4c(F)cc(S(=O)(=O)[O-])cc4F)c4nc(c(-c5c(F)cc(S(=O)(=O)[O-])cc5F)c5ccc2[nH]5)C=C4)C=C3)cc1
REMARK SMILES IDX 26 1 25 2 23 3 24 4 3 5 2 6 1 7 4 8 5 9 6 11 7 12 8 13 9 14
REMARK SMILES IDX 21 15 10 16 11 17 20 18 22 19 12 20 19 21 13 22 18 23 14 24
REMARK SMILES IDX 15 25 16 26 17 27 27 28 28 29 29 30 30 31 31 32 32 33 96 34
REMARK SMILES IDX 33 35 95 36 34 37 35 38 36 39 89 40 37 41 94 42 88 43 90 44
REMARK SMILES IDX 38 45 93 46 87 47 86 48 39 50 73 51 52 52 72 53 53 54 56 55
REMARK SMILES IDX 71 56 91 57 54 58 55 59 70 61 92 62 57 63 40 64 41 65 50 66
REMARK SMILES IDX 42 67 43 68 49 69 51 70 44 71 45 72 46 73 47 74 48 75 74 76
REMARK SMILES IDX 75 77 84 78 76 79 77 80 83 81 85 82 78 83 79 84 80 85 81 86
REMARK SMILES IDX 82 87 58 88 59 89 68 90 60 91 61 92 67 93 69 94 62 95 63 96
REMARK SMILES IDX 64 97 65 98 66 99
REMARK H PARENT 4 10 90 49 56 60
REMARK Flexibility Score: inf
ROOT
ATOM      1  C   UNL     1      -1.896  -2.669   4.565  1.00  0.00     0.274 C 
ENDROOT
BRANCH   1   2
ATOM      2  O   UNL     1      -1.910  -1.556   3.571  1.00  0.00    -0.461 OA
BRANCH   2   3
ATOM      3  C   UNL     1      -1.449  -0.270   3.753  1.00  0.00     0.328 C 
ATOM      4  O   UNL     1      -1.512   0.291   4.841  1.00  0.00    -0.250 OA
BRANCH   3   5
ATOM      5  C   UNL     1      -0.559   0.270   2.482  1.00  0.00     0.192 C 
BRANCH   5   6
ATOM      6  C   UNL     1      -0.480   1.805   2.456  1.00  0.00     0.033 C 
ATOM      7  C   UNL     1      -1.852   2.440   2.471  1.00  0.00     0.007 C 
ENDBRANCH   5   6
BRANCH   5   8
ATOM      8  N   UNL     1      -0.714  -0.180   1.082  1.00  0.00    -0.342 N 
ATOM      9  C   UNL     1      -0.629  -1.436   0.576  1.00  0.00     0.225 C 
ATOM     10  H   UNL     1      -0.907   0.530   0.428  1.00  0.00     0.164 HD
ATOM     11  O   UNL     1      -0.247  -1.601  -0.583  1.00  0.00    -0.275 OA
BRANCH   9  12
ATOM     12  C   UNL     1      -1.239  -2.539   1.359  1.00  0.00     0.143 C 
BRANCH  12  13
ATOM     13  C   UNL     1      -0.384  -3.261   2.373  1.00  0.00     0.051 A 
ATOM     14  C   UNL     1      -0.155  -4.794   2.120  1.00  0.00    -0.029 A 
ATOM     15  C   UNL     1       0.372  -2.378   4.006  1.00  0.00     0.340 A 
ATOM     16  C   UNL     1      -0.191  -5.423   0.754  1.00  0.00     0.046 C 
ATOM     17  C   UNL     1       0.587  -5.909   3.400  1.00  0.00     0.023 A 
ATOM     18  O   UNL     1       0.891  -3.590   5.234  1.00  0.00    -0.422 OA
ATOM     19  O   UNL     1       0.770  -1.242   4.228  1.00  0.00    -0.246 OA
ATOM     20  C   UNL     1       1.188  -7.089   3.027  1.00  0.00     0.036 A 
ATOM     21  C   UNL     1       1.029  -5.369   4.944  1.00  0.00     0.142 A 
ATOM     22  C   UNL     1       2.082  -7.689   3.964  1.00  0.00     0.083 A 
ATOM     23  C   UNL     1       1.862  -6.003   5.834  1.00  0.00     0.095 A 
ATOM     24  Cl  UNL     1       2.997  -9.041   3.337  1.00  0.00    -0.080 Cl
ATOM     25  C   UNL     1       2.399  -7.190   5.311  1.00  0.00     0.141 A 
BRANCH  25  26
ATOM     26  O   UNL     1       3.349  -7.937   5.982  1.00  0.00    -0.495 OA
ATOM     27  C   UNL     1       3.802  -7.465   7.245  1.00  0.00     0.278 C 
ENDBRANCH  25  26
ENDBRANCH  12  13
ENDBRANCH   9  12
ENDBRANCH   5   8
ENDBRANCH   3   5
ENDBRANCH   2   3
ENDBRANCH   1   2
BRANCH   1  28
ATOM     28  C   UNL     1      -0.837  -4.096   4.242  1.00  0.00     0.275 C 
BRANCH  28  29
ATOM     29  O   UNL     1       1.032  -3.981   3.502  1.00  0.00    -0.458 OA
BRANCH  29  30
ATOM     30  C   UNL     1       2.029  -3.431   2.612  1.00  0.00     0.338 C 
ATOM     31  O   UNL     1       1.840  -2.749   1.608  1.00  0.00    -0.246 OA
BRANCH  30  32
ATOM     32  C   UNL     1       3.357  -3.389   3.177  1.00  0.00     0.060 A 
ATOM     33  C   UNL     1       4.016  -4.561   3.489  1.00  0.00     0.016 A 
ATOM     34  C   UNL     1       3.990  -2.137   3.170  1.00  0.00     0.016 A 
ATOM     35  C   UNL     1       5.343  -4.490   3.834  1.00  0.00     0.010 A 
ATOM     36  C   UNL     1       5.344  -2.081   3.398  1.00  0.00     0.010 A 
ATOM     37  C   UNL     1       6.012  -3.262   3.732  1.00  0.00    -0.014 A 
BRANCH  37  38
ATOM     38  C   UNL     1       7.451  -3.232   3.975  1.00  0.00     0.031 A 
ATOM     39  C   UNL     1       7.942  -2.507   5.179  1.00  0.00     0.074 A 
ATOM     40  C   UNL     1       8.238  -3.898   3.112  1.00  0.00     0.049 A 
ATOM     41  N   UNL     1       9.167  -2.342   5.582  1.00  0.00    -0.248 NA
ATOM     42  C   UNL     1       6.928  -1.863   6.039  1.00  0.00     0.031 C 
ATOM     43  C   UNL     1       7.769  -4.607   1.912  1.00  0.00     0.029 A 
ATOM     44  N   UNL     1       9.581  -4.125   3.123  1.00  0.00    -0.354 N 
ATOM     45  C   UNL     1       9.074  -1.566   6.726  1.00  0.00     0.074 A 
ATOM     46  C   UNL     1       7.684  -1.246   6.934  1.00  0.00     0.031 C 
ATOM     47  C   UNL     1       8.802  -5.247   1.345  1.00  0.00     0.029 A 
ATOM     48  C   UNL     1      10.008  -4.934   2.097  1.00  0.00     0.049 A 
ATOM     49  H   UNL     1      10.188  -3.745   3.799  1.00  0.00     0.167 HD
ATOM     50  C   UNL     1      10.082  -1.189   7.538  1.00  0.00     0.037 A 
ATOM     51  C   UNL     1      11.250  -5.357   1.809  1.00  0.00     0.037 A 
ATOM     52  C   UNL     1      11.444  -1.577   7.301  1.00  0.00     0.049 A 
ATOM     53  C   UNL     1      12.349  -4.904   2.730  1.00  0.00     0.074 A 
ATOM     54  C   UNL     1      12.567  -1.273   8.043  1.00  0.00     0.029 A 
ATOM     55  N   UNL     1      11.857  -2.374   6.239  1.00  0.00    -0.354 N 
ATOM     56  N   UNL     1      12.257  -4.169   3.817  1.00  0.00    -0.248 NA
ATOM     57  C   UNL     1      13.712  -5.320   2.393  1.00  0.00     0.031 C 
ATOM     58  C   UNL     1      13.666  -1.856   7.407  1.00  0.00     0.029 A 
ATOM     59  C   UNL     1      13.223  -2.564   6.298  1.00  0.00     0.049 A 
ATOM     60  H   UNL     1      11.263  -2.747   5.548  1.00  0.00     0.167 HD
ATOM     61  C   UNL     1      13.549  -4.039   4.299  1.00  0.00     0.074 A 
ATOM     62  C   UNL     1      14.400  -4.799   3.401  1.00  0.00     0.031 C 
ATOM     63  C   UNL     1      14.005  -3.348   5.373  1.00  0.00     0.037 A 
BRANCH  50  64
ATOM     64  C   UNL     1       9.750  -0.342   8.728  1.00  0.00     0.058 A 
ATOM     65  C   UNL     1       9.073  -0.868   9.840  1.00  0.00     0.135 A 
ATOM     66  C   UNL     1      10.157   1.000   8.781  1.00  0.00     0.135 A 
ATOM     67  F   UNL     1       8.623  -2.133   9.823  1.00  0.00    -0.206 F 
ATOM     68  C   UNL     1       8.823  -0.097  10.969  1.00  0.00     0.059 A 
ATOM     69  C   UNL     1       9.940   1.783   9.910  1.00  0.00     0.059 A 
ATOM     70  F   UNL     1      10.782   1.558   7.733  1.00  0.00    -0.206 F 
ATOM     71  C   UNL     1       9.277   1.223  11.001  1.00  0.00     0.060 A 
BRANCH  71  72
ATOM     72  S   UNL     1       9.018   2.180  12.509  1.00  0.00     0.124 S 
ATOM     73  O   UNL     1       7.566   2.335  12.514  1.00  0.00    -0.237 OA
ATOM     74  O   UNL     1       9.563   1.293  13.532  1.00  0.00    -0.237 OA
ATOM     75  O   UNL     1       9.777   3.403  12.273  1.00  0.00    -0.744 OA
ENDBRANCH  71  72
ENDBRANCH  50  64
BRANCH  51  76
ATOM     76  C   UNL     1      11.504  -6.216   0.623  1.00  0.00     0.058 A 
ATOM     77  C   UNL     1      11.966  -7.533   0.762  1.00  0.00     0.135 A 
ATOM     78  C   UNL     1      11.278  -5.743  -0.681  1.00  0.00     0.135 A 
ATOM     79  F   UNL     1      12.190  -8.040   1.984  1.00  0.00    -0.206 F 
ATOM     80  C   UNL     1      12.227  -8.337  -0.344  1.00  0.00     0.059 A 
ATOM     81  C   UNL     1      11.501  -6.537  -1.801  1.00  0.00     0.059 A 
ATOM     82  F   UNL     1      10.812  -4.499  -0.875  1.00  0.00    -0.206 F 
ATOM     83  C   UNL     1      11.995  -7.827  -1.623  1.00  0.00     0.060 A 
BRANCH  83  84
ATOM     84  S   UNL     1      12.343  -8.876  -3.051  1.00  0.00     0.124 S 
ATOM     85  O   UNL     1      13.800  -8.935  -3.022  1.00  0.00    -0.237 OA
ATOM     86  O   UNL     1      11.647 -10.110  -2.702  1.00  0.00    -0.237 OA
ATOM     87  O   UNL     1      11.765  -8.131  -4.166  1.00  0.00    -0.744 OA
ENDBRANCH  83  84
ENDBRANCH  51  76
BRANCH  63  88
ATOM     88  C   UNL     1      15.479  -3.404   5.631  1.00  0.00     0.058 A 
ATOM     89  C   UNL     1      16.383  -2.687   4.835  1.00  0.00     0.135 A 
ATOM     90  C   UNL     1      15.975  -4.108   6.739  1.00  0.00     0.135 A 
ATOM     91  F   UNL     1      15.949  -2.005   3.763  1.00  0.00    -0.206 F 
ATOM     92  C   UNL     1      17.740  -2.678   5.122  1.00  0.00     0.059 A 
ATOM     93  C   UNL     1      17.324  -4.086   7.063  1.00  0.00     0.059 A 
ATOM     94  F   UNL     1      15.140  -4.795   7.535  1.00  0.00    -0.206 F 
ATOM     95  C   UNL     1      18.199  -3.374   6.243  1.00  0.00     0.060 A 
BRANCH  95  96
ATOM     96  S   UNL     1      19.958  -3.306   6.630  1.00  0.00     0.124 S 
ATOM     97  O   UNL     1      20.525  -4.117   5.558  1.00  0.00    -0.237 OA
ATOM     98  O   UNL     1      20.235  -1.875   6.559  1.00  0.00    -0.237 OA
ATOM     99  O   UNL     1      20.035  -3.889   7.966  1.00  0.00    -0.744 OA
ENDBRANCH  95  96
ENDBRANCH  63  88
ENDBRANCH  37  38
ENDBRANCH  30  32
ENDBRANCH  29  30
ENDBRANCH  28  29
ENDBRANCH   1  28
TORSDOF 19
