REMARK SMILES C[C@@H](CCCO)Nc1ccc(C(=O)OCCOC(=O)c2ccc(-c3c4nc(c(-c5c(F)cc(S(=O)(=O)[O-])cc5F)c5ccc([nH]5)c(-c5c(F)cc(S(=O)(=O)[O-])cc5F)c5nc(c(-c6c(F)cc(S(=O)(=O)[O-])cc6F)c6ccc3[nH]6)C=C5)C=C4)cc2)o1
REMARK SMILES IDX 14 1 12 2 13 3 11 4 8 5 9 6 86 7 10 8 7 9 2 11 1 12 3 13
REMARK SMILES IDX 4 14 5 15 6 16 15 18 16 19 17 20 18 21 19 22 20 23 21 24
REMARK SMILES IDX 85 25 22 26 84 27 23 28 24 29 25 30 78 31 26 32 83 33 77 34
REMARK SMILES IDX 79 35 27 36 82 37 76 38 75 39 28 41 62 42 41 43 61 44 42 45
REMARK SMILES IDX 45 46 60 47 80 48 43 49 44 50 59 52 81 53 46 54 29 55 30 56
REMARK SMILES IDX 39 57 31 58 32 59 38 60 40 61 33 62 34 63 35 64 36 65 37 66
REMARK SMILES IDX 63 67 64 68 73 69 65 70 66 71 72 72 74 73 67 74 68 75 69 76
REMARK SMILES IDX 70 77 71 78 47 79 48 80 57 81 49 82 50 83 56 84 58 85 51 86
REMARK SMILES IDX 52 87 53 88 54 89 55 90
REMARK H PARENT 7 10 6 17 79 40 45 51
REMARK Flexibility Score: inf
ROOT
ATOM      1  O   UNL     1      -4.279   5.097  -2.031  1.00  0.00    -0.456 OA
ENDROOT
BRANCH   1   2
ATOM      2  C   UNL     1      -3.522   4.389  -1.137  1.00  0.00     0.374 C 
ATOM      3  O   UNL     1      -3.679   4.427   0.072  1.00  0.00    -0.242 OA
BRANCH   2   4
ATOM      4  C   UNL     1      -2.572   3.550  -1.829  1.00  0.00     0.214 A 
ATOM      5  C   UNL     1      -1.266   1.778  -1.941  1.00  0.00     0.194 A 
ATOM      6  C   UNL     1      -1.162   2.402  -3.160  1.00  0.00     0.070 A 
ATOM      7  O   UNL     1      -2.081   2.483  -1.127  1.00  0.00    -0.434 OA
ATOM      8  C   UNL     1      -2.034   3.527  -3.103  1.00  0.00     0.060 A 
BRANCH   5   9
ATOM      9  N   UNL     1      -0.778   0.654  -1.391  1.00  0.00    -0.354 N 
ATOM     10  H   UNL     1      -1.395   0.026  -0.952  1.00  0.00     0.163 HD
BRANCH   9  11
ATOM     11  C   UNL     1       0.646   0.343  -1.430  1.00  0.00     0.079 C 
ATOM     12  C   UNL     1       1.115   0.034  -0.006  1.00  0.00     0.031 C 
BRANCH  11  13
ATOM     13  C   UNL     1       0.957  -0.792  -2.415  1.00  0.00     0.027 C 
BRANCH  13  14
ATOM     14  C   UNL     1       0.464  -2.202  -2.057  1.00  0.00     0.030 C 
BRANCH  14  15
ATOM     15  C   UNL     1      -1.048  -2.385  -1.996  1.00  0.00     0.156 C 
BRANCH  15  16
ATOM     16  O   UNL     1      -1.674  -1.783  -3.119  1.00  0.00    -0.396 OA
ATOM     17  H   UNL     1      -1.482  -0.832  -3.125  1.00  0.00     0.210 HD
ENDBRANCH  15  16
ENDBRANCH  14  15
ENDBRANCH  13  14
ENDBRANCH  11  13
ENDBRANCH   9  11
ENDBRANCH   5   9
ENDBRANCH   2   4
ENDBRANCH   1   2
BRANCH   1  18
ATOM     18  C   UNL     1      -5.394   5.803  -1.452  1.00  0.00     0.275 C 
BRANCH  18  19
ATOM     19  C   UNL     1      -6.690   4.982  -1.496  1.00  0.00     0.275 C 
BRANCH  19  20
ATOM     20  O   UNL     1      -6.670   3.857  -0.596  1.00  0.00    -0.458 OA
BRANCH  20  21
ATOM     21  C   UNL     1      -6.236   2.693  -1.142  1.00  0.00     0.338 C 
ATOM     22  O   UNL     1      -5.881   2.528  -2.298  1.00  0.00    -0.246 OA
BRANCH  21  23
ATOM     23  C   UNL     1      -6.112   1.647  -0.108  1.00  0.00     0.060 A 
ATOM     24  C   UNL     1      -4.891   0.981  -0.007  1.00  0.00     0.016 A 
ATOM     25  C   UNL     1      -7.189   1.262   0.698  1.00  0.00     0.016 A 
ATOM     26  C   UNL     1      -4.726  -0.065   0.897  1.00  0.00     0.010 A 
ATOM     27  C   UNL     1      -7.029   0.197   1.598  1.00  0.00     0.010 A 
ATOM     28  C   UNL     1      -5.796  -0.479   1.694  1.00  0.00    -0.014 A 
BRANCH  28  29
ATOM     29  C   UNL     1      -5.627  -1.662   2.573  1.00  0.00     0.031 A 
ATOM     30  C   UNL     1      -6.183  -2.993   2.151  1.00  0.00     0.074 A 
ATOM     31  C   UNL     1      -4.929  -1.553   3.720  1.00  0.00     0.049 A 
ATOM     32  N   UNL     1      -6.151  -4.139   2.780  1.00  0.00    -0.248 NA
ATOM     33  C   UNL     1      -6.868  -3.042   0.849  1.00  0.00     0.031 C 
ATOM     34  C   UNL     1      -4.317  -0.322   4.222  1.00  0.00     0.029 A 
ATOM     35  N   UNL     1      -4.618  -2.493   4.672  1.00  0.00    -0.354 N 
ATOM     36  C   UNL     1      -6.825  -5.040   1.966  1.00  0.00     0.074 A 
ATOM     37  C   UNL     1      -7.265  -4.306   0.797  1.00  0.00     0.031 C 
ATOM     38  C   UNL     1      -3.712  -0.580   5.394  1.00  0.00     0.029 A 
ATOM     39  C   UNL     1      -3.916  -1.985   5.739  1.00  0.00     0.049 A 
ATOM     40  H   UNL     1      -4.874  -3.440   4.598  1.00  0.00     0.167 HD
ATOM     41  C   UNL     1      -7.055  -6.359   2.172  1.00  0.00     0.037 A 
ATOM     42  C   UNL     1      -3.501  -2.581   6.874  1.00  0.00     0.037 A 
ATOM     43  C   UNL     1      -6.590  -7.093   3.321  1.00  0.00     0.049 A 
ATOM     44  C   UNL     1      -3.771  -4.048   7.079  1.00  0.00     0.074 A 
ATOM     45  C   UNL     1      -6.750  -8.439   3.604  1.00  0.00     0.029 A 
ATOM     46  N   UNL     1      -5.873  -6.547   4.374  1.00  0.00    -0.354 N 
ATOM     47  N   UNL     1      -4.394  -4.889   6.289  1.00  0.00    -0.248 NA
ATOM     48  C   UNL     1      -3.275  -4.650   8.326  1.00  0.00     0.031 C 
ATOM     49  C   UNL     1      -6.156  -8.701   4.843  1.00  0.00     0.029 A 
ATOM     50  C   UNL     1      -5.593  -7.526   5.313  1.00  0.00     0.049 A 
ATOM     51  H   UNL     1      -5.602  -5.603   4.444  1.00  0.00     0.167 HD
ATOM     52  C   UNL     1      -4.345  -6.122   6.931  1.00  0.00     0.074 A 
ATOM     53  C   UNL     1      -3.621  -5.921   8.168  1.00  0.00     0.031 C 
ATOM     54  C   UNL     1      -4.854  -7.313   6.532  1.00  0.00     0.037 A 
BRANCH  41  55
ATOM     55  C   UNL     1      -7.862  -7.101   1.147  1.00  0.00     0.058 A 
ATOM     56  C   UNL     1      -7.315  -7.491  -0.084  1.00  0.00     0.135 A 
ATOM     57  C   UNL     1      -9.182  -7.486   1.431  1.00  0.00     0.135 A 
ATOM     58  F   UNL     1      -6.062  -7.134  -0.410  1.00  0.00    -0.206 F 
ATOM     59  C   UNL     1      -8.051  -8.233  -1.003  1.00  0.00     0.059 A 
ATOM     60  C   UNL     1      -9.930  -8.245   0.535  1.00  0.00     0.059 A 
ATOM     61  F   UNL     1      -9.754  -7.134   2.594  1.00  0.00    -0.206 F 
ATOM     62  C   UNL     1      -9.358  -8.608  -0.683  1.00  0.00     0.060 A 
BRANCH  62  63
ATOM     63  S   UNL     1     -10.290  -9.602  -1.867  1.00  0.00     0.124 S 
ATOM     64  O   UNL     1     -10.639  -8.605  -2.874  1.00  0.00    -0.237 OA
ATOM     65  O   UNL     1      -9.311 -10.603  -2.278  1.00  0.00    -0.237 OA
ATOM     66  O   UNL     1     -11.407 -10.112  -1.077  1.00  0.00    -0.744 OA
ENDBRANCH  62  63
ENDBRANCH  41  55
BRANCH  42  67
ATOM     67  C   UNL     1      -2.804  -1.787   7.920  1.00  0.00     0.058 A 
ATOM     68  C   UNL     1      -1.440  -1.973   8.190  1.00  0.00     0.135 A 
ATOM     69  C   UNL     1      -3.498  -0.837   8.684  1.00  0.00     0.135 A 
ATOM     70  F   UNL     1      -0.735  -2.877   7.492  1.00  0.00    -0.206 F 
ATOM     71  C   UNL     1      -0.794  -1.263   9.197  1.00  0.00     0.059 A 
ATOM     72  C   UNL     1      -2.869  -0.097   9.680  1.00  0.00     0.059 A 
ATOM     73  F   UNL     1      -4.802  -0.613   8.456  1.00  0.00    -0.206 F 
ATOM     74  C   UNL     1      -1.519  -0.329   9.939  1.00  0.00     0.060 A 
BRANCH  74  75
ATOM     75  S   UNL     1      -0.671   0.612  11.227  1.00  0.00     0.124 S 
ATOM     76  O   UNL     1      -0.620  -0.360  12.313  1.00  0.00    -0.237 OA
ATOM     77  O   UNL     1       0.604   0.929  10.593  1.00  0.00    -0.237 OA
ATOM     78  O   UNL     1      -1.556   1.754  11.442  1.00  0.00    -0.744 OA
ENDBRANCH  74  75
ENDBRANCH  42  67
BRANCH  54  79
ATOM     79  C   UNL     1      -4.609  -8.501   7.418  1.00  0.00     0.058 A 
ATOM     80  C   UNL     1      -5.312  -8.683   8.618  1.00  0.00     0.135 A 
ATOM     81  C   UNL     1      -3.689  -9.491   7.038  1.00  0.00     0.135 A 
ATOM     82  F   UNL     1      -6.199  -7.762   9.028  1.00  0.00    -0.206 F 
ATOM     83  C   UNL     1      -5.095  -9.795   9.425  1.00  0.00     0.059 A 
ATOM     84  C   UNL     1      -3.471 -10.622   7.818  1.00  0.00     0.059 A 
ATOM     85  F   UNL     1      -2.999  -9.369   5.893  1.00  0.00    -0.206 F 
ATOM     86  C   UNL     1      -4.169 -10.759   9.018  1.00  0.00     0.060 A 
BRANCH  86  87
ATOM     87  S   UNL     1      -3.909 -12.211  10.058  1.00  0.00     0.124 S 
ATOM     88  O   UNL     1      -3.051 -11.670  11.107  1.00  0.00    -0.237 OA
ATOM     89  O   UNL     1      -5.267 -12.557  10.466  1.00  0.00    -0.237 OA
ATOM     90  O   UNL     1      -3.272 -13.165   9.154  1.00  0.00    -0.744 OA
ENDBRANCH  86  87
ENDBRANCH  54  79
ENDBRANCH  28  29
ENDBRANCH  21  23
ENDBRANCH  20  21
ENDBRANCH  19  20
ENDBRANCH  18  19
ENDBRANCH   1  18
TORSDOF 20
