REMARK SMILES O=C(OCCOC(=O)C1(Cc2ccccc2Cl)CCN(c2ncnc3[nH]ccc23)CC1)c1ccc(-c2c3nc(c(-c4c(F)cc(S(=O)(=O)[O-])cc4F)c4ccc([nH]4)c(-c4c(F)cc(S(=O)(=O)[O-])cc4F)c4nc(c(-c5c(F)cc(S(=O)(=O)[O-])cc5F)c5ccc2[nH]5)C=C4)C=C3)cc1
REMARK SMILES IDX 4 1 3 2 2 3 1 4 32 5 33 6 97 7 34 8 96 9 35 10 36 11 37 12
REMARK SMILES IDX 90 13 38 14 95 15 89 16 91 17 39 18 94 19 88 20 87 21 40 23
REMARK SMILES IDX 74 24 53 25 73 26 54 27 57 28 72 29 92 30 55 31 56 32 71 34
REMARK SMILES IDX 93 35 58 36 41 37 42 38 51 39 43 40 44 41 50 42 52 43 45 44
REMARK SMILES IDX 46 45 47 46 48 47 49 48 75 49 76 50 85 51 77 52 78 53 84 54
REMARK SMILES IDX 86 55 79 56 80 57 81 58 82 59 83 60 59 61 60 62 69 63 61 64
REMARK SMILES IDX 62 65 68 66 70 67 63 68 64 69 65 70 66 71 67 72 5 73 6 74
REMARK SMILES IDX 7 75 8 76 9 77 18 78 31 79 19 80 30 81 20 82 10 83 11 84
REMARK SMILES IDX 12 85 16 86 13 87 15 88 17 89 14 90 21 91 22 92 29 93 23 94
REMARK SMILES IDX 25 95 28 96 24 97 26 98 27 99
REMARK H PARENT 91 22 57 33 26 100
REMARK Flexibility Score: inf
ROOT
ATOM      1  C   UNL     1       4.613  -1.624  -0.039  1.00  0.00     0.275 C 
ENDROOT
BRANCH   1   2
ATOM      2  O   UNL     1       3.937  -0.992   1.040  1.00  0.00    -0.458 OA
BRANCH   2   3
ATOM      3  C   UNL     1       3.788   0.333   1.234  1.00  0.00     0.338 C 
ATOM      4  O   UNL     1       2.882   0.696   1.985  1.00  0.00    -0.246 OA
BRANCH   3   5
ATOM      5  C   UNL     1       4.654   1.390   0.596  1.00  0.00     0.060 A 
ATOM      6  C   UNL     1       5.642   1.258  -0.400  1.00  0.00     0.016 A 
ATOM      7  C   UNL     1       4.340   2.686   0.997  1.00  0.00     0.016 A 
ATOM      8  C   UNL     1       6.200   2.367  -1.067  1.00  0.00     0.010 A 
ATOM      9  C   UNL     1       4.871   3.779   0.321  1.00  0.00     0.010 A 
ATOM     10  C   UNL     1       5.776   3.650  -0.756  1.00  0.00    -0.014 A 
BRANCH  10  11
ATOM     11  C   UNL     1       6.204   4.890  -1.480  1.00  0.00     0.031 A 
ATOM     12  C   UNL     1       6.581   6.066  -0.619  1.00  0.00     0.074 A 
ATOM     13  C   UNL     1       6.067   5.084  -2.814  1.00  0.00     0.049 A 
ATOM     14  N   UNL     1       6.619   7.335  -0.916  1.00  0.00    -0.248 NA
ATOM     15  C   UNL     1       6.806   5.773   0.811  1.00  0.00     0.031 C 
ATOM     16  C   UNL     1       5.639   4.099  -3.808  1.00  0.00     0.029 A 
ATOM     17  N   UNL     1       6.217   6.233  -3.565  1.00  0.00    -0.354 N 
ATOM     18  C   UNL     1       6.807   7.959   0.306  1.00  0.00     0.074 A 
ATOM     19  C   UNL     1       6.589   6.968   1.331  1.00  0.00     0.031 C 
ATOM     20  C   UNL     1       5.485   4.699  -5.004  1.00  0.00     0.029 A 
ATOM     21  C   UNL     1       5.858   6.100  -4.890  1.00  0.00     0.049 A 
ATOM     22  H   UNL     1       6.552   7.078  -3.185  1.00  0.00     0.167 HD
ATOM     23  C   UNL     1       7.313   9.184   0.568  1.00  0.00     0.037 A 
ATOM     24  C   UNL     1       5.861   6.992  -5.905  1.00  0.00     0.037 A 
ATOM     25  C   UNL     1       7.700  10.097  -0.460  1.00  0.00     0.049 A 
ATOM     26  C   UNL     1       6.428   8.364  -5.641  1.00  0.00     0.074 A 
ATOM     27  C   UNL     1       8.379  11.293  -0.345  1.00  0.00     0.029 A 
ATOM     28  N   UNL     1       7.467   9.884  -1.810  1.00  0.00    -0.354 N 
ATOM     29  N   UNL     1       6.785   8.896  -4.497  1.00  0.00    -0.248 NA
ATOM     30  C   UNL     1       6.663   9.231  -6.805  1.00  0.00     0.031 C 
ATOM     31  C   UNL     1       8.540  11.816  -1.632  1.00  0.00     0.029 A 
ATOM     32  C   UNL     1       7.992  10.926  -2.546  1.00  0.00     0.049 A 
ATOM     33  H   UNL     1       6.997   9.105  -2.187  1.00  0.00     0.167 HD
ATOM     34  C   UNL     1       7.367  10.119  -4.811  1.00  0.00     0.074 A 
ATOM     35  C   UNL     1       7.281  10.265  -6.249  1.00  0.00     0.031 C 
ATOM     36  C   UNL     1       7.944  11.024  -3.983  1.00  0.00     0.037 A 
BRANCH  23  37
ATOM     37  C   UNL     1       7.590   9.490   2.012  1.00  0.00     0.058 A 
ATOM     38  C   UNL     1       8.527   8.733   2.744  1.00  0.00     0.135 A 
ATOM     39  C   UNL     1       6.849  10.459   2.699  1.00  0.00     0.135 A 
ATOM     40  F   UNL     1       9.256   7.781   2.136  1.00  0.00    -0.206 F 
ATOM     41  C   UNL     1       8.641   8.852   4.121  1.00  0.00     0.059 A 
ATOM     42  C   UNL     1       6.987  10.631   4.074  1.00  0.00     0.059 A 
ATOM     43  F   UNL     1       5.955  11.217   2.047  1.00  0.00    -0.206 F 
ATOM     44  C   UNL     1       7.856   9.797   4.779  1.00  0.00     0.060 A 
BRANCH  44  45
ATOM     45  S   UNL     1       7.984   9.904   6.574  1.00  0.00     0.124 S 
ATOM     46  O   UNL     1       7.233   8.724   6.989  1.00  0.00    -0.237 OA
ATOM     47  O   UNL     1       9.424   9.846   6.789  1.00  0.00    -0.237 OA
ATOM     48  O   UNL     1       7.357  11.189   6.879  1.00  0.00    -0.744 OA
ENDBRANCH  44  45
ENDBRANCH  23  37
BRANCH  24  49
ATOM     49  C   UNL     1       5.467   6.593  -7.289  1.00  0.00     0.058 A 
ATOM     50  C   UNL     1       6.445   6.349  -8.268  1.00  0.00     0.135 A 
ATOM     51  C   UNL     1       4.123   6.470  -7.678  1.00  0.00     0.135 A 
ATOM     52  F   UNL     1       7.745   6.458  -7.953  1.00  0.00    -0.206 F 
ATOM     53  C   UNL     1       6.112   6.027  -9.581  1.00  0.00     0.059 A 
ATOM     54  C   UNL     1       3.763   6.131  -8.985  1.00  0.00     0.059 A 
ATOM     55  F   UNL     1       3.144   6.674  -6.784  1.00  0.00    -0.206 F 
ATOM     56  C   UNL     1       4.766   5.919  -9.931  1.00  0.00     0.060 A 
BRANCH  56  57
ATOM     57  S   UNL     1       4.357   5.461 -11.633  1.00  0.00     0.124 S 
ATOM     58  O   UNL     1       4.797   6.639 -12.372  1.00  0.00    -0.237 OA
ATOM     59  O   UNL     1       5.158   4.255 -11.819  1.00  0.00    -0.237 OA
ATOM     60  O   UNL     1       2.914   5.247 -11.587  1.00  0.00    -0.744 OA
ENDBRANCH  56  57
ENDBRANCH  24  49
BRANCH  36  61
ATOM     61  C   UNL     1       8.619  12.213  -4.595  1.00  0.00     0.058 A 
ATOM     62  C   UNL     1       7.889  13.294  -5.107  1.00  0.00     0.135 A 
ATOM     63  C   UNL     1      10.018  12.325  -4.534  1.00  0.00     0.135 A 
ATOM     64  F   UNL     1       6.551  13.227  -5.191  1.00  0.00    -0.206 F 
ATOM     65  C   UNL     1       8.525  14.454  -5.531  1.00  0.00     0.059 A 
ATOM     66  C   UNL     1      10.672  13.486  -4.925  1.00  0.00     0.059 A 
ATOM     67  F   UNL     1      10.757  11.318  -4.042  1.00  0.00    -0.206 F 
ATOM     68  C   UNL     1       9.915  14.546  -5.421  1.00  0.00     0.060 A 
BRANCH  68  69
ATOM     69  S   UNL     1      10.715  16.097  -5.878  1.00  0.00     0.124 S 
ATOM     70  O   UNL     1      10.624  16.057  -7.333  1.00  0.00    -0.237 OA
ATOM     71  O   UNL     1       9.871  17.088  -5.216  1.00  0.00    -0.237 OA
ATOM     72  O   UNL     1      12.060  15.961  -5.327  1.00  0.00    -0.744 OA
ENDBRANCH  68  69
ENDBRANCH  36  61
ENDBRANCH  10  11
ENDBRANCH   3   5
ENDBRANCH   2   3
ENDBRANCH   1   2
BRANCH   1  73
ATOM     73  C   UNL     1       3.923  -1.453  -1.395  1.00  0.00     0.274 C 
BRANCH  73  74
ATOM     74  O   UNL     1       3.542  -0.106  -1.794  1.00  0.00    -0.462 OA
BRANCH  74  75
ATOM     75  C   UNL     1       2.209   0.180  -1.714  1.00  0.00     0.312 C 
ATOM     76  O   UNL     1       1.424  -0.554  -1.117  1.00  0.00    -0.252 OA
BRANCH  75  77
ATOM     77  C   UNL     1       1.719   1.370  -2.587  1.00  0.00     0.075 C 
ATOM     78  C   UNL     1       2.662   2.560  -2.851  1.00  0.00     0.040 C 
ATOM     79  C   UNL     1       0.416   1.911  -1.905  1.00  0.00     0.040 C 
ATOM     80  C   UNL     1       2.602   3.817  -2.010  1.00  0.00     0.119 C 
ATOM     81  C   UNL     1       0.706   2.932  -0.782  1.00  0.00     0.119 C 
ATOM     82  N   UNL     1       1.308   4.089  -1.425  1.00  0.00    -0.356 N 
BRANCH  77  83
ATOM     83  C   UNL     1       1.409   0.726  -4.011  1.00  0.00     0.056 C 
BRANCH  83  84
ATOM     84  C   UNL     1       2.652   0.397  -4.859  1.00  0.00    -0.028 A 
ATOM     85  C   UNL     1       3.254   1.409  -5.638  1.00  0.00     0.005 A 
ATOM     86  C   UNL     1       3.307  -0.842  -4.825  1.00  0.00     0.044 A 
ATOM     87  C   UNL     1       4.534   1.254  -6.180  1.00  0.00     0.000 A 
ATOM     88  C   UNL     1       4.609  -0.984  -5.328  1.00  0.00     0.021 A 
ATOM     89  Cl  UNL     1       2.524  -2.269  -4.247  1.00  0.00    -0.084 Cl
ATOM     90  C   UNL     1       5.238   0.077  -5.973  1.00  0.00     0.002 A 
ENDBRANCH  83  84
ENDBRANCH  77  83
BRANCH  82  91
ATOM     91  C   UNL     1       1.370   5.293  -0.703  1.00  0.00     0.141 A 
ATOM     92  N   UNL     1       1.604   5.295   0.637  1.00  0.00    -0.219 NA
ATOM     93  C   UNL     1       1.313   6.548  -1.352  1.00  0.00     0.061 A 
ATOM     94  C   UNL     1       1.778   6.483   1.264  1.00  0.00     0.226 A 
ATOM     95  C   UNL     1       1.483   7.681  -0.572  1.00  0.00     0.142 A 
ATOM     96  C   UNL     1       1.134   7.004  -2.690  1.00  0.00     0.033 A 
ATOM     97  N   UNL     1       1.715   7.722   0.747  1.00  0.00    -0.218 NA
ATOM     98  N   UNL     1       1.391   8.780  -1.383  1.00  0.00    -0.346 N 
ATOM     99  C   UNL     1       1.168   8.383  -2.677  1.00  0.00     0.085 A 
ATOM    100  H   UNL     1       1.471   9.714  -1.083  1.00  0.00     0.167 HD
ENDBRANCH  82  91
ENDBRANCH  75  77
ENDBRANCH  74  75
ENDBRANCH  73  74
ENDBRANCH   1  73
TORSDOF 17
