REMARK SMILES CO[C@H]1CCC[C@H]1NC(=O)N[C@](C)(C(=O)OCCOC(=O)c1ccc(-c2c3nc(c(-c4c(F)cc(S(=O)(=O)[O-])cc4F)c4ccc([nH]4)c(-c4c(F)cc(S(=O)(=O)[O-])cc4F)c4nc(c(-c5c(F)cc(S(=O)(=O)[O-])cc5F)c5ccc2[nH]5)C=C4)C=C3)cc1)C(F)(F)F
REMARK SMILES IDX 17 1 16 2 14 3 15 4 12 5 13 6 11 7 8 8 9 9 10 11 7 13 3 14
REMARK SMILES IDX 4 15 5 16 6 17 2 18 1 19 88 20 89 21 90 22 91 23 18 24 19 25
REMARK SMILES IDX 20 26 21 27 22 28 23 29 87 30 24 31 86 32 25 33 26 34 27 35
REMARK SMILES IDX 80 36 28 37 85 38 79 39 81 40 29 41 84 42 78 43 77 44 30 46
REMARK SMILES IDX 64 47 43 48 63 49 44 50 47 51 62 52 82 53 45 54 46 55 61 57
REMARK SMILES IDX 83 58 48 59 31 60 32 61 41 62 33 63 34 64 40 65 42 66 35 67
REMARK SMILES IDX 36 68 37 69 38 70 39 71 65 72 66 73 75 74 67 75 68 76 74 77
REMARK SMILES IDX 76 78 69 79 70 80 71 81 72 82 73 83 49 84 50 85 59 86 51 87
REMARK SMILES IDX 52 88 58 89 60 90 53 91 54 92 55 93 56 94 57 95
REMARK H PARENT 8 10 11 12 81 45 47 56
REMARK Flexibility Score: inf
ROOT
ATOM      1  C   UNL     1       3.655   0.805  -3.570  1.00  0.00     0.274 C 
ENDROOT
BRANCH   1   2
ATOM      2  O   UNL     1       4.004   0.061  -2.389  1.00  0.00    -0.460 OA
BRANCH   2   3
ATOM      3  C   UNL     1       4.537   0.694  -1.312  1.00  0.00     0.341 C 
ATOM      4  O   UNL     1       5.178   1.733  -1.401  1.00  0.00    -0.249 OA
BRANCH   3   5
ATOM      5  C   UNL     1       4.330  -0.125  -0.011  1.00  0.00     0.232 C 
ATOM      6  C   UNL     1       3.472  -1.391  -0.317  1.00  0.00     0.058 C 
BRANCH   5   7
ATOM      7  N   UNL     1       5.694  -0.531   0.453  1.00  0.00    -0.315 N 
ATOM      8  N   UNL     1       5.449  -1.773   2.468  1.00  0.00    -0.333 N 
ATOM      9  C   UNL     1       6.183  -1.178   1.520  1.00  0.00     0.316 C 
ATOM     10  H   UNL     1       6.006  -2.136   3.194  1.00  0.00     0.165 HD
ATOM     11  O   UNL     1       7.411  -1.228   1.620  1.00  0.00    -0.249 OA
ATOM     12  H   UNL     1       6.401  -0.259  -0.176  1.00  0.00     0.166 HD
BRANCH   8  13
ATOM     13  C   UNL     1       4.038  -2.015   2.691  1.00  0.00     0.112 C 
ATOM     14  C   UNL     1       3.581  -3.463   2.430  1.00  0.00     0.140 C 
ATOM     15  C   UNL     1       2.129  -3.392   2.908  1.00  0.00     0.034 C 
ATOM     16  C   UNL     1       2.146  -2.422   4.100  1.00  0.00     0.005 C 
ATOM     17  C   UNL     1       3.533  -1.763   4.107  1.00  0.00     0.028 C 
BRANCH  14  18
ATOM     18  O   UNL     1       4.368  -4.359   3.225  1.00  0.00    -0.379 OA
ATOM     19  C   UNL     1       4.081  -5.728   2.977  1.00  0.00     0.195 C 
ENDBRANCH  14  18
ENDBRANCH   8  13
ENDBRANCH   5   7
BRANCH   5  20
ATOM     20  C   UNL     1       3.655   0.860   0.989  1.00  0.00     0.422 C 
ATOM     21  F   UNL     1       2.363   0.514   1.210  1.00  0.00    -0.168 F 
ATOM     22  F   UNL     1       4.249   0.855   2.207  1.00  0.00    -0.168 F 
ATOM     23  F   UNL     1       3.648   2.149   0.592  1.00  0.00    -0.168 F 
ENDBRANCH   5  20
ENDBRANCH   3   5
ENDBRANCH   2   3
ENDBRANCH   1   2
BRANCH   1  24
ATOM     24  C   UNL     1       2.164   0.538  -3.801  1.00  0.00     0.275 C 
BRANCH  24  25
ATOM     25  O   UNL     1       1.437   1.227  -2.764  1.00  0.00    -0.458 OA
BRANCH  25  26
ATOM     26  C   UNL     1       0.282   0.666  -2.337  1.00  0.00     0.338 C 
ATOM     27  O   UNL     1      -0.244  -0.346  -2.787  1.00  0.00    -0.246 OA
BRANCH  26  28
ATOM     28  C   UNL     1      -0.249   1.441  -1.191  1.00  0.00     0.060 A 
ATOM     29  C   UNL     1       0.633   2.042  -0.298  1.00  0.00     0.016 A 
ATOM     30  C   UNL     1      -1.617   1.511  -0.935  1.00  0.00     0.016 A 
ATOM     31  C   UNL     1       0.173   2.590   0.901  1.00  0.00     0.010 A 
ATOM     32  C   UNL     1      -2.085   2.197   0.202  1.00  0.00     0.010 A 
ATOM     33  C   UNL     1      -1.198   2.714   1.165  1.00  0.00    -0.014 A 
BRANCH  33  34
ATOM     34  C   UNL     1      -1.677   3.349   2.440  1.00  0.00     0.031 A 
ATOM     35  C   UNL     1      -2.703   2.657   3.313  1.00  0.00     0.074 A 
ATOM     36  C   UNL     1      -1.190   4.541   2.853  1.00  0.00     0.049 A 
ATOM     37  N   UNL     1      -3.378   3.129   4.333  1.00  0.00    -0.248 NA
ATOM     38  C   UNL     1      -3.029   1.260   2.985  1.00  0.00     0.031 C 
ATOM     39  C   UNL     1      -0.180   5.341   2.155  1.00  0.00     0.029 A 
ATOM     40  N   UNL     1      -1.467   5.287   3.977  1.00  0.00    -0.354 N 
ATOM     41  C   UNL     1      -4.261   2.122   4.712  1.00  0.00     0.074 A 
ATOM     42  C   UNL     1      -4.032   1.010   3.815  1.00  0.00     0.031 C 
ATOM     43  C   UNL     1       0.131   6.414   2.895  1.00  0.00     0.029 A 
ATOM     44  C   UNL     1      -0.734   6.449   4.067  1.00  0.00     0.049 A 
ATOM     45  H   UNL     1      -2.128   5.015   4.653  1.00  0.00     0.167 HD
ATOM     46  C   UNL     1      -5.179   2.121   5.711  1.00  0.00     0.037 A 
ATOM     47  C   UNL     1      -0.772   7.460   4.958  1.00  0.00     0.037 A 
ATOM     48  C   UNL     1      -5.349   3.187   6.667  1.00  0.00     0.049 A 
ATOM     49  C   UNL     1      -1.776   7.427   6.074  1.00  0.00     0.074 A 
ATOM     50  C   UNL     1      -6.243   3.264   7.723  1.00  0.00     0.029 A 
ATOM     51  N   UNL     1      -4.591   4.348   6.707  1.00  0.00    -0.354 N 
ATOM     52  N   UNL     1      -2.667   6.507   6.352  1.00  0.00    -0.248 NA
ATOM     53  C   UNL     1      -1.799   8.584   6.980  1.00  0.00     0.031 C 
ATOM     54  C   UNL     1      -6.040   4.479   8.388  1.00  0.00     0.029 A 
ATOM     55  C   UNL     1      -4.995   5.144   7.768  1.00  0.00     0.049 A 
ATOM     56  H   UNL     1      -3.871   4.573   6.074  1.00  0.00     0.167 HD
ATOM     57  C   UNL     1      -3.358   6.975   7.464  1.00  0.00     0.074 A 
ATOM     58  C   UNL     1      -2.762   8.244   7.826  1.00  0.00     0.031 C 
ATOM     59  C   UNL     1      -4.403   6.409   8.117  1.00  0.00     0.037 A 
BRANCH  46  60
ATOM     60  C   UNL     1      -6.104   0.937   5.810  1.00  0.00     0.058 A 
ATOM     61  C   UNL     1      -5.675  -0.312   6.283  1.00  0.00     0.135 A 
ATOM     62  C   UNL     1      -7.458   1.072   5.456  1.00  0.00     0.135 A 
ATOM     63  F   UNL     1      -4.390  -0.503   6.619  1.00  0.00    -0.206 F 
ATOM     64  C   UNL     1      -6.548  -1.394   6.374  1.00  0.00     0.059 A 
ATOM     65  C   UNL     1      -8.354   0.012   5.564  1.00  0.00     0.059 A 
ATOM     66  F   UNL     1      -7.923   2.246   5.002  1.00  0.00    -0.206 F 
ATOM     67  C   UNL     1      -7.885  -1.223   6.008  1.00  0.00     0.060 A 
BRANCH  67  68
ATOM     68  S   UNL     1      -9.005  -2.634   6.125  1.00  0.00     0.124 S 
ATOM     69  O   UNL     1      -8.612  -3.414   4.956  1.00  0.00    -0.237 OA
ATOM     70  O   UNL     1      -8.652  -3.210   7.419  1.00  0.00    -0.237 OA
ATOM     71  O   UNL     1     -10.329  -2.023   6.056  1.00  0.00    -0.744 OA
ENDBRANCH  67  68
ENDBRANCH  46  60
BRANCH  47  72
ATOM     72  C   UNL     1       0.145   8.622   4.800  1.00  0.00     0.058 A 
ATOM     73  C   UNL     1       1.198   8.841   5.700  1.00  0.00     0.135 A 
ATOM     74  C   UNL     1      -0.001   9.524   3.734  1.00  0.00     0.135 A 
ATOM     75  F   UNL     1       1.369   8.018   6.746  1.00  0.00    -0.206 F 
ATOM     76  C   UNL     1       2.074   9.913   5.551  1.00  0.00     0.059 A 
ATOM     77  C   UNL     1       0.878  10.585   3.547  1.00  0.00     0.059 A 
ATOM     78  F   UNL     1      -0.988   9.353   2.840  1.00  0.00    -0.206 F 
ATOM     79  C   UNL     1       1.908  10.776   4.466  1.00  0.00     0.060 A 
BRANCH  79  80
ATOM     80  S   UNL     1       3.087  12.124   4.232  1.00  0.00     0.124 S 
ATOM     81  O   UNL     1       2.608  13.104   5.199  1.00  0.00    -0.237 OA
ATOM     82  O   UNL     1       4.360  11.483   4.548  1.00  0.00    -0.237 OA
ATOM     83  O   UNL     1       2.909  12.480   2.827  1.00  0.00    -0.744 OA
ENDBRANCH  79  80
ENDBRANCH  47  72
BRANCH  59  84
ATOM     84  C   UNL     1      -4.949   7.155   9.301  1.00  0.00     0.058 A 
ATOM     85  C   UNL     1      -5.721   8.317   9.144  1.00  0.00     0.135 A 
ATOM     86  C   UNL     1      -4.690   6.710  10.607  1.00  0.00     0.135 A 
ATOM     87  F   UNL     1      -5.991   8.788   7.917  1.00  0.00    -0.206 F 
ATOM     88  C   UNL     1      -6.185   9.035  10.242  1.00  0.00     0.059 A 
ATOM     89  C   UNL     1      -5.163   7.399  11.719  1.00  0.00     0.059 A 
ATOM     90  F   UNL     1      -3.966   5.599  10.812  1.00  0.00    -0.206 F 
ATOM     91  C   UNL     1      -5.892   8.573  11.527  1.00  0.00     0.060 A 
BRANCH  91  92
ATOM     92  S   UNL     1      -6.486   9.516  12.947  1.00  0.00     0.124 S 
ATOM     93  O   UNL     1      -5.522  10.611  12.995  1.00  0.00    -0.237 OA
ATOM     94  O   UNL     1      -7.840   9.881  12.543  1.00  0.00    -0.237 OA
ATOM     95  O   UNL     1      -6.405   8.559  14.046  1.00  0.00    -0.744 OA
ENDBRANCH  91  92
ENDBRANCH  59  84
ENDBRANCH  33  34
ENDBRANCH  26  28
ENDBRANCH  25  26
ENDBRANCH  24  25
ENDBRANCH   1  24
TORSDOF 18
