REMARK SMILES CC[C@@H](C(=O)OCCOC(=O)c1ccc(-c2c3nc(c(-c4c(F)cc(S(=O)(=O)[O-])cc4F)c4ccc([nH]4)c(-c4c(F)cc(S(=O)(=O)[O-])cc4F)c4nc(c(-c5c(F)cc(S(=O)(=O)[O-])cc5F)c5ccc2[nH]5)C=C4)C=C3)cc1)n1c(SCc2cccc(C(F)(F)F)c2)nc2ccncc21
REMARK SMILES IDX 7 1 6 2 4 3 5 4 3 5 2 6 1 7 78 8 79 9 98 10 92 11 93 12
REMARK SMILES IDX 97 13 94 14 96 15 95 16 80 17 81 18 82 19 83 20 91 21 84 22
REMARK SMILES IDX 86 23 85 24 87 25 88 26 89 27 90 28 8 29 9 30 10 31 11 32
REMARK SMILES IDX 12 33 13 34 77 35 14 36 76 37 15 38 16 39 17 40 70 41 18 42
REMARK SMILES IDX 75 43 69 44 71 45 19 46 74 47 68 48 67 49 20 51 54 52 33 53
REMARK SMILES IDX 53 54 34 55 37 56 52 57 72 58 35 59 36 60 51 62 73 63 38 64
REMARK SMILES IDX 21 65 22 66 31 67 23 68 24 69 30 70 32 71 25 72 26 73 27 74
REMARK SMILES IDX 28 75 29 76 55 77 56 78 65 79 57 80 58 81 64 82 66 83 59 84
REMARK SMILES IDX 60 85 61 86 62 87 63 88 39 89 40 90 49 91 41 92 42 93 48 94
REMARK SMILES IDX 50 95 43 96 44 97 45 98 46 99 47 100
REMARK H PARENT 71 50 37 61
REMARK Flexibility Score: inf
ROOT
ATOM      1  C   UNL     1       0.530   4.251  -0.759  1.00  0.00     0.274 C 
ENDROOT
BRANCH   1   2
ATOM      2  O   UNL     1       1.020   3.038  -0.142  1.00  0.00    -0.461 OA
BRANCH   2   3
ATOM      3  C   UNL     1       1.166   3.042   1.211  1.00  0.00     0.329 C 
ATOM      4  O   UNL     1       0.888   4.030   1.879  1.00  0.00    -0.250 OA
BRANCH   3   5
ATOM      5  C   UNL     1       1.832   1.752   1.764  1.00  0.00     0.199 C 
BRANCH   5   6
ATOM      6  C   UNL     1       1.570   0.513   0.874  1.00  0.00     0.034 C 
ATOM      7  C   UNL     1       2.128   0.502  -0.542  1.00  0.00     0.007 C 
ENDBRANCH   5   6
BRANCH   5   8
ATOM      8  N   UNL     1       1.512   1.558   3.209  1.00  0.00    -0.303 N 
ATOM      9  C   UNL     1       0.934   0.481   3.871  1.00  0.00     0.170 A 
ATOM     10  C   UNL     1       1.715   2.525   4.196  1.00  0.00     0.088 A 
ATOM     11  N   UNL     1       0.446   0.839   5.039  1.00  0.00    -0.222 NA
ATOM     12  C   UNL     1       0.952   2.095   5.277  1.00  0.00     0.093 A 
ATOM     13  C   UNL     1       2.409   3.729   4.244  1.00  0.00     0.139 A 
ATOM     14  C   UNL     1       0.810   2.920   6.398  1.00  0.00     0.051 A 
ATOM     15  N   UNL     1       2.300   4.511   5.342  1.00  0.00    -0.262 NA
ATOM     16  C   UNL     1       1.505   4.118   6.362  1.00  0.00     0.113 A 
BRANCH   9  17
ATOM     17  S   UNL     1       1.204  -1.186   3.456  1.00  0.00    -0.083 SA
BRANCH  17  18
ATOM     18  C   UNL     1      -0.399  -2.002   3.466  1.00  0.00     0.113 C 
BRANCH  18  19
ATOM     19  C   UNL     1      -1.420  -1.530   2.457  1.00  0.00    -0.037 A 
ATOM     20  C   UNL     1      -2.201  -0.409   2.751  1.00  0.00     0.004 A 
ATOM     21  C   UNL     1      -1.696  -2.246   1.277  1.00  0.00     0.017 A 
ATOM     22  C   UNL     1      -3.221   0.000   1.894  1.00  0.00     0.001 A 
ATOM     23  C   UNL     1      -2.751  -1.862   0.422  1.00  0.00     0.056 A 
ATOM     24  C   UNL     1      -3.490  -0.714   0.731  1.00  0.00     0.013 A 
BRANCH  23  25
ATOM     25  C   UNL     1      -3.110  -2.670  -0.801  1.00  0.00     0.416 C 
ATOM     26  F   UNL     1      -4.437  -2.615  -1.112  1.00  0.00    -0.166 F 
ATOM     27  F   UNL     1      -2.452  -2.257  -1.920  1.00  0.00    -0.166 F 
ATOM     28  F   UNL     1      -2.821  -3.997  -0.672  1.00  0.00    -0.166 F 
ENDBRANCH  23  25
ENDBRANCH  18  19
ENDBRANCH  17  18
ENDBRANCH   9  17
ENDBRANCH   5   8
ENDBRANCH   3   5
ENDBRANCH   2   3
ENDBRANCH   1   2
BRANCH   1  29
ATOM     29  C   UNL     1      -0.990   4.257  -0.978  1.00  0.00     0.275 C 
BRANCH  29  30
ATOM     30  O   UNL     1      -1.728   4.524   0.232  1.00  0.00    -0.458 OA
BRANCH  30  31
ATOM     31  C   UNL     1      -1.972   3.415   0.969  1.00  0.00     0.338 C 
ATOM     32  O   UNL     1      -1.657   2.279   0.652  1.00  0.00    -0.246 OA
BRANCH  31  33
ATOM     33  C   UNL     1      -2.526   3.736   2.302  1.00  0.00     0.060 A 
ATOM     34  C   UNL     1      -1.970   3.034   3.370  1.00  0.00     0.016 A 
ATOM     35  C   UNL     1      -3.588   4.612   2.533  1.00  0.00     0.016 A 
ATOM     36  C   UNL     1      -2.457   3.183   4.660  1.00  0.00     0.010 A 
ATOM     37  C   UNL     1      -4.079   4.775   3.844  1.00  0.00     0.010 A 
ATOM     38  C   UNL     1      -3.510   4.063   4.913  1.00  0.00    -0.014 A 
BRANCH  38  39
ATOM     39  C   UNL     1      -3.920   4.231   6.328  1.00  0.00     0.031 A 
ATOM     40  C   UNL     1      -4.947   3.325   6.942  1.00  0.00     0.074 A 
ATOM     41  C   UNL     1      -3.214   5.076   7.104  1.00  0.00     0.049 A 
ATOM     42  N   UNL     1      -5.362   3.271   8.181  1.00  0.00    -0.248 NA
ATOM     43  C   UNL     1      -5.569   2.334   6.052  1.00  0.00     0.031 C 
ATOM     44  C   UNL     1      -2.097   5.902   6.641  1.00  0.00     0.029 A 
ATOM     45  N   UNL     1      -3.293   5.341   8.447  1.00  0.00    -0.354 N 
ATOM     46  C   UNL     1      -6.306   2.253   8.223  1.00  0.00     0.074 A 
ATOM     47  C   UNL     1      -6.390   1.705   6.884  1.00  0.00     0.031 C 
ATOM     48  C   UNL     1      -1.577   6.560   7.690  1.00  0.00     0.029 A 
ATOM     49  C   UNL     1      -2.346   6.235   8.888  1.00  0.00     0.049 A 
ATOM     50  H   UNL     1      -3.964   4.930   9.040  1.00  0.00     0.167 HD
ATOM     51  C   UNL     1      -7.046   1.831   9.277  1.00  0.00     0.037 A 
ATOM     52  C   UNL     1      -2.130   6.742  10.118  1.00  0.00     0.037 A 
ATOM     53  C   UNL     1      -6.966   2.392  10.602  1.00  0.00     0.049 A 
ATOM     54  C   UNL     1      -3.019   6.312  11.254  1.00  0.00     0.074 A 
ATOM     55  C   UNL     1      -7.735   2.092  11.714  1.00  0.00     0.029 A 
ATOM     56  N   UNL     1      -6.063   3.369  10.996  1.00  0.00    -0.354 N 
ATOM     57  N   UNL     1      -3.966   5.404  11.261  1.00  0.00    -0.248 NA
ATOM     58  C   UNL     1      -2.825   6.989  12.543  1.00  0.00     0.031 C 
ATOM     59  C   UNL     1      -7.324   2.917  12.768  1.00  0.00     0.029 A 
ATOM     60  C   UNL     1      -6.270   3.700  12.326  1.00  0.00     0.049 A 
ATOM     61  H   UNL     1      -5.376   3.769  10.415  1.00  0.00     0.167 HD
ATOM     62  C   UNL     1      -4.483   5.405  12.552  1.00  0.00     0.074 A 
ATOM     63  C   UNL     1      -3.720   6.378  13.307  1.00  0.00     0.031 C 
ATOM     64  C   UNL     1      -5.508   4.678  13.062  1.00  0.00     0.037 A 
BRANCH  51  65
ATOM     65  C   UNL     1      -8.071   0.764   9.015  1.00  0.00     0.058 A 
ATOM     66  C   UNL     1      -7.725  -0.588   8.873  1.00  0.00     0.135 A 
ATOM     67  C   UNL     1      -9.429   1.108   8.916  1.00  0.00     0.135 A 
ATOM     68  F   UNL     1      -6.439  -0.967   8.942  1.00  0.00    -0.206 F 
ATOM     69  C   UNL     1      -8.688  -1.560   8.615  1.00  0.00     0.059 A 
ATOM     70  C   UNL     1     -10.410   0.152   8.678  1.00  0.00     0.059 A 
ATOM     71  F   UNL     1      -9.812   2.389   9.043  1.00  0.00    -0.206 F 
ATOM     72  C   UNL     1     -10.028  -1.178   8.511  1.00  0.00     0.060 A 
BRANCH  72  73
ATOM     73  S   UNL     1     -11.268  -2.440   8.148  1.00  0.00     0.124 S 
ATOM     74  O   UNL     1     -11.030  -2.679   6.728  1.00  0.00    -0.237 OA
ATOM     75  O   UNL     1     -10.887  -3.525   9.046  1.00  0.00    -0.237 OA
ATOM     76  O   UNL     1     -12.529  -1.779   8.469  1.00  0.00    -0.744 OA
ENDBRANCH  72  73
ENDBRANCH  51  65
BRANCH  52  77
ATOM     77  C   UNL     1      -1.050   7.741  10.335  1.00  0.00     0.058 A 
ATOM     78  C   UNL     1       0.073   7.439  11.117  1.00  0.00     0.135 A 
ATOM     79  C   UNL     1      -1.130   9.027   9.776  1.00  0.00     0.135 A 
ATOM     80  F   UNL     1       0.191   6.227  11.682  1.00  0.00    -0.206 F 
ATOM     81  C   UNL     1       1.072   8.379  11.353  1.00  0.00     0.059 A 
ATOM     82  C   UNL     1      -0.132   9.974   9.974  1.00  0.00     0.059 A 
ATOM     83  F   UNL     1      -2.182   9.365   9.014  1.00  0.00    -0.206 F 
ATOM     84  C   UNL     1       0.958   9.646  10.778  1.00  0.00     0.060 A 
BRANCH  84  85
ATOM     85  S   UNL     1       2.267  10.858  11.059  1.00  0.00     0.124 S 
ATOM     86  O   UNL     1       1.928  11.348  12.390  1.00  0.00    -0.237 OA
ATOM     87  O   UNL     1       3.474  10.043  10.967  1.00  0.00    -0.237 OA
ATOM     88  O   UNL     1       2.079  11.810   9.968  1.00  0.00    -0.744 OA
ENDBRANCH  84  85
ENDBRANCH  52  77
BRANCH  64  89
ATOM     89  C   UNL     1      -5.871   4.914  14.502  1.00  0.00     0.058 A 
ATOM     90  C   UNL     1      -6.551   6.076  14.901  1.00  0.00     0.135 A 
ATOM     91  C   UNL     1      -5.580   3.954  15.483  1.00  0.00     0.135 A 
ATOM     92  F   UNL     1      -6.847   7.028  14.001  1.00  0.00    -0.206 F 
ATOM     93  C   UNL     1      -6.914   6.287  16.227  1.00  0.00     0.059 A 
ATOM     94  C   UNL     1      -5.953   4.134  16.812  1.00  0.00     0.059 A 
ATOM     95  F   UNL     1      -4.939   2.822  15.153  1.00  0.00    -0.206 F 
ATOM     96  C   UNL     1      -6.611   5.309  17.176  1.00  0.00     0.060 A 
BRANCH  96  97
ATOM     97  S   UNL     1      -7.120   5.576  18.889  1.00  0.00     0.124 S 
ATOM     98  O   UNL     1      -6.121   6.536  19.346  1.00  0.00    -0.237 OA
ATOM     99  O   UNL     1      -8.475   6.096  18.737  1.00  0.00    -0.237 OA
ATOM    100  O   UNL     1      -7.029   4.245  19.480  1.00  0.00    -0.744 OA
ENDBRANCH  96  97
ENDBRANCH  64  89
ENDBRANCH  38  39
ENDBRANCH  31  33
ENDBRANCH  30  31
ENDBRANCH  29  30
ENDBRANCH   1  29
TORSDOF 20
