REMARK SMILES COc1ccc(OC)c([C@H](C(=O)OCCOC(=O)c2ccc(-c3c4nc(c(-c5c(F)cc(S(=O)(=O)[O-])cc5F)c5ccc([nH]5)c(-c5c(F)cc(S(=O)(=O)[O-])cc5F)c5nc(c(-c6c(F)cc(S(=O)(=O)[O-])cc6F)c6ccc3[nH]6)C=C5)C=C4)cc2)[NH+]2CC[NH+](Cc3nccn3C)CC2)c1
REMARK SMILES IDX 14 1 13 2 11 3 12 4 10 5 9 6 3 7 4 8 98 9 5 10 6 11 2 12
REMARK SMILES IDX 1 13 7 14 8 15 85 16 86 17 97 18 87 20 96 21 88 22 89 24
REMARK SMILES IDX 90 25 91 26 94 27 92 28 93 29 95 30 15 31 16 32 17 33 18 34
REMARK SMILES IDX 19 35 20 36 84 37 21 38 83 39 22 40 23 41 24 42 77 43 25 44
REMARK SMILES IDX 82 45 76 46 78 47 26 48 81 49 75 50 74 51 27 53 61 54 40 55
REMARK SMILES IDX 60 56 41 57 44 58 59 59 79 60 42 61 43 62 58 64 80 65 45 66
REMARK SMILES IDX 28 67 29 68 38 69 30 70 31 71 37 72 39 73 32 74 33 75 34 76
REMARK SMILES IDX 35 77 36 78 62 79 63 80 72 81 64 82 65 83 71 84 73 85 66 86
REMARK SMILES IDX 67 87 68 88 69 89 70 90 46 91 47 92 56 93 48 94 49 95 55 96
REMARK SMILES IDX 57 97 50 98 51 99 52 100 53 101 54 102
REMARK H PARENT 85 19 88 23 78 52 44 63
REMARK Flexibility Score: inf
ROOT
ATOM      1  C   UNL     1       0.354   2.322  -2.398  1.00  0.00     0.274 C 
ENDROOT
BRANCH   1   2
ATOM      2  O   UNL     1       1.571   2.776  -3.029  1.00  0.00    -0.457 OA
BRANCH   2   3
ATOM      3  C   UNL     1       2.733   2.255  -2.549  1.00  0.00     0.370 C 
ATOM      4  O   UNL     1       2.781   1.291  -1.788  1.00  0.00    -0.245 OA
BRANCH   3   5
ATOM      5  C   UNL     1       3.983   3.039  -2.964  1.00  0.00     0.330 C 
BRANCH   5   6
ATOM      6  C   UNL     1       4.705   2.618  -4.246  1.00  0.00     0.067 A 
ATOM      7  C   UNL     1       4.746   2.179  -6.659  1.00  0.00     0.119 A 
ATOM      8  C   UNL     1       6.130   2.017  -6.611  1.00  0.00     0.050 A 
ATOM      9  C   UNL     1       4.038   2.462  -5.482  1.00  0.00     0.060 A 
ATOM     10  C   UNL     1       6.811   2.148  -5.406  1.00  0.00     0.051 A 
ATOM     11  C   UNL     1       6.107   2.466  -4.244  1.00  0.00     0.128 A 
BRANCH   7  12
ATOM     12  O   UNL     1       4.219   2.036  -7.913  1.00  0.00    -0.497 OA
ATOM     13  C   UNL     1       2.848   2.355  -8.091  1.00  0.00     0.278 C 
ENDBRANCH   7  12
BRANCH  11  14
ATOM     14  O   UNL     1       6.842   2.542  -3.088  1.00  0.00    -0.496 OA
ATOM     15  C   UNL     1       7.144   3.894  -2.743  1.00  0.00     0.278 C 
ENDBRANCH  11  14
ENDBRANCH   5   6
BRANCH   5  16
ATOM     16  N   UNL     1       3.851   4.507  -2.823  1.00  0.00    -0.310 N 
ATOM     17  C   UNL     1       3.137   5.259  -3.854  1.00  0.00     0.325 C 
ATOM     18  C   UNL     1       3.633   4.984  -1.461  1.00  0.00     0.325 C 
ATOM     19  H   UNL     1       4.809   4.770  -3.055  1.00  0.00     0.349 HD
ATOM     20  C   UNL     1       1.751   5.840  -3.490  1.00  0.00     0.324 C 
ATOM     21  C   UNL     1       2.210   5.486  -1.137  1.00  0.00     0.324 C 
ATOM     22  N   UNL     1       1.572   6.357  -2.125  1.00  0.00    -0.319 N 
ATOM     23  H   UNL     1       0.578   6.319  -1.902  1.00  0.00     0.348 HD
BRANCH  22  24
ATOM     24  C   UNL     1       1.867   7.793  -2.003  1.00  0.00     0.339 C 
BRANCH  24  25
ATOM     25  C   UNL     1       3.288   8.213  -2.232  1.00  0.00     0.164 A 
ATOM     26  N   UNL     1       3.839   8.405  -3.419  1.00  0.00    -0.236 NA
ATOM     27  N   UNL     1       4.212   8.458  -1.242  1.00  0.00    -0.333 N 
ATOM     28  C   UNL     1       5.168   8.633  -3.191  1.00  0.00     0.131 A 
ATOM     29  C   UNL     1       5.424   8.672  -1.844  1.00  0.00     0.107 A 
ATOM     30  C   UNL     1       4.017   8.460   0.186  1.00  0.00     0.151 C 
ENDBRANCH  24  25
ENDBRANCH  22  24
ENDBRANCH   5  16
ENDBRANCH   3   5
ENDBRANCH   2   3
ENDBRANCH   1   2
BRANCH   1  31
ATOM     31  C   UNL     1      -0.607   1.761  -3.435  1.00  0.00     0.275 C 
BRANCH  31  32
ATOM     32  O   UNL     1       0.004   0.603  -4.015  1.00  0.00    -0.458 OA
BRANCH  32  33
ATOM     33  C   UNL     1       0.385   0.730  -5.304  1.00  0.00     0.338 C 
ATOM     34  O   UNL     1       0.087   1.613  -6.088  1.00  0.00    -0.246 OA
BRANCH  33  35
ATOM     35  C   UNL     1       1.328  -0.354  -5.612  1.00  0.00     0.060 A 
ATOM     36  C   UNL     1       2.509  -0.451  -4.874  1.00  0.00     0.016 A 
ATOM     37  C   UNL     1       1.096  -1.197  -6.694  1.00  0.00     0.016 A 
ATOM     38  C   UNL     1       3.494  -1.354  -5.246  1.00  0.00     0.010 A 
ATOM     39  C   UNL     1       2.046  -2.170  -7.008  1.00  0.00     0.010 A 
ATOM     40  C   UNL     1       3.255  -2.249  -6.292  1.00  0.00    -0.014 A 
BRANCH  40  41
ATOM     41  C   UNL     1       4.256  -3.289  -6.626  1.00  0.00     0.031 A 
ATOM     42  C   UNL     1       4.887  -3.310  -7.986  1.00  0.00     0.074 A 
ATOM     43  C   UNL     1       4.563  -4.232  -5.713  1.00  0.00     0.049 A 
ATOM     44  N   UNL     1       5.570  -4.264  -8.561  1.00  0.00    -0.248 NA
ATOM     45  C   UNL     1       4.708  -2.107  -8.815  1.00  0.00     0.031 C 
ATOM     46  C   UNL     1       4.053  -4.283  -4.340  1.00  0.00     0.029 A 
ATOM     47  N   UNL     1       5.369  -5.337  -5.807  1.00  0.00    -0.354 N 
ATOM     48  C   UNL     1       5.856  -3.803  -9.840  1.00  0.00     0.074 A 
ATOM     49  C   UNL     1       5.277  -2.481  -9.954  1.00  0.00     0.031 C 
ATOM     50  C   UNL     1       4.567  -5.354  -3.718  1.00  0.00     0.029 A 
ATOM     51  C   UNL     1       5.371  -6.110  -4.670  1.00  0.00     0.049 A 
ATOM     52  H   UNL     1       5.894  -5.556  -6.610  1.00  0.00     0.167 HD
ATOM     53  C   UNL     1       6.534  -4.439 -10.825  1.00  0.00     0.037 A 
ATOM     54  C   UNL     1       5.913  -7.319  -4.436  1.00  0.00     0.037 A 
ATOM     55  C   UNL     1       7.144  -5.735 -10.672  1.00  0.00     0.049 A 
ATOM     56  C   UNL     1       6.641  -8.012  -5.550  1.00  0.00     0.074 A 
ATOM     57  C   UNL     1       7.864  -6.466 -11.601  1.00  0.00     0.029 A 
ATOM     58  N   UNL     1       7.120  -6.487  -9.505  1.00  0.00    -0.354 N 
ATOM     59  N   UNL     1       6.846  -7.601  -6.779  1.00  0.00    -0.248 NA
ATOM     60  C   UNL     1       7.193  -9.340  -5.255  1.00  0.00     0.031 C 
ATOM     61  C   UNL     1       8.253  -7.671 -11.003  1.00  0.00     0.029 A 
ATOM     62  C   UNL     1       7.805  -7.676  -9.691  1.00  0.00     0.049 A 
ATOM     63  H   UNL     1       6.681  -6.214  -8.667  1.00  0.00     0.167 HD
ATOM     64  C   UNL     1       7.554  -8.618  -7.405  1.00  0.00     0.074 A 
ATOM     65  C   UNL     1       7.759  -9.655  -6.412  1.00  0.00     0.031 C 
ATOM     66  C   UNL     1       7.989  -8.693  -8.687  1.00  0.00     0.037 A 
BRANCH  53  67
ATOM     67  C   UNL     1       6.618  -3.759 -12.162  1.00  0.00     0.058 A 
ATOM     68  C   UNL     1       7.457  -2.657 -12.386  1.00  0.00     0.135 A 
ATOM     69  C   UNL     1       5.861  -4.236 -13.244  1.00  0.00     0.135 A 
ATOM     70  F   UNL     1       8.188  -2.149 -11.382  1.00  0.00    -0.206 F 
ATOM     71  C   UNL     1       7.526  -2.038 -13.631  1.00  0.00     0.059 A 
ATOM     72  C   UNL     1       5.931  -3.647 -14.503  1.00  0.00     0.059 A 
ATOM     73  F   UNL     1       5.040  -5.286 -13.084  1.00  0.00    -0.206 F 
ATOM     74  C   UNL     1       6.756  -2.538 -14.683  1.00  0.00     0.060 A 
BRANCH  74  75
ATOM     75  S   UNL     1       6.857  -1.731 -16.296  1.00  0.00     0.124 S 
ATOM     76  O   UNL     1       6.046  -0.538 -16.075  1.00  0.00    -0.237 OA
ATOM     77  O   UNL     1       8.291  -1.503 -16.446  1.00  0.00    -0.237 OA
ATOM     78  O   UNL     1       6.285  -2.719 -17.205  1.00  0.00    -0.744 OA
ENDBRANCH  74  75
ENDBRANCH  53  67
BRANCH  54  79
ATOM     79  C   UNL     1       5.740  -7.960  -3.107  1.00  0.00     0.058 A 
ATOM     80  C   UNL     1       6.816  -8.074  -2.217  1.00  0.00     0.135 A 
ATOM     81  C   UNL     1       4.487  -8.433  -2.685  1.00  0.00     0.135 A 
ATOM     82  F   UNL     1       8.034  -7.643  -2.579  1.00  0.00    -0.206 F 
ATOM     83  C   UNL     1       6.660  -8.638  -0.955  1.00  0.00     0.059 A 
ATOM     84  C   UNL     1       4.301  -8.979  -1.420  1.00  0.00     0.059 A 
ATOM     85  F   UNL     1       3.422  -8.333  -3.496  1.00  0.00    -0.206 F 
ATOM     86  C   UNL     1       5.396  -9.084  -0.564  1.00  0.00     0.060 A 
BRANCH  86  87
ATOM     87  S   UNL     1       5.183  -9.753   1.101  1.00  0.00     0.124 S 
ATOM     88  O   UNL     1       5.726 -11.098   0.947  1.00  0.00    -0.237 OA
ATOM     89  O   UNL     1       5.977  -8.833   1.910  1.00  0.00    -0.237 OA
ATOM     90  O   UNL     1       3.741  -9.672   1.311  1.00  0.00    -0.744 OA
ENDBRANCH  86  87
ENDBRANCH  54  79
BRANCH  66  91
ATOM     91  C   UNL     1       8.743  -9.932  -9.071  1.00  0.00     0.058 A 
ATOM     92  C   UNL     1       8.083 -11.148  -9.303  1.00  0.00     0.135 A 
ATOM     93  C   UNL     1      10.137  -9.897  -9.228  1.00  0.00     0.135 A 
ATOM     94  F   UNL     1       6.751 -11.232  -9.155  1.00  0.00    -0.206 F 
ATOM     95  C   UNL     1       8.783 -12.297  -9.653  1.00  0.00     0.059 A 
ATOM     96  C   UNL     1      10.855 -11.028  -9.598  1.00  0.00     0.059 A 
ATOM     97  F   UNL     1      10.812  -8.755  -9.024  1.00  0.00    -0.206 F 
ATOM     98  C   UNL     1      10.171 -12.228  -9.794  1.00  0.00     0.060 A 
BRANCH  98  99
ATOM     99  S   UNL     1      11.071 -13.719 -10.265  1.00  0.00     0.124 S 
ATOM    100  O   UNL     1      11.123 -14.442  -8.998  1.00  0.00    -0.237 OA
ATOM    101  O   UNL     1      10.210 -14.300 -11.290  1.00  0.00    -0.237 OA
ATOM    102  O   UNL     1      12.349 -13.204 -10.748  1.00  0.00    -0.744 OA
ENDBRANCH  98  99
ENDBRANCH  66  91
ENDBRANCH  40  41
ENDBRANCH  33  35
ENDBRANCH  32  33
ENDBRANCH  31  32
ENDBRANCH   1  31
TORSDOF 20
