REMARK SMILES [NH3+]CC(=O)N1C[C@H](O)C[C@H]1C(=O)OCCOC(=O)c1ccc(-c2c3nc(c(-c4c(F)cc(S(=O)(=O)[O-])cc4F)c4ccc([nH]4)c(-c4c(F)cc(S(=O)(=O)[O-])cc4F)c4nc(c(-c5c(F)cc(S(=O)(=O)[O-])cc5F)c5ccc2[nH]5)C=C4)C=C3)cc1
REMARK SMILES IDX 14 1 13 2 11 3 12 4 10 5 5 6 6 7 7 8 9 9 3 10 4 11 2 12 1 13
REMARK SMILES IDX 8 17 15 19 16 20 17 21 18 22 19 23 20 24 84 25 21 26 83 27
REMARK SMILES IDX 22 28 23 29 24 30 77 31 25 32 82 33 76 34 78 35 26 36 81 37
REMARK SMILES IDX 75 38 74 39 27 41 61 42 40 43 60 44 41 45 44 46 59 47 79 48
REMARK SMILES IDX 42 49 43 50 58 52 80 53 45 54 28 55 29 56 38 57 30 58 31 59
REMARK SMILES IDX 37 60 39 61 32 62 33 63 34 64 35 65 36 66 62 67 63 68 72 69
REMARK SMILES IDX 64 70 65 71 71 72 73 73 66 74 67 75 68 76 69 77 70 78 46 79
REMARK SMILES IDX 47 80 56 81 48 82 49 83 55 84 57 85 50 86 51 87 52 88 53 89
REMARK SMILES IDX 54 90
REMARK H PARENT 1 14 1 15 1 16 8 18 78 40 44 51
REMARK Flexibility Score: inf
ROOT
ATOM      1  C   UNL     1       1.504   1.570  -6.453  1.00  0.00     0.274 C 
ENDROOT
BRANCH   1   2
ATOM      2  O   UNL     1       2.054   1.183  -5.180  1.00  0.00    -0.461 OA
BRANCH   2   3
ATOM      3  C   UNL     1       2.965   2.027  -4.642  1.00  0.00     0.329 C 
ATOM      4  O   UNL     1       3.424   3.011  -5.216  1.00  0.00    -0.250 OA
BRANCH   3   5
ATOM      5  C   UNL     1       3.318   1.710  -3.184  1.00  0.00     0.198 C 
ATOM      6  N   UNL     1       2.865   0.486  -2.524  1.00  0.00    -0.321 N 
ATOM      7  C   UNL     1       3.888  -0.020  -1.615  1.00  0.00     0.152 C 
ATOM      8  C   UNL     1       5.049   0.971  -1.707  1.00  0.00     0.136 C 
ATOM      9  C   UNL     1       4.843   1.643  -3.054  1.00  0.00     0.070 C 
BRANCH   6  10
ATOM     10  C   UNL     1       1.522   0.264  -2.272  1.00  0.00     0.278 C 
ATOM     11  O   UNL     1       0.862  -0.507  -2.969  1.00  0.00    -0.268 OA
BRANCH  10  12
ATOM     12  C   UNL     1       0.963   0.870  -0.974  1.00  0.00     0.360 C 
BRANCH  12  13
ATOM     13  N   UNL     1       0.612  -0.209  -0.035  1.00  0.00    -0.350 N 
ATOM     14  H   UNL     1       0.241   0.196   0.825  1.00  0.00     0.344 HD
ATOM     15  H   UNL     1       1.444  -0.758   0.180  1.00  0.00     0.344 HD
ATOM     16  H   UNL     1      -0.094  -0.812  -0.458  1.00  0.00     0.344 HD
ENDBRANCH  12  13
ENDBRANCH  10  12
ENDBRANCH   6  10
BRANCH   8  17
ATOM     17  O   UNL     1       5.003   1.937  -0.660  1.00  0.00    -0.391 OA
ATOM     18  H   UNL     1       4.157   2.411  -0.695  1.00  0.00     0.211 HD
ENDBRANCH   8  17
ENDBRANCH   3   5
ENDBRANCH   2   3
ENDBRANCH   1   2
BRANCH   1  19
ATOM     19  C   UNL     1       0.140   2.252  -6.297  1.00  0.00     0.275 C 
BRANCH  19  20
ATOM     20  O   UNL     1       0.233   3.575  -5.731  1.00  0.00    -0.458 OA
BRANCH  20  21
ATOM     21  C   UNL     1       0.194   3.622  -4.380  1.00  0.00     0.338 C 
ATOM     22  O   UNL     1       0.131   2.680  -3.607  1.00  0.00    -0.246 OA
BRANCH  21  23
ATOM     23  C   UNL     1       0.371   4.994  -3.888  1.00  0.00     0.060 A 
ATOM     24  C   UNL     1       1.483   5.246  -3.081  1.00  0.00     0.016 A 
ATOM     25  C   UNL     1      -0.611   5.968  -4.072  1.00  0.00     0.016 A 
ATOM     26  C   UNL     1       1.598   6.455  -2.411  1.00  0.00     0.010 A 
ATOM     27  C   UNL     1      -0.479   7.198  -3.419  1.00  0.00     0.010 A 
ATOM     28  C   UNL     1       0.614   7.439  -2.568  1.00  0.00    -0.014 A 
BRANCH  28  29
ATOM     29  C   UNL     1       0.741   8.708  -1.814  1.00  0.00     0.031 A 
ATOM     30  C   UNL     1      -0.164   8.992  -0.650  1.00  0.00     0.074 A 
ATOM     31  C   UNL     1       1.706   9.580  -2.157  1.00  0.00     0.049 A 
ATOM     32  N   UNL     1      -0.236  10.065   0.094  1.00  0.00    -0.248 NA
ATOM     33  C   UNL     1      -1.111   7.932  -0.272  1.00  0.00     0.031 C 
ATOM     34  C   UNL     1       2.667   9.387  -3.245  1.00  0.00     0.029 A 
ATOM     35  N   UNL     1       2.044  10.796  -1.624  1.00  0.00    -0.354 N 
ATOM     36  C   UNL     1      -1.252   9.825   1.010  1.00  0.00     0.074 A 
ATOM     37  C   UNL     1      -1.772   8.504   0.727  1.00  0.00     0.031 C 
ATOM     38  C   UNL     1       3.493  10.445  -3.292  1.00  0.00     0.029 A 
ATOM     39  C   UNL     1       3.090  11.407  -2.271  1.00  0.00     0.049 A 
ATOM     40  H   UNL     1       1.581  11.194  -0.851  1.00  0.00     0.167 HD
ATOM     41  C   UNL     1      -1.708  10.636   1.995  1.00  0.00     0.037 A 
ATOM     42  C   UNL     1       3.644  12.619  -2.082  1.00  0.00     0.037 A 
ATOM     43  C   UNL     1      -1.169  11.940   2.284  1.00  0.00     0.049 A 
ATOM     44  C   UNL     1       3.104  13.509  -1.001  1.00  0.00     0.074 A 
ATOM     45  C   UNL     1      -1.552  12.833   3.269  1.00  0.00     0.029 A 
ATOM     46  N   UNL     1      -0.128  12.537   1.588  1.00  0.00    -0.354 N 
ATOM     47  N   UNL     1       2.128  13.277  -0.156  1.00  0.00    -0.248 NA
ATOM     48  C   UNL     1       3.732  14.829  -0.854  1.00  0.00     0.031 C 
ATOM     49  C   UNL     1      -0.761  13.982   3.151  1.00  0.00     0.029 A 
ATOM     50  C   UNL     1       0.135  13.792   2.111  1.00  0.00     0.049 A 
ATOM     51  H   UNL     1       0.353  12.128   0.832  1.00  0.00     0.167 HD
ATOM     52  C   UNL     1       2.023  14.420   0.625  1.00  0.00     0.074 A 
ATOM     53  C   UNL     1       3.049  15.336   0.164  1.00  0.00     0.031 C 
ATOM     54  C   UNL     1       1.153  14.691   1.628  1.00  0.00     0.037 A 
BRANCH  41  55
ATOM     55  C   UNL     1      -2.869  10.145   2.810  1.00  0.00     0.058 A 
ATOM     56  C   UNL     1      -2.714   9.171   3.808  1.00  0.00     0.135 A 
ATOM     57  C   UNL     1      -4.154  10.671   2.600  1.00  0.00     0.135 A 
ATOM     58  F   UNL     1      -1.510   8.623   4.036  1.00  0.00    -0.206 F 
ATOM     59  C   UNL     1      -3.798   8.716   4.554  1.00  0.00     0.059 A 
ATOM     60  C   UNL     1      -5.249  10.245   3.347  1.00  0.00     0.059 A 
ATOM     61  F   UNL     1      -4.356  11.603   1.656  1.00  0.00    -0.206 F 
ATOM     62  C   UNL     1      -5.063   9.255   4.311  1.00  0.00     0.060 A 
BRANCH  62  63
ATOM     63  S   UNL     1      -6.466   8.654   5.276  1.00  0.00     0.124 S 
ATOM     64  O   UNL     1      -6.753   7.386   4.611  1.00  0.00    -0.237 OA
ATOM     65  O   UNL     1      -5.907   8.552   6.620  1.00  0.00    -0.237 OA
ATOM     66  O   UNL     1      -7.471   9.698   5.097  1.00  0.00    -0.744 OA
ENDBRANCH  62  63
ENDBRANCH  41  55
BRANCH  42  67
ATOM     67  C   UNL     1       4.756  13.057  -2.961  1.00  0.00     0.058 A 
ATOM     68  C   UNL     1       6.075  13.103  -2.492  1.00  0.00     0.135 A 
ATOM     69  C   UNL     1       4.523  13.390  -4.305  1.00  0.00     0.135 A 
ATOM     70  F   UNL     1       6.342  12.799  -1.212  1.00  0.00    -0.206 F 
ATOM     71  C   UNL     1       7.130  13.460  -3.325  1.00  0.00     0.059 A 
ATOM     72  C   UNL     1       5.563  13.731  -5.162  1.00  0.00     0.059 A 
ATOM     73  F   UNL     1       3.277  13.348  -4.802  1.00  0.00    -0.206 F 
ATOM     74  C   UNL     1       6.864  13.767  -4.661  1.00  0.00     0.060 A 
BRANCH  74  75
ATOM     75  S   UNL     1       8.244  14.147  -5.762  1.00  0.00     0.124 S 
ATOM     76  O   UNL     1       8.510  15.541  -5.428  1.00  0.00    -0.237 OA
ATOM     77  O   UNL     1       9.256  13.184  -5.338  1.00  0.00    -0.237 OA
ATOM     78  O   UNL     1       7.685  13.908  -7.090  1.00  0.00    -0.744 OA
ENDBRANCH  74  75
ENDBRANCH  42  67
BRANCH  54  79
ATOM     79  C   UNL     1       1.279  16.030   2.292  1.00  0.00     0.058 A 
ATOM     80  C   UNL     1       0.788  17.194   1.681  1.00  0.00     0.135 A 
ATOM     81  C   UNL     1       1.872  16.148   3.558  1.00  0.00     0.135 A 
ATOM     82  F   UNL     1       0.220  17.131   0.467  1.00  0.00    -0.206 F 
ATOM     83  C   UNL     1       0.898  18.436   2.296  1.00  0.00     0.059 A 
ATOM     84  C   UNL     1       1.978  17.378   4.199  1.00  0.00     0.059 A 
ATOM     85  F   UNL     1       2.351  15.062   4.184  1.00  0.00    -0.206 F 
ATOM     86  C   UNL     1       1.499  18.519   3.554  1.00  0.00     0.060 A 
BRANCH  86  87
ATOM     87  S   UNL     1       1.623  20.131   4.356  1.00  0.00     0.124 S 
ATOM     88  O   UNL     1       2.783  20.705   3.682  1.00  0.00    -0.237 OA
ATOM     89  O   UNL     1       0.337  20.745   4.038  1.00  0.00    -0.237 OA
ATOM     90  O   UNL     1       1.817  19.793   5.763  1.00  0.00    -0.744 OA
ENDBRANCH  86  87
ENDBRANCH  54  79
ENDBRANCH  28  29
ENDBRANCH  21  23
ENDBRANCH  20  21
ENDBRANCH  19  20
ENDBRANCH   1  19
TORSDOF 18
