REMARK SMILES [NH3+][C@H](Cn1nnc2ccccc21)C(=O)OCCOC(=O)c1ccc(-c2c3nc(c(-c4c(F)cc(S(=O)(=O)[O-])cc4F)c4ccc([nH]4)c(-c4c(F)cc(S(=O)(=O)[O-])cc4F)c4nc(c(-c5c(F)cc(S(=O)(=O)[O-])cc5F)c5ccc2[nH]5)C=C4)C=C3)cc1
REMARK SMILES IDX 17 1 16 2 15 3 13 4 14 5 2 6 1 7 3 11 4 12 5 13 12 14 6 15
REMARK SMILES IDX 7 16 11 17 8 18 10 19 9 20 18 21 19 22 20 23 21 24 22 25
REMARK SMILES IDX 86 26 23 27 85 28 24 29 25 30 26 31 79 32 27 33 84 34 78 35
REMARK SMILES IDX 80 36 28 37 83 38 77 39 76 40 29 42 63 43 42 44 62 45 43 46
REMARK SMILES IDX 46 47 61 48 81 49 44 50 45 51 60 53 82 54 47 55 30 56 31 57
REMARK SMILES IDX 40 58 32 59 33 60 39 61 41 62 34 63 35 64 36 65 37 66 38 67
REMARK SMILES IDX 64 68 65 69 74 70 66 71 67 72 73 73 75 74 68 75 69 76 70 77
REMARK SMILES IDX 71 78 72 79 48 80 49 81 58 82 50 83 51 84 57 85 59 86 52 87
REMARK SMILES IDX 53 88 54 89 55 90 56 91
REMARK H PARENT 1 8 1 9 1 10 80 41 46 52
REMARK Flexibility Score: inf
ROOT
ATOM      1  C   UNL     1      -3.521  -0.161  -0.704  1.00  0.00     0.275 C 
ENDROOT
BRANCH   1   2
ATOM      2  C   UNL     1      -3.042  -0.637   0.671  1.00  0.00     0.274 C 
BRANCH   2   3
ATOM      3  O   UNL     1      -1.608  -0.490   0.743  1.00  0.00    -0.458 OA
BRANCH   3   4
ATOM      4  C   UNL     1      -0.891  -1.644   0.841  1.00  0.00     0.366 C 
ATOM      5  O   UNL     1      -1.402  -2.747   0.992  1.00  0.00    -0.245 OA
BRANCH   4   6
ATOM      6  C   UNL     1       0.617  -1.400   0.627  1.00  0.00     0.313 C 
BRANCH   6   7
ATOM      7  N   UNL     1       1.384  -2.511   1.195  1.00  0.00    -0.344 N 
ATOM      8  H   UNL     1       0.916  -3.392   0.980  1.00  0.00     0.345 HD
ATOM      9  H   UNL     1       1.447  -2.398   2.207  1.00  0.00     0.345 HD
ATOM     10  H   UNL     1       2.322  -2.517   0.794  1.00  0.00     0.345 HD
ENDBRANCH   6   7
BRANCH   6  11
ATOM     11  C   UNL     1       1.132   0.037   0.824  1.00  0.00     0.224 C 
BRANCH  11  12
ATOM     12  N   UNL     1       2.199   0.109   1.804  1.00  0.00    -0.238 N 
ATOM     13  N   UNL     1       3.481   0.086   1.388  1.00  0.00    -0.066 NA
ATOM     14  C   UNL     1       2.071  -0.375   3.083  1.00  0.00     0.089 A 
ATOM     15  N   UNL     1       4.179  -0.573   2.306  1.00  0.00    -0.130 NA
ATOM     16  C   UNL     1       3.321  -0.937   3.312  1.00  0.00     0.113 A 
ATOM     17  C   UNL     1       0.952  -0.591   3.892  1.00  0.00     0.030 A 
ATOM     18  C   UNL     1       3.482  -1.812   4.392  1.00  0.00     0.032 A 
ATOM     19  C   UNL     1       1.123  -1.489   4.945  1.00  0.00     0.002 A 
ATOM     20  C   UNL     1       2.360  -2.097   5.186  1.00  0.00     0.002 A 
ENDBRANCH  11  12
ENDBRANCH   6  11
ENDBRANCH   4   6
ENDBRANCH   3   4
ENDBRANCH   2   3
ENDBRANCH   1   2
BRANCH   1  21
ATOM     21  O   UNL     1      -3.106  -1.105  -1.707  1.00  0.00    -0.458 OA
BRANCH  21  22
ATOM     22  C   UNL     1      -1.974  -0.802  -2.401  1.00  0.00     0.338 C 
ATOM     23  O   UNL     1      -1.494   0.302  -2.549  1.00  0.00    -0.246 OA
BRANCH  22  24
ATOM     24  C   UNL     1      -1.231  -2.076  -2.617  1.00  0.00     0.060 A 
ATOM     25  C   UNL     1      -1.854  -3.317  -2.460  1.00  0.00     0.016 A 
ATOM     26  C   UNL     1       0.162  -1.993  -2.626  1.00  0.00     0.016 A 
ATOM     27  C   UNL     1      -1.099  -4.417  -2.053  1.00  0.00     0.010 A 
ATOM     28  C   UNL     1       0.905  -3.089  -2.182  1.00  0.00     0.010 A 
ATOM     29  C   UNL     1       0.267  -4.273  -1.791  1.00  0.00    -0.014 A 
BRANCH  29  30
ATOM     30  C   UNL     1       1.070  -5.458  -1.452  1.00  0.00     0.031 A 
ATOM     31  C   UNL     1       1.486  -6.128  -2.701  1.00  0.00     0.074 A 
ATOM     32  C   UNL     1       1.480  -5.958  -0.261  1.00  0.00     0.049 A 
ATOM     33  N   UNL     1       0.877  -7.129  -3.243  1.00  0.00    -0.248 NA
ATOM     34  C   UNL     1       2.479  -5.479  -3.568  1.00  0.00     0.031 C 
ATOM     35  C   UNL     1       1.323  -5.421   1.084  1.00  0.00     0.029 A 
ATOM     36  N   UNL     1       2.207  -7.096  -0.015  1.00  0.00    -0.354 N 
ATOM     37  C   UNL     1       1.580  -7.387  -4.406  1.00  0.00     0.074 A 
ATOM     38  C   UNL     1       2.353  -6.206  -4.679  1.00  0.00     0.031 C 
ATOM     39  C   UNL     1       2.158  -6.048   1.951  1.00  0.00     0.029 A 
ATOM     40  C   UNL     1       2.738  -7.196   1.275  1.00  0.00     0.049 A 
ATOM     41  H   UNL     1       2.346  -7.792  -0.698  1.00  0.00     0.167 HD
ATOM     42  C   UNL     1       1.698  -8.658  -4.871  1.00  0.00     0.037 A 
ATOM     43  C   UNL     1       3.508  -8.195   1.790  1.00  0.00     0.037 A 
ATOM     44  C   UNL     1       0.728  -9.533  -4.255  1.00  0.00     0.049 A 
ATOM     45  C   UNL     1       3.220  -9.399   0.976  1.00  0.00     0.074 A 
ATOM     46  C   UNL     1      -0.651  -9.563  -4.176  1.00  0.00     0.029 A 
ATOM     47  N   UNL     1       1.177 -10.360  -3.254  1.00  0.00    -0.354 N 
ATOM     48  N   UNL     1       2.078 -10.026   0.986  1.00  0.00    -0.248 NA
ATOM     49  C   UNL     1       4.068  -9.651  -0.176  1.00  0.00     0.031 C 
ATOM     50  C   UNL     1      -0.947 -10.049  -2.868  1.00  0.00     0.029 A 
ATOM     51  C   UNL     1       0.260 -10.345  -2.235  1.00  0.00     0.049 A 
ATOM     52  H   UNL     1       2.016 -10.876  -3.267  1.00  0.00     0.167 HD
ATOM     53  C   UNL     1       1.867 -10.379  -0.337  1.00  0.00     0.074 A 
ATOM     54  C   UNL     1       3.166 -10.208  -0.986  1.00  0.00     0.031 C 
ATOM     55  C   UNL     1       0.603 -10.505  -0.836  1.00  0.00     0.037 A 
BRANCH  42  56
ATOM     56  C   UNL     1       2.940  -9.166  -5.558  1.00  0.00     0.058 A 
ATOM     57  C   UNL     1       2.913 -10.438  -6.157  1.00  0.00     0.135 A 
ATOM     58  C   UNL     1       4.222  -8.579  -5.431  1.00  0.00     0.135 A 
ATOM     59  F   UNL     1       1.754 -11.099  -6.306  1.00  0.00    -0.206 F 
ATOM     60  C   UNL     1       4.076 -11.100  -6.551  1.00  0.00     0.059 A 
ATOM     61  C   UNL     1       5.384  -9.191  -5.874  1.00  0.00     0.059 A 
ATOM     62  F   UNL     1       4.433  -7.428  -4.783  1.00  0.00    -0.206 F 
ATOM     63  C   UNL     1       5.307 -10.468  -6.398  1.00  0.00     0.060 A 
BRANCH  63  64
ATOM     64  S   UNL     1       6.813 -11.347  -6.833  1.00  0.00     0.124 S 
ATOM     65  O   UNL     1       6.834 -12.402  -5.827  1.00  0.00    -0.237 OA
ATOM     66  O   UNL     1       6.528 -11.768  -8.200  1.00  0.00    -0.237 OA
ATOM     67  O   UNL     1       7.848 -10.325  -6.701  1.00  0.00    -0.744 OA
ENDBRANCH  63  64
ENDBRANCH  42  56
BRANCH  43  68
ATOM     68  C   UNL     1       4.700  -8.145   2.694  1.00  0.00     0.058 A 
ATOM     69  C   UNL     1       5.295  -9.331   3.179  1.00  0.00     0.135 A 
ATOM     70  C   UNL     1       5.474  -6.978   2.824  1.00  0.00     0.135 A 
ATOM     71  F   UNL     1       4.638 -10.499   3.100  1.00  0.00    -0.206 F 
ATOM     72  C   UNL     1       6.604  -9.372   3.679  1.00  0.00     0.059 A 
ATOM     73  C   UNL     1       6.782  -6.993   3.322  1.00  0.00     0.059 A 
ATOM     74  F   UNL     1       5.013  -5.799   2.382  1.00  0.00    -0.206 F 
ATOM     75  C   UNL     1       7.354  -8.200   3.717  1.00  0.00     0.060 A 
BRANCH  75  76
ATOM     76  S   UNL     1       9.106  -8.282   4.176  1.00  0.00     0.124 S 
ATOM     77  O   UNL     1       9.035  -8.649   5.586  1.00  0.00    -0.237 OA
ATOM     78  O   UNL     1       9.614  -9.312   3.276  1.00  0.00    -0.237 OA
ATOM     79  O   UNL     1       9.591  -6.930   3.909  1.00  0.00    -0.744 OA
ENDBRANCH  75  76
ENDBRANCH  43  68
BRANCH  55  80
ATOM     80  C   UNL     1      -0.546 -10.620   0.138  1.00  0.00     0.058 A 
ATOM     81  C   UNL     1      -0.958  -9.612   1.030  1.00  0.00     0.135 A 
ATOM     82  C   UNL     1      -1.359 -11.761   0.048  1.00  0.00     0.135 A 
ATOM     83  F   UNL     1      -0.285  -8.456   1.124  1.00  0.00    -0.206 F 
ATOM     84  C   UNL     1      -2.115  -9.744   1.805  1.00  0.00     0.059 A 
ATOM     85  C   UNL     1      -2.530 -11.900   0.788  1.00  0.00     0.059 A 
ATOM     86  F   UNL     1      -1.046 -12.742  -0.815  1.00  0.00    -0.206 F 
ATOM     87  C   UNL     1      -2.901 -10.889   1.670  1.00  0.00     0.060 A 
BRANCH  87  88
ATOM     88  S   UNL     1      -4.447 -11.020   2.598  1.00  0.00     0.124 S 
ATOM     89  O   UNL     1      -3.974 -11.146   3.973  1.00  0.00    -0.237 OA
ATOM     90  O   UNL     1      -5.120  -9.766   2.272  1.00  0.00    -0.237 OA
ATOM     91  O   UNL     1      -5.079 -12.216   2.045  1.00  0.00    -0.744 OA
ENDBRANCH  87  88
ENDBRANCH  55  80
ENDBRANCH  29  30
ENDBRANCH  22  24
ENDBRANCH  21  22
ENDBRANCH   1  21
TORSDOF 17
