REMARK SMILES CC[NH+](CC)[C@@H](C(=O)OCCOC(=O)c1ccc(-c2c3nc(c(-c4c(F)cc(S(=O)(=O)[O-])cc4F)c4ccc([nH]4)c(-c4c(F)cc(S(=O)(=O)[O-])cc4F)c4nc(c(-c5c(F)cc(S(=O)(=O)[O-])cc5F)c5ccc2[nH]5)C=C4)C=C3)cc1)c1ccc(C2CC2)cc1
REMARK SMILES IDX 11 1 10 2 9 3 7 4 8 5 6 6 3 7 2 9 1 10 4 11 5 12 81 13 82 14
REMARK SMILES IDX 89 15 83 16 88 17 84 18 85 19 86 20 87 21 12 22 13 23 14 24
REMARK SMILES IDX 15 25 16 26 80 27 17 28 79 29 18 30 19 31 20 32 73 33 21 34
REMARK SMILES IDX 78 35 72 36 74 37 22 38 77 39 71 40 70 41 23 43 57 44 36 45
REMARK SMILES IDX 56 46 37 47 40 48 55 49 75 50 38 51 39 52 54 54 76 55 41 56
REMARK SMILES IDX 24 57 25 58 34 59 26 60 27 61 33 62 35 63 28 64 29 65 30 66
REMARK SMILES IDX 31 67 32 68 58 69 59 70 68 71 60 72 61 73 67 74 69 75 62 76
REMARK SMILES IDX 63 77 64 78 65 79 66 80 42 81 43 82 52 83 44 84 45 85 51 86
REMARK SMILES IDX 53 87 46 88 47 89 48 90 49 91 50 92
REMARK H PARENT 3 8 74 42 40 53
REMARK Flexibility Score: inf
ROOT
ATOM      1  C   UNL     1       3.404  -0.316  -4.802  1.00  0.00     0.275 C 
ENDROOT
BRANCH   1   2
ATOM      2  C   UNL     1       3.489  -1.735  -4.257  1.00  0.00     0.274 C 
BRANCH   2   3
ATOM      3  O   UNL     1       2.591  -1.891  -3.139  1.00  0.00    -0.457 OA
BRANCH   3   4
ATOM      4  C   UNL     1       3.154  -2.020  -1.907  1.00  0.00     0.370 C 
ATOM      5  O   UNL     1       4.365  -1.938  -1.716  1.00  0.00    -0.245 OA
BRANCH   4   6
ATOM      6  C   UNL     1       2.150  -2.389  -0.787  1.00  0.00     0.326 C 
BRANCH   6   7
ATOM      7  N   UNL     1       0.698  -2.399  -1.128  1.00  0.00    -0.320 N 
ATOM      8  H   UNL     1       0.346  -2.509  -0.177  1.00  0.00     0.349 HD
BRANCH   7   9
ATOM      9  C   UNL     1       0.037  -1.146  -1.488  1.00  0.00     0.259 C 
ATOM     10  C   UNL     1      -0.561  -0.403  -0.292  1.00  0.00     0.071 C 
ENDBRANCH   7   9
BRANCH   7  11
ATOM     11  C   UNL     1       0.211  -3.578  -1.847  1.00  0.00     0.259 C 
ATOM     12  C   UNL     1       0.225  -3.546  -3.375  1.00  0.00     0.071 C 
ENDBRANCH   7  11
ENDBRANCH   6   7
BRANCH   6  13
ATOM     13  C   UNL     1       2.464  -1.657   0.521  1.00  0.00     0.021 A 
ATOM     14  C   UNL     1       2.820  -2.362   1.678  1.00  0.00     0.011 A 
ATOM     15  C   UNL     1       2.416  -0.265   0.613  1.00  0.00     0.011 A 
ATOM     16  C   UNL     1       3.099  -1.686   2.878  1.00  0.00     0.004 A 
ATOM     17  C   UNL     1       2.657   0.399   1.822  1.00  0.00     0.004 A 
ATOM     18  C   UNL     1       3.017  -0.288   2.986  1.00  0.00    -0.045 A 
BRANCH  18  19
ATOM     19  C   UNL     1       3.299   0.399   4.310  1.00  0.00     0.019 C 
ATOM     20  C   UNL     1       3.439   1.894   4.458  1.00  0.00     0.009 C 
ATOM     21  C   UNL     1       2.203   1.212   4.961  1.00  0.00     0.009 C 
ENDBRANCH  18  19
ENDBRANCH   6  13
ENDBRANCH   4   6
ENDBRANCH   3   4
ENDBRANCH   2   3
ENDBRANCH   1   2
BRANCH   1  22
ATOM     22  O   UNL     1       3.949   0.585  -3.825  1.00  0.00    -0.458 OA
BRANCH  22  23
ATOM     23  C   UNL     1       3.148   1.607  -3.447  1.00  0.00     0.338 C 
ATOM     24  O   UNL     1       2.068   1.905  -3.926  1.00  0.00    -0.246 OA
BRANCH  23  25
ATOM     25  C   UNL     1       3.752   2.327  -2.304  1.00  0.00     0.060 A 
ATOM     26  C   UNL     1       4.420   1.631  -1.300  1.00  0.00     0.016 A 
ATOM     27  C   UNL     1       3.510   3.694  -2.153  1.00  0.00     0.016 A 
ATOM     28  C   UNL     1       4.706   2.270  -0.091  1.00  0.00     0.010 A 
ATOM     29  C   UNL     1       3.893   4.351  -0.975  1.00  0.00     0.010 A 
ATOM     30  C   UNL     1       4.425   3.633   0.108  1.00  0.00    -0.014 A 
BRANCH  30  31
ATOM     31  C   UNL     1       4.561   4.255   1.468  1.00  0.00     0.031 A 
ATOM     32  C   UNL     1       3.388   4.980   2.103  1.00  0.00     0.074 A 
ATOM     33  C   UNL     1       5.679   4.095   2.208  1.00  0.00     0.049 A 
ATOM     34  N   UNL     1       3.355   5.706   3.194  1.00  0.00    -0.248 NA
ATOM     35  C   UNL     1       2.084   4.877   1.427  1.00  0.00     0.031 C 
ATOM     36  C   UNL     1       6.876   3.361   1.796  1.00  0.00     0.029 A 
ATOM     37  N   UNL     1       5.969   4.493   3.493  1.00  0.00    -0.354 N 
ATOM     38  C   UNL     1       2.064   6.221   3.278  1.00  0.00     0.074 A 
ATOM     39  C   UNL     1       1.333   5.702   2.143  1.00  0.00     0.031 C 
ATOM     40  C   UNL     1       7.712   3.259   2.840  1.00  0.00     0.029 A 
ATOM     41  C   UNL     1       7.173   4.020   3.961  1.00  0.00     0.049 A 
ATOM     42  H   UNL     1       5.370   5.064   4.027  1.00  0.00     0.167 HD
ATOM     43  C   UNL     1       1.535   7.053   4.208  1.00  0.00     0.037 A 
ATOM     44  C   UNL     1       7.793   4.193   5.145  1.00  0.00     0.037 A 
ATOM     45  C   UNL     1       2.217   7.484   5.402  1.00  0.00     0.049 A 
ATOM     46  C   UNL     1       7.182   5.094   6.180  1.00  0.00     0.074 A 
ATOM     47  C   UNL     1       1.774   8.357   6.383  1.00  0.00     0.029 A 
ATOM     48  N   UNL     1       3.463   7.034   5.806  1.00  0.00    -0.354 N 
ATOM     49  N   UNL     1       6.027   5.714   6.155  1.00  0.00    -0.248 NA
ATOM     50  C   UNL     1       7.983   5.357   7.385  1.00  0.00     0.031 C 
ATOM     51  C   UNL     1       2.760   8.443   7.375  1.00  0.00     0.029 A 
ATOM     52  C   UNL     1       3.803   7.603   7.023  1.00  0.00     0.049 A 
ATOM     53  H   UNL     1       4.026   6.402   5.302  1.00  0.00     0.167 HD
ATOM     54  C   UNL     1       5.976   6.462   7.326  1.00  0.00     0.074 A 
ATOM     55  C   UNL     1       7.191   6.178   8.061  1.00  0.00     0.031 C 
ATOM     56  C   UNL     1       5.020   7.329   7.740  1.00  0.00     0.037 A 
BRANCH  43  57
ATOM     57  C   UNL     1       0.160   7.605   3.952  1.00  0.00     0.058 A 
ATOM     58  C   UNL     1      -1.004   6.852   4.158  1.00  0.00     0.135 A 
ATOM     59  C   UNL     1       0.012   8.939   3.533  1.00  0.00     0.135 A 
ATOM     60  F   UNL     1      -0.919   5.567   4.539  1.00  0.00    -0.206 F 
ATOM     61  C   UNL     1      -2.268   7.395   3.942  1.00  0.00     0.059 A 
ATOM     62  C   UNL     1      -1.240   9.509   3.332  1.00  0.00     0.059 A 
ATOM     63  F   UNL     1       1.095   9.704   3.323  1.00  0.00    -0.206 F 
ATOM     64  C   UNL     1      -2.376   8.725   3.526  1.00  0.00     0.060 A 
BRANCH  64  65
ATOM     65  S   UNL     1      -4.018   9.426   3.258  1.00  0.00     0.124 S 
ATOM     66  O   UNL     1      -4.372   8.850   1.964  1.00  0.00    -0.237 OA
ATOM     67  O   UNL     1      -4.769   8.920   4.403  1.00  0.00    -0.237 OA
ATOM     68  O   UNL     1      -3.777  10.866   3.260  1.00  0.00    -0.744 OA
ENDBRANCH  64  65
ENDBRANCH  43  57
BRANCH  44  69
ATOM     69  C   UNL     1       9.098   3.527   5.404  1.00  0.00     0.058 A 
ATOM     70  C   UNL     1       9.201   2.490   6.344  1.00  0.00     0.135 A 
ATOM     71  C   UNL     1      10.260   3.899   4.710  1.00  0.00     0.135 A 
ATOM     72  F   UNL     1       8.122   2.114   7.048  1.00  0.00    -0.206 F 
ATOM     73  C   UNL     1      10.408   1.841   6.584  1.00  0.00     0.059 A 
ATOM     74  C   UNL     1      11.470   3.246   4.911  1.00  0.00     0.059 A 
ATOM     75  F   UNL     1      10.213   4.883   3.799  1.00  0.00    -0.206 F 
ATOM     76  C   UNL     1      11.536   2.222   5.856  1.00  0.00     0.060 A 
BRANCH  76  77
ATOM     77  S   UNL     1      13.087   1.328   6.098  1.00  0.00     0.124 S 
ATOM     78  O   UNL     1      13.652   2.029   7.244  1.00  0.00    -0.237 OA
ATOM     79  O   UNL     1      12.632  -0.036   6.345  1.00  0.00    -0.237 OA
ATOM     80  O   UNL     1      13.780   1.526   4.828  1.00  0.00    -0.744 OA
ENDBRANCH  76  77
ENDBRANCH  44  69
BRANCH  56  81
ATOM     81  C   UNL     1       5.263   8.044   9.038  1.00  0.00     0.058 A 
ATOM     82  C   UNL     1       6.187   9.099   9.122  1.00  0.00     0.135 A 
ATOM     83  C   UNL     1       4.572   7.682  10.204  1.00  0.00     0.135 A 
ATOM     84  F   UNL     1       6.876   9.480   8.035  1.00  0.00    -0.206 F 
ATOM     85  C   UNL     1       6.443   9.747  10.325  1.00  0.00     0.059 A 
ATOM     86  C   UNL     1       4.798   8.329  11.415  1.00  0.00     0.059 A 
ATOM     87  F   UNL     1       3.671   6.687  10.174  1.00  0.00    -0.206 F 
ATOM     88  C   UNL     1       5.750   9.348  11.469  1.00  0.00     0.060 A 
BRANCH  88  89
ATOM     89  S   UNL     1       6.092  10.189  13.030  1.00  0.00     0.124 S 
ATOM     90  O   UNL     1       7.337   9.548  13.441  1.00  0.00    -0.237 OA
ATOM     91  O   UNL     1       6.204  11.586  12.621  1.00  0.00    -0.237 OA
ATOM     92  O   UNL     1       4.923   9.875  13.847  1.00  0.00    -0.744 OA
ENDBRANCH  88  89
ENDBRANCH  56  81
ENDBRANCH  30  31
ENDBRANCH  23  25
ENDBRANCH  22  23
ENDBRANCH   1  22
TORSDOF 19
