REMARK SMILES COc1cnc(SCC(=O)OCCOC(=O)c2ccc(-c3c4nc(c(-c5c(F)cc(S(=O)(=O)[O-])cc5F)c5ccc([nH]5)c(-c5c(F)cc(S(=O)(=O)[O-])cc5F)c5nc(c(-c6c(F)cc(S(=O)(=O)[O-])cc6F)c6ccc3[nH]6)C=C5)C=C4)cc2)[nH]c1=O
REMARK SMILES IDX 12 1 11 2 9 3 10 4 8 5 7 6 6 7 3 8 4 9 84 10 5 11 83 12
REMARK SMILES IDX 85 13 2 15 1 16 13 17 14 18 15 19 16 20 17 21 18 22 82 23
REMARK SMILES IDX 19 24 81 25 20 26 21 27 22 28 75 29 23 30 80 31 74 32 76 33
REMARK SMILES IDX 24 34 79 35 73 36 72 37 25 39 59 40 38 41 58 42 39 43 42 44
REMARK SMILES IDX 57 45 77 46 40 47 41 48 56 50 78 51 43 52 26 53 27 54 36 55
REMARK SMILES IDX 28 56 29 57 35 58 37 59 30 60 31 61 32 62 33 63 34 64 60 65
REMARK SMILES IDX 61 66 70 67 62 68 63 69 69 70 71 71 64 72 65 73 66 74 67 75
REMARK SMILES IDX 68 76 44 77 45 78 54 79 46 80 47 81 53 82 55 83 48 84 49 85
REMARK SMILES IDX 50 86 51 87 52 88
REMARK H PARENT 83 14 76 38 42 49
REMARK Flexibility Score: inf
ROOT
ATOM      1  C   UNL     1       0.225   1.867   8.396  1.00  0.00     0.274 C 
ENDROOT
BRANCH   1   2
ATOM      2  O   UNL     1       0.923   0.747   7.812  1.00  0.00    -0.461 OA
BRANCH   2   3
ATOM      3  C   UNL     1       0.391  -0.478   8.069  1.00  0.00     0.316 C 
ATOM      4  O   UNL     1      -0.610  -0.659   8.759  1.00  0.00    -0.251 OA
BRANCH   3   5
ATOM      5  C   UNL     1       1.155  -1.646   7.487  1.00  0.00     0.200 C 
BRANCH   5   6
ATOM      6  S   UNL     1       2.602  -1.233   6.481  1.00  0.00    -0.076 SA
BRANCH   6   7
ATOM      7  C   UNL     1       1.871  -0.924   4.938  1.00  0.00     0.168 A 
ATOM      8  C   UNL     1       0.979  -0.304   2.430  1.00  0.00     0.202 A 
ATOM      9  C   UNL     1       0.267  -0.974   3.349  1.00  0.00     0.166 A 
ATOM     10  C   UNL     1       2.356   0.100   2.837  1.00  0.00     0.293 A 
ATOM     11  N   UNL     1       0.688  -1.318   4.615  1.00  0.00    -0.229 NA
ATOM     12  N   UNL     1       2.710  -0.253   4.108  1.00  0.00    -0.298 N 
ATOM     13  O   UNL     1       3.138   0.701   2.107  1.00  0.00    -0.265 OA
ATOM     14  H   UNL     1       3.606  -0.011   4.435  1.00  0.00     0.172 HD
BRANCH   8  15
ATOM     15  O   UNL     1       0.405   0.110   1.244  1.00  0.00    -0.490 OA
ATOM     16  C   UNL     1       1.079  -0.372   0.086  1.00  0.00     0.278 C 
ENDBRANCH   8  15
ENDBRANCH   6   7
ENDBRANCH   5   6
ENDBRANCH   3   5
ENDBRANCH   2   3
ENDBRANCH   1   2
BRANCH   1  17
ATOM     17  C   UNL     1      -0.688   2.537   7.376  1.00  0.00     0.275 C 
BRANCH  17  18
ATOM     18  O   UNL     1      -1.619   1.580   6.846  1.00  0.00    -0.458 OA
BRANCH  18  19
ATOM     19  C   UNL     1      -1.516   1.350   5.517  1.00  0.00     0.338 C 
ATOM     20  O   UNL     1      -0.767   1.905   4.731  1.00  0.00    -0.246 OA
BRANCH  19  21
ATOM     21  C   UNL     1      -2.506   0.338   5.111  1.00  0.00     0.060 A 
ATOM     22  C   UNL     1      -2.509  -0.938   5.682  1.00  0.00     0.016 A 
ATOM     23  C   UNL     1      -3.369   0.641   4.057  1.00  0.00     0.016 A 
ATOM     24  C   UNL     1      -3.345  -1.929   5.164  1.00  0.00     0.010 A 
ATOM     25  C   UNL     1      -4.247  -0.333   3.583  1.00  0.00     0.010 A 
ATOM     26  C   UNL     1      -4.227  -1.634   4.115  1.00  0.00    -0.014 A 
BRANCH  26  27
ATOM     27  C   UNL     1      -5.130  -2.667   3.546  1.00  0.00     0.031 A 
ATOM     28  C   UNL     1      -4.957  -3.115   2.121  1.00  0.00     0.074 A 
ATOM     29  C   UNL     1      -6.142  -3.157   4.288  1.00  0.00     0.049 A 
ATOM     30  N   UNL     1      -5.756  -3.838   1.379  1.00  0.00    -0.248 NA
ATOM     31  C   UNL     1      -3.726  -2.686   1.439  1.00  0.00     0.031 C 
ATOM     32  C   UNL     1      -6.400  -2.828   5.691  1.00  0.00     0.029 A 
ATOM     33  N   UNL     1      -7.159  -4.016   3.954  1.00  0.00    -0.354 N 
ATOM     34  C   UNL     1      -5.144  -3.923   0.134  1.00  0.00     0.074 A 
ATOM     35  C   UNL     1      -3.908  -3.175   0.219  1.00  0.00     0.031 C 
ATOM     36  C   UNL     1      -7.508  -3.469   6.094  1.00  0.00     0.029 A 
ATOM     37  C   UNL     1      -8.071  -4.203   4.965  1.00  0.00     0.049 A 
ATOM     38  H   UNL     1      -7.227  -4.456   3.076  1.00  0.00     0.167 HD
ATOM     39  C   UNL     1      -5.578  -4.564  -0.978  1.00  0.00     0.037 A 
ATOM     40  C   UNL     1      -9.252  -4.850   4.970  1.00  0.00     0.037 A 
ATOM     41  C   UNL     1      -6.800  -5.323  -1.052  1.00  0.00     0.049 A 
ATOM     42  C   UNL     1      -9.736  -5.516   3.713  1.00  0.00     0.074 A 
ATOM     43  C   UNL     1      -7.318  -6.018  -2.131  1.00  0.00     0.029 A 
ATOM     44  N   UNL     1      -7.692  -5.489  -0.004  1.00  0.00    -0.354 N 
ATOM     45  N   UNL     1      -9.160  -5.568   2.536  1.00  0.00    -0.248 NA
ATOM     46  C   UNL     1     -11.035  -6.199   3.780  1.00  0.00     0.031 C 
ATOM     47  C   UNL     1      -8.539  -6.582  -1.743  1.00  0.00     0.029 A 
ATOM     48  C   UNL     1      -8.763  -6.266  -0.412  1.00  0.00     0.049 A 
ATOM     49  H   UNL     1      -7.581  -5.111   0.898  1.00  0.00     0.167 HD
ATOM     50  C   UNL     1     -10.016  -6.306   1.728  1.00  0.00     0.074 A 
ATOM     51  C   UNL     1     -11.148  -6.684   2.550  1.00  0.00     0.031 C 
ATOM     52  C   UNL     1      -9.876  -6.642   0.422  1.00  0.00     0.037 A 
BRANCH  39  53
ATOM     53  C   UNL     1      -4.737  -4.451  -2.218  1.00  0.00     0.058 A 
ATOM     54  C   UNL     1      -3.541  -5.169  -2.366  1.00  0.00     0.135 A 
ATOM     55  C   UNL     1      -5.154  -3.640  -3.287  1.00  0.00     0.135 A 
ATOM     56  F   UNL     1      -3.091  -5.945  -1.368  1.00  0.00    -0.206 F 
ATOM     57  C   UNL     1      -2.774  -5.070  -3.523  1.00  0.00     0.059 A 
ATOM     58  C   UNL     1      -4.413  -3.542  -4.461  1.00  0.00     0.059 A 
ATOM     59  F   UNL     1      -6.291  -2.933  -3.195  1.00  0.00    -0.206 F 
ATOM     60  C   UNL     1      -3.216  -4.250  -4.563  1.00  0.00     0.060 A 
BRANCH  60  61
ATOM     61  S   UNL     1      -2.210  -4.126  -6.057  1.00  0.00     0.124 S 
ATOM     62  O   UNL     1      -1.136  -3.244  -5.609  1.00  0.00    -0.237 OA
ATOM     63  O   UNL     1      -1.829  -5.514  -6.297  1.00  0.00    -0.237 OA
ATOM     64  O   UNL     1      -3.126  -3.553  -7.037  1.00  0.00    -0.744 OA
ENDBRANCH  60  61
ENDBRANCH  39  53
BRANCH  40  65
ATOM     65  C   UNL     1     -10.071  -4.870   6.209  1.00  0.00     0.058 A 
ATOM     66  C   UNL     1     -10.188  -6.036   6.976  1.00  0.00     0.135 A 
ATOM     67  C   UNL     1     -10.726  -3.714   6.664  1.00  0.00     0.135 A 
ATOM     68  F   UNL     1      -9.588  -7.166   6.575  1.00  0.00    -0.206 F 
ATOM     69  C   UNL     1     -10.929  -6.059   8.153  1.00  0.00     0.059 A 
ATOM     70  C   UNL     1     -11.454  -3.707   7.848  1.00  0.00     0.059 A 
ATOM     71  F   UNL     1     -10.632  -2.570   5.969  1.00  0.00    -0.206 F 
ATOM     72  C   UNL     1     -11.556  -4.888   8.583  1.00  0.00     0.060 A 
BRANCH  72  73
ATOM     73  S   UNL     1     -12.460  -4.906  10.147  1.00  0.00     0.124 S 
ATOM     74  O   UNL     1     -13.707  -5.553   9.755  1.00  0.00    -0.237 OA
ATOM     75  O   UNL     1     -11.577  -5.689  11.007  1.00  0.00    -0.237 OA
ATOM     76  O   UNL     1     -12.560  -3.491  10.490  1.00  0.00    -0.744 OA
ENDBRANCH  72  73
ENDBRANCH  40  65
BRANCH  52  77
ATOM     77  C   UNL     1     -10.952  -7.490  -0.192  1.00  0.00     0.058 A 
ATOM     78  C   UNL     1     -12.184  -6.945  -0.581  1.00  0.00     0.135 A 
ATOM     79  C   UNL     1     -10.723  -8.852  -0.444  1.00  0.00     0.135 A 
ATOM     80  F   UNL     1     -12.453  -5.650  -0.354  1.00  0.00    -0.206 F 
ATOM     81  C   UNL     1     -13.161  -7.726  -1.192  1.00  0.00     0.059 A 
ATOM     82  C   UNL     1     -11.678  -9.647  -1.070  1.00  0.00     0.059 A 
ATOM     83  F   UNL     1      -9.557  -9.417  -0.095  1.00  0.00    -0.206 F 
ATOM     84  C   UNL     1     -12.897  -9.076  -1.433  1.00  0.00     0.060 A 
BRANCH  84  85
ATOM     85  S   UNL     1     -14.152 -10.072  -2.267  1.00  0.00     0.124 S 
ATOM     86  O   UNL     1     -15.091 -10.331  -1.180  1.00  0.00    -0.237 OA
ATOM     87  O   UNL     1     -14.627  -9.172  -3.313  1.00  0.00    -0.237 OA
ATOM     88  O   UNL     1     -13.402 -11.232  -2.740  1.00  0.00    -0.744 OA
ENDBRANCH  84  85
ENDBRANCH  52  77
ENDBRANCH  26  27
ENDBRANCH  19  21
ENDBRANCH  18  19
ENDBRANCH  17  18
ENDBRANCH   1  17
TORSDOF 17
