REMARK SMILES CCc1ccc(C(=O)[C@@H](Br)CC(=O)OCCOC(=O)c2ccc(-c3c4nc(c(-c5c(F)cc(S(=O)(=O)[O-])cc5F)c5ccc([nH]5)c(-c5c(F)cc(S(=O)(=O)[O-])cc5F)c5nc(c(-c6c(F)cc(S(=O)(=O)[O-])cc6F)c6ccc3[nH]6)C=C5)C=C4)cc2)cc1
REMARK SMILES IDX 15 1 14 2 12 3 13 4 11 5 9 6 10 7 7 8 8 9 6 10 3 11 4 12
REMARK SMILES IDX 87 13 5 14 86 15 2 16 1 17 16 18 17 19 18 20 19 21 20 22
REMARK SMILES IDX 21 23 85 24 22 25 84 26 23 27 24 28 25 29 78 30 26 31 83 32
REMARK SMILES IDX 77 33 79 34 27 35 82 36 76 37 75 38 28 40 62 41 41 42 61 43
REMARK SMILES IDX 42 44 45 45 60 46 80 47 43 48 44 49 59 51 81 52 46 53 29 54
REMARK SMILES IDX 30 55 39 56 31 57 32 58 38 59 40 60 33 61 34 62 35 63 36 64
REMARK SMILES IDX 37 65 63 66 64 67 73 68 65 69 66 70 72 71 74 72 67 73 68 74
REMARK SMILES IDX 69 75 70 76 71 77 47 78 48 79 57 80 49 81 50 82 56 83 58 84
REMARK SMILES IDX 51 85 52 86 53 87 54 88 55 89
REMARK H PARENT 79 39 45 50
REMARK Flexibility Score: inf
ROOT
ATOM      1  C   UNL     1       5.536   6.185  -2.979  1.00  0.00     0.274 C 
ENDROOT
BRANCH   1   2
ATOM      2  O   UNL     1       4.112   5.985  -3.072  1.00  0.00    -0.462 OA
BRANCH   2   3
ATOM      3  C   UNL     1       3.343   6.862  -2.382  1.00  0.00     0.307 C 
ATOM      4  O   UNL     1       3.772   7.745  -1.649  1.00  0.00    -0.252 OA
BRANCH   3   5
ATOM      5  C   UNL     1       1.867   6.599  -2.538  1.00  0.00     0.146 C 
BRANCH   5   6
ATOM      6  C   UNL     1       1.495   5.997  -3.884  1.00  0.00     0.140 C 
ATOM      7  Br  UNL     1      -0.360   6.444  -4.346  1.00  0.00    -0.080 Br
BRANCH   6   8
ATOM      8  C   UNL     1       1.619   4.486  -4.028  1.00  0.00     0.177 C 
ATOM      9  O   UNL     1       2.012   3.977  -5.081  1.00  0.00    -0.293 OA
BRANCH   8  10
ATOM     10  C   UNL     1       1.296   3.562  -2.903  1.00  0.00     0.019 A 
ATOM     11  C   UNL     1       0.829   1.742  -0.795  1.00  0.00    -0.048 A 
ATOM     12  C   UNL     1       1.812   1.482  -1.757  1.00  0.00     0.004 A 
ATOM     13  C   UNL     1       0.080   2.923  -0.909  1.00  0.00     0.004 A 
ATOM     14  C   UNL     1       2.039   2.380  -2.804  1.00  0.00     0.012 A 
ATOM     15  C   UNL     1       0.296   3.816  -1.962  1.00  0.00     0.012 A 
BRANCH  11  16
ATOM     16  C   UNL     1       0.563   0.838   0.386  1.00  0.00     0.032 C 
ATOM     17  C   UNL     1       1.029  -0.605   0.246  1.00  0.00     0.009 C 
ENDBRANCH  11  16
ENDBRANCH   8  10
ENDBRANCH   6   8
ENDBRANCH   5   6
ENDBRANCH   3   5
ENDBRANCH   2   3
ENDBRANCH   1   2
BRANCH   1  18
ATOM     18  C   UNL     1       6.083   6.957  -4.183  1.00  0.00     0.275 C 
BRANCH  18  19
ATOM     19  O   UNL     1       5.597   8.311  -4.215  1.00  0.00    -0.458 OA
BRANCH  19  20
ATOM     20  C   UNL     1       4.525   8.515  -5.017  1.00  0.00     0.338 C 
ATOM     21  O   UNL     1       3.960   7.690  -5.714  1.00  0.00    -0.246 OA
BRANCH  20  22
ATOM     22  C   UNL     1       4.014   9.880  -4.836  1.00  0.00     0.060 A 
ATOM     23  C   UNL     1       2.811  10.043  -4.147  1.00  0.00     0.016 A 
ATOM     24  C   UNL     1       4.648  10.970  -5.429  1.00  0.00     0.016 A 
ATOM     25  C   UNL     1       2.228  11.302  -4.048  1.00  0.00     0.010 A 
ATOM     26  C   UNL     1       4.065  12.238  -5.325  1.00  0.00     0.010 A 
ATOM     27  C   UNL     1       2.846  12.408  -4.644  1.00  0.00    -0.014 A 
BRANCH  27  28
ATOM     28  C   UNL     1       2.185  13.733  -4.591  1.00  0.00     0.031 A 
ATOM     29  C   UNL     1       1.532  14.292  -5.822  1.00  0.00     0.074 A 
ATOM     30  C   UNL     1       2.152  14.418  -3.432  1.00  0.00     0.049 A 
ATOM     31  N   UNL     1       0.995  15.469  -6.010  1.00  0.00    -0.248 NA
ATOM     32  C   UNL     1       1.476  13.409  -6.998  1.00  0.00     0.031 C 
ATOM     33  C   UNL     1       2.709  13.952  -2.161  1.00  0.00     0.029 A 
ATOM     34  N   UNL     1       1.630  15.651  -3.137  1.00  0.00    -0.354 N 
ATOM     35  C   UNL     1       0.563  15.482  -7.330  1.00  0.00     0.074 A 
ATOM     36  C   UNL     1       0.904  14.195  -7.899  1.00  0.00     0.031 C 
ATOM     37  C   UNL     1       2.498  14.888  -1.221  1.00  0.00     0.029 A 
ATOM     38  C   UNL     1       1.836  16.036  -1.834  1.00  0.00     0.049 A 
ATOM     39  H   UNL     1       1.154  16.207  -3.795  1.00  0.00     0.167 HD
ATOM     40  C   UNL     1      -0.058  16.479  -8.004  1.00  0.00     0.037 A 
ATOM     41  C   UNL     1       1.551  17.197  -1.213  1.00  0.00     0.037 A 
ATOM     42  C   UNL     1      -0.413  17.747  -7.423  1.00  0.00     0.049 A 
ATOM     43  C   UNL     1       0.891  18.302  -1.991  1.00  0.00     0.074 A 
ATOM     44  C   UNL     1      -1.042  18.825  -8.022  1.00  0.00     0.029 A 
ATOM     45  N   UNL     1      -0.175  18.106  -6.104  1.00  0.00    -0.354 N 
ATOM     46  N   UNL     1       0.519  18.313  -3.249  1.00  0.00    -0.248 NA
ATOM     47  C   UNL     1       0.622  19.554  -1.271  1.00  0.00     0.031 C 
ATOM     48  C   UNL     1      -1.162  19.846  -7.071  1.00  0.00     0.029 A 
ATOM     49  C   UNL     1      -0.637  19.391  -5.872  1.00  0.00     0.049 A 
ATOM     50  H   UNL     1       0.257  17.532  -5.432  1.00  0.00     0.167 HD
ATOM     51  C   UNL     1      -0.039  19.567  -3.468  1.00  0.00     0.074 A 
ATOM     52  C   UNL     1       0.031  20.282  -2.210  1.00  0.00     0.031 C 
ATOM     53  C   UNL     1      -0.561  20.081  -4.609  1.00  0.00     0.037 A 
BRANCH  40  54
ATOM     54  C   UNL     1      -0.363  16.248  -9.456  1.00  0.00     0.058 A 
ATOM     55  C   UNL     1      -1.421  15.423  -9.868  1.00  0.00     0.135 A 
ATOM     56  C   UNL     1       0.399  16.884 -10.450  1.00  0.00     0.135 A 
ATOM     57  F   UNL     1      -2.168  14.778  -8.958  1.00  0.00    -0.206 F 
ATOM     58  C   UNL     1      -1.699  15.217 -11.216  1.00  0.00     0.059 A 
ATOM     59  C   UNL     1       0.126  16.708 -11.803  1.00  0.00     0.059 A 
ATOM     60  F   UNL     1       1.423  17.681 -10.109  1.00  0.00    -0.206 F 
ATOM     61  C   UNL     1      -0.916  15.861 -12.177  1.00  0.00     0.060 A 
BRANCH  61  62
ATOM     62  S   UNL     1      -1.285  15.589 -13.923  1.00  0.00     0.124 S 
ATOM     63  O   UNL     1      -0.712  14.264 -14.137  1.00  0.00    -0.237 OA
ATOM     64  O   UNL     1      -2.742  15.662 -13.954  1.00  0.00    -0.237 OA
ATOM     65  O   UNL     1      -0.593  16.687 -14.591  1.00  0.00    -0.744 OA
ENDBRANCH  61  62
ENDBRANCH  40  54
BRANCH  41  66
ATOM     66  C   UNL     1       1.916  17.380   0.215  1.00  0.00     0.058 A 
ATOM     67  C   UNL     1       0.934  17.408   1.216  1.00  0.00     0.135 A 
ATOM     68  C   UNL     1       3.257  17.509   0.609  1.00  0.00     0.135 A 
ATOM     69  F   UNL     1      -0.362  17.297   0.887  1.00  0.00    -0.206 F 
ATOM     70  C   UNL     1       1.267  17.564   2.558  1.00  0.00     0.059 A 
ATOM     71  C   UNL     1       3.616  17.644   1.945  1.00  0.00     0.059 A 
ATOM     72  F   UNL     1       4.234  17.477  -0.311  1.00  0.00    -0.206 F 
ATOM     73  C   UNL     1       2.613  17.679   2.913  1.00  0.00     0.060 A 
BRANCH  73  74
ATOM     74  S   UNL     1       3.046  17.820   4.661  1.00  0.00     0.124 S 
ATOM     75  O   UNL     1       2.759  19.225   4.921  1.00  0.00    -0.237 OA
ATOM     76  O   UNL     1       2.142  16.857   5.284  1.00  0.00    -0.237 OA
ATOM     77  O   UNL     1       4.457  17.446   4.685  1.00  0.00    -0.744 OA
ENDBRANCH  73  74
ENDBRANCH  41  66
BRANCH  53  78
ATOM     78  C   UNL     1      -1.119  21.473  -4.541  1.00  0.00     0.058 A 
ATOM     79  C   UNL     1      -0.280  22.598  -4.534  1.00  0.00     0.135 A 
ATOM     80  C   UNL     1      -2.506  21.683  -4.530  1.00  0.00     0.135 A 
ATOM     81  F   UNL     1       1.053  22.447  -4.537  1.00  0.00    -0.206 F 
ATOM     82  C   UNL     1      -0.800  23.888  -4.503  1.00  0.00     0.059 A 
ATOM     83  C   UNL     1      -3.047  22.965  -4.517  1.00  0.00     0.059 A 
ATOM     84  F   UNL     1      -3.349  20.638  -4.543  1.00  0.00    -0.206 F 
ATOM     85  C   UNL     1      -2.186  24.061  -4.493  1.00  0.00     0.060 A 
BRANCH  85  86
ATOM     86  S   UNL     1      -2.853  25.738  -4.486  1.00  0.00     0.124 S 
ATOM     87  O   UNL     1      -2.692  26.112  -3.085  1.00  0.00    -0.237 OA
ATOM     88  O   UNL     1      -1.981  26.430  -5.430  1.00  0.00    -0.237 OA
ATOM     89  O   UNL     1      -4.230  25.556  -4.934  1.00  0.00    -0.744 OA
ENDBRANCH  85  86
ENDBRANCH  53  78
ENDBRANCH  27  28
ENDBRANCH  20  22
ENDBRANCH  19  20
ENDBRANCH  18  19
ENDBRANCH   1  18
TORSDOF 18
