REMARK SMILES O=C(C[C@@H]1COCCN1C(=O)c1csc(Cc2ccccc2)n1)OCCOC(=O)c1ccc(-c2c3nc(c(-c4c(F)cc(S(=O)(=O)[O-])cc4F)c4ccc([nH]4)c(-c4c(F)cc(S(=O)(=O)[O-])cc4F)c4nc(c(-c5c(F)cc(S(=O)(=O)[O-])cc5F)c5ccc2[nH]5)C=C4)C=C3)cc1
REMARK SMILES IDX 25 1 24 2 2 3 1 4 3 5 4 6 5 7 9 8 6 9 8 10 7 11 10 12 11 13
REMARK SMILES IDX 12 14 13 15 23 16 14 17 15 18 16 19 17 20 18 21 22 22 19 23
REMARK SMILES IDX 21 24 20 25 26 26 27 27 28 28 29 29 30 30 31 31 95 32 32 33
REMARK SMILES IDX 94 34 33 35 34 36 35 37 88 38 36 39 93 40 87 41 89 42 37 43
REMARK SMILES IDX 92 44 86 45 85 46 38 48 72 49 51 50 71 51 52 52 55 53 70 54
REMARK SMILES IDX 90 55 53 56 54 57 69 59 91 60 56 61 39 62 40 63 49 64 41 65
REMARK SMILES IDX 42 66 48 67 50 68 43 69 44 70 45 71 46 72 47 73 73 74 74 75
REMARK SMILES IDX 83 76 75 77 76 78 82 79 84 80 77 81 78 82 79 83 80 84 81 85
REMARK SMILES IDX 57 86 58 87 67 88 59 89 60 90 66 91 68 92 61 93 62 94 63 95
REMARK SMILES IDX 64 96 65 97
REMARK H PARENT 89 47 55 58
REMARK Flexibility Score: inf
ROOT
ATOM      1  C   UNL     1       3.616  -1.285   1.104  1.00  0.00     0.274 C 
ENDROOT
BRANCH   1   2
ATOM      2  O   UNL     1       3.047  -0.372   2.054  1.00  0.00    -0.462 OA
BRANCH   2   3
ATOM      3  C   UNL     1       2.317   0.641   1.558  1.00  0.00     0.308 C 
ATOM      4  O   UNL     1       1.097   0.669   1.704  1.00  0.00    -0.252 OA
BRANCH   3   5
ATOM      5  C   UNL     1       3.058   1.758   0.861  1.00  0.00     0.150 C 
BRANCH   5   6
ATOM      6  C   UNL     1       4.564   1.972   0.955  1.00  0.00     0.122 C 
ATOM      7  C   UNL     1       4.856   3.456   0.599  1.00  0.00     0.185 C 
ATOM      8  N   UNL     1       5.736   1.161   0.413  1.00  0.00    -0.329 N 
ATOM      9  O   UNL     1       6.024   3.888   1.312  1.00  0.00    -0.377 OA
ATOM     10  C   UNL     1       6.913   1.588   1.207  1.00  0.00     0.148 C 
ATOM     11  C   UNL     1       7.174   3.095   0.979  1.00  0.00     0.181 C 
BRANCH   8  12
ATOM     12  C   UNL     1       6.167   0.827  -0.927  1.00  0.00     0.273 C 
ATOM     13  O   UNL     1       7.322   1.111  -1.267  1.00  0.00    -0.267 OA
BRANCH  12  14
ATOM     14  C   UNL     1       5.449  -0.075  -1.854  1.00  0.00     0.139 A 
ATOM     15  C   UNL     1       5.800  -1.408  -2.030  1.00  0.00     0.101 A 
ATOM     16  N   UNL     1       4.702   0.397  -2.934  1.00  0.00    -0.236 NA
ATOM     17  S   UNL     1       4.994  -2.095  -3.391  1.00  0.00    -0.126 S 
ATOM     18  C   UNL     1       4.296  -0.568  -3.742  1.00  0.00     0.098 A 
BRANCH  18  19
ATOM     19  C   UNL     1       3.198  -0.378  -4.768  1.00  0.00     0.103 C 
BRANCH  19  20
ATOM     20  C   UNL     1       3.364  -1.012  -6.128  1.00  0.00    -0.041 A 
ATOM     21  C   UNL     1       4.003  -0.320  -7.165  1.00  0.00     0.004 A 
ATOM     22  C   UNL     1       2.794  -2.266  -6.400  1.00  0.00     0.004 A 
ATOM     23  C   UNL     1       4.076  -0.873  -8.445  1.00  0.00     0.000 A 
ATOM     24  C   UNL     1       2.873  -2.819  -7.679  1.00  0.00     0.000 A 
ATOM     25  C   UNL     1       3.515  -2.123  -8.701  1.00  0.00     0.000 A 
ENDBRANCH  19  20
ENDBRANCH  18  19
ENDBRANCH  12  14
ENDBRANCH   8  12
ENDBRANCH   5   6
ENDBRANCH   3   5
ENDBRANCH   2   3
ENDBRANCH   1   2
BRANCH   1  26
ATOM     26  C   UNL     1       2.811  -1.496  -0.192  1.00  0.00     0.275 C 
BRANCH  26  27
ATOM     27  O   UNL     1       2.693  -0.258  -0.930  1.00  0.00    -0.458 OA
BRANCH  27  28
ATOM     28  C   UNL     1       1.588  -0.114  -1.715  1.00  0.00     0.338 C 
ATOM     29  O   UNL     1       0.810  -1.003  -1.980  1.00  0.00    -0.246 OA
BRANCH  28  30
ATOM     30  C   UNL     1       1.388   1.311  -2.167  1.00  0.00     0.060 A 
ATOM     31  C   UNL     1       0.082   1.794  -2.232  1.00  0.00     0.016 A 
ATOM     32  C   UNL     1       2.427   2.193  -2.502  1.00  0.00     0.016 A 
ATOM     33  C   UNL     1      -0.171   3.113  -2.645  1.00  0.00     0.010 A 
ATOM     34  C   UNL     1       2.185   3.485  -2.967  1.00  0.00     0.010 A 
ATOM     35  C   UNL     1       0.878   3.958  -3.035  1.00  0.00    -0.014 A 
BRANCH  35  36
ATOM     36  C   UNL     1       0.633   5.346  -3.484  1.00  0.00     0.031 A 
ATOM     37  C   UNL     1       0.174   5.616  -4.886  1.00  0.00     0.074 A 
ATOM     38  C   UNL     1       0.892   6.369  -2.647  1.00  0.00     0.049 A 
ATOM     39  N   UNL     1      -0.215   6.745  -5.418  1.00  0.00    -0.248 NA
ATOM     40  C   UNL     1       0.162   4.475  -5.815  1.00  0.00     0.031 C 
ATOM     41  C   UNL     1       1.430   6.238  -1.291  1.00  0.00     0.029 A 
ATOM     42  N   UNL     1       0.758   7.722  -2.824  1.00  0.00    -0.354 N 
ATOM     43  C   UNL     1      -0.567   6.446  -6.728  1.00  0.00     0.074 A 
ATOM     44  C   UNL     1      -0.292   5.038  -6.928  1.00  0.00     0.031 C 
ATOM     45  C   UNL     1       1.603   7.464  -0.769  1.00  0.00     0.029 A 
ATOM     46  C   UNL     1       1.165   8.463  -1.740  1.00  0.00     0.049 A 
ATOM     47  H   UNL     1       0.404   8.126  -3.649  1.00  0.00     0.167 HD
ATOM     48  C   UNL     1      -1.091   7.272  -7.664  1.00  0.00     0.037 A 
ATOM     49  C   UNL     1       1.169   9.796  -1.547  1.00  0.00     0.037 A 
ATOM     50  C   UNL     1      -1.321   8.680  -7.462  1.00  0.00     0.049 A 
ATOM     51  C   UNL     1       0.596  10.695  -2.609  1.00  0.00     0.074 A 
ATOM     52  C   UNL     1      -1.938   9.582  -8.312  1.00  0.00     0.029 A 
ATOM     53  N   UNL     1      -0.911   9.399  -6.348  1.00  0.00    -0.354 N 
ATOM     54  N   UNL     1       0.090  10.373  -3.776  1.00  0.00    -0.248 NA
ATOM     55  C   UNL     1       0.569  12.135  -2.318  1.00  0.00     0.031 C 
ATOM     56  C   UNL     1      -1.852  10.855  -7.737  1.00  0.00     0.029 A 
ATOM     57  C   UNL     1      -1.224  10.739  -6.508  1.00  0.00     0.049 A 
ATOM     58  H   UNL     1      -0.464   9.013  -5.561  1.00  0.00     0.167 HD
ATOM     59  C   UNL     1      -0.337  11.567  -4.347  1.00  0.00     0.074 A 
ATOM     60  C   UNL     1      -0.045  12.615  -3.391  1.00  0.00     0.031 C 
ATOM     61  C   UNL     1      -0.921  11.776  -5.553  1.00  0.00     0.037 A 
BRANCH  48  62
ATOM     62  C   UNL     1      -1.484   6.682  -8.989  1.00  0.00     0.058 A 
ATOM     63  C   UNL     1      -2.628   5.877  -9.111  1.00  0.00     0.135 A 
ATOM     64  C   UNL     1      -0.784   7.010 -10.160  1.00  0.00     0.135 A 
ATOM     65  F   UNL     1      -3.329   5.526  -8.021  1.00  0.00    -0.206 F 
ATOM     66  C   UNL     1      -3.064   5.416 -10.349  1.00  0.00     0.059 A 
ATOM     67  C   UNL     1      -1.213   6.576 -11.412  1.00  0.00     0.059 A 
ATOM     68  F   UNL     1       0.316   7.775 -10.098  1.00  0.00    -0.206 F 
ATOM     69  C   UNL     1      -2.354   5.777 -11.496  1.00  0.00     0.060 A 
BRANCH  69  70
ATOM     70  S   UNL     1      -2.965   5.213 -13.098  1.00  0.00     0.124 S 
ATOM     71  O   UNL     1      -2.644   3.790 -13.049  1.00  0.00    -0.237 OA
ATOM     72  O   UNL     1      -4.384   5.545 -13.025  1.00  0.00    -0.237 OA
ATOM     73  O   UNL     1      -2.190   5.998 -14.055  1.00  0.00    -0.744 OA
ENDBRANCH  69  70
ENDBRANCH  48  62
BRANCH  49  74
ATOM     74  C   UNL     1       1.702  10.361  -0.281  1.00  0.00     0.058 A 
ATOM     75  C   UNL     1       0.847  10.924   0.677  1.00  0.00     0.135 A 
ATOM     76  C   UNL     1       3.079  10.361  -0.013  1.00  0.00     0.135 A 
ATOM     77  F   UNL     1      -0.477  10.948   0.462  1.00  0.00    -0.206 F 
ATOM     78  C   UNL     1       1.340  11.496   1.845  1.00  0.00     0.059 A 
ATOM     79  C   UNL     1       3.595  10.906   1.158  1.00  0.00     0.059 A 
ATOM     80  F   UNL     1       3.935   9.815  -0.891  1.00  0.00    -0.206 F 
ATOM     81  C   UNL     1       2.717  11.487   2.074  1.00  0.00     0.060 A 
BRANCH  81  82
ATOM     82  S   UNL     1       3.347  12.219   3.600  1.00  0.00     0.124 S 
ATOM     83  O   UNL     1       3.220  13.643   3.315  1.00  0.00    -0.237 OA
ATOM     84  O   UNL     1       2.428  11.683   4.600  1.00  0.00    -0.237 OA
ATOM     85  O   UNL     1       4.712  11.708   3.677  1.00  0.00    -0.744 OA
ENDBRANCH  81  82
ENDBRANCH  49  74
BRANCH  61  86
ATOM     86  C   UNL     1      -1.290  13.190  -5.906  1.00  0.00     0.058 A 
ATOM     87  C   UNL     1      -0.313  14.142  -6.239  1.00  0.00     0.135 A 
ATOM     88  C   UNL     1      -2.636  13.588  -5.954  1.00  0.00     0.135 A 
ATOM     89  F   UNL     1       0.989  13.815  -6.201  1.00  0.00    -0.206 F 
ATOM     90  C   UNL     1      -0.656  15.445  -6.583  1.00  0.00     0.059 A 
ATOM     91  C   UNL     1      -3.003  14.879  -6.322  1.00  0.00     0.059 A 
ATOM     92  F   UNL     1      -3.611  12.715  -5.654  1.00  0.00    -0.206 F 
ATOM     93  C   UNL     1      -2.004  15.805  -6.623  1.00  0.00     0.060 A 
BRANCH  93  94
ATOM     94  S   UNL     1      -2.437  17.491  -7.103  1.00  0.00     0.124 S 
ATOM     95  O   UNL     1      -2.087  18.238  -5.899  1.00  0.00    -0.237 OA
ATOM     96  O   UNL     1      -1.579  17.718  -8.262  1.00  0.00    -0.237 OA
ATOM     97  O   UNL     1      -3.865  17.404  -7.396  1.00  0.00    -0.744 OA
ENDBRANCH  93  94
ENDBRANCH  61  86
ENDBRANCH  35  36
ENDBRANCH  28  30
ENDBRANCH  27  28
ENDBRANCH  26  27
ENDBRANCH   1  26
TORSDOF 19
